MODEL 1
REMARK VINA RESULT:    -4.162      0.000      0.000
REMARK INTER + INTRA:          -4.977
REMARK INTER:                  -4.892
REMARK INTRA:                  -0.085
REMARK UNBOUND:                -0.085
REMARK SMILES O=C([O-])CCC(=O)[O-]
REMARK SMILES IDX 4 1 2 2 1 3 3 4 5 5 6 6 7 7 8 8
REMARK H PARENT
REMARK Flexibility Score: inf
ROOT
ATOM      1  C   UNL     1      29.544  25.911  31.435  1.00  0.00     0.059 C 
ENDROOT
BRANCH   1   2
ATOM      2  C   UNL     1      29.270  27.031  32.392  1.00  0.00     0.042 C 
ATOM      3  O   UNL     1      28.328  26.939  33.223  1.00  0.00    -0.550 OA
ATOM      4  O   UNL     1      30.079  28.160  32.392  1.00  0.00    -0.550 OA
ENDBRANCH   1   2
BRANCH   1   5
ATOM      5  C   UNL     1      28.994  24.578  31.955  1.00  0.00     0.059 C 
BRANCH   5   6
ATOM      6  C   UNL     1      30.098  23.639  32.337  1.00  0.00     0.042 C 
ATOM      7  O   UNL     1      31.222  24.088  32.681  1.00  0.00    -0.550 OA
ATOM      8  O   UNL     1      29.894  22.266  32.276  1.00  0.00    -0.550 OA
ENDBRANCH   5   6
ENDBRANCH   1   5
TORSDOF 3
ENDMDL
MODEL 2
REMARK VINA RESULT:    -4.135      0.534      3.820
REMARK INTER + INTRA:          -4.945
REMARK INTER:                  -4.849
REMARK INTRA:                  -0.096
REMARK UNBOUND:                -0.085
REMARK SMILES O=C([O-])CCC(=O)[O-]
REMARK SMILES IDX 4 1 2 2 1 3 3 4 5 5 6 6 7 7 8 8
REMARK H PARENT
REMARK Flexibility Score: inf
ROOT
ATOM      1  C   UNL     1      28.791  24.728  31.811  1.00  0.00     0.059 C 
ENDROOT
BRANCH   1   2
ATOM      2  C   UNL     1      29.658  23.782  32.586  1.00  0.00     0.042 C 
ATOM      3  O   UNL     1      29.141  22.828  33.226  1.00  0.00    -0.550 OA
ATOM      4  O   UNL     1      31.038  23.931  32.570  1.00  0.00    -0.550 OA
ENDBRANCH   1   2
BRANCH   1   5
ATOM      5  C   UNL     1      29.552  26.001  31.423  1.00  0.00     0.059 C 
BRANCH   5   6
ATOM      6  C   UNL     1      29.343  27.095  32.425  1.00  0.00     0.042 C 
ATOM      7  O   UNL     1      28.351  27.064  33.200  1.00  0.00    -0.550 OA
ATOM      8  O   UNL     1      30.224  28.168  32.477  1.00  0.00    -0.550 OA
ENDBRANCH   5   6
ENDBRANCH   1   5
TORSDOF 3
ENDMDL
MODEL 3
REMARK VINA RESULT:    -4.132      0.573      1.165
REMARK INTER + INTRA:          -4.942
REMARK INTER:                  -4.846
REMARK INTRA:                  -0.096
REMARK UNBOUND:                -0.085
REMARK SMILES O=C([O-])CCC(=O)[O-]
REMARK SMILES IDX 4 1 2 2 1 3 3 4 5 5 6 6 7 7 8 8
REMARK H PARENT
REMARK Flexibility Score: inf
ROOT
ATOM      1  C   UNL     1      29.575  26.003  31.411  1.00  0.00     0.059 C 
ENDROOT
BRANCH   1   2
ATOM      2  C   UNL     1      29.338  27.102  32.402  1.00  0.00     0.042 C 
ATOM      3  O   UNL     1      28.355  27.045  33.188  1.00  0.00    -0.550 OA
ATOM      4  O   UNL     1      30.223  28.168  32.483  1.00  0.00    -0.550 OA
ENDBRANCH   1   2
BRANCH   1   5
ATOM      5  C   UNL     1      28.793  24.736  31.776  1.00  0.00     0.059 C 
BRANCH   5   6
ATOM      6  C   UNL     1      29.628  23.786  32.579  1.00  0.00     0.042 C 
ATOM      7  O   UNL     1      29.080  22.898  33.284  1.00  0.00    -0.550 OA
ATOM      8  O   UNL     1      31.013  23.905  32.578  1.00  0.00    -0.550 OA
ENDBRANCH   5   6
ENDBRANCH   1   5
TORSDOF 3
ENDMDL
MODEL 4
REMARK VINA RESULT:    -4.104      2.235      3.604
REMARK INTER + INTRA:          -4.909
REMARK INTER:                  -4.792
REMARK INTRA:                  -0.117
REMARK UNBOUND:                -0.085
REMARK SMILES O=C([O-])CCC(=O)[O-]
REMARK SMILES IDX 4 1 2 2 1 3 3 4 5 5 6 6 7 7 8 8
REMARK H PARENT
REMARK Flexibility Score: inf
ROOT
ATOM      1  C   UNL     1      28.184  24.718  33.483  1.00  0.00     0.059 C 
ENDROOT
BRANCH   1   2
ATOM      2  C   UNL     1      26.989  25.056  34.322  1.00  0.00     0.042 C 
ATOM      3  O   UNL     1      25.990  24.289  34.339  1.00  0.00    -0.550 OA
ATOM      4  O   UNL     1      26.995  26.197  35.114  1.00  0.00    -0.550 OA
ENDBRANCH   1   2
BRANCH   1   5
ATOM      5  C   UNL     1      28.148  25.442  32.132  1.00  0.00     0.059 C 
BRANCH   5   6
ATOM      6  C   UNL     1      29.092  26.605  32.106  1.00  0.00     0.042 C 
ATOM      7  O   UNL     1      28.820  27.658  32.740  1.00  0.00    -0.550 OA
ATOM      8  O   UNL     1      30.256  26.539  31.349  1.00  0.00    -0.550 OA
ENDBRANCH   5   6
ENDBRANCH   1   5
TORSDOF 3
ENDMDL
MODEL 5
REMARK VINA RESULT:    -4.098      2.183      3.182
REMARK INTER + INTRA:          -4.901
REMARK INTER:                  -4.855
REMARK INTRA:                  -0.047
REMARK UNBOUND:                -0.085
REMARK SMILES O=C([O-])CCC(=O)[O-]
REMARK SMILES IDX 4 1 2 2 1 3 3 4 5 5 6 6 7 7 8 8
REMARK H PARENT
REMARK Flexibility Score: inf
ROOT
ATOM      1  C   UNL     1      28.433  25.379  31.849  1.00  0.00     0.059 C 
ENDROOT
BRANCH   1   2
ATOM      2  C   UNL     1      29.278  26.606  32.011  1.00  0.00     0.042 C 
ATOM      3  O   UNL     1      30.463  26.621  31.585  1.00  0.00    -0.550 OA
ATOM      4  O   UNL     1      28.744  27.746  32.598  1.00  0.00    -0.550 OA
ENDBRANCH   1   2
BRANCH   1   5
ATOM      5  C   UNL     1      28.315  24.598  33.163  1.00  0.00     0.059 C 
BRANCH   5   6
ATOM      6  C   UNL     1      27.350  25.249  34.106  1.00  0.00     0.042 C 
ATOM      7  O   UNL     1      26.145  25.401  33.777  1.00  0.00    -0.550 OA
ATOM      8  O   UNL     1      27.793  25.724  35.335  1.00  0.00    -0.550 OA
ENDBRANCH   5   6
ENDBRANCH   1   5
TORSDOF 3
ENDMDL
MODEL 6
REMARK VINA RESULT:    -3.594      3.357      4.398
REMARK INTER + INTRA:          -4.309
REMARK INTER:                  -4.198
REMARK INTRA:                  -0.111
REMARK UNBOUND:                -0.085
REMARK SMILES O=C([O-])CCC(=O)[O-]
REMARK SMILES IDX 4 1 2 2 1 3 3 4 5 5 6 6 7 7 8 8
REMARK H PARENT
REMARK Flexibility Score: inf
ROOT
ATOM      1  C   UNL     1      27.488  24.620  33.867  1.00  0.00     0.059 C 
ENDROOT
BRANCH   1   2
ATOM      2  C   UNL     1      28.038  25.590  32.866  1.00  0.00     0.042 C 
ATOM      3  O   UNL     1      28.255  25.222  31.681  1.00  0.00    -0.550 OA
ATOM      4  O   UNL     1      28.274  26.909  33.231  1.00  0.00    -0.550 OA
ENDBRANCH   1   2
BRANCH   1   5
ATOM      5  C   UNL     1      26.099  25.044  34.358  1.00  0.00     0.059 C 
BRANCH   5   6
ATOM      6  C   UNL     1      26.110  25.380  35.818  1.00  0.00     0.042 C 
ATOM      7  O   UNL     1      26.326  26.562  36.196  1.00  0.00    -0.550 OA
ATOM      8  O   UNL     1      25.921  24.380  36.764  1.00  0.00    -0.550 OA
ENDBRANCH   5   6
ENDBRANCH   1   5
TORSDOF 3
ENDMDL
MODEL 7
REMARK VINA RESULT:    -3.582      1.994      3.444
REMARK INTER + INTRA:          -4.295
REMARK INTER:                  -4.133
REMARK INTRA:                  -0.162
REMARK UNBOUND:                -0.085
REMARK SMILES O=C([O-])CCC(=O)[O-]
REMARK SMILES IDX 4 1 2 2 1 3 3 4 5 5 6 6 7 7 8 8
REMARK H PARENT
REMARK Flexibility Score: inf
ROOT
ATOM      1  C   UNL     1      30.357  24.757  32.481  1.00  0.00     0.059 C 
ENDROOT
BRANCH   1   2
ATOM      2  C   UNL     1      28.985  24.895  31.893  1.00  0.00     0.042 C 
ATOM      3  O   UNL     1      27.974  24.930  32.644  1.00  0.00    -0.550 OA
ATOM      4  O   UNL     1      28.827  25.025  30.519  1.00  0.00    -0.550 OA
ENDBRANCH   1   2
BRANCH   1   5
ATOM      5  C   UNL     1      31.175  26.042  32.312  1.00  0.00     0.059 C 
BRANCH   5   6
ATOM      6  C   UNL     1      30.560  27.188  33.057  1.00  0.00     0.042 C 
ATOM      7  O   UNL     1      30.126  28.191  32.432  1.00  0.00    -0.550 OA
ATOM      8  O   UNL     1      30.502  27.163  34.445  1.00  0.00    -0.550 OA
ENDBRANCH   5   6
ENDBRANCH   1   5
TORSDOF 3
ENDMDL
MODEL 8
REMARK VINA RESULT:    -3.576      4.961      5.555
REMARK INTER + INTRA:          -4.289
REMARK INTER:                  -4.233
REMARK INTRA:                  -0.056
REMARK UNBOUND:                -0.085
REMARK SMILES O=C([O-])CCC(=O)[O-]
REMARK SMILES IDX 4 1 2 2 1 3 3 4 5 5 6 6 7 7 8 8
REMARK H PARENT
REMARK Flexibility Score: inf
ROOT
ATOM      1  C   UNL     1      26.288  24.124  34.809  1.00  0.00     0.059 C 
ENDROOT
BRANCH   1   2
ATOM      2  C   UNL     1      26.739  25.546  34.958  1.00  0.00     0.042 C 
ATOM      3  O   UNL     1      26.334  26.241  35.927  1.00  0.00    -0.550 OA
ATOM      4  O   UNL     1      27.635  26.090  34.047  1.00  0.00    -0.550 OA
ENDBRANCH   1   2
BRANCH   1   5
ATOM      5  C   UNL     1      24.761  24.022  34.735  1.00  0.00     0.059 C 
BRANCH   5   6
ATOM      6  C   UNL     1      24.249  22.847  35.511  1.00  0.00     0.042 C 
ATOM      7  O   UNL     1      24.080  22.934  36.756  1.00  0.00    -0.550 OA
ATOM      8  O   UNL     1      23.996  21.643  34.865  1.00  0.00    -0.550 OA
ENDBRANCH   5   6
ENDBRANCH   1   5
TORSDOF 3
ENDMDL
MODEL 9
REMARK VINA RESULT:    -3.565      4.978      6.328
REMARK INTER + INTRA:          -4.276
REMARK INTER:                  -4.220
REMARK INTRA:                  -0.055
REMARK UNBOUND:                -0.085
REMARK SMILES O=C([O-])CCC(=O)[O-]
REMARK SMILES IDX 4 1 2 2 1 3 3 4 5 5 6 6 7 7 8 8
REMARK H PARENT
REMARK Flexibility Score: inf
ROOT
ATOM      1  C   UNL     1      24.763  24.092  34.774  1.00  0.00     0.059 C 
ENDROOT
BRANCH   1   2
ATOM      2  C   UNL     1      24.261  22.877  35.492  1.00  0.00     0.042 C 
ATOM      3  O   UNL     1      24.101  22.899  36.742  1.00  0.00    -0.550 OA
ATOM      4  O   UNL     1      23.933  21.732  34.777  1.00  0.00    -0.550 OA
ENDBRANCH   1   2
BRANCH   1   5
ATOM      5  C   UNL     1      26.295  24.153  34.772  1.00  0.00     0.059 C 
BRANCH   5   6
ATOM      6  C   UNL     1      26.791  25.546  35.021  1.00  0.00     0.042 C 
ATOM      7  O   UNL     1      27.718  26.024  34.316  1.00  0.00    -0.550 OA
ATOM      8  O   UNL     1      26.254  26.300  36.057  1.00  0.00    -0.550 OA
ENDBRANCH   5   6
ENDBRANCH   1   5
TORSDOF 3
ENDMDL
