MODEL 1
REMARK VINA RESULT:    -3.403      0.000      0.000
REMARK INTER + INTRA:         -10.767
REMARK INTER:                  -7.381
REMARK INTRA:                  -3.386
REMARK UNBOUND:                -3.386
REMARK SMILES CCCCCCCCCCCCCCCCCCCCCC(=O)[O-]
REMARK SMILES IDX 12 1 11 2 10 3 9 4 8 5 7 6 6 7 5 8 4 9 3 10 2 11 1 12 13 13
REMARK SMILES IDX 14 14 15 15 16 16 17 17 18 18 19 19 20 20 21 21 22 22 23 23
REMARK SMILES IDX 24 24
REMARK H PARENT
REMARK Flexibility Score: inf
ROOT
ATOM      1  C   UNL     1     152.902 151.852 159.572  1.00  0.00     0.000 C 
ENDROOT
BRANCH   1   2
ATOM      2  C   UNL     1     151.651 152.743 159.645  1.00  0.00     0.000 C 
BRANCH   2   3
ATOM      3  C   UNL     1     151.041 153.032 158.262  1.00  0.00     0.000 C 
BRANCH   3   4
ATOM      4  C   UNL     1     151.002 154.519 157.862  1.00  0.00    -0.000 C 
BRANCH   4   5
ATOM      5  C   UNL     1     151.909 155.398 158.737  1.00  0.00    -0.000 C 
BRANCH   5   6
ATOM      6  C   UNL     1     151.688 156.886 158.436  1.00  0.00    -0.000 C 
BRANCH   6   7
ATOM      7  C   UNL     1     152.439 157.818 159.404  1.00  0.00    -0.000 C 
BRANCH   7   8
ATOM      8  C   UNL     1     153.974 157.684 159.390  1.00  0.00    -0.000 C 
BRANCH   8   9
ATOM      9  C   UNL     1     154.674 158.673 160.337  1.00  0.00    -0.000 C 
BRANCH   9  10
ATOM     10  C   UNL     1     156.192 158.445 160.419  1.00  0.00    -0.000 C 
BRANCH  10  11
ATOM     11  C   UNL     1     156.784 157.744 159.178  1.00  0.00    -0.003 C 
ATOM     12  C   UNL     1     157.574 156.486 159.543  1.00  0.00     0.004 C 
ENDBRANCH  10  11
ENDBRANCH   9  10
ENDBRANCH   8   9
ENDBRANCH   7   8
ENDBRANCH   6   7
ENDBRANCH   5   6
ENDBRANCH   4   5
ENDBRANCH   3   4
ENDBRANCH   2   3
ENDBRANCH   1   2
BRANCH   1  13
ATOM     13  C   UNL     1     153.241 151.418 158.137  1.00  0.00     0.000 C 
BRANCH  13  14
ATOM     14  C   UNL     1     154.546 152.048 157.620  1.00  0.00     0.000 C 
BRANCH  14  15
ATOM     15  C   UNL     1     155.007 153.243 158.472  1.00  0.00     0.000 C 
BRANCH  15  16
ATOM     16  C   UNL     1     155.092 154.567 157.683  1.00  0.00     0.000 C 
BRANCH  16  17
ATOM     17  C   UNL     1     154.617 154.409 156.228  1.00  0.00     0.000 C 
BRANCH  17  18
ATOM     18  C   UNL     1     154.080 155.722 155.635  1.00  0.00     0.000 C 
BRANCH  18  19
ATOM     19  C   UNL     1     154.929 156.939 156.025  1.00  0.00     0.000 C 
BRANCH  19  20
ATOM     20  C   UNL     1     156.242 156.972 155.233  1.00  0.00     0.006 C 
BRANCH  20  21
ATOM     21  C   UNL     1     156.187 158.029 154.126  1.00  0.00     0.053 C 
BRANCH  21  22
ATOM     22  C   UNL     1     156.321 157.389 152.780  1.00  0.00     0.041 C 
ATOM     23  O   UNL     1     157.256 157.728 152.009  1.00  0.00    -0.550 OA
ATOM     24  O   UNL     1     155.398 156.436 152.366  1.00  0.00    -0.550 OA
ENDBRANCH  21  22
ENDBRANCH  20  21
ENDBRANCH  19  20
ENDBRANCH  18  19
ENDBRANCH  17  18
ENDBRANCH  16  17
ENDBRANCH  15  16
ENDBRANCH  14  15
ENDBRANCH  13  14
ENDBRANCH   1  13
TORSDOF 20
ENDMDL
MODEL 2
REMARK VINA RESULT:    -3.393      2.214      4.423
REMARK INTER + INTRA:         -10.745
REMARK INTER:                  -7.668
REMARK INTRA:                  -3.077
REMARK UNBOUND:                -3.386
REMARK SMILES CCCCCCCCCCCCCCCCCCCCCC(=O)[O-]
REMARK SMILES IDX 12 1 11 2 10 3 9 4 8 5 7 6 6 7 5 8 4 9 3 10 2 11 1 12 13 13
REMARK SMILES IDX 14 14 15 15 16 16 17 17 18 18 19 19 20 20 21 21 22 22 23 23
REMARK SMILES IDX 24 24
REMARK H PARENT
REMARK Flexibility Score: inf
ROOT
ATOM      1  C   UNL     1     151.631 154.193 158.986  1.00  0.00     0.000 C 
ENDROOT
BRANCH   1   2
ATOM      2  C   UNL     1     151.452 152.727 159.415  1.00  0.00     0.000 C 
BRANCH   2   3
ATOM      3  C   UNL     1     152.737 152.114 159.997  1.00  0.00     0.000 C 
BRANCH   3   4
ATOM      4  C   UNL     1     153.305 150.917 159.211  1.00  0.00    -0.000 C 
BRANCH   4   5
ATOM      5  C   UNL     1     153.502 151.222 157.718  1.00  0.00    -0.000 C 
BRANCH   5   6
ATOM      6  C   UNL     1     154.913 151.763 157.450  1.00  0.00    -0.000 C 
BRANCH   6   7
ATOM      7  C   UNL     1     154.954 153.295 157.299  1.00  0.00    -0.000 C 
BRANCH   7   8
ATOM      8  C   UNL     1     155.378 154.071 158.560  1.00  0.00    -0.000 C 
BRANCH   8   9
ATOM      9  C   UNL     1     154.924 155.540 158.545  1.00  0.00    -0.000 C 
BRANCH   9  10
ATOM     10  C   UNL     1     155.978 156.483 157.942  1.00  0.00    -0.000 C 
BRANCH  10  11
ATOM     11  C   UNL     1     157.390 156.300 158.537  1.00  0.00    -0.003 C 
ATOM     12  C   UNL     1     157.527 156.946 159.916  1.00  0.00     0.004 C 
ENDBRANCH  10  11
ENDBRANCH   9  10
ENDBRANCH   8   9
ENDBRANCH   7   8
ENDBRANCH   6   7
ENDBRANCH   5   6
ENDBRANCH   4   5
ENDBRANCH   3   4
ENDBRANCH   2   3
ENDBRANCH   1   2
BRANCH   1  13
ATOM     13  C   UNL     1     151.465 154.394 157.471  1.00  0.00     0.000 C 
BRANCH  13  14
ATOM     14  C   UNL     1     150.215 153.691 156.913  1.00  0.00     0.000 C 
BRANCH  14  15
ATOM     15  C   UNL     1     148.911 154.417 157.283  1.00  0.00     0.000 C 
BRANCH  15  16
ATOM     16  C   UNL     1     148.223 155.101 156.082  1.00  0.00     0.000 C 
BRANCH  16  17
ATOM     17  C   UNL     1     148.547 154.401 154.751  1.00  0.00     0.000 C 
BRANCH  17  18
ATOM     18  C   UNL     1     149.379 155.283 153.806  1.00  0.00     0.000 C 
BRANCH  18  19
ATOM     19  C   UNL     1     149.706 156.655 154.411  1.00  0.00     0.000 C 
BRANCH  19  20
ATOM     20  C   UNL     1     151.220 156.855 154.541  1.00  0.00     0.006 C 
BRANCH  20  21
ATOM     21  C   UNL     1     151.983 155.790 153.747  1.00  0.00     0.053 C 
BRANCH  21  22
ATOM     22  C   UNL     1     153.458 156.020 153.838  1.00  0.00     0.041 C 
ATOM     23  O   UNL     1     154.120 155.517 154.783  1.00  0.00    -0.550 OA
ATOM     24  O   UNL     1     154.100 156.812 152.893  1.00  0.00    -0.550 OA
ENDBRANCH  21  22
ENDBRANCH  20  21
ENDBRANCH  19  20
ENDBRANCH  18  19
ENDBRANCH  17  18
ENDBRANCH  16  17
ENDBRANCH  15  16
ENDBRANCH  14  15
ENDBRANCH  13  14
ENDBRANCH   1  13
TORSDOF 20
ENDMDL
MODEL 3
REMARK VINA RESULT:    -3.383      2.148      4.954
REMARK INTER + INTRA:         -10.724
REMARK INTER:                  -7.234
REMARK INTRA:                  -3.490
REMARK UNBOUND:                -3.386
REMARK SMILES CCCCCCCCCCCCCCCCCCCCCC(=O)[O-]
REMARK SMILES IDX 12 1 11 2 10 3 9 4 8 5 7 6 6 7 5 8 4 9 3 10 2 11 1 12 13 13
REMARK SMILES IDX 14 14 15 15 16 16 17 17 18 18 19 19 20 20 21 21 22 22 23 23
REMARK SMILES IDX 24 24
REMARK H PARENT
REMARK Flexibility Score: inf
ROOT
ATOM      1  C   UNL     1     151.038 152.750 158.161  1.00  0.00     0.000 C 
ENDROOT
BRANCH   1   2
ATOM      2  C   UNL     1     151.686 152.683 159.554  1.00  0.00     0.000 C 
BRANCH   2   3
ATOM      3  C   UNL     1     153.050 151.971 159.544  1.00  0.00     0.000 C 
BRANCH   3   4
ATOM      4  C   UNL     1     153.540 151.515 158.157  1.00  0.00    -0.000 C 
BRANCH   4   5
ATOM      5  C   UNL     1     154.911 152.101 157.785  1.00  0.00    -0.000 C 
BRANCH   5   6
ATOM      6  C   UNL     1     155.176 153.407 158.546  1.00  0.00    -0.000 C 
BRANCH   6   7
ATOM      7  C   UNL     1     154.623 154.650 157.825  1.00  0.00    -0.000 C 
BRANCH   7   8
ATOM      8  C   UNL     1     154.561 154.549 156.290  1.00  0.00    -0.000 C 
BRANCH   8   9
ATOM      9  C   UNL     1     154.988 155.846 155.582  1.00  0.00    -0.000 C 
BRANCH   9  10
ATOM     10  C   UNL     1     153.791 156.687 155.107  1.00  0.00    -0.000 C 
BRANCH  10  11
ATOM     11  C   UNL     1     152.917 155.983 154.047  1.00  0.00    -0.003 C 
ATOM     12  C   UNL     1     151.442 155.940 154.448  1.00  0.00     0.004 C 
ENDBRANCH  10  11
ENDBRANCH   9  10
ENDBRANCH   8   9
ENDBRANCH   7   8
ENDBRANCH   6   7
ENDBRANCH   5   6
ENDBRANCH   4   5
ENDBRANCH   3   4
ENDBRANCH   2   3
ENDBRANCH   1   2
BRANCH   1  13
ATOM     13  C   UNL     1     150.884 154.190 157.645  1.00  0.00     0.000 C 
BRANCH  13  14
ATOM     14  C   UNL     1     151.121 155.241 158.743  1.00  0.00     0.000 C 
BRANCH  14  15
ATOM     15  C   UNL     1     151.526 156.612 158.176  1.00  0.00     0.000 C 
BRANCH  15  16
ATOM     16  C   UNL     1     152.132 157.563 159.231  1.00  0.00     0.000 C 
BRANCH  16  17
ATOM     17  C   UNL     1     153.563 157.996 158.867  1.00  0.00     0.000 C 
BRANCH  17  18
ATOM     18  C   UNL     1     154.340 158.545 160.076  1.00  0.00     0.000 C 
BRANCH  18  19
ATOM     19  C   UNL     1     155.844 158.681 159.800  1.00  0.00     0.000 C 
BRANCH  19  20
ATOM     20  C   UNL     1     156.435 157.360 159.296  1.00  0.00     0.006 C 
BRANCH  20  21
ATOM     21  C   UNL     1     157.288 157.583 158.044  1.00  0.00     0.053 C 
BRANCH  21  22
ATOM     22  C   UNL     1     158.526 156.745 158.094  1.00  0.00     0.041 C 
ATOM     23  O   UNL     1     159.509 157.025 157.359  1.00  0.00    -0.550 OA
ATOM     24  O   UNL     1     158.586 155.640 158.934  1.00  0.00    -0.550 OA
ENDBRANCH  21  22
ENDBRANCH  20  21
ENDBRANCH  19  20
ENDBRANCH  18  19
ENDBRANCH  17  18
ENDBRANCH  16  17
ENDBRANCH  15  16
ENDBRANCH  14  15
ENDBRANCH  13  14
ENDBRANCH   1  13
TORSDOF 20
ENDMDL
MODEL 4
REMARK VINA RESULT:    -3.374      3.270      6.132
REMARK INTER + INTRA:         -10.705
REMARK INTER:                  -6.498
REMARK INTRA:                  -4.207
REMARK UNBOUND:                -3.386
REMARK SMILES CCCCCCCCCCCCCCCCCCCCCC(=O)[O-]
REMARK SMILES IDX 12 1 11 2 10 3 9 4 8 5 7 6 6 7 5 8 4 9 3 10 2 11 1 12 13 13
REMARK SMILES IDX 14 14 15 15 16 16 17 17 18 18 19 19 20 20 21 21 22 22 23 23
REMARK SMILES IDX 24 24
REMARK H PARENT
REMARK Flexibility Score: inf
ROOT
ATOM      1  C   UNL     1     155.014 154.797 157.910  1.00  0.00     0.000 C 
ENDROOT
BRANCH   1   2
ATOM      2  C   UNL     1     154.609 154.268 156.523  1.00  0.00     0.000 C 
BRANCH   2   3
ATOM      3  C   UNL     1     154.395 155.392 155.494  1.00  0.00     0.000 C 
BRANCH   3   4
ATOM      4  C   UNL     1     154.595 156.820 156.035  1.00  0.00    -0.000 C 
BRANCH   4   5
ATOM      5  C   UNL     1     154.199 157.905 155.020  1.00  0.00    -0.000 C 
BRANCH   5   6
ATOM      6  C   UNL     1     152.893 158.595 155.436  1.00  0.00    -0.000 C 
BRANCH   6   7
ATOM      7  C   UNL     1     151.712 158.265 154.505  1.00  0.00    -0.000 C 
BRANCH   7   8
ATOM      8  C   UNL     1     151.078 156.876 154.709  1.00  0.00    -0.000 C 
BRANCH   8   9
ATOM      9  C   UNL     1     151.321 155.923 153.528  1.00  0.00    -0.000 C 
BRANCH   9  10
ATOM     10  C   UNL     1     151.938 156.630 152.310  1.00  0.00    -0.000 C 
BRANCH  10  11
ATOM     11  C   UNL     1     153.357 156.136 151.957  1.00  0.00    -0.003 C 
ATOM     12  C   UNL     1     154.172 157.196 151.214  1.00  0.00     0.004 C 
ENDBRANCH  10  11
ENDBRANCH   9  10
ENDBRANCH   8   9
ENDBRANCH   7   8
ENDBRANCH   6   7
ENDBRANCH   5   6
ENDBRANCH   4   5
ENDBRANCH   3   4
ENDBRANCH   2   3
ENDBRANCH   1   2
BRANCH   1  13
ATOM     13  C   UNL     1     154.757 153.780 159.033  1.00  0.00     0.000 C 
BRANCH  13  14
ATOM     14  C   UNL     1     154.122 152.477 158.518  1.00  0.00     0.000 C 
BRANCH  14  15
ATOM     15  C   UNL     1     153.040 151.929 159.465  1.00  0.00     0.000 C 
BRANCH  15  16
ATOM     16  C   UNL     1     151.704 152.700 159.388  1.00  0.00     0.000 C 
BRANCH  16  17
ATOM     17  C   UNL     1     151.241 152.915 157.936  1.00  0.00     0.000 C 
BRANCH  17  18
ATOM     18  C   UNL     1     151.035 154.401 157.596  1.00  0.00     0.000 C 
BRANCH  18  19
ATOM     19  C   UNL     1     151.310 155.325 158.789  1.00  0.00     0.000 C 
BRANCH  19  20
ATOM     20  C   UNL     1     151.547 156.768 158.327  1.00  0.00     0.006 C 
BRANCH  20  21
ATOM     21  C   UNL     1     152.644 157.437 159.161  1.00  0.00     0.053 C 
BRANCH  21  22
ATOM     22  C   UNL     1     152.060 158.478 160.062  1.00  0.00     0.041 C 
ATOM     23  O   UNL     1     151.162 158.169 160.888  1.00  0.00    -0.550 OA
ATOM     24  O   UNL     1     152.491 159.797 159.974  1.00  0.00    -0.550 OA
ENDBRANCH  21  22
ENDBRANCH  20  21
ENDBRANCH  19  20
ENDBRANCH  18  19
ENDBRANCH  17  18
ENDBRANCH  16  17
ENDBRANCH  15  16
ENDBRANCH  14  15
ENDBRANCH  13  14
ENDBRANCH   1  13
TORSDOF 20
ENDMDL
MODEL 5
REMARK VINA RESULT:    -3.373      3.558      5.468
REMARK INTER + INTRA:         -10.702
REMARK INTER:                  -7.786
REMARK INTRA:                  -2.916
REMARK UNBOUND:                -3.386
REMARK SMILES CCCCCCCCCCCCCCCCCCCCCC(=O)[O-]
REMARK SMILES IDX 12 1 11 2 10 3 9 4 8 5 7 6 6 7 5 8 4 9 3 10 2 11 1 12 13 13
REMARK SMILES IDX 14 14 15 15 16 16 17 17 18 18 19 19 20 20 21 21 22 22 23 23
REMARK SMILES IDX 24 24
REMARK H PARENT
REMARK Flexibility Score: inf
ROOT
ATOM      1  C   UNL     1     155.018 152.703 158.046  1.00  0.00     0.000 C 
ENDROOT
BRANCH   1   2
ATOM      2  C   UNL     1     154.520 151.249 157.984  1.00  0.00     0.000 C 
BRANCH   2   3
ATOM      3  C   UNL     1     153.200 151.037 158.747  1.00  0.00     0.000 C 
BRANCH   3   4
ATOM      4  C   UNL     1     152.924 152.054 159.870  1.00  0.00    -0.000 C 
BRANCH   4   5
ATOM      5  C   UNL     1     151.780 153.023 159.531  1.00  0.00    -0.000 C 
BRANCH   5   6
ATOM      6  C   UNL     1     151.229 152.752 158.124  1.00  0.00    -0.000 C 
BRANCH   6   7
ATOM      7  C   UNL     1     150.198 153.799 157.666  1.00  0.00    -0.000 C 
BRANCH   7   8
ATOM      8  C   UNL     1     150.721 155.245 157.577  1.00  0.00    -0.000 C 
BRANCH   8   9
ATOM      9  C   UNL     1     149.891 156.239 158.406  1.00  0.00    -0.000 C 
BRANCH   9  10
ATOM     10  C   UNL     1     150.485 156.493 159.801  1.00  0.00    -0.000 C 
BRANCH  10  11
ATOM     11  C   UNL     1     150.130 157.876 160.387  1.00  0.00    -0.003 C 
ATOM     12  C   UNL     1     151.361 158.619 160.908  1.00  0.00     0.004 C 
ENDBRANCH  10  11
ENDBRANCH   9  10
ENDBRANCH   8   9
ENDBRANCH   7   8
ENDBRANCH   6   7
ENDBRANCH   5   6
ENDBRANCH   4   5
ENDBRANCH   3   4
ENDBRANCH   2   3
ENDBRANCH   1   2
BRANCH   1  13
ATOM     13  C   UNL     1     154.664 153.507 156.784  1.00  0.00     0.000 C 
BRANCH  13  14
ATOM     14  C   UNL     1     154.230 154.948 157.103  1.00  0.00     0.000 C 
BRANCH  14  15
ATOM     15  C   UNL     1     154.409 155.308 158.587  1.00  0.00     0.000 C 
BRANCH  15  16
ATOM     16  C   UNL     1     154.085 156.783 158.909  1.00  0.00     0.000 C 
BRANCH  16  17
ATOM     17  C   UNL     1     155.354 157.614 159.164  1.00  0.00     0.000 C 
BRANCH  17  18
ATOM     18  C   UNL     1     156.615 156.743 159.292  1.00  0.00     0.000 C 
BRANCH  18  19
ATOM     19  C   UNL     1     157.727 157.165 158.320  1.00  0.00     0.000 C 
BRANCH  19  20
ATOM     20  C   UNL     1     159.112 156.849 158.895  1.00  0.00     0.006 C 
BRANCH  20  21
ATOM     21  C   UNL     1     159.011 156.416 160.361  1.00  0.00     0.053 C 
BRANCH  21  22
ATOM     22  C   UNL     1     159.687 157.409 161.252  1.00  0.00     0.041 C 
ATOM     23  O   UNL     1     160.940 157.406 161.367  1.00  0.00    -0.550 OA
ATOM     24  O   UNL     1     158.931 158.325 161.975  1.00  0.00    -0.550 OA
ENDBRANCH  21  22
ENDBRANCH  20  21
ENDBRANCH  19  20
ENDBRANCH  18  19
ENDBRANCH  17  18
ENDBRANCH  16  17
ENDBRANCH  15  16
ENDBRANCH  14  15
ENDBRANCH  13  14
ENDBRANCH   1  13
TORSDOF 20
ENDMDL
MODEL 6
REMARK VINA RESULT:    -3.372      2.758      5.210
REMARK INTER + INTRA:         -10.701
REMARK INTER:                  -6.895
REMARK INTRA:                  -3.807
REMARK UNBOUND:                -3.386
REMARK SMILES CCCCCCCCCCCCCCCCCCCCCC(=O)[O-]
REMARK SMILES IDX 12 1 11 2 10 3 9 4 8 5 7 6 6 7 5 8 4 9 3 10 2 11 1 12 13 13
REMARK SMILES IDX 14 14 15 15 16 16 17 17 18 18 19 19 20 20 21 21 22 22 23 23
REMARK SMILES IDX 24 24
REMARK H PARENT
REMARK Flexibility Score: inf
ROOT
ATOM      1  C   UNL     1     155.083 154.704 157.921  1.00  0.00     0.000 C 
ENDROOT
BRANCH   1   2
ATOM      2  C   UNL     1     154.602 154.305 156.516  1.00  0.00     0.000 C 
BRANCH   2   3
ATOM      3  C   UNL     1     154.557 155.493 155.539  1.00  0.00     0.000 C 
BRANCH   3   4
ATOM      4  C   UNL     1     154.860 156.867 156.166  1.00  0.00    -0.000 C 
BRANCH   4   5
ATOM      5  C   UNL     1     155.903 157.670 155.373  1.00  0.00    -0.000 C 
BRANCH   5   6
ATOM      6  C   UNL     1     157.327 157.324 155.829  1.00  0.00    -0.000 C 
BRANCH   6   7
ATOM      7  C   UNL     1     157.635 157.799 157.261  1.00  0.00    -0.000 C 
BRANCH   7   8
ATOM      8  C   UNL     1     158.147 156.709 158.221  1.00  0.00    -0.000 C 
BRANCH   8   9
ATOM      9  C   UNL     1     157.549 156.818 159.633  1.00  0.00    -0.000 C 
BRANCH   9  10
ATOM     10  C   UNL     1     156.266 157.665 159.672  1.00  0.00    -0.000 C 
BRANCH  10  11
ATOM     11  C   UNL     1     156.122 158.518 160.951  1.00  0.00    -0.003 C 
ATOM     12  C   UNL     1     157.449 158.676 161.695  1.00  0.00     0.004 C 
ENDBRANCH  10  11
ENDBRANCH   9  10
ENDBRANCH   8   9
ENDBRANCH   7   8
ENDBRANCH   6   7
ENDBRANCH   5   6
ENDBRANCH   4   5
ENDBRANCH   3   4
ENDBRANCH   2   3
ENDBRANCH   1   2
BRANCH   1  13
ATOM     13  C   UNL     1     154.624 153.721 159.009  1.00  0.00     0.000 C 
BRANCH  13  14
ATOM     14  C   UNL     1     154.122 152.387 158.429  1.00  0.00     0.000 C 
BRANCH  14  15
ATOM     15  C   UNL     1     152.969 151.780 159.247  1.00  0.00     0.000 C 
BRANCH  15  16
ATOM     16  C   UNL     1     151.765 152.730 159.417  1.00  0.00     0.000 C 
BRANCH  16  17
ATOM     17  C   UNL     1     150.962 152.889 158.114  1.00  0.00     0.000 C 
BRANCH  17  18
ATOM     18  C   UNL     1     150.920 154.345 157.619  1.00  0.00     0.000 C 
BRANCH  18  19
ATOM     19  C   UNL     1     151.263 155.355 158.722  1.00  0.00     0.000 C 
BRANCH  19  20
ATOM     20  C   UNL     1     151.854 156.640 158.129  1.00  0.00     0.006 C 
BRANCH  20  21
ATOM     21  C   UNL     1     152.632 157.425 159.190  1.00  0.00     0.053 C 
BRANCH  21  22
ATOM     22  C   UNL     1     151.766 158.477 159.808  1.00  0.00     0.041 C 
ATOM     23  O   UNL     1     151.322 158.325 160.975  1.00  0.00    -0.550 OA
ATOM     24  O   UNL     1     151.429 159.615 159.085  1.00  0.00    -0.550 OA
ENDBRANCH  21  22
ENDBRANCH  20  21
ENDBRANCH  19  20
ENDBRANCH  18  19
ENDBRANCH  17  18
ENDBRANCH  16  17
ENDBRANCH  15  16
ENDBRANCH  14  15
ENDBRANCH  13  14
ENDBRANCH   1  13
TORSDOF 20
ENDMDL
MODEL 7
REMARK VINA RESULT:    -3.356      2.182      4.626
REMARK INTER + INTRA:         -10.665
REMARK INTER:                  -6.734
REMARK INTRA:                  -3.931
REMARK UNBOUND:                -3.386
REMARK SMILES CCCCCCCCCCCCCCCCCCCCCC(=O)[O-]
REMARK SMILES IDX 12 1 11 2 10 3 9 4 8 5 7 6 6 7 5 8 4 9 3 10 2 11 1 12 13 13
REMARK SMILES IDX 14 14 15 15 16 16 17 17 18 18 19 19 20 20 21 21 22 22 23 23
REMARK SMILES IDX 24 24
REMARK H PARENT
REMARK Flexibility Score: inf
ROOT
ATOM      1  C   UNL     1     155.033 153.287 157.306  1.00  0.00     0.000 C 
ENDROOT
BRANCH   1   2
ATOM      2  C   UNL     1     155.205 154.150 158.568  1.00  0.00     0.000 C 
BRANCH   2   3
ATOM      3  C   UNL     1     155.788 155.542 158.265  1.00  0.00     0.000 C 
BRANCH   3   4
ATOM      4  C   UNL     1     155.091 156.713 158.981  1.00  0.00    -0.000 C 
BRANCH   4   5
ATOM      5  C   UNL     1     154.775 157.887 158.041  1.00  0.00    -0.000 C 
BRANCH   5   6
ATOM      6  C   UNL     1     153.709 158.808 158.651  1.00  0.00    -0.000 C 
BRANCH   6   7
ATOM      7  C   UNL     1     153.015 158.197 159.882  1.00  0.00    -0.000 C 
BRANCH   7   8
ATOM      8  C   UNL     1     151.494 157.995 159.749  1.00  0.00    -0.000 C 
BRANCH   8   9
ATOM      9  C   UNL     1     150.906 158.650 158.488  1.00  0.00    -0.000 C 
BRANCH   9  10
ATOM     10  C   UNL     1     149.404 158.371 158.317  1.00  0.00    -0.000 C 
BRANCH  10  11
ATOM     11  C   UNL     1     148.927 157.079 159.014  1.00  0.00    -0.003 C 
ATOM     12  C   UNL     1     148.253 156.110 158.041  1.00  0.00     0.004 C 
ENDBRANCH  10  11
ENDBRANCH   9  10
ENDBRANCH   8   9
ENDBRANCH   7   8
ENDBRANCH   6   7
ENDBRANCH   5   6
ENDBRANCH   4   5
ENDBRANCH   3   4
ENDBRANCH   2   3
ENDBRANCH   1   2
BRANCH   1  13
ATOM     13  C   UNL     1     155.333 151.800 157.558  1.00  0.00     0.000 C 
BRANCH  13  14
ATOM     14  C   UNL     1     154.071 150.923 157.500  1.00  0.00     0.000 C 
BRANCH  14  15
ATOM     15  C   UNL     1     153.172 151.094 158.736  1.00  0.00     0.000 C 
BRANCH  15  16
ATOM     16  C   UNL     1     151.936 151.985 158.482  1.00  0.00     0.000 C 
BRANCH  16  17
ATOM     17  C   UNL     1     151.751 153.046 159.581  1.00  0.00     0.000 C 
BRANCH  17  18
ATOM     18  C   UNL     1     151.545 154.459 159.010  1.00  0.00     0.000 C 
BRANCH  18  19
ATOM     19  C   UNL     1     151.451 154.470 157.478  1.00  0.00     0.000 C 
BRANCH  19  20
ATOM     20  C   UNL     1     152.213 155.661 156.886  1.00  0.00     0.006 C 
BRANCH  20  21
ATOM     21  C   UNL     1     151.764 155.939 155.448  1.00  0.00     0.053 C 
BRANCH  21  22
ATOM     22  C   UNL     1     152.937 155.931 154.519  1.00  0.00     0.041 C 
ATOM     23  O   UNL     1     154.094 156.158 154.958  1.00  0.00    -0.550 OA
ATOM     24  O   UNL     1     152.749 155.697 153.162  1.00  0.00    -0.550 OA
ENDBRANCH  21  22
ENDBRANCH  20  21
ENDBRANCH  19  20
ENDBRANCH  18  19
ENDBRANCH  17  18
ENDBRANCH  16  17
ENDBRANCH  15  16
ENDBRANCH  14  15
ENDBRANCH  13  14
ENDBRANCH   1  13
TORSDOF 20
ENDMDL
MODEL 8
REMARK VINA RESULT:    -3.354      4.144      6.858
REMARK INTER + INTRA:         -10.662
REMARK INTER:                  -8.715
REMARK INTRA:                  -1.947
REMARK UNBOUND:                -3.386
REMARK SMILES CCCCCCCCCCCCCCCCCCCCCC(=O)[O-]
REMARK SMILES IDX 12 1 11 2 10 3 9 4 8 5 7 6 6 7 5 8 4 9 3 10 2 11 1 12 13 13
REMARK SMILES IDX 14 14 15 15 16 16 17 17 18 18 19 19 20 20 21 21 22 22 23 23
REMARK SMILES IDX 24 24
REMARK H PARENT
REMARK Flexibility Score: inf
ROOT
ATOM      1  C   UNL     1     155.185 155.329 158.621  1.00  0.00     0.000 C 
ENDROOT
BRANCH   1   2
ATOM      2  C   UNL     1     155.002 155.093 157.112  1.00  0.00     0.000 C 
BRANCH   2   3
ATOM      3  C   UNL     1     154.608 153.644 156.778  1.00  0.00     0.000 C 
BRANCH   3   4
ATOM      4  C   UNL     1     154.983 152.601 157.847  1.00  0.00    -0.000 C 
BRANCH   4   5
ATOM      5  C   UNL     1     154.305 151.240 157.620  1.00  0.00    -0.000 C 
BRANCH   5   6
ATOM      6  C   UNL     1     153.191 151.003 158.649  1.00  0.00    -0.000 C 
BRANCH   6   7
ATOM      7  C   UNL     1     153.137 152.087 159.742  1.00  0.00    -0.000 C 
BRANCH   7   8
ATOM      8  C   UNL     1     151.800 152.843 159.855  1.00  0.00    -0.000 C 
BRANCH   8   9
ATOM      9  C   UNL     1     151.812 154.201 159.135  1.00  0.00    -0.000 C 
BRANCH   9  10
ATOM     10  C   UNL     1     150.640 154.365 158.153  1.00  0.00    -0.000 C 
BRANCH  10  11
ATOM     11  C   UNL     1     150.051 153.027 157.657  1.00  0.00    -0.003 C 
ATOM     12  C   UNL     1     149.295 153.179 156.337  1.00  0.00     0.004 C 
ENDBRANCH  10  11
ENDBRANCH   9  10
ENDBRANCH   8   9
ENDBRANCH   7   8
ENDBRANCH   6   7
ENDBRANCH   5   6
ENDBRANCH   4   5
ENDBRANCH   3   4
ENDBRANCH   2   3
ENDBRANCH   1   2
BRANCH   1  13
ATOM     13  C   UNL     1     156.085 156.536 158.930  1.00  0.00     0.000 C 
BRANCH  13  14
ATOM     14  C   UNL     1     157.499 156.122 159.372  1.00  0.00     0.000 C 
BRANCH  14  15
ATOM     15  C   UNL     1     158.569 157.157 158.985  1.00  0.00     0.000 C 
BRANCH  15  16
ATOM     16  C   UNL     1     159.166 156.932 157.579  1.00  0.00     0.000 C 
BRANCH  16  17
ATOM     17  C   UNL     1     160.632 156.470 157.637  1.00  0.00     0.000 C 
BRANCH  17  18
ATOM     18  C   UNL     1     160.790 155.082 158.279  1.00  0.00     0.000 C 
BRANCH  18  19
ATOM     19  C   UNL     1     162.260 154.669 158.442  1.00  0.00     0.000 C 
BRANCH  19  20
ATOM     20  C   UNL     1     162.494 153.246 157.921  1.00  0.00     0.006 C 
BRANCH  20  21
ATOM     21  C   UNL     1     162.482 153.215 156.390  1.00  0.00     0.053 C 
BRANCH  21  22
ATOM     22  C   UNL     1     163.145 151.973 155.883  1.00  0.00     0.041 C 
ATOM     23  O   UNL     1     162.457 151.055 155.365  1.00  0.00    -0.550 OA
ATOM     24  O   UNL     1     164.521 151.818 156.005  1.00  0.00    -0.550 OA
ENDBRANCH  21  22
ENDBRANCH  20  21
ENDBRANCH  19  20
ENDBRANCH  18  19
ENDBRANCH  17  18
ENDBRANCH  16  17
ENDBRANCH  15  16
ENDBRANCH  14  15
ENDBRANCH  13  14
ENDBRANCH   1  13
TORSDOF 20
ENDMDL
MODEL 9
REMARK VINA RESULT:    -3.284      1.701      3.276
REMARK INTER + INTRA:         -10.511
REMARK INTER:                  -6.762
REMARK INTRA:                  -3.749
REMARK UNBOUND:                -3.386
REMARK SMILES CCCCCCCCCCCCCCCCCCCCCC(=O)[O-]
REMARK SMILES IDX 12 1 11 2 10 3 9 4 8 5 7 6 6 7 5 8 4 9 3 10 2 11 1 12 13 13
REMARK SMILES IDX 14 14 15 15 16 16 17 17 18 18 19 19 20 20 21 21 22 22 23 23
REMARK SMILES IDX 24 24
REMARK H PARENT
REMARK Flexibility Score: inf
ROOT
ATOM      1  C   UNL     1     151.587 152.710 159.023  1.00  0.00     0.000 C 
ENDROOT
BRANCH   1   2
ATOM      2  C   UNL     1     151.688 154.242 158.915  1.00  0.00     0.000 C 
BRANCH   2   3
ATOM      3  C   UNL     1     151.057 154.792 157.624  1.00  0.00     0.000 C 
BRANCH   3   4
ATOM      4  C   UNL     1     152.023 155.553 156.697  1.00  0.00    -0.000 C 
BRANCH   4   5
ATOM      5  C   UNL     1     151.389 156.808 156.074  1.00  0.00    -0.000 C 
BRANCH   5   6
ATOM      6  C   UNL     1     152.394 157.967 156.032  1.00  0.00    -0.000 C 
BRANCH   6   7
ATOM      7  C   UNL     1     152.125 159.039 157.104  1.00  0.00    -0.000 C 
BRANCH   7   8
ATOM      8  C   UNL     1     153.077 159.016 158.315  1.00  0.00    -0.000 C 
BRANCH   8   9
ATOM      9  C   UNL     1     152.665 157.994 159.387  1.00  0.00    -0.000 C 
BRANCH   9  10
ATOM     10  C   UNL     1     151.365 158.382 160.111  1.00  0.00    -0.000 C 
BRANCH  10  11
ATOM     11  C   UNL     1     150.100 157.735 159.510  1.00  0.00    -0.003 C 
ATOM     12  C   UNL     1     149.387 156.819 160.507  1.00  0.00     0.004 C 
ENDBRANCH  10  11
ENDBRANCH   9  10
ENDBRANCH   8   9
ENDBRANCH   7   8
ENDBRANCH   6   7
ENDBRANCH   5   6
ENDBRANCH   4   5
ENDBRANCH   3   4
ENDBRANCH   2   3
ENDBRANCH   1   2
BRANCH   1  13
ATOM     13  C   UNL     1     152.755 152.091 159.809  1.00  0.00     0.000 C 
BRANCH  13  14
ATOM     14  C   UNL     1     153.370 150.875 159.095  1.00  0.00     0.000 C 
BRANCH  14  15
ATOM     15  C   UNL     1     153.788 151.184 157.648  1.00  0.00     0.000 C 
BRANCH  15  16
ATOM     16  C   UNL     1     155.160 151.882 157.536  1.00  0.00     0.000 C 
BRANCH  16  17
ATOM     17  C   UNL     1     155.025 153.400 157.327  1.00  0.00     0.000 C 
BRANCH  17  18
ATOM     18  C   UNL     1     155.408 154.206 158.580  1.00  0.00     0.000 C 
BRANCH  18  19
ATOM     19  C   UNL     1     155.215 155.717 158.393  1.00  0.00     0.000 C 
BRANCH  19  20
ATOM     20  C   UNL     1     156.384 156.331 157.614  1.00  0.00     0.006 C 
BRANCH  20  21
ATOM     21  C   UNL     1     155.882 157.346 156.582  1.00  0.00     0.053 C 
BRANCH  21  22
ATOM     22  C   UNL     1     155.969 156.780 155.200  1.00  0.00     0.041 C 
ATOM     23  O   UNL     1     156.811 157.233 154.383  1.00  0.00    -0.550 OA
ATOM     24  O   UNL     1     155.101 155.768 154.806  1.00  0.00    -0.550 OA
ENDBRANCH  21  22
ENDBRANCH  20  21
ENDBRANCH  19  20
ENDBRANCH  18  19
ENDBRANCH  17  18
ENDBRANCH  16  17
ENDBRANCH  15  16
ENDBRANCH  14  15
ENDBRANCH  13  14
ENDBRANCH   1  13
TORSDOF 20
ENDMDL
