MODEL 1
REMARK VINA RESULT:    -3.555      0.000      0.000
REMARK INTER + INTRA:          -4.303
REMARK INTER:                  -4.178
REMARK INTRA:                  -0.125
REMARK UNBOUND:                -0.125
REMARK SMILES O=C([O-])CCC(=O)[O-]
REMARK SMILES IDX 4 1 2 2 1 3 3 4 5 5 6 6 7 7 8 8
REMARK H PARENT
REMARK Flexibility Score: inf
ROOT
ATOM      1  C   UNL     1      24.545  37.205 147.501  1.00  0.00     0.059 C 
ENDROOT
BRANCH   1   2
ATOM      2  C   UNL     1      23.998  35.845 147.808  1.00  0.00     0.042 C 
ATOM      3  O   UNL     1      23.216  35.279 146.999  1.00  0.00    -0.550 OA
ATOM      4  O   UNL     1      24.321  35.219 149.005  1.00  0.00    -0.550 OA
ENDBRANCH   1   2
BRANCH   1   5
ATOM      5  C   UNL     1      23.539  38.308 147.849  1.00  0.00     0.059 C 
BRANCH   5   6
ATOM      6  C   UNL     1      23.617  38.688 149.296  1.00  0.00     0.042 C 
ATOM      7  O   UNL     1      22.811  38.192 150.127  1.00  0.00    -0.550 OA
ATOM      8  O   UNL     1      24.554  39.623 149.720  1.00  0.00    -0.550 OA
ENDBRANCH   5   6
ENDBRANCH   1   5
TORSDOF 3
ENDMDL
MODEL 2
REMARK VINA RESULT:    -3.546      0.190      3.610
REMARK INTER + INTRA:          -4.293
REMARK INTER:                  -4.165
REMARK INTRA:                  -0.128
REMARK UNBOUND:                -0.125
REMARK SMILES O=C([O-])CCC(=O)[O-]
REMARK SMILES IDX 4 1 2 2 1 3 3 4 5 5 6 6 7 7 8 8
REMARK H PARENT
REMARK Flexibility Score: inf
ROOT
ATOM      1  C   UNL     1      23.557  38.324 147.701  1.00  0.00     0.059 C 
ENDROOT
BRANCH   1   2
ATOM      2  C   UNL     1      23.640  38.855 149.099  1.00  0.00     0.042 C 
ATOM      3  O   UNL     1      24.412  39.813 149.369  1.00  0.00    -0.550 OA
ATOM      4  O   UNL     1      22.895  38.266 150.112  1.00  0.00    -0.550 OA
ENDBRANCH   1   2
BRANCH   1   5
ATOM      5  C   UNL     1      24.584  37.213 147.458  1.00  0.00     0.059 C 
BRANCH   5   6
ATOM      6  C   UNL     1      24.024  35.863 147.785  1.00  0.00     0.042 C 
ATOM      7  O   UNL     1      23.234  35.293 146.987  1.00  0.00    -0.550 OA
ATOM      8  O   UNL     1      24.343  35.252 148.992  1.00  0.00    -0.550 OA
ENDBRANCH   5   6
ENDBRANCH   1   5
TORSDOF 3
ENDMDL
MODEL 3
REMARK VINA RESULT:    -3.532      0.153      1.149
REMARK INTER + INTRA:          -4.276
REMARK INTER:                  -4.142
REMARK INTRA:                  -0.134
REMARK UNBOUND:                -0.125
REMARK SMILES O=C([O-])CCC(=O)[O-]
REMARK SMILES IDX 4 1 2 2 1 3 3 4 5 5 6 6 7 7 8 8
REMARK H PARENT
REMARK Flexibility Score: inf
ROOT
ATOM      1  C   UNL     1      24.537  37.250 147.443  1.00  0.00     0.059 C 
ENDROOT
BRANCH   1   2
ATOM      2  C   UNL     1      23.989  35.898 147.783  1.00  0.00     0.042 C 
ATOM      3  O   UNL     1      23.234  35.297 146.972  1.00  0.00    -0.550 OA
ATOM      4  O   UNL     1      24.279  35.318 149.011  1.00  0.00    -0.550 OA
ENDBRANCH   1   2
BRANCH   1   5
ATOM      5  C   UNL     1      23.536  38.362 147.773  1.00  0.00     0.059 C 
BRANCH   5   6
ATOM      6  C   UNL     1      23.698  38.849 149.180  1.00  0.00     0.042 C 
ATOM      7  O   UNL     1      24.564  39.722 149.454  1.00  0.00    -0.550 OA
ATOM      8  O   UNL     1      22.918  38.310 150.196  1.00  0.00    -0.550 OA
ENDBRANCH   5   6
ENDBRANCH   1   5
TORSDOF 3
ENDMDL
MODEL 4
REMARK VINA RESULT:    -3.505      1.433      1.952
REMARK INTER + INTRA:          -4.244
REMARK INTER:                  -4.122
REMARK INTRA:                  -0.122
REMARK UNBOUND:                -0.125
REMARK SMILES O=C([O-])CCC(=O)[O-]
REMARK SMILES IDX 4 1 2 2 1 3 3 4 5 5 6 6 7 7 8 8
REMARK H PARENT
REMARK Flexibility Score: inf
ROOT
ATOM      1  C   UNL     1      23.551  35.668 147.252  1.00  0.00     0.059 C 
ENDROOT
BRANCH   1   2
ATOM      2  C   UNL     1      24.105  34.565 148.100  1.00  0.00     0.042 C 
ATOM      3  O   UNL     1      24.821  34.833 149.101  1.00  0.00    -0.550 OA
ATOM      4  O   UNL     1      23.863  33.240 147.762  1.00  0.00    -0.550 OA
ENDBRANCH   1   2
BRANCH   1   5
ATOM      5  C   UNL     1      24.283  36.992 147.499  1.00  0.00     0.059 C 
BRANCH   5   6
ATOM      6  C   UNL     1      23.394  37.998 148.162  1.00  0.00     0.042 C 
ATOM      7  O   UNL     1      22.918  37.770 149.306  1.00  0.00    -0.550 OA
ATOM      8  O   UNL     1      23.056  39.172 147.498  1.00  0.00    -0.550 OA
ENDBRANCH   5   6
ENDBRANCH   1   5
TORSDOF 3
ENDMDL
MODEL 5
REMARK VINA RESULT:    -3.499      1.383      3.830
REMARK INTER + INTRA:          -4.237
REMARK INTER:                  -4.125
REMARK INTRA:                  -0.112
REMARK UNBOUND:                -0.125
REMARK SMILES O=C([O-])CCC(=O)[O-]
REMARK SMILES IDX 4 1 2 2 1 3 3 4 5 5 6 6 7 7 8 8
REMARK H PARENT
REMARK Flexibility Score: inf
ROOT
ATOM      1  C   UNL     1      24.370  36.979 147.668  1.00  0.00     0.059 C 
ENDROOT
BRANCH   1   2
ATOM      2  C   UNL     1      23.453  38.026 148.220  1.00  0.00     0.042 C 
ATOM      3  O   UNL     1      23.247  39.092 147.580  1.00  0.00    -0.550 OA
ATOM      4  O   UNL     1      22.857  37.844 149.462  1.00  0.00    -0.550 OA
ENDBRANCH   1   2
BRANCH   1   5
ATOM      5  C   UNL     1      23.614  35.691 147.326  1.00  0.00     0.059 C 
BRANCH   5   6
ATOM      6  C   UNL     1      24.103  34.532 148.139  1.00  0.00     0.042 C 
ATOM      7  O   UNL     1      24.735  34.730 149.211  1.00  0.00    -0.550 OA
ATOM      8  O   UNL     1      23.897  33.233 147.692  1.00  0.00    -0.550 OA
ENDBRANCH   5   6
ENDBRANCH   1   5
TORSDOF 3
ENDMDL
MODEL 6
REMARK VINA RESULT:    -3.473      1.038      3.554
REMARK INTER + INTRA:          -4.206
REMARK INTER:                  -4.022
REMARK INTRA:                  -0.184
REMARK UNBOUND:                -0.125
REMARK SMILES O=C([O-])CCC(=O)[O-]
REMARK SMILES IDX 4 1 2 2 1 3 3 4 5 5 6 6 7 7 8 8
REMARK H PARENT
REMARK Flexibility Score: inf
ROOT
ATOM      1  C   UNL     1      23.659  38.285 147.710  1.00  0.00     0.059 C 
ENDROOT
BRANCH   1   2
ATOM      2  C   UNL     1      23.864  38.592 149.162  1.00  0.00     0.042 C 
ATOM      3  O   UNL     1      22.964  38.319 150.001  1.00  0.00    -0.550 OA
ATOM      4  O   UNL     1      25.031  39.216 149.583  1.00  0.00    -0.550 OA
ENDBRANCH   1   2
BRANCH   1   5
ATOM      5  C   UNL     1      23.514  36.779 147.468  1.00  0.00     0.059 C 
BRANCH   5   6
ATOM      6  C   UNL     1      24.735  36.030 147.907  1.00  0.00     0.042 C 
ATOM      7  O   UNL     1      25.819  36.158 147.279  1.00  0.00    -0.550 OA
ATOM      8  O   UNL     1      24.665  35.158 148.987  1.00  0.00    -0.550 OA
ENDBRANCH   5   6
ENDBRANCH   1   5
TORSDOF 3
ENDMDL
MODEL 7
REMARK VINA RESULT:    -3.462      1.126      1.211
REMARK INTER + INTRA:          -4.193
REMARK INTER:                  -4.008
REMARK INTRA:                  -0.185
REMARK UNBOUND:                -0.125
REMARK SMILES O=C([O-])CCC(=O)[O-]
REMARK SMILES IDX 4 1 2 2 1 3 3 4 5 5 6 6 7 7 8 8
REMARK H PARENT
REMARK Flexibility Score: inf
ROOT
ATOM      1  C   UNL     1      23.543  36.917 147.482  1.00  0.00     0.059 C 
ENDROOT
BRANCH   1   2
ATOM      2  C   UNL     1      24.856  36.314 147.876  1.00  0.00     0.042 C 
ATOM      3  O   UNL     1      25.909  36.626 147.257  1.00  0.00    -0.550 OA
ATOM      4  O   UNL     1      24.912  35.378 148.900  1.00  0.00    -0.550 OA
ENDBRANCH   1   2
BRANCH   1   5
ATOM      5  C   UNL     1      23.508  38.423 147.762  1.00  0.00     0.059 C 
BRANCH   5   6
ATOM      6  C   UNL     1      23.733  38.719 149.213  1.00  0.00     0.042 C 
ATOM      7  O   UNL     1      22.926  38.292 150.081  1.00  0.00    -0.550 OA
ATOM      8  O   UNL     1      24.813  39.502 149.604  1.00  0.00    -0.550 OA
ENDBRANCH   5   6
ENDBRANCH   1   5
TORSDOF 3
ENDMDL
MODEL 8
REMARK VINA RESULT:    -3.425      1.705      2.418
REMARK INTER + INTRA:          -4.151
REMARK INTER:                  -4.032
REMARK INTRA:                  -0.119
REMARK UNBOUND:                -0.125
REMARK SMILES O=C([O-])CCC(=O)[O-]
REMARK SMILES IDX 4 1 2 2 1 3 3 4 5 5 6 6 7 7 8 8
REMARK H PARENT
REMARK Flexibility Score: inf
ROOT
ATOM      1  C   UNL     1      24.205  38.207 147.691  1.00  0.00     0.059 C 
ENDROOT
BRANCH   1   2
ATOM      2  C   UNL     1      23.721  37.290 148.772  1.00  0.00     0.042 C 
ATOM      3  O   UNL     1      22.910  37.707 149.642  1.00  0.00    -0.550 OA
ATOM      4  O   UNL     1      24.195  35.986 148.842  1.00  0.00    -0.550 OA
ENDBRANCH   1   2
BRANCH   1   5
ATOM      5  C   UNL     1      23.341  39.468 147.593  1.00  0.00     0.059 C 
BRANCH   5   6
ATOM      6  C   UNL     1      24.085  40.684 148.053  1.00  0.00     0.042 C 
ATOM      7  O   UNL     1      24.679  40.682 149.164  1.00  0.00    -0.550 OA
ATOM      8  O   UNL     1      24.090  41.834 147.272  1.00  0.00    -0.550 OA
ENDBRANCH   5   6
ENDBRANCH   1   5
TORSDOF 3
ENDMDL
MODEL 9
REMARK VINA RESULT:    -3.331      1.641      4.129
REMARK INTER + INTRA:          -4.039
REMARK INTER:                  -3.945
REMARK INTRA:                  -0.094
REMARK UNBOUND:                -0.125
REMARK SMILES O=C([O-])CCC(=O)[O-]
REMARK SMILES IDX 4 1 2 2 1 3 3 4 5 5 6 6 7 7 8 8
REMARK H PARENT
REMARK Flexibility Score: inf
ROOT
ATOM      1  C   UNL     1      24.139  39.851 147.706  1.00  0.00     0.059 C 
ENDROOT
BRANCH   1   2
ATOM      2  C   UNL     1      24.268  40.368 149.105  1.00  0.00     0.042 C 
ATOM      3  O   UNL     1      24.665  41.546 149.313  1.00  0.00    -0.550 OA
ATOM      4  O   UNL     1      23.989  39.537 150.183  1.00  0.00    -0.550 OA
ENDBRANCH   1   2
BRANCH   1   5
ATOM      5  C   UNL     1      23.388  38.516 147.665  1.00  0.00     0.059 C 
BRANCH   5   6
ATOM      6  C   UNL     1      24.323  37.364 147.463  1.00  0.00     0.042 C 
ATOM      7  O   UNL     1      25.562  37.563 147.349  1.00  0.00    -0.550 OA
ATOM      8  O   UNL     1      23.822  36.072 147.359  1.00  0.00    -0.550 OA
ENDBRANCH   5   6
ENDBRANCH   1   5
TORSDOF 3
ENDMDL
