MODEL 1
REMARK VINA RESULT:    -2.574      0.000      0.000
REMARK INTER + INTRA:          -4.168
REMARK INTER:                  -3.477
REMARK INTRA:                  -0.691
REMARK UNBOUND:                -0.691
REMARK SMILES CCCCCCCC(C)=O
REMARK SMILES IDX 5 1 4 2 3 3 2 4 1 5 6 6 7 7 8 8 10 9 9 10
REMARK H PARENT
REMARK Flexibility Score: inf
ROOT
ATOM      1  C   UNL     1     148.695 143.345 145.562  1.00  0.00     0.000 C 
ENDROOT
BRANCH   1   2
ATOM      2  C   UNL     1     147.613 142.441 144.950  1.00  0.00     0.000 C 
BRANCH   2   3
ATOM      3  C   UNL     1     147.114 142.965 143.587  1.00  0.00    -0.000 C 
BRANCH   3   4
ATOM      4  C   UNL     1     145.616 143.311 143.571  1.00  0.00    -0.003 C 
ATOM      5  C   UNL     1     145.348 144.814 143.637  1.00  0.00     0.004 C 
ENDBRANCH   3   4
ENDBRANCH   2   3
ENDBRANCH   1   2
BRANCH   1   6
ATOM      6  C   UNL     1     149.571 143.972 144.467  1.00  0.00     0.008 C 
BRANCH   6   7
ATOM      7  C   UNL     1     149.871 145.455 144.726  1.00  0.00     0.075 C 
BRANCH   7   8
ATOM      8  C   UNL     1     148.764 146.352 144.237  1.00  0.00     0.129 C 
ATOM      9  O   UNL     1     148.573 146.485 143.037  1.00  0.00    -0.300 OA
ATOM     10  C   UNL     1     147.865 147.048 145.213  1.00  0.00     0.087 C 
ENDBRANCH   7   8
ENDBRANCH   6   7
ENDBRANCH   1   6
TORSDOF 6
ENDMDL
MODEL 2
REMARK VINA RESULT:    -2.564      9.947     11.720
REMARK INTER + INTRA:          -4.155
REMARK INTER:                  -3.473
REMARK INTRA:                  -0.682
REMARK UNBOUND:                -0.691
REMARK SMILES CCCCCCCC(C)=O
REMARK SMILES IDX 5 1 4 2 3 3 2 4 1 5 6 6 7 7 8 8 10 9 9 10
REMARK H PARENT
REMARK Flexibility Score: inf
ROOT
ATOM      1  C   UNL     1     138.286 148.541 145.553  1.00  0.00     0.000 C 
ENDROOT
BRANCH   1   2
ATOM      2  C   UNL     1     139.153 147.392 145.013  1.00  0.00     0.000 C 
BRANCH   2   3
ATOM      3  C   UNL     1     138.777 147.006 143.567  1.00  0.00    -0.000 C 
BRANCH   3   4
ATOM      4  C   UNL     1     138.280 145.558 143.426  1.00  0.00    -0.003 C 
ATOM      5  C   UNL     1     136.776 145.416 143.654  1.00  0.00     0.004 C 
ENDBRANCH   3   4
ENDBRANCH   2   3
ENDBRANCH   1   2
BRANCH   1   6
ATOM      6  C   UNL     1     137.756 149.415 144.407  1.00  0.00     0.008 C 
BRANCH   6   7
ATOM      7  C   UNL     1     136.309 149.876 144.634  1.00  0.00     0.075 C 
BRANCH   7   8
ATOM      8  C   UNL     1     135.307 148.855 144.163  1.00  0.00     0.129 C 
ATOM      9  O   UNL     1     135.128 148.685 142.966  1.00  0.00    -0.300 OA
ATOM     10  C   UNL     1     134.561 148.012 145.152  1.00  0.00     0.087 C 
ENDBRANCH   7   8
ENDBRANCH   6   7
ENDBRANCH   1   6
TORSDOF 6
ENDMDL
MODEL 3
REMARK VINA RESULT:    -2.563     14.304     16.764
REMARK INTER + INTRA:          -4.154
REMARK INTER:                  -3.469
REMARK INTRA:                  -0.685
REMARK UNBOUND:                -0.691
REMARK SMILES CCCCCCCC(C)=O
REMARK SMILES IDX 5 1 4 2 3 3 2 4 1 5 6 6 7 7 8 8 10 9 9 10
REMARK H PARENT
REMARK Flexibility Score: inf
ROOT
ATOM      1  C   UNL     1     132.937 138.028 145.538  1.00  0.00     0.000 C 
ENDROOT
BRANCH   1   2
ATOM      2  C   UNL     1     133.885 139.071 144.924  1.00  0.00     0.000 C 
BRANCH   2   3
ATOM      3  C   UNL     1     134.430 138.628 143.549  1.00  0.00    -0.000 C 
BRANCH   3   4
ATOM      4  C   UNL     1     135.923 138.263 143.568  1.00  0.00    -0.003 C 
ATOM      5  C   UNL     1     136.170 136.757 143.646  1.00  0.00     0.004 C 
ENDBRANCH   3   4
ENDBRANCH   2   3
ENDBRANCH   1   2
BRANCH   1   6
ATOM      6  C   UNL     1     131.985 137.458 144.476  1.00  0.00     0.008 C 
BRANCH   6   7
ATOM      7  C   UNL     1     131.702 135.962 144.677  1.00  0.00     0.075 C 
BRANCH   7   8
ATOM      8  C   UNL     1     132.831 135.099 144.176  1.00  0.00     0.129 C 
ATOM      9  O   UNL     1     133.055 135.025 142.977  1.00  0.00    -0.300 OA
ATOM     10  C   UNL     1     133.711 134.366 145.143  1.00  0.00     0.087 C 
ENDBRANCH   7   8
ENDBRANCH   6   7
ENDBRANCH   1   6
TORSDOF 6
ENDMDL
MODEL 4
REMARK VINA RESULT:    -2.540      9.970     11.797
REMARK INTER + INTRA:          -4.122
REMARK INTER:                  -3.449
REMARK INTRA:                  -0.673
REMARK UNBOUND:                -0.691
REMARK SMILES CCCCCCCC(C)=O
REMARK SMILES IDX 5 1 4 2 3 3 2 4 1 5 6 6 7 7 8 8 10 9 9 10
REMARK H PARENT
REMARK Flexibility Score: inf
ROOT
ATOM      1  C   UNL     1     143.252 132.930 145.575  1.00  0.00     0.000 C 
ENDROOT
BRANCH   1   2
ATOM      2  C   UNL     1     142.483 134.185 145.132  1.00  0.00     0.000 C 
BRANCH   2   3
ATOM      3  C   UNL     1     142.868 134.634 143.706  1.00  0.00    -0.000 C 
BRANCH   3   4
ATOM      4  C   UNL     1     143.356 136.090 143.630  1.00  0.00    -0.003 C 
ATOM      5  C   UNL     1     144.878 136.215 143.668  1.00  0.00     0.004 C 
ENDBRANCH   3   4
ENDBRANCH   2   3
ENDBRANCH   1   2
BRANCH   1   6
ATOM      6  C   UNL     1     143.874 132.212 144.369  1.00  0.00     0.008 C 
BRANCH   6   7
ATOM      7  C   UNL     1     145.304 131.726 144.642  1.00  0.00     0.075 C 
BRANCH   7   8
ATOM      8  C   UNL     1     146.336 132.753 144.256  1.00  0.00     0.129 C 
ATOM      9  O   UNL     1     146.620 132.918 143.079  1.00  0.00    -0.300 OA
ATOM     10  C   UNL     1     146.985 133.607 145.303  1.00  0.00     0.087 C 
ENDBRANCH   7   8
ENDBRANCH   6   7
ENDBRANCH   1   6
TORSDOF 6
ENDMDL
MODEL 5
REMARK VINA RESULT:    -2.508      1.939      3.249
REMARK INTER + INTRA:          -4.080
REMARK INTER:                  -3.251
REMARK INTRA:                  -0.829
REMARK UNBOUND:                -0.691
REMARK SMILES CCCCCCCC(C)=O
REMARK SMILES IDX 5 1 4 2 3 3 2 4 1 5 6 6 7 7 8 8 10 9 9 10
REMARK H PARENT
REMARK Flexibility Score: inf
ROOT
ATOM      1  C   UNL     1     145.545 142.488 144.712  1.00  0.00     0.000 C 
ENDROOT
BRANCH   1   2
ATOM      2  C   UNL     1     145.420 143.287 143.404  1.00  0.00     0.000 C 
BRANCH   2   3
ATOM      3  C   UNL     1     145.449 144.811 143.645  1.00  0.00    -0.000 C 
BRANCH   3   4
ATOM      4  C   UNL     1     145.091 145.213 145.085  1.00  0.00    -0.003 C 
ATOM      5  C   UNL     1     146.149 146.099 145.740  1.00  0.00     0.004 C 
ENDBRANCH   3   4
ENDBRANCH   2   3
ENDBRANCH   1   2
BRANCH   1   6
ATOM      6  C   UNL     1     146.973 141.952 144.894  1.00  0.00     0.008 C 
BRANCH   6   7
ATOM      7  C   UNL     1     147.721 142.641 146.044  1.00  0.00     0.075 C 
BRANCH   7   8
ATOM      8  C   UNL     1     148.828 143.534 145.547  1.00  0.00     0.129 C 
ATOM      9  O   UNL     1     149.416 144.267 146.328  1.00  0.00    -0.300 OA
ATOM     10  C   UNL     1     149.244 143.495 144.108  1.00  0.00     0.087 C 
ENDBRANCH   7   8
ENDBRANCH   6   7
ENDBRANCH   1   6
TORSDOF 6
ENDMDL
MODEL 6
REMARK VINA RESULT:    -2.496      1.343      3.382
REMARK INTER + INTRA:          -4.062
REMARK INTER:                  -3.262
REMARK INTRA:                  -0.800
REMARK UNBOUND:                -0.691
REMARK SMILES CCCCCCCC(C)=O
REMARK SMILES IDX 5 1 4 2 3 3 2 4 1 5 6 6 7 7 8 8 10 9 9 10
REMARK H PARENT
REMARK Flexibility Score: inf
ROOT
ATOM      1  C   UNL     1     147.702 142.360 144.921  1.00  0.00     0.000 C 
ENDROOT
BRANCH   1   2
ATOM      2  C   UNL     1     148.750 143.348 145.459  1.00  0.00     0.000 C 
BRANCH   2   3
ATOM      3  C   UNL     1     149.259 144.313 144.367  1.00  0.00    -0.000 C 
BRANCH   3   4
ATOM      4  C   UNL     1     148.949 145.790 144.658  1.00  0.00    -0.003 C 
ATOM      5  C   UNL     1     148.520 146.568 143.415  1.00  0.00     0.004 C 
ENDBRANCH   3   4
ENDBRANCH   2   3
ENDBRANCH   1   2
BRANCH   1   6
ATOM      6  C   UNL     1     147.088 142.871 143.609  1.00  0.00     0.008 C 
BRANCH   6   7
ATOM      7  C   UNL     1     145.589 143.177 143.738  1.00  0.00     0.075 C 
BRANCH   7   8
ATOM      8  C   UNL     1     145.330 144.628 144.051  1.00  0.00     0.129 C 
ATOM      9  O   UNL     1     145.166 145.428 143.143  1.00  0.00    -0.300 OA
ATOM     10  C   UNL     1     145.227 145.089 145.474  1.00  0.00     0.087 C 
ENDBRANCH   7   8
ENDBRANCH   6   7
ENDBRANCH   1   6
TORSDOF 6
ENDMDL
MODEL 7
REMARK VINA RESULT:    -2.481      9.012     10.785
REMARK INTER + INTRA:          -4.043
REMARK INTER:                  -3.216
REMARK INTRA:                  -0.827
REMARK UNBOUND:                -0.691
REMARK SMILES CCCCCCCC(C)=O
REMARK SMILES IDX 5 1 4 2 3 3 2 4 1 5 6 6 7 7 8 8 10 9 9 10
REMARK H PARENT
REMARK Flexibility Score: inf
ROOT
ATOM      1  C   UNL     1     143.298 136.003 143.691  1.00  0.00     0.000 C 
ENDROOT
BRANCH   1   2
ATOM      2  C   UNL     1     142.919 134.513 143.654  1.00  0.00     0.000 C 
BRANCH   2   3
ATOM      3  C   UNL     1     142.496 133.982 145.040  1.00  0.00    -0.000 C 
BRANCH   3   4
ATOM      4  C   UNL     1     143.390 132.845 145.563  1.00  0.00    -0.003 C 
ATOM      5  C   UNL     1     144.128 132.104 144.450  1.00  0.00     0.004 C 
ENDBRANCH   3   4
ENDBRANCH   2   3
ENDBRANCH   1   2
BRANCH   1   6
ATOM      6  C   UNL     1     144.812 136.190 143.517  1.00  0.00     0.008 C 
BRANCH   6   7
ATOM      7  C   UNL     1     145.487 136.753 144.775  1.00  0.00     0.075 C 
BRANCH   7   8
ATOM      8  C   UNL     1     145.773 135.681 145.794  1.00  0.00     0.129 C 
ATOM      9  O   UNL     1     145.167 135.670 146.855  1.00  0.00    -0.300 OA
ATOM     10  C   UNL     1     146.766 134.598 145.496  1.00  0.00     0.087 C 
ENDBRANCH   7   8
ENDBRANCH   6   7
ENDBRANCH   1   6
TORSDOF 6
ENDMDL
MODEL 8
REMARK VINA RESULT:    -2.474     13.607     15.812
REMARK INTER + INTRA:          -4.034
REMARK INTER:                  -3.355
REMARK INTRA:                  -0.679
REMARK UNBOUND:                -0.691
REMARK SMILES CCCCCCCC(C)=O
REMARK SMILES IDX 5 1 4 2 3 3 2 4 1 5 6 6 7 7 8 8 10 9 9 10
REMARK H PARENT
REMARK Flexibility Score: inf
ROOT
ATOM      1  C   UNL     1     133.199 138.617 145.428  1.00  0.00     0.000 C 
ENDROOT
BRANCH   1   2
ATOM      2  C   UNL     1     132.312 138.022 144.322  1.00  0.00     0.000 C 
BRANCH   2   3
ATOM      3  C   UNL     1     131.726 136.650 144.718  1.00  0.00    -0.000 C 
BRANCH   3   4
ATOM      4  C   UNL     1     132.754 135.508 144.679  1.00  0.00    -0.003 C 
ATOM      5  C   UNL     1     133.030 134.999 143.265  1.00  0.00     0.004 C 
ENDBRANCH   3   4
ENDBRANCH   2   3
ENDBRANCH   1   2
BRANCH   1   6
ATOM      6  C   UNL     1     134.483 139.219 144.838  1.00  0.00     0.008 C 
BRANCH   6   7
ATOM      7  C   UNL     1     134.998 138.436 143.621  1.00  0.00     0.075 C 
BRANCH   7   8
ATOM      8  C   UNL     1     136.022 137.400 144.004  1.00  0.00     0.129 C 
ATOM      9  O   UNL     1     136.238 136.454 143.262  1.00  0.00    -0.300 OA
ATOM     10  C   UNL     1     136.812 137.546 145.270  1.00  0.00     0.087 C 
ENDBRANCH   7   8
ENDBRANCH   6   7
ENDBRANCH   1   6
TORSDOF 6
ENDMDL
MODEL 9
REMARK VINA RESULT:    -2.473      9.338     11.364
REMARK INTER + INTRA:          -4.031
REMARK INTER:                  -3.331
REMARK INTRA:                  -0.700
REMARK UNBOUND:                -0.691
REMARK SMILES CCCCCCCC(C)=O
REMARK SMILES IDX 5 1 4 2 3 3 2 4 1 5 6 6 7 7 8 8 10 9 9 10
REMARK H PARENT
REMARK Flexibility Score: inf
ROOT
ATOM      1  C   UNL     1     138.640 148.192 145.266  1.00  0.00     0.000 C 
ENDROOT
BRANCH   1   2
ATOM      2  C   UNL     1     138.219 149.310 144.298  1.00  0.00     0.000 C 
BRANCH   2   3
ATOM      3  C   UNL     1     136.819 149.871 144.627  1.00  0.00    -0.000 C 
BRANCH   3   4
ATOM      4  C   UNL     1     135.738 148.787 144.765  1.00  0.00    -0.003 C 
ATOM      5  C   UNL     1     135.106 148.398 143.429  1.00  0.00     0.004 C 
ENDBRANCH   3   4
ENDBRANCH   2   3
ENDBRANCH   1   2
BRANCH   1   6
ATOM      6  C   UNL     1     139.331 147.045 144.515  1.00  0.00     0.008 C 
BRANCH   6   7
ATOM      7  C   UNL     1     138.357 146.232 143.651  1.00  0.00     0.075 C 
BRANCH   7   8
ATOM      8  C   UNL     1     137.666 145.150 144.440  1.00  0.00     0.129 C 
ATOM      9  O   UNL     1     138.303 144.473 145.233  1.00  0.00    -0.300 OA
ATOM     10  C   UNL     1     136.190 144.929 144.292  1.00  0.00     0.087 C 
ENDBRANCH   7   8
ENDBRANCH   6   7
ENDBRANCH   1   6
TORSDOF 6
ENDMDL
