MODEL 1
REMARK VINA RESULT:    -3.290      0.000      0.000
REMARK INTER + INTRA:          -4.194
REMARK INTER:                  -4.156
REMARK INTRA:                  -0.038
REMARK UNBOUND:                -0.038
REMARK SMILES CCCCCCO
REMARK SMILES IDX 4 1 3 2 2 3 1 4 5 5 6 6 7 7
REMARK H PARENT 7 8
REMARK Flexibility Score: inf
ROOT
ATOM      1  C   UNL     1     212.597 197.950 213.159  1.00  0.00     0.002 C 
ENDROOT
BRANCH   1   2
ATOM      2  C   UNL     1     212.097 197.600 211.749  1.00  0.00    -0.000 C 
BRANCH   2   3
ATOM      3  C   UNL     1     211.329 198.757 211.091  1.00  0.00    -0.003 C 
ATOM      4  C   UNL     1     209.986 198.319 210.507  1.00  0.00     0.004 C 
ENDBRANCH   2   3
ENDBRANCH   1   2
BRANCH   1   5
ATOM      5  C   UNL     1     212.914 196.679 213.958  1.00  0.00     0.028 C 
BRANCH   5   6
ATOM      6  C   UNL     1     212.588 196.847 215.446  1.00  0.00     0.156 C 
BRANCH   6   7
ATOM      7  O   UNL     1     213.131 195.796 216.200  1.00  0.00    -0.396 OA
ATOM      8  H   UNL     1     213.023 196.048 217.154  1.00  0.00     0.210 HD
ENDBRANCH   6   7
ENDBRANCH   5   6
ENDBRANCH   1   5
TORSDOF 5
ENDMDL
MODEL 2
REMARK VINA RESULT:    -3.256      1.108      1.346
REMARK INTER + INTRA:          -4.151
REMARK INTER:                  -4.082
REMARK INTRA:                  -0.069
REMARK UNBOUND:                -0.038
REMARK SMILES CCCCCCO
REMARK SMILES IDX 4 1 3 2 2 3 1 4 5 5 6 6 7 7
REMARK H PARENT 7 8
REMARK Flexibility Score: inf
ROOT
ATOM      1  C   UNL     1     212.657 197.420 213.707  1.00  0.00     0.002 C 
ENDROOT
BRANCH   1   2
ATOM      2  C   UNL     1     212.711 196.599 212.410  1.00  0.00    -0.000 C 
BRANCH   2   3
ATOM      3  C   UNL     1     212.004 197.299 211.238  1.00  0.00    -0.003 C 
ATOM      4  C   UNL     1     211.473 198.683 211.610  1.00  0.00     0.004 C 
ENDBRANCH   2   3
ENDBRANCH   1   2
BRANCH   1   5
ATOM      5  C   UNL     1     213.075 196.567 214.912  1.00  0.00     0.028 C 
BRANCH   5   6
ATOM      6  C   UNL     1     212.429 197.062 216.211  1.00  0.00     0.156 C 
BRANCH   6   7
ATOM      7  O   UNL     1     211.696 196.039 216.829  1.00  0.00    -0.396 OA
ATOM      8  H   UNL     1     212.346 195.325 217.059  1.00  0.00     0.210 HD
ENDBRANCH   6   7
ENDBRANCH   5   6
ENDBRANCH   1   5
TORSDOF 5
ENDMDL
MODEL 3
REMARK VINA RESULT:    -3.197      2.459      3.988
REMARK INTER + INTRA:          -4.076
REMARK INTER:                  -3.932
REMARK INTRA:                  -0.144
REMARK UNBOUND:                -0.038
REMARK SMILES CCCCCCO
REMARK SMILES IDX 4 1 3 2 2 3 1 4 5 5 6 6 7 7
REMARK H PARENT 7 8
REMARK Flexibility Score: inf
ROOT
ATOM      1  C   UNL     1     212.517 197.427 213.640  1.00  0.00     0.002 C 
ENDROOT
BRANCH   1   2
ATOM      2  C   UNL     1     213.759 197.468 214.543  1.00  0.00    -0.000 C 
BRANCH   2   3
ATOM      3  C   UNL     1     213.402 197.613 216.031  1.00  0.00    -0.003 C 
ATOM      4  C   UNL     1     212.155 196.820 216.420  1.00  0.00     0.004 C 
ENDBRANCH   2   3
ENDBRANCH   1   2
BRANCH   1   5
ATOM      5  C   UNL     1     212.762 196.541 212.411  1.00  0.00     0.028 C 
BRANCH   5   6
ATOM      6  C   UNL     1     213.892 195.534 212.652  1.00  0.00     0.156 C 
BRANCH   6   7
ATOM      7  O   UNL     1     213.393 194.226 212.721  1.00  0.00    -0.396 OA
ATOM      8  H   UNL     1     212.464 194.295 213.065  1.00  0.00     0.210 HD
ENDBRANCH   6   7
ENDBRANCH   5   6
ENDBRANCH   1   5
TORSDOF 5
ENDMDL
MODEL 4
REMARK VINA RESULT:    -3.079      2.604      4.567
REMARK INTER + INTRA:          -3.927
REMARK INTER:                  -3.881
REMARK INTRA:                  -0.047
REMARK UNBOUND:                -0.038
REMARK SMILES CCCCCCO
REMARK SMILES IDX 4 1 3 2 2 3 1 4 5 5 6 6 7 7
REMARK H PARENT 7 8
REMARK Flexibility Score: inf
ROOT
ATOM      1  C   UNL     1     212.268 198.015 212.860  1.00  0.00     0.002 C 
ENDROOT
BRANCH   1   2
ATOM      2  C   UNL     1     212.916 196.872 213.656  1.00  0.00    -0.000 C 
BRANCH   2   3
ATOM      3  C   UNL     1     213.207 197.259 215.114  1.00  0.00    -0.003 C 
ATOM      4  C   UNL     1     212.144 196.747 216.085  1.00  0.00     0.004 C 
ENDBRANCH   2   3
ENDBRANCH   1   2
BRANCH   1   5
ATOM      5  C   UNL     1     212.078 197.620 211.389  1.00  0.00     0.028 C 
BRANCH   5   6
ATOM      6  C   UNL     1     211.408 198.737 210.582  1.00  0.00     0.156 C 
BRANCH   6   7
ATOM      7  O   UNL     1     211.316 199.916 211.336  1.00  0.00    -0.396 OA
ATOM      8  H   UNL     1     210.486 199.843 211.876  1.00  0.00     0.210 HD
ENDBRANCH   6   7
ENDBRANCH   5   6
ENDBRANCH   1   5
TORSDOF 5
ENDMDL
MODEL 5
REMARK VINA RESULT:    -2.994      1.126      1.455
REMARK INTER + INTRA:          -3.820
REMARK INTER:                  -3.724
REMARK INTRA:                  -0.097
REMARK UNBOUND:                -0.038
REMARK SMILES CCCCCCO
REMARK SMILES IDX 4 1 3 2 2 3 1 4 5 5 6 6 7 7
REMARK H PARENT 7 8
REMARK Flexibility Score: inf
ROOT
ATOM      1  C   UNL     1     212.237 196.694 211.788  1.00  0.00     0.002 C 
ENDROOT
BRANCH   1   2
ATOM      2  C   UNL     1     212.289 197.531 210.501  1.00  0.00    -0.000 C 
BRANCH   2   3
ATOM      3  C   UNL     1     211.362 198.756 210.555  1.00  0.00    -0.003 C 
ATOM      4  C   UNL     1     209.882 198.380 210.497  1.00  0.00     0.004 C 
ENDBRANCH   2   3
ENDBRANCH   1   2
BRANCH   1   5
ATOM      5  C   UNL     1     212.485 197.570 213.022  1.00  0.00     0.028 C 
BRANCH   5   6
ATOM      6  C   UNL     1     212.939 196.740 214.227  1.00  0.00     0.156 C 
BRANCH   6   7
ATOM      7  O   UNL     1     213.432 195.492 213.820  1.00  0.00    -0.396 OA
ATOM      8  H   UNL     1     213.958 195.133 214.581  1.00  0.00     0.210 HD
ENDBRANCH   6   7
ENDBRANCH   5   6
ENDBRANCH   1   5
TORSDOF 5
ENDMDL
MODEL 6
REMARK VINA RESULT:    -2.952      2.870      4.566
REMARK INTER + INTRA:          -3.767
REMARK INTER:                  -3.666
REMARK INTRA:                  -0.101
REMARK UNBOUND:                -0.038
REMARK SMILES CCCCCCO
REMARK SMILES IDX 4 1 3 2 2 3 1 4 5 5 6 6 7 7
REMARK H PARENT 7 8
REMARK Flexibility Score: inf
ROOT
ATOM      1  C   UNL     1     212.129 198.226 212.588  1.00  0.00     0.002 C 
ENDROOT
BRANCH   1   2
ATOM      2  C   UNL     1     212.632 196.775 212.571  1.00  0.00    -0.000 C 
BRANCH   2   3
ATOM      3  C   UNL     1     213.346 196.383 213.875  1.00  0.00    -0.003 C 
ATOM      4  C   UNL     1     212.638 196.915 215.120  1.00  0.00     0.004 C 
ENDBRANCH   2   3
ENDBRANCH   1   2
BRANCH   1   5
ATOM      5  C   UNL     1     211.443 198.583 211.263  1.00  0.00     0.028 C 
BRANCH   5   6
ATOM      6  C   UNL     1     212.154 197.946 210.064  1.00  0.00     0.156 C 
BRANCH   6   7
ATOM      7  O   UNL     1     211.272 197.144 209.325  1.00  0.00    -0.396 OA
ATOM      8  H   UNL     1     211.193 196.285 209.815  1.00  0.00     0.210 HD
ENDBRANCH   6   7
ENDBRANCH   5   6
ENDBRANCH   1   5
TORSDOF 5
ENDMDL
MODEL 7
REMARK VINA RESULT:    -2.880     15.579     16.393
REMARK INTER + INTRA:          -3.676
REMARK INTER:                  -3.555
REMARK INTRA:                  -0.120
REMARK UNBOUND:                -0.038
REMARK SMILES CCCCCCO
REMARK SMILES IDX 4 1 3 2 2 3 1 4 5 5 6 6 7 7
REMARK H PARENT 7 8
REMARK Flexibility Score: inf
ROOT
ATOM      1  C   UNL     1     196.902 200.974 207.219  1.00  0.00     0.002 C 
ENDROOT
BRANCH   1   2
ATOM      2  C   UNL     1     198.420 201.184 207.112  1.00  0.00    -0.000 C 
BRANCH   2   3
ATOM      3  C   UNL     1     198.844 202.618 207.466  1.00  0.00    -0.003 C 
ATOM      4  C   UNL     1     197.654 203.535 207.744  1.00  0.00     0.004 C 
ENDBRANCH   2   3
ENDBRANCH   1   2
BRANCH   1   5
ATOM      5  C   UNL     1     196.439 199.839 206.296  1.00  0.00     0.028 C 
BRANCH   5   6
ATOM      6  C   UNL     1     197.564 198.835 206.020  1.00  0.00     0.156 C 
BRANCH   6   7
ATOM      7  O   UNL     1     197.402 197.676 206.793  1.00  0.00    -0.396 OA
ATOM      8  H   UNL     1     198.291 197.467 207.180  1.00  0.00     0.210 HD
ENDBRANCH   6   7
ENDBRANCH   5   6
ENDBRANCH   1   5
TORSDOF 5
ENDMDL
MODEL 8
REMARK VINA RESULT:    -2.871      2.837      3.801
REMARK INTER + INTRA:          -3.665
REMARK INTER:                  -3.515
REMARK INTRA:                  -0.150
REMARK UNBOUND:                -0.038
REMARK SMILES CCCCCCO
REMARK SMILES IDX 4 1 3 2 2 3 1 4 5 5 6 6 7 7
REMARK H PARENT 7 8
REMARK Flexibility Score: inf
ROOT
ATOM      1  C   UNL     1     211.804 198.122 209.582  1.00  0.00     0.002 C 
ENDROOT
BRANCH   1   2
ATOM      2  C   UNL     1     211.708 199.533 208.983  1.00  0.00    -0.000 C 
BRANCH   2   3
ATOM      3  C   UNL     1     210.424 200.266 209.401  1.00  0.00    -0.003 C 
ATOM      4  C   UNL     1     210.219 201.578 208.645  1.00  0.00     0.004 C 
ENDBRANCH   2   3
ENDBRANCH   1   2
BRANCH   1   5
ATOM      5  C   UNL     1     210.996 198.023 210.882  1.00  0.00     0.028 C 
BRANCH   5   6
ATOM      6  C   UNL     1     211.881 198.222 212.118  1.00  0.00     0.156 C 
BRANCH   6   7
ATOM      7  O   UNL     1     211.603 199.447 212.741  1.00  0.00    -0.396 OA
ATOM      8  H   UNL     1     212.449 199.746 213.167  1.00  0.00     0.210 HD
ENDBRANCH   6   7
ENDBRANCH   5   6
ENDBRANCH   1   5
TORSDOF 5
ENDMDL
MODEL 9
REMARK VINA RESULT:    -2.871     17.414     18.618
REMARK INTER + INTRA:          -3.664
REMARK INTER:                  -3.573
REMARK INTRA:                  -0.092
REMARK UNBOUND:                -0.038
REMARK SMILES CCCCCCO
REMARK SMILES IDX 4 1 3 2 2 3 1 4 5 5 6 6 7 7
REMARK H PARENT 7 8
REMARK Flexibility Score: inf
ROOT
ATOM      1  C   UNL     1     196.255 207.553 208.665  1.00  0.00     0.002 C 
ENDROOT
BRANCH   1   2
ATOM      2  C   UNL     1     196.392 206.239 207.880  1.00  0.00    -0.000 C 
BRANCH   2   3
ATOM      3  C   UNL     1     197.666 205.462 208.250  1.00  0.00    -0.003 C 
ATOM      4  C   UNL     1     197.597 203.989 207.847  1.00  0.00     0.004 C 
ENDBRANCH   2   3
ENDBRANCH   1   2
BRANCH   1   5
ATOM      5  C   UNL     1     197.257 207.606 209.825  1.00  0.00     0.028 C 
BRANCH   5   6
ATOM      6  C   UNL     1     196.929 208.734 210.809  1.00  0.00     0.156 C 
BRANCH   6   7
ATOM      7  O   UNL     1     197.256 209.985 210.265  1.00  0.00    -0.396 OA
ATOM      8  H   UNL     1     197.430 210.591 211.031  1.00  0.00     0.210 HD
ENDBRANCH   6   7
ENDBRANCH   5   6
ENDBRANCH   1   5
TORSDOF 5
ENDMDL
