MODEL 1
REMARK VINA RESULT:    -4.939      0.000      0.000
REMARK INTER + INTRA:          -5.709
REMARK INTER:                  -5.661
REMARK INTRA:                  -0.048
REMARK UNBOUND:                -0.048
REMARK SMILES O=C([O-])c1cc(O)c(O)c(O)c1
REMARK SMILES IDX 4 1 5 2 12 3 6 4 10 5 8 6 2 7 1 8 3 9 7 10 11 12 9 14
REMARK H PARENT 7 11 11 13 9 15
REMARK Flexibility Score: inf
ROOT
ATOM      1  C   UNL     1      21.337   1.989  -3.831  1.00  0.00     0.005 A 
ATOM      2  C   UNL     1      21.732   2.882  -2.822  1.00  0.00     0.060 A 
ATOM      3  C   UNL     1      21.159   0.631  -3.509  1.00  0.00     0.060 A 
ATOM      4  C   UNL     1      21.947   2.431  -1.512  1.00  0.00     0.162 A 
ATOM      5  C   UNL     1      21.372   0.175  -2.202  1.00  0.00     0.162 A 
ATOM      6  C   UNL     1      21.766   1.072  -1.202  1.00  0.00     0.200 A 
ENDROOT
BRANCH   1   7
ATOM      7  C   UNL     1      21.112   2.473  -5.211  1.00  0.00     0.072 C 
ATOM      8  O   UNL     1      20.091   2.115  -5.857  1.00  0.00    -0.545 OA
ATOM      9  O   UNL     1      22.024   3.331  -5.815  1.00  0.00    -0.545 OA
ENDBRANCH   1   7
BRANCH   4  10
ATOM     10  O   UNL     1      22.339   3.327  -0.519  1.00  0.00    -0.504 OA
ATOM     11  H   UNL     1      22.116   4.313  -0.575  1.00  0.00     0.293 HD
ENDBRANCH   4  10
BRANCH   5  12
ATOM     12  O   UNL     1      21.194  -1.172  -1.889  1.00  0.00    -0.504 OA
ATOM     13  H   UNL     1      20.350  -1.670  -2.146  1.00  0.00     0.293 HD
ENDBRANCH   5  12
BRANCH   6  14
ATOM     14  O   UNL     1      21.974   0.599   0.095  1.00  0.00    -0.502 OA
ATOM     15  H   UNL     1      22.107   1.223   0.881  1.00  0.00     0.293 HD
ENDBRANCH   6  14
TORSDOF 4
ENDMDL
MODEL 2
REMARK VINA RESULT:    -4.916      0.127      2.425
REMARK INTER + INTRA:          -5.683
REMARK INTER:                  -5.634
REMARK INTRA:                  -0.048
REMARK UNBOUND:                -0.048
REMARK SMILES O=C([O-])c1cc(O)c(O)c(O)c1
REMARK SMILES IDX 4 1 5 2 12 3 6 4 10 5 8 6 2 7 1 8 3 9 7 10 11 12 9 14
REMARK H PARENT 7 11 11 13 9 15
REMARK Flexibility Score: inf
ROOT
ATOM      1  C   UNL     1      21.429   1.898  -3.844  1.00  0.00     0.005 A 
ATOM      2  C   UNL     1      21.248   0.542  -3.522  1.00  0.00     0.060 A 
ATOM      3  C   UNL     1      21.780   2.800  -2.824  1.00  0.00     0.060 A 
ATOM      4  C   UNL     1      21.415   0.092  -2.204  1.00  0.00     0.162 A 
ATOM      5  C   UNL     1      21.948   2.356  -1.506  1.00  0.00     0.162 A 
ATOM      6  C   UNL     1      21.766   1.003  -1.193  1.00  0.00     0.200 A 
ENDROOT
BRANCH   1   7
ATOM      7  C   UNL     1      21.251   2.364  -5.237  1.00  0.00     0.072 C 
ATOM      8  O   UNL     1      20.244   2.013  -5.906  1.00  0.00    -0.545 OA
ATOM      9  O   UNL     1      22.194   3.198  -5.827  1.00  0.00    -0.545 OA
ENDBRANCH   1   7
BRANCH   4  10
ATOM     10  O   UNL     1      21.232  -1.255  -1.897  1.00  0.00    -0.504 OA
ATOM     11  H   UNL     1      21.750  -1.983  -2.373  1.00  0.00     0.293 HD
ENDBRANCH   4  10
BRANCH   5  12
ATOM     12  O   UNL     1      22.297   3.255  -0.499  1.00  0.00    -0.504 OA
ATOM     13  H   UNL     1      22.445   4.239  -0.694  1.00  0.00     0.293 HD
ENDBRANCH   5  12
BRANCH   6  14
ATOM     14  O   UNL     1      21.937   0.580   0.125  1.00  0.00    -0.502 OA
ATOM     15  H   UNL     1      21.922  -0.400   0.383  1.00  0.00     0.293 HD
ENDBRANCH   6  14
TORSDOF 4
ENDMDL
MODEL 3
REMARK VINA RESULT:    -4.530      1.608      4.224
REMARK INTER + INTRA:          -5.240
REMARK INTER:                  -5.194
REMARK INTRA:                  -0.046
REMARK UNBOUND:                -0.048
REMARK SMILES O=C([O-])c1cc(O)c(O)c(O)c1
REMARK SMILES IDX 4 1 5 2 12 3 6 4 10 5 8 6 2 7 1 8 3 9 7 10 11 12 9 14
REMARK H PARENT 7 11 11 13 9 15
REMARK Flexibility Score: inf
ROOT
ATOM      1  C   UNL     1      21.638   1.520  -2.351  1.00  0.00     0.005 A 
ATOM      2  C   UNL     1      22.967   1.695  -2.773  1.00  0.00     0.060 A 
ATOM      3  C   UNL     1      20.629   1.369  -3.318  1.00  0.00     0.060 A 
ATOM      4  C   UNL     1      23.285   1.718  -4.139  1.00  0.00     0.162 A 
ATOM      5  C   UNL     1      20.941   1.392  -4.683  1.00  0.00     0.162 A 
ATOM      6  C   UNL     1      22.268   1.565  -5.097  1.00  0.00     0.200 A 
ENDROOT
BRANCH   1   7
ATOM      7  C   UNL     1      21.311   1.497  -0.908  1.00  0.00     0.072 C 
ATOM      8  O   UNL     1      20.802   0.470  -0.383  1.00  0.00    -0.545 OA
ATOM      9  O   UNL     1      21.561   2.607  -0.110  1.00  0.00    -0.545 OA
ENDBRANCH   1   7
BRANCH   4  10
ATOM     10  O   UNL     1      24.606   1.892  -4.546  1.00  0.00    -0.504 OA
ATOM     11  H   UNL     1      24.840   2.137  -5.500  1.00  0.00     0.293 HD
ENDBRANCH   4  10
BRANCH   5  12
ATOM     12  O   UNL     1      19.936   1.241  -5.638  1.00  0.00    -0.504 OA
ATOM     13  H   UNL     1      19.143   1.870  -5.677  1.00  0.00     0.293 HD
ENDBRANCH   5  12
BRANCH   6  14
ATOM     14  O   UNL     1      22.559   1.586  -6.461  1.00  0.00    -0.502 OA
ATOM     15  H   UNL     1      22.688   0.736  -6.997  1.00  0.00     0.293 HD
ENDBRANCH   6  14
TORSDOF 4
ENDMDL
MODEL 4
REMARK VINA RESULT:    -4.510      1.571      4.527
REMARK INTER + INTRA:          -5.218
REMARK INTER:                  -5.172
REMARK INTRA:                  -0.045
REMARK UNBOUND:                -0.048
REMARK SMILES O=C([O-])c1cc(O)c(O)c(O)c1
REMARK SMILES IDX 4 1 5 2 12 3 6 4 10 5 8 6 2 7 1 8 3 9 7 10 11 12 9 14
REMARK H PARENT 7 11 11 13 9 15
REMARK Flexibility Score: inf
ROOT
ATOM      1  C   UNL     1      21.736   1.597  -2.385  1.00  0.00     0.005 A 
ATOM      2  C   UNL     1      20.699   1.409  -3.314  1.00  0.00     0.060 A 
ATOM      3  C   UNL     1      23.047   1.788  -2.856  1.00  0.00     0.060 A 
ATOM      4  C   UNL     1      20.964   1.412  -4.691  1.00  0.00     0.162 A 
ATOM      5  C   UNL     1      23.317   1.792  -4.230  1.00  0.00     0.162 A 
ATOM      6  C   UNL     1      22.277   1.604  -5.150  1.00  0.00     0.200 A 
ENDROOT
BRANCH   1   7
ATOM      7  C   UNL     1      21.448   1.594  -0.934  1.00  0.00     0.072 C 
ATOM      8  O   UNL     1      21.117   0.528  -0.349  1.00  0.00    -0.545 OA
ATOM      9  O   UNL     1      21.539   2.767  -0.194  1.00  0.00    -0.545 OA
ENDBRANCH   1   7
BRANCH   4  10
ATOM     10  O   UNL     1      19.926   1.224  -5.603  1.00  0.00    -0.504 OA
ATOM     11  H   UNL     1      19.615   1.969  -6.214  1.00  0.00     0.293 HD
ENDBRANCH   4  10
BRANCH   5  12
ATOM     12  O   UNL     1      24.619   1.982  -4.692  1.00  0.00    -0.504 OA
ATOM     13  H   UNL     1      24.861   2.762  -5.292  1.00  0.00     0.293 HD
ENDBRANCH   5  12
BRANCH   6  14
ATOM     14  O   UNL     1      22.566   1.609  -6.515  1.00  0.00    -0.502 OA
ATOM     15  H   UNL     1      23.504   1.461  -6.868  1.00  0.00     0.293 HD
ENDBRANCH   6  14
TORSDOF 4
ENDMDL
MODEL 5
REMARK VINA RESULT:    -4.481      2.591      2.825
REMARK INTER + INTRA:          -5.185
REMARK INTER:                  -5.132
REMARK INTRA:                  -0.052
REMARK UNBOUND:                -0.048
REMARK SMILES O=C([O-])c1cc(O)c(O)c(O)c1
REMARK SMILES IDX 4 1 5 2 12 3 6 4 10 5 8 6 2 7 1 8 3 9 7 10 11 12 9 14
REMARK H PARENT 7 11 11 13 9 15
REMARK Flexibility Score: inf
ROOT
ATOM      1  C   UNL     1      19.022   2.117  -1.887  1.00  0.00     0.005 A 
ATOM      2  C   UNL     1      19.662   2.850  -0.873  1.00  0.00     0.060 A 
ATOM      3  C   UNL     1      19.492   0.828  -2.197  1.00  0.00     0.060 A 
ATOM      4  C   UNL     1      20.753   2.307  -0.179  1.00  0.00     0.162 A 
ATOM      5  C   UNL     1      20.581   0.281  -1.506  1.00  0.00     0.162 A 
ATOM      6  C   UNL     1      21.213   1.019  -0.496  1.00  0.00     0.200 A 
ENDROOT
BRANCH   1   7
ATOM      7  C   UNL     1      17.872   2.697  -2.615  1.00  0.00     0.072 C 
ATOM      8  O   UNL     1      17.473   2.185  -3.695  1.00  0.00    -0.545 OA
ATOM      9  O   UNL     1      17.214   3.816  -2.117  1.00  0.00    -0.545 OA
ENDBRANCH   1   7
BRANCH   4  10
ATOM     10  O   UNL     1      21.379   3.044   0.825  1.00  0.00    -0.504 OA
ATOM     11  H   UNL     1      20.875   3.730   1.374  1.00  0.00     0.293 HD
ENDBRANCH   4  10
BRANCH   5  12
ATOM     12  O   UNL     1      21.042  -0.997  -1.817  1.00  0.00    -0.504 OA
ATOM     13  H   UNL     1      21.305  -1.251  -2.762  1.00  0.00     0.293 HD
ENDBRANCH   5  12
BRANCH   6  14
ATOM     14  O   UNL     1      22.297   0.457   0.180  1.00  0.00    -0.502 OA
ATOM     15  H   UNL     1      22.527  -0.526   0.106  1.00  0.00     0.293 HD
ENDBRANCH   6  14
TORSDOF 4
ENDMDL
MODEL 6
REMARK VINA RESULT:    -4.432      1.654      2.028
REMARK INTER + INTRA:          -5.128
REMARK INTER:                  -5.081
REMARK INTRA:                  -0.048
REMARK UNBOUND:                -0.048
REMARK SMILES O=C([O-])c1cc(O)c(O)c(O)c1
REMARK SMILES IDX 4 1 5 2 12 3 6 4 10 5 8 6 2 7 1 8 3 9 7 10 11 12 9 14
REMARK H PARENT 7 11 11 13 9 15
REMARK Flexibility Score: inf
ROOT
ATOM      1  C   UNL     1      20.372   1.845  -3.858  1.00  0.00     0.005 A 
ATOM      2  C   UNL     1      21.766   1.731  -3.722  1.00  0.00     0.060 A 
ATOM      3  C   UNL     1      19.552   1.551  -2.754  1.00  0.00     0.060 A 
ATOM      4  C   UNL     1      22.334   1.331  -2.504  1.00  0.00     0.162 A 
ATOM      5  C   UNL     1      20.115   1.150  -1.535  1.00  0.00     0.162 A 
ATOM      6  C   UNL     1      21.505   1.040  -1.407  1.00  0.00     0.200 A 
ENDROOT
BRANCH   1   7
ATOM      7  C   UNL     1      19.780   2.268  -5.146  1.00  0.00     0.072 C 
ATOM      8  O   UNL     1      20.183   3.313  -5.724  1.00  0.00    -0.545 OA
ATOM      9  O   UNL     1      18.770   1.519  -5.738  1.00  0.00    -0.545 OA
ENDBRANCH   1   7
BRANCH   4  10
ATOM     10  O   UNL     1      23.718   1.221  -2.380  1.00  0.00    -0.504 OA
ATOM     11  H   UNL     1      24.283   0.790  -3.102  1.00  0.00     0.293 HD
ENDBRANCH   4  10
BRANCH   5  12
ATOM     12  O   UNL     1      19.297   0.860  -0.444  1.00  0.00    -0.504 OA
ATOM     13  H   UNL     1      18.953   1.590   0.170  1.00  0.00     0.293 HD
ENDBRANCH   5  12
BRANCH   6  14
ATOM     14  O   UNL     1      22.047   0.639  -0.185  1.00  0.00    -0.502 OA
ATOM     15  H   UNL     1      22.590   1.266   0.395  1.00  0.00     0.293 HD
ENDBRANCH   6  14
TORSDOF 4
ENDMDL
MODEL 7
REMARK VINA RESULT:    -4.411      1.703      2.338
REMARK INTER + INTRA:          -5.104
REMARK INTER:                  -5.056
REMARK INTRA:                  -0.048
REMARK UNBOUND:                -0.048
REMARK SMILES O=C([O-])c1cc(O)c(O)c(O)c1
REMARK SMILES IDX 4 1 5 2 12 3 6 4 10 5 8 6 2 7 1 8 3 9 7 10 11 12 9 14
REMARK H PARENT 7 11 11 13 9 15
REMARK Flexibility Score: inf
ROOT
ATOM      1  C   UNL     1      20.184   1.777  -3.719  1.00  0.00     0.005 A 
ATOM      2  C   UNL     1      19.382   1.479  -2.605  1.00  0.00     0.060 A 
ATOM      3  C   UNL     1      21.582   1.676  -3.600  1.00  0.00     0.060 A 
ATOM      4  C   UNL     1      19.963   1.085  -1.391  1.00  0.00     0.162 A 
ATOM      5  C   UNL     1      22.168   1.283  -2.389  1.00  0.00     0.162 A 
ATOM      6  C   UNL     1      21.360   0.987  -1.283  1.00  0.00     0.200 A 
ENDROOT
BRANCH   1   7
ATOM      7  C   UNL     1      19.564   2.191  -4.997  1.00  0.00     0.072 C 
ATOM      8  O   UNL     1      19.969   3.219  -5.602  1.00  0.00    -0.545 OA
ATOM      9  O   UNL     1      18.524   1.452  -5.548  1.00  0.00    -0.545 OA
ENDBRANCH   1   7
BRANCH   4  10
ATOM     10  O   UNL     1      19.157   0.792  -0.292  1.00  0.00    -0.504 OA
ATOM     11  H   UNL     1      19.362   1.155   0.630  1.00  0.00     0.293 HD
ENDBRANCH   4  10
BRANCH   5  12
ATOM     12  O   UNL     1      23.553   1.184  -2.277  1.00  0.00    -0.504 OA
ATOM     13  H   UNL     1      24.119   1.967  -1.969  1.00  0.00     0.293 HD
ENDBRANCH   5  12
BRANCH   6  14
ATOM     14  O   UNL     1      21.962   0.598  -0.086  1.00  0.00    -0.502 OA
ATOM     15  H   UNL     1      21.504  -0.023   0.570  1.00  0.00     0.293 HD
ENDBRANCH   6  14
TORSDOF 4
ENDMDL
MODEL 8
REMARK VINA RESULT:    -4.293      2.696      3.490
REMARK INTER + INTRA:          -4.969
REMARK INTER:                  -4.923
REMARK INTRA:                  -0.046
REMARK UNBOUND:                -0.048
REMARK SMILES O=C([O-])c1cc(O)c(O)c(O)c1
REMARK SMILES IDX 4 1 5 2 12 3 6 4 10 5 8 6 2 7 1 8 3 9 7 10 11 12 9 14
REMARK H PARENT 7 11 11 13 9 15
REMARK Flexibility Score: inf
ROOT
ATOM      1  C   UNL     1      19.234   1.402  -2.159  1.00  0.00     0.005 A 
ATOM      2  C   UNL     1      19.952   1.790  -3.302  1.00  0.00     0.060 A 
ATOM      3  C   UNL     1      19.941   0.971  -1.022  1.00  0.00     0.060 A 
ATOM      4  C   UNL     1      21.354   1.749  -3.313  1.00  0.00     0.162 A 
ATOM      5  C   UNL     1      21.341   0.928  -1.028  1.00  0.00     0.162 A 
ATOM      6  C   UNL     1      22.050   1.317  -2.172  1.00  0.00     0.200 A 
ENDROOT
BRANCH   1   7
ATOM      7  C   UNL     1      17.755   1.448  -2.155  1.00  0.00     0.072 C 
ATOM      8  O   UNL     1      17.088   0.682  -2.900  1.00  0.00    -0.545 OA
ATOM      9  O   UNL     1      17.079   2.338  -1.328  1.00  0.00    -0.545 OA
ENDBRANCH   1   7
BRANCH   4  10
ATOM     10  O   UNL     1      22.056   2.136  -4.454  1.00  0.00    -0.504 OA
ATOM     11  H   UNL     1      21.859   3.010  -4.927  1.00  0.00     0.293 HD
ENDBRANCH   4  10
BRANCH   5  12
ATOM     12  O   UNL     1      22.038   0.500   0.101  1.00  0.00    -0.504 OA
ATOM     13  H   UNL     1      22.388   1.157   0.790  1.00  0.00     0.293 HD
ENDBRANCH   5  12
BRANCH   6  14
ATOM     14  O   UNL     1      23.445   1.267  -2.159  1.00  0.00    -0.502 OA
ATOM     15  H   UNL     1      23.965   0.949  -1.350  1.00  0.00     0.293 HD
ENDBRANCH   6  14
TORSDOF 4
ENDMDL
MODEL 9
REMARK VINA RESULT:    -4.148      2.155      3.400
REMARK INTER + INTRA:          -4.803
REMARK INTER:                  -4.751
REMARK INTRA:                  -0.052
REMARK UNBOUND:                -0.048
REMARK SMILES O=C([O-])c1cc(O)c(O)c(O)c1
REMARK SMILES IDX 4 1 5 2 12 3 6 4 10 5 8 6 2 7 1 8 3 9 7 10 11 12 9 14
REMARK H PARENT 7 11 11 13 9 15
REMARK Flexibility Score: inf
ROOT
ATOM      1  C   UNL     1      19.942   1.774  -4.231  1.00  0.00     0.005 A 
ATOM      2  C   UNL     1      20.669   1.770  -3.028  1.00  0.00     0.060 A 
ATOM      3  C   UNL     1      20.638   1.680  -5.449  1.00  0.00     0.060 A 
ATOM      4  C   UNL     1      22.068   1.674  -3.040  1.00  0.00     0.162 A 
ATOM      5  C   UNL     1      22.035   1.584  -5.466  1.00  0.00     0.162 A 
ATOM      6  C   UNL     1      22.753   1.580  -4.263  1.00  0.00     0.200 A 
ENDROOT
BRANCH   1   7
ATOM      7  C   UNL     1      18.466   1.876  -4.210  1.00  0.00     0.072 C 
ATOM      8  O   UNL     1      17.823   1.648  -3.151  1.00  0.00    -0.545 OA
ATOM      9  O   UNL     1      17.767   2.224  -5.360  1.00  0.00    -0.545 OA
ENDBRANCH   1   7
BRANCH   4  10
ATOM     10  O   UNL     1      22.778   1.671  -1.841  1.00  0.00    -0.504 OA
ATOM     11  H   UNL     1      23.755   1.934  -1.801  1.00  0.00     0.293 HD
ENDBRANCH   4  10
BRANCH   5  12
ATOM     12  O   UNL     1      22.720   1.491  -6.677  1.00  0.00    -0.504 OA
ATOM     13  H   UNL     1      23.027   0.598  -7.046  1.00  0.00     0.293 HD
ENDBRANCH   5  12
BRANCH   6  14
ATOM     14  O   UNL     1      24.144   1.484  -4.301  1.00  0.00    -0.502 OA
ATOM     15  H   UNL     1      24.744   2.273  -4.093  1.00  0.00     0.293 HD
ENDBRANCH   6  14
TORSDOF 4
ENDMDL
