MODEL 1
REMARK VINA RESULT:    -3.759      0.000      0.000
REMARK INTER + INTRA:          -6.139
REMARK INTER:                  -5.736
REMARK INTRA:                  -0.403
REMARK UNBOUND:                -0.403
REMARK SMILES CC1=CCC[C@@H](C)C(=O)C[C@H](C(C)C)C(=O)C1
REMARK SMILES IDX 8 1 9 2 6 3 7 4 5 5 4 6 3 7 2 8 1 9 10 11 11 12 15 13 16 14
REMARK SMILES IDX 17 15 12 17 13 18 14 19
REMARK H PARENT
REMARK Flexibility Score: 70.00
ROOT
ATOM      1  C   UNL     1      -7.865  36.018  -0.264  1.00  0.00     0.136 C 
ATOM      2  O   UNL     1      -6.807  35.411  -0.223  1.00  0.00    -0.299 OA
ENDROOT
BRANCH   1   3
ATOM      3  C   UNL     1      -9.109  35.343   0.293  1.00  0.00     0.053 C 
ATOM      4  C   UNL     1      -9.415  34.042  -0.461  1.00  0.00     0.016 C 
BRANCH   3   5
ATOM      5  C   UNL     1     -10.326  36.288   0.288  1.00  0.00     0.015 C 
BRANCH   5   6
ATOM      6  C   UNL     1     -11.278  35.965  -0.879  1.00  0.00     0.028 C 
BRANCH   6   7
ATOM      7  C   UNL     1     -11.825  37.185  -1.576  1.00  0.00    -0.028 C 
ATOM      8  C   UNL     1     -11.240  37.860  -2.598  1.00  0.00    -0.070 CG0
ATOM      9  C   UNL     1     -11.894  39.151  -3.030  1.00  0.00     0.039 C 
ATOM     10  G   UNL     1     -10.048  37.355  -3.408  1.00  0.00     0.000 G0
ENDBRANCH   6   7
ENDBRANCH   5   6
ENDBRANCH   3   5
ENDBRANCH   1   3
BRANCH   1  11
ATOM     11  C   UNL     1      -7.913  37.389  -0.915  1.00  0.00     0.087 C 
BRANCH  11  12
ATOM     12  C   UNL     1      -7.630  37.434  -2.448  1.00  0.00     0.066 C 
BRANCH  12  13
ATOM     13  C   UNL     1      -8.753  38.069  -3.256  1.00  0.00     0.140 C 
ATOM     14  O   UNL     1      -8.562  39.105  -3.878  1.00  0.00    -0.299 OA
BRANCH  13  15
ATOM     15  C   UNL     1     -10.062  37.332  -3.411  1.00  0.00     0.106 CG0
ATOM     16  G   UNL     1     -11.225  37.856  -2.573  1.00  0.00     0.000 G0
ENDBRANCH  13  15
ENDBRANCH  12  13
BRANCH  12  17
ATOM     17  C   UNL     1      -6.208  37.938  -2.868  1.00  0.00    -0.006 C 
ATOM     18  C   UNL     1      -5.562  38.919  -1.880  1.00  0.00     0.008 C 
ATOM     19  C   UNL     1      -5.245  36.770  -3.143  1.00  0.00     0.008 C 
ENDBRANCH  12  17
ENDBRANCH  11  12
ENDBRANCH   1  11
TORSDOF 1
ENDMDL
MODEL 2
REMARK VINA RESULT:    -3.611      1.775      4.100
REMARK INTER + INTRA:          -5.914
REMARK INTER:                  -5.672
REMARK INTRA:                  -0.242
REMARK UNBOUND:                -0.403
REMARK SMILES CC1=CCC[C@@H](C)C(=O)C[C@H](C(C)C)C(=O)C1
REMARK SMILES IDX 8 1 9 2 6 3 7 4 5 5 4 6 3 7 2 8 1 9 10 11 11 12 15 13 16 14
REMARK SMILES IDX 17 15 12 17 13 18 14 19
REMARK H PARENT
REMARK Flexibility Score: 70.00
ROOT
ATOM      1  C   UNL     1      -6.410  36.185  -0.088  1.00  0.00     0.136 C 
ATOM      2  O   UNL     1      -5.964  36.141   1.047  1.00  0.00    -0.299 OA
ENDROOT
BRANCH   1   3
ATOM      3  C   UNL     1      -5.654  36.994  -1.130  1.00  0.00     0.053 C 
ATOM      4  C   UNL     1      -5.618  38.481  -0.756  1.00  0.00     0.016 C 
BRANCH   3   5
ATOM      5  C   UNL     1      -6.232  36.791  -2.545  1.00  0.00     0.015 C 
BRANCH   5   6
ATOM      6  C   UNL     1      -6.891  38.080  -3.068  1.00  0.00     0.028 C 
BRANCH   6   7
ATOM      7  C   UNL     1      -8.047  37.838  -4.006  1.00  0.00    -0.028 C 
ATOM      8  C   UNL     1      -9.324  37.539  -3.652  1.00  0.00    -0.070 CG0
ATOM      9  C   UNL     1     -10.277  37.177  -4.766  1.00  0.00     0.039 C 
ATOM     10  G   UNL     1      -9.887  37.655  -2.237  1.00  0.00     0.000 G0
ENDBRANCH   6   7
ENDBRANCH   5   6
ENDBRANCH   3   5
ENDBRANCH   1   3
BRANCH   1  11
ATOM     11  C   UNL     1      -7.722  35.488  -0.401  1.00  0.00     0.087 C 
BRANCH  11  12
ATOM     12  C   UNL     1      -9.019  36.320  -0.163  1.00  0.00     0.066 C 
BRANCH  12  13
ATOM     13  C   UNL     1      -9.919  36.410  -1.387  1.00  0.00     0.140 C 
ATOM     14  O   UNL     1     -10.734  35.530  -1.625  1.00  0.00    -0.299 OA
BRANCH  13  15
ATOM     15  C   UNL     1      -9.906  37.666  -2.225  1.00  0.00     0.106 CG0
ATOM     16  G   UNL     1      -9.337  37.522  -3.634  1.00  0.00     0.000 G0
ENDBRANCH  13  15
ENDBRANCH  12  13
BRANCH  12  17
ATOM     17  C   UNL     1      -9.803  36.005   1.155  1.00  0.00    -0.006 C 
ATOM     18  C   UNL     1      -8.937  35.988   2.423  1.00  0.00     0.008 C 
ATOM     19  C   UNL     1     -10.994  36.958   1.355  1.00  0.00     0.008 C 
ENDBRANCH  12  17
ENDBRANCH  11  12
ENDBRANCH   1  11
TORSDOF 1
ENDMDL
MODEL 3
REMARK VINA RESULT:    -3.560      9.735     11.329
REMARK INTER + INTRA:          -5.837
REMARK INTER:                  -5.542
REMARK INTRA:                  -0.295
REMARK UNBOUND:                -0.403
REMARK SMILES CC1=CCC[C@@H](C)C(=O)C[C@H](C(C)C)C(=O)C1
REMARK SMILES IDX 8 1 9 2 6 3 7 4 5 5 4 6 3 7 2 8 1 9 10 11 11 12 15 13 16 14
REMARK SMILES IDX 17 15 12 17 13 18 14 19
REMARK H PARENT
REMARK Flexibility Score: 70.00
ROOT
ATOM      1  C   UNL     1     -18.152  35.476   6.918  1.00  0.00     0.136 C 
ATOM      2  O   UNL     1     -18.780  36.494   6.673  1.00  0.00    -0.299 OA
ENDROOT
BRANCH   1   3
ATOM      3  C   UNL     1     -18.927  34.202   7.212  1.00  0.00     0.053 C 
ATOM      4  C   UNL     1     -17.992  32.988   7.276  1.00  0.00     0.016 C 
BRANCH   3   5
ATOM      5  C   UNL     1     -20.065  33.974   6.197  1.00  0.00     0.015 C 
BRANCH   5   6
ATOM      6  C   UNL     1     -19.510  33.567   4.820  1.00  0.00     0.028 C 
BRANCH   6   7
ATOM      7  C   UNL     1     -19.700  34.614   3.751  1.00  0.00    -0.028 C 
ATOM      8  C   UNL     1     -18.733  35.395   3.205  1.00  0.00    -0.070 CG0
ATOM      9  C   UNL     1     -19.184  36.488   2.267  1.00  0.00     0.039 C 
ATOM     10  G   UNL     1     -17.232  35.175   3.381  1.00  0.00     0.000 G0
ENDBRANCH   6   7
ENDBRANCH   5   6
ENDBRANCH   3   5
ENDBRANCH   1   3
BRANCH   1  11
ATOM     11  C   UNL     1     -16.636  35.532   6.978  1.00  0.00     0.087 C 
BRANCH  11  12
ATOM     12  C   UNL     1     -15.884  35.319   5.628  1.00  0.00     0.066 C 
BRANCH  12  13
ATOM     13  C   UNL     1     -16.544  36.014   4.447  1.00  0.00     0.140 C 
ATOM     14  O   UNL     1     -16.427  37.222   4.291  1.00  0.00    -0.299 OA
BRANCH  13  15
ATOM     15  C   UNL     1     -17.218  35.183   3.382  1.00  0.00     0.106 CG0
ATOM     16  G   UNL     1     -18.722  35.398   3.220  1.00  0.00     0.000 G0
ENDBRANCH  13  15
ENDBRANCH  12  13
BRANCH  12  17
ATOM     17  C   UNL     1     -14.331  35.518   5.671  1.00  0.00    -0.006 C 
ATOM     18  C   UNL     1     -13.846  36.521   6.727  1.00  0.00     0.008 C 
ATOM     19  C   UNL     1     -13.587  34.182   5.845  1.00  0.00     0.008 C 
ENDBRANCH  12  17
ENDBRANCH  11  12
ENDBRANCH   1  11
TORSDOF 1
ENDMDL
MODEL 4
REMARK VINA RESULT:    -3.534      1.565      3.865
REMARK INTER + INTRA:          -5.796
REMARK INTER:                  -5.354
REMARK INTRA:                  -0.442
REMARK UNBOUND:                -0.403
REMARK SMILES CC1=CCC[C@@H](C)C(=O)C[C@H](C(C)C)C(=O)C1
REMARK SMILES IDX 8 1 9 2 6 3 7 4 5 5 4 6 3 7 2 8 1 9 10 11 11 12 15 13 16 14
REMARK SMILES IDX 17 15 12 17 13 18 14 19
REMARK H PARENT
REMARK Flexibility Score: 70.00
ROOT
ATOM      1  C   UNL     1      -8.782  38.030  -3.374  1.00  0.00     0.136 C 
ATOM      2  O   UNL     1      -8.721  39.164  -3.819  1.00  0.00    -0.299 OA
ENDROOT
BRANCH   1   3
ATOM      3  C   UNL     1     -10.148  37.371  -3.259  1.00  0.00     0.053 C 
ATOM      4  C   UNL     1     -10.848  37.309  -4.622  1.00  0.00     0.016 C 
BRANCH   3   5
ATOM      5  C   UNL     1     -11.035  38.068  -2.210  1.00  0.00     0.015 C 
BRANCH   5   6
ATOM      6  C   UNL     1     -10.755  37.528  -0.795  1.00  0.00     0.028 C 
BRANCH   6   7
ATOM      7  C   UNL     1     -10.750  36.023  -0.706  1.00  0.00    -0.028 C 
ATOM      8  C   UNL     1      -9.695  35.239  -0.362  1.00  0.00    -0.070 CG0
ATOM      9  C   UNL     1      -9.878  33.746  -0.500  1.00  0.00     0.039 C 
ATOM     10  G   UNL     1      -8.396  35.748   0.256  1.00  0.00     0.000 G0
ENDBRANCH   6   7
ENDBRANCH   5   6
ENDBRANCH   3   5
ENDBRANCH   1   3
BRANCH   1  11
ATOM     11  C   UNL     1      -7.512  37.345  -2.900  1.00  0.00     0.087 C 
BRANCH  11  12
ATOM     12  C   UNL     1      -7.223  37.411  -1.370  1.00  0.00     0.066 C 
BRANCH  12  13
ATOM     13  C   UNL     1      -7.258  36.053  -0.684  1.00  0.00     0.140 C 
ATOM     14  O   UNL     1      -6.328  35.268  -0.811  1.00  0.00    -0.299 OA
BRANCH  13  15
ATOM     15  C   UNL     1      -8.378  35.738   0.278  1.00  0.00     0.106 CG0
ATOM     16  G   UNL     1      -9.680  35.248  -0.351  1.00  0.00     0.000 G0
ENDBRANCH  13  15
ENDBRANCH  12  13
BRANCH  12  17
ATOM     17  C   UNL     1      -5.996  38.285  -0.941  1.00  0.00    -0.006 C 
ATOM     18  C   UNL     1      -4.910  38.430  -2.017  1.00  0.00     0.008 C 
ATOM     19  C   UNL     1      -6.429  39.678  -0.452  1.00  0.00     0.008 C 
ENDBRANCH  12  17
ENDBRANCH  11  12
ENDBRANCH   1  11
TORSDOF 1
ENDMDL
MODEL 5
REMARK VINA RESULT:    -3.518      1.940      4.611
REMARK INTER + INTRA:          -5.772
REMARK INTER:                  -5.459
REMARK INTRA:                  -0.313
REMARK UNBOUND:                -0.403
REMARK SMILES CC1=CCC[C@@H](C)C(=O)C[C@H](C(C)C)C(=O)C1
REMARK SMILES IDX 8 1 9 2 6 3 7 4 5 5 4 6 3 7 2 8 1 9 10 11 11 12 15 13 16 14
REMARK SMILES IDX 17 15 12 17 13 18 14 19
REMARK H PARENT
REMARK Flexibility Score: 70.00
ROOT
ATOM      1  C   UNL     1      -7.866  38.141  -3.409  1.00  0.00     0.136 C 
ATOM      2  O   UNL     1      -7.889  37.983  -4.619  1.00  0.00    -0.299 OA
ENDROOT
BRANCH   1   3
ATOM      3  C   UNL     1      -6.514  38.211  -2.716  1.00  0.00     0.053 C 
ATOM      4  C   UNL     1      -5.567  37.123  -3.238  1.00  0.00     0.016 C 
BRANCH   3   5
ATOM      5  C   UNL     1      -6.650  38.140  -1.182  1.00  0.00     0.015 C 
BRANCH   5   6
ATOM      6  C   UNL     1      -6.653  36.681  -0.690  1.00  0.00     0.028 C 
BRANCH   6   7
ATOM      7  C   UNL     1      -7.704  36.390   0.351  1.00  0.00    -0.028 C 
ATOM      8  C   UNL     1      -8.968  35.951   0.120  1.00  0.00    -0.070 CG0
ATOM      9  C   UNL     1      -9.898  35.885   1.308  1.00  0.00     0.039 C 
ATOM     10  G   UNL     1      -9.475  35.416  -1.217  1.00  0.00     0.000 G0
ENDBRANCH   6   7
ENDBRANCH   5   6
ENDBRANCH   3   5
ENDBRANCH   1   3
BRANCH   1  11
ATOM     11  C   UNL     1      -9.172  38.201  -2.638  1.00  0.00     0.087 C 
BRANCH  11  12
ATOM     12  C   UNL     1     -10.248  37.139  -3.021  1.00  0.00     0.066 C 
BRANCH  12  13
ATOM     13  C   UNL     1     -10.594  36.186  -1.886  1.00  0.00     0.140 C 
ATOM     14  O   UNL     1     -11.761  35.964  -1.593  1.00  0.00    -0.299 OA
BRANCH  13  15
ATOM     15  C   UNL     1      -9.491  35.396  -1.221  1.00  0.00     0.106 CG0
ATOM     16  G   UNL     1      -8.976  35.955   0.103  1.00  0.00     0.000 G0
ENDBRANCH  13  15
ENDBRANCH  12  13
BRANCH  12  17
ATOM     17  C   UNL     1     -11.509  37.682  -3.774  1.00  0.00    -0.006 C 
ATOM     18  C   UNL     1     -11.916  39.111  -3.388  1.00  0.00     0.008 C 
ATOM     19  C   UNL     1     -11.350  37.583  -5.301  1.00  0.00     0.008 C 
ENDBRANCH  12  17
ENDBRANCH  11  12
ENDBRANCH   1  11
TORSDOF 1
ENDMDL
MODEL 6
REMARK VINA RESULT:    -3.392      2.093      4.237
REMARK INTER + INTRA:          -5.579
REMARK INTER:                  -5.133
REMARK INTRA:                  -0.446
REMARK UNBOUND:                -0.403
REMARK SMILES CC1=CCC[C@@H](C)C(=O)C[C@H](C(C)C)C(=O)C1
REMARK SMILES IDX 8 1 9 2 6 3 7 4 5 5 4 6 3 7 2 8 1 9 10 11 11 12 15 13 16 14
REMARK SMILES IDX 17 15 12 17 13 18 14 19
REMARK H PARENT
REMARK Flexibility Score: 70.00
ROOT
ATOM      1  C   UNL     1     -10.263  35.794  -1.220  1.00  0.00     0.136 C 
ATOM      2  O   UNL     1     -11.480  35.736  -1.289  1.00  0.00    -0.299 OA
ENDROOT
BRANCH   1   3
ATOM      3  C   UNL     1      -9.591  35.348   0.070  1.00  0.00     0.053 C 
ATOM      4  C   UNL     1     -10.222  36.034   1.288  1.00  0.00     0.016 C 
BRANCH   3   5
ATOM      5  C   UNL     1      -8.067  35.574   0.031  1.00  0.00     0.015 C 
BRANCH   5   6
ATOM      6  C   UNL     1      -7.685  36.910   0.694  1.00  0.00     0.028 C 
BRANCH   6   7
ATOM      7  C   UNL     1      -6.438  37.539   0.127  1.00  0.00    -0.028 C 
ATOM      8  C   UNL     1      -6.379  38.440  -0.888  1.00  0.00    -0.070 CG0
ATOM      9  C   UNL     1      -5.007  38.809  -1.398  1.00  0.00     0.039 C 
ATOM     10  G   UNL     1      -7.582  39.183  -1.466  1.00  0.00     0.000 G0
ENDBRANCH   6   7
ENDBRANCH   5   6
ENDBRANCH   3   5
ENDBRANCH   1   3
BRANCH   1  11
ATOM     11  C   UNL     1      -9.475  36.358  -2.388  1.00  0.00     0.087 C 
BRANCH  11  12
ATOM     12  C   UNL     1      -9.572  37.900  -2.604  1.00  0.00     0.066 C 
BRANCH  12  13
ATOM     13  C   UNL     1      -8.217  38.585  -2.712  1.00  0.00     0.140 C 
ATOM     14  O   UNL     1      -7.691  38.753  -3.804  1.00  0.00    -0.299 OA
BRANCH  13  15
ATOM     15  C   UNL     1      -7.595  39.194  -1.478  1.00  0.00     0.106 CG0
ATOM     16  G   UNL     1      -6.408  38.437  -0.887  1.00  0.00     0.000 G0
ENDBRANCH  13  15
ENDBRANCH  12  13
BRANCH  12  17
ATOM     17  C   UNL     1     -10.592  38.377  -3.692  1.00  0.00    -0.006 C 
ATOM     18  C   UNL     1     -10.856  37.357  -4.808  1.00  0.00     0.008 C 
ATOM     19  C   UNL     1     -11.927  38.820  -3.069  1.00  0.00     0.008 C 
ENDBRANCH  12  17
ENDBRANCH  11  12
ENDBRANCH   1  11
TORSDOF 1
ENDMDL
MODEL 7
REMARK VINA RESULT:    -3.353      9.536     11.958
REMARK INTER + INTRA:          -5.520
REMARK INTER:                  -5.086
REMARK INTRA:                  -0.434
REMARK UNBOUND:                -0.403
REMARK SMILES CC1=CCC[C@@H](C)C(=O)C[C@H](C(C)C)C(=O)C1
REMARK SMILES IDX 8 1 9 2 6 3 7 4 5 5 4 6 3 7 2 8 1 9 10 11 11 12 15 13 16 14
REMARK SMILES IDX 17 15 12 17 13 18 14 19
REMARK H PARENT
REMARK Flexibility Score: 70.00
ROOT
ATOM      1  C   UNL     1     -14.861  36.117   4.988  1.00  0.00     0.136 C 
ATOM      2  O   UNL     1     -14.921  37.238   4.511  1.00  0.00    -0.299 OA
ENDROOT
BRANCH   1   3
ATOM      3  C   UNL     1     -13.496  35.565   5.369  1.00  0.00     0.053 C 
ATOM      4  C   UNL     1     -13.603  34.117   5.863  1.00  0.00     0.016 C 
BRANCH   3   5
ATOM      5  C   UNL     1     -12.787  36.456   6.408  1.00  0.00     0.015 C 
BRANCH   5   6
ATOM      6  C   UNL     1     -13.479  36.371   7.780  1.00  0.00     0.028 C 
BRANCH   6   7
ATOM      7  C   UNL     1     -13.993  37.695   8.289  1.00  0.00    -0.028 C 
ATOM      8  C   UNL     1     -15.295  38.040   8.465  1.00  0.00    -0.070 CG0
ATOM      9  C   UNL     1     -15.578  39.478   8.829  1.00  0.00     0.039 C 
ATOM     10  G   UNL     1     -16.468  37.064   8.433  1.00  0.00     0.000 G0
ENDBRANCH   6   7
ENDBRANCH   5   6
ENDBRANCH   3   5
ENDBRANCH   1   3
BRANCH   1  11
ATOM     11  C   UNL     1     -16.131  35.296   5.127  1.00  0.00     0.087 C 
BRANCH  11  12
ATOM     12  C   UNL     1     -16.820  35.324   6.526  1.00  0.00     0.066 C 
BRANCH  12  13
ATOM     13  C   UNL     1     -17.033  36.728   7.073  1.00  0.00     0.140 C 
ATOM     14  O   UNL     1     -17.738  37.529   6.475  1.00  0.00    -0.299 OA
BRANCH  13  15
ATOM     15  C   UNL     1     -16.490  37.080   8.437  1.00  0.00     0.106 CG0
ATOM     16  G   UNL     1     -15.292  38.026   8.455  1.00  0.00     0.000 G0
ENDBRANCH  13  15
ENDBRANCH  12  13
BRANCH  12  17
ATOM     17  C   UNL     1     -18.077  34.403   6.689  1.00  0.00    -0.006 C 
ATOM     18  C   UNL     1     -18.815  34.096   5.379  1.00  0.00     0.008 C 
ATOM     19  C   UNL     1     -17.733  33.089   7.410  1.00  0.00     0.008 C 
ENDBRANCH  12  17
ENDBRANCH  11  12
ENDBRANCH   1  11
TORSDOF 1
ENDMDL
MODEL 8
REMARK VINA RESULT:    -3.314     10.052     12.340
REMARK INTER + INTRA:          -5.461
REMARK INTER:                  -5.175
REMARK INTRA:                  -0.287
REMARK UNBOUND:                -0.403
REMARK SMILES CC1=CCC[C@@H](C)C(=O)C[C@H](C(C)C)C(=O)C1
REMARK SMILES IDX 8 1 9 2 6 3 7 4 5 5 4 6 3 7 2 8 1 9 10 11 11 12 15 13 16 14
REMARK SMILES IDX 17 15 12 17 13 18 14 19
REMARK H PARENT
REMARK Flexibility Score: 70.00
ROOT
ATOM      1  C   UNL     1     -15.174  35.095   5.974  1.00  0.00     0.136 C 
ATOM      2  O   UNL     1     -14.422  34.145   6.117  1.00  0.00    -0.299 OA
ENDROOT
BRANCH   1   3
ATOM      3  C   UNL     1     -14.709  36.462   6.451  1.00  0.00     0.053 C 
ATOM      4  C   UNL     1     -13.347  36.825   5.847  1.00  0.00     0.016 C 
BRANCH   3   5
ATOM      5  C   UNL     1     -14.676  36.553   7.990  1.00  0.00     0.015 C 
BRANCH   5   6
ATOM      6  C   UNL     1     -15.893  37.327   8.529  1.00  0.00     0.028 C 
BRANCH   6   7
ATOM      7  C   UNL     1     -16.428  38.365   7.575  1.00  0.00    -0.028 C 
ATOM      8  C   UNL     1     -17.583  38.288   6.864  1.00  0.00    -0.070 CG0
ATOM      9  C   UNL     1     -17.834  39.375   5.846  1.00  0.00     0.039 C 
ATOM     10  G   UNL     1     -18.684  37.257   7.099  1.00  0.00     0.000 G0
ENDBRANCH   6   7
ENDBRANCH   5   6
ENDBRANCH   3   5
ENDBRANCH   1   3
BRANCH   1  11
ATOM     11  C   UNL     1     -16.556  34.872   5.386  1.00  0.00     0.087 C 
BRANCH  11  12
ATOM     12  C   UNL     1     -17.748  34.919   6.389  1.00  0.00     0.066 C 
BRANCH  12  13
ATOM     13  C   UNL     1     -18.702  36.081   6.148  1.00  0.00     0.140 C 
ATOM     14  O   UNL     1     -19.552  36.016   5.270  1.00  0.00    -0.299 OA
BRANCH  13  15
ATOM     15  C   UNL     1     -18.693  37.255   7.097  1.00  0.00     0.106 CG0
ATOM     16  G   UNL     1     -17.582  38.279   6.881  1.00  0.00     0.000 G0
ENDBRANCH  13  15
ENDBRANCH  12  13
BRANCH  12  17
ATOM     17  C   UNL     1     -18.486  33.561   6.642  1.00  0.00    -0.006 C 
ATOM     18  C   UNL     1     -18.896  32.811   5.367  1.00  0.00     0.008 C 
ATOM     19  C   UNL     1     -17.667  32.627   7.551  1.00  0.00     0.008 C 
ENDBRANCH  12  17
ENDBRANCH  11  12
ENDBRANCH   1  11
TORSDOF 1
ENDMDL
MODEL 9
REMARK VINA RESULT:    -3.292      1.647      2.201
REMARK INTER + INTRA:          -5.428
REMARK INTER:                  -4.891
REMARK INTRA:                  -0.537
REMARK UNBOUND:                -0.403
REMARK SMILES CC1=CCC[C@@H](C)C(=O)C[C@H](C(C)C)C(=O)C1
REMARK SMILES IDX 8 1 9 2 6 3 7 4 5 5 4 6 3 7 2 8 1 9 10 11 11 12 15 13 16 14
REMARK SMILES IDX 17 15 12 17 13 18 14 19
REMARK H PARENT
REMARK Flexibility Score: 70.00
ROOT
ATOM      1  C   UNL     1      -9.031  38.725  -0.184  1.00  0.00     0.136 C 
ATOM      2  O   UNL     1      -8.296  39.018   0.745  1.00  0.00    -0.299 OA
ENDROOT
BRANCH   1   3
ATOM      3  C   UNL     1     -10.423  38.201   0.134  1.00  0.00     0.053 C 
ATOM      4  C   UNL     1     -10.423  36.671   0.255  1.00  0.00     0.016 C 
BRANCH   3   5
ATOM      5  C   UNL     1     -11.466  38.677  -0.896  1.00  0.00     0.015 C 
BRANCH   5   6
ATOM      6  C   UNL     1     -11.853  37.543  -1.862  1.00  0.00     0.028 C 
BRANCH   6   7
ATOM      7  C   UNL     1     -11.994  37.984  -3.297  1.00  0.00    -0.028 C 
ATOM      8  C   UNL     1     -11.095  37.782  -4.295  1.00  0.00    -0.070 CG0
ATOM      9  C   UNL     1     -11.375  38.456  -5.616  1.00  0.00     0.039 C 
ATOM     10  G   UNL     1      -9.897  36.839  -4.211  1.00  0.00     0.000 G0
ENDBRANCH   6   7
ENDBRANCH   5   6
ENDBRANCH   3   5
ENDBRANCH   1   3
BRANCH   1  11
ATOM     11  C   UNL     1      -8.516  38.834  -1.608  1.00  0.00     0.087 C 
BRANCH  11  12
ATOM     12  C   UNL     1      -8.191  37.491  -2.329  1.00  0.00     0.066 C 
BRANCH  12  13
ATOM     13  C   UNL     1      -8.581  37.480  -3.800  1.00  0.00     0.140 C 
ATOM     14  O   UNL     1      -7.798  37.872  -4.655  1.00  0.00    -0.299 OA
BRANCH  13  15
ATOM     15  C   UNL     1      -9.885  36.840  -4.215  1.00  0.00     0.106 CG0
ATOM     16  G   UNL     1     -11.086  37.777  -4.312  1.00  0.00     0.000 G0
ENDBRANCH  13  15
ENDBRANCH  12  13
BRANCH  12  17
ATOM     17  C   UNL     1      -6.765  36.898  -2.066  1.00  0.00    -0.006 C 
ATOM     18  C   UNL     1      -5.670  37.950  -1.840  1.00  0.00     0.008 C 
ATOM     19  C   UNL     1      -6.769  35.895  -0.900  1.00  0.00     0.008 C 
ENDBRANCH  12  17
ENDBRANCH  11  12
ENDBRANCH   1  11
TORSDOF 1
ENDMDL
