MODEL 1
REMARK VINA RESULT:    14.883      0.000      0.000
REMARK INTER + INTRA:          15.497
REMARK INTER:                  15.753
REMARK INTRA:                  -0.256
REMARK UNBOUND:                -0.256
REMARK SMILES CC1=CC[C@H]2[C@H]3[C@@H]1[C@]2(C)CC[C@H]3C(C)C
REMARK SMILES IDX 1 1 2 2 3 3 4 4 5 5 6 6 7 7 8 8 10 9 11 10 12 11 9 12 13 13
REMARK SMILES IDX 14 14 15 15
REMARK H PARENT
REMARK Flexibility Score: inf
ROOT
ATOM      1  C   UNL     1      -0.485   7.491  -7.279  1.00  0.00     0.039 C 
ATOM      2  C   UNL     1      -0.189   6.416  -8.282  1.00  0.00    -0.073 C 
ATOM      3  C   UNL     1       0.098   5.146  -7.891  1.00  0.00    -0.027 C 
ATOM      4  C   UNL     1       0.416   4.096  -8.961  1.00  0.00     0.031 C 
ATOM      5  C   UNL     1       0.306   4.722 -10.389  1.00  0.00     0.003 C 
ATOM      6  C   UNL     1      -1.011   5.536 -10.440  1.00  0.00     0.004 C 
ATOM      7  C   UNL     1      -0.216   6.691  -9.789  1.00  0.00     0.024 C 
ATOM      8  C   UNL     1       1.036   6.090 -10.465  1.00  0.00    -0.022 C 
ATOM      9  C   UNL     1       1.104   6.604 -11.931  1.00  0.00     0.008 C 
ATOM     10  C   UNL     1      -0.134   6.182 -12.763  1.00  0.00     0.005 C 
ATOM     11  C   UNL     1      -1.412   5.915 -11.901  1.00  0.00    -0.005 C 
ATOM     12  C   UNL     1       2.404   6.253  -9.761  1.00  0.00     0.012 C 
ENDROOT
BRANCH  11  13
ATOM     13  C   UNL     1      -2.337   4.848 -12.569  1.00  0.00    -0.014 C 
ATOM     14  C   UNL     1      -1.729   4.329 -13.887  1.00  0.00     0.007 C 
ATOM     15  C   UNL     1      -3.748   5.393 -12.860  1.00  0.00     0.007 C 
ENDBRANCH  11  13
TORSDOF 1
ENDMDL
MODEL 2
REMARK VINA RESULT:    15.780      0.925      4.656
REMARK INTER + INTRA:          16.447
REMARK INTER:                  16.730
REMARK INTRA:                  -0.283
REMARK UNBOUND:                -0.256
REMARK SMILES CC1=CC[C@H]2[C@H]3[C@@H]1[C@]2(C)CC[C@H]3C(C)C
REMARK SMILES IDX 1 1 2 2 3 3 4 4 5 5 6 6 7 7 8 8 10 9 11 10 12 11 9 12 13 13
REMARK SMILES IDX 14 14 15 15
REMARK H PARENT
REMARK Flexibility Score: inf
ROOT
ATOM      1  C   UNL     1      -2.090   4.568 -12.522  1.00  0.00     0.039 C 
ATOM      2  C   UNL     1      -0.998   5.277 -11.777  1.00  0.00    -0.073 C 
ATOM      3  C   UNL     1      -0.070   6.026 -12.430  1.00  0.00    -0.027 C 
ATOM      4  C   UNL     1       1.036   6.707 -11.618  1.00  0.00     0.031 C 
ATOM      5  C   UNL     1       0.850   6.418 -10.093  1.00  0.00     0.003 C 
ATOM      6  C   UNL     1      -0.643   6.652  -9.755  1.00  0.00     0.004 C 
ATOM      7  C   UNL     1      -0.888   5.208 -10.250  1.00  0.00     0.024 C 
ATOM      8  C   UNL     1       0.569   4.914  -9.833  1.00  0.00    -0.022 C 
ATOM      9  C   UNL     1       0.596   4.599  -8.310  1.00  0.00     0.008 C 
ATOM     10  C   UNL     1       0.085   5.785  -7.452  1.00  0.00     0.005 C 
ATOM     11  C   UNL     1      -0.890   6.741  -8.215  1.00  0.00    -0.005 C 
ATOM     12  C   UNL     1       1.365   3.851 -10.627  1.00  0.00     0.012 C 
ENDROOT
BRANCH  11  13
ATOM     13  C   UNL     1      -0.796   8.203  -7.673  1.00  0.00    -0.014 C 
ATOM     14  C   UNL     1       0.535   8.437  -6.930  1.00  0.00     0.007 C 
ATOM     15  C   UNL     1      -1.956   8.554  -6.722  1.00  0.00     0.007 C 
ENDBRANCH  11  13
TORSDOF 1
ENDMDL
MODEL 3
REMARK VINA RESULT:    16.394      1.263      4.793
REMARK INTER + INTRA:          17.097
REMARK INTER:                  17.338
REMARK INTRA:                  -0.241
REMARK UNBOUND:                -0.256
REMARK SMILES CC1=CC[C@H]2[C@H]3[C@@H]1[C@]2(C)CC[C@H]3C(C)C
REMARK SMILES IDX 1 1 2 2 3 3 4 4 5 5 6 6 7 7 8 8 10 9 11 10 12 11 9 12 13 13
REMARK SMILES IDX 14 14 15 15
REMARK H PARENT
REMARK Flexibility Score: inf
ROOT
ATOM      1  C   UNL     1      -4.125   3.384 -12.915  1.00  0.00     0.039 C 
ATOM      2  C   UNL     1      -3.330   4.641 -12.719  1.00  0.00    -0.073 C 
ATOM      3  C   UNL     1      -3.791   5.842 -13.158  1.00  0.00    -0.027 C 
ATOM      4  C   UNL     1      -2.924   7.088 -12.951  1.00  0.00     0.031 C 
ATOM      5  C   UNL     1      -1.607   6.717 -12.195  1.00  0.00     0.003 C 
ATOM      6  C   UNL     1      -1.996   5.812 -11.000  1.00  0.00     0.004 C 
ATOM      7  C   UNL     1      -1.976   4.635 -12.002  1.00  0.00     0.024 C 
ATOM      8  C   UNL     1      -0.942   5.453 -12.805  1.00  0.00    -0.022 C 
ATOM      9  C   UNL     1       0.467   5.214 -12.190  1.00  0.00     0.008 C 
ATOM     10  C   UNL     1       0.549   5.665 -10.710  1.00  0.00     0.005 C 
ATOM     11  C   UNL     1      -0.830   5.662  -9.972  1.00  0.00    -0.005 C 
ATOM     12  C   UNL     1      -0.905   5.290 -14.343  1.00  0.00     0.012 C 
ENDROOT
BRANCH  11  13
ATOM     13  C   UNL     1      -0.876   6.745  -8.846  1.00  0.00    -0.014 C 
ATOM     14  C   UNL     1       0.257   6.534  -7.823  1.00  0.00     0.007 C 
ATOM     15  C   UNL     1      -2.221   6.753  -8.094  1.00  0.00     0.007 C 
ENDBRANCH  11  13
TORSDOF 1
ENDMDL
