MODEL 1
REMARK VINA RESULT:    89.724      0.000      0.000
REMARK INTER + INTRA:         137.117
REMARK INTER:                 131.686
REMARK INTRA:                   5.431
REMARK UNBOUND:                 5.431
REMARK SMILES Cc1cc2c(C(C)C)c(O)c(O)c(C=O)c2c(O)c1-c1c(C)cc2c(C(C)C)c(O)c(O)c(C=O)c2c1O
REMARK SMILES IDX 1 1 2 2 3 3 4 4 16 5 13 6 11 7 9 8 5 9 17 10 19 11 20 12
REMARK SMILES IDX 37 13 21 14 36 15 23 16 22 17 24 18 33 19 25 20 31 21 29 22
REMARK SMILES IDX 38 23 34 25 35 26 26 27 27 28 28 29 32 30 30 32 18 34 6 36
REMARK SMILES IDX 7 37 8 38 14 39 15 40 10 41 12 43
REMARK H PARENT 38 24 32 31 30 33 18 35 10 42 12 44
REMARK Flexibility Score: inf
ROOT
ATOM      1  C   UNL     1     -13.613   3.530 -19.451  1.00  0.00     0.045 C 
ATOM      2  C   UNL     1     -13.542   4.572 -18.361  1.00  0.00    -0.039 A 
ATOM      3  C   UNL     1     -14.308   5.733 -18.472  1.00  0.00     0.013 A 
ATOM      4  C   UNL     1     -14.275   6.750 -17.497  1.00  0.00    -0.006 A 
ATOM      5  C   UNL     1     -13.502   6.534 -16.315  1.00  0.00     0.039 A 
ATOM      6  C   UNL     1     -13.597   7.474 -15.244  1.00  0.00     0.072 A 
ATOM      7  C   UNL     1     -14.421   8.609 -15.379  1.00  0.00     0.169 A 
ATOM      8  C   UNL     1     -15.093   8.864 -16.578  1.00  0.00     0.162 A 
ATOM      9  C   UNL     1     -15.001   7.972 -17.669  1.00  0.00     0.008 A 
ATOM     10  C   UNL     1     -12.642   5.396 -16.252  1.00  0.00     0.132 A 
ATOM     11  C   UNL     1     -12.680   4.416 -17.265  1.00  0.00     0.031 A 
ENDROOT
BRANCH  11  12
ATOM     12  C   UNL     1     -11.810   3.213 -17.179  1.00  0.00     0.031 A 
ATOM     13  C   UNL     1     -12.320   1.941 -17.516  1.00  0.00     0.132 A 
ATOM     14  C   UNL     1     -10.473   3.348 -16.767  1.00  0.00    -0.039 A 
ATOM     15  C   UNL     1     -11.479   0.790 -17.464  1.00  0.00     0.039 A 
ATOM     16  C   UNL     1      -9.684   2.206 -16.612  1.00  0.00     0.013 A 
ATOM     17  C   UNL     1      -9.884   4.705 -16.470  1.00  0.00     0.045 C 
ATOM     18  C   UNL     1     -10.185   0.914 -16.880  1.00  0.00    -0.006 A 
ATOM     19  C   UNL     1     -11.897  -0.483 -17.950  1.00  0.00     0.072 A 
ATOM     20  C   UNL     1      -9.407  -0.252 -16.607  1.00  0.00     0.008 A 
ATOM     21  C   UNL     1     -11.063  -1.606 -17.801  1.00  0.00     0.169 A 
ATOM     22  C   UNL     1      -9.810  -1.485 -17.166  1.00  0.00     0.162 A 
BRANCH  13  23
ATOM     23  O   UNL     1     -13.669   1.815 -17.865  1.00  0.00    -0.507 OA
ATOM     24  H   UNL     1     -14.026   1.106 -18.493  1.00  0.00     0.293 HD
ENDBRANCH  13  23
BRANCH  19  25
ATOM     25  C   UNL     1     -13.142  -0.656 -18.737  1.00  0.00     0.264 C 
ATOM     26  O   UNL     1     -13.267  -0.131 -19.876  1.00  0.00    -0.298 OA
ENDBRANCH  19  25
BRANCH  20  27
ATOM     27  C   UNL     1      -8.140  -0.186 -15.735  1.00  0.00     0.017 C 
ATOM     28  C   UNL     1      -6.875  -0.216 -16.600  1.00  0.00     0.012 C 
ATOM     29  C   UNL     1      -8.091  -1.260 -14.632  1.00  0.00     0.012 C 
ENDBRANCH  20  27
BRANCH  21  30
ATOM     30  O   UNL     1     -11.507  -2.835 -18.303  1.00  0.00    -0.504 OA
ATOM     31  H   UNL     1     -11.221  -3.737 -17.948  1.00  0.00     0.293 HD
ENDBRANCH  21  30
BRANCH  22  32
ATOM     32  O   UNL     1      -8.927  -2.568 -17.113  1.00  0.00    -0.504 OA
ATOM     33  H   UNL     1      -9.203  -3.539 -17.140  1.00  0.00     0.293 HD
ENDBRANCH  22  32
ENDBRANCH  11  12
BRANCH  10  34
ATOM     34  O   UNL     1     -11.729   5.254 -15.201  1.00  0.00    -0.507 OA
ATOM     35  H   UNL     1     -11.906   5.558 -14.252  1.00  0.00     0.293 HD
ENDBRANCH  10  34
BRANCH   9  36
ATOM     36  C   UNL     1     -15.696   8.384 -18.982  1.00  0.00     0.017 C 
ATOM     37  C   UNL     1     -17.214   8.537 -18.811  1.00  0.00     0.012 C 
ATOM     38  C   UNL     1     -15.307   7.528 -20.205  1.00  0.00     0.012 C 
ENDBRANCH   9  36
BRANCH   6  39
ATOM     39  C   UNL     1     -12.916   7.255 -13.951  1.00  0.00     0.264 C 
ATOM     40  O   UNL     1     -13.033   8.088 -13.014  1.00  0.00    -0.298 OA
ENDBRANCH   6  39
BRANCH   8  41
ATOM     41  O   UNL     1     -15.883  10.015 -16.685  1.00  0.00    -0.504 OA
ATOM     42  H   UNL     1     -15.495  10.947 -16.760  1.00  0.00     0.293 HD
ENDBRANCH   8  41
BRANCH   7  43
ATOM     43  O   UNL     1     -14.616   9.504 -14.318  1.00  0.00    -0.504 OA
ATOM     44  H   UNL     1     -14.380   9.303 -13.356  1.00  0.00     0.293 HD
ENDBRANCH   7  43
TORSDOF 11
ENDMDL
MODEL 2
REMARK VINA RESULT:    90.548      1.810      9.022
REMARK INTER + INTRA:         138.326
REMARK INTER:                 134.349
REMARK INTRA:                   3.977
REMARK UNBOUND:                 5.431
REMARK SMILES Cc1cc2c(C(C)C)c(O)c(O)c(C=O)c2c(O)c1-c1c(C)cc2c(C(C)C)c(O)c(O)c(C=O)c2c1O
REMARK SMILES IDX 1 1 2 2 3 3 4 4 16 5 13 6 11 7 9 8 5 9 17 10 19 11 20 12
REMARK SMILES IDX 37 13 21 14 36 15 23 16 22 17 24 18 33 19 25 20 31 21 29 22
REMARK SMILES IDX 38 23 34 25 35 26 26 27 27 28 28 29 32 30 30 32 18 34 6 36
REMARK SMILES IDX 7 37 8 38 14 39 15 40 10 41 12 43
REMARK H PARENT 38 24 32 31 30 33 18 35 10 42 12 44
REMARK Flexibility Score: inf
ROOT
ATOM      1  C   UNL     1      -9.909   4.504 -16.009  1.00  0.00     0.045 C 
ATOM      2  C   UNL     1     -10.451   3.197 -16.532  1.00  0.00    -0.039 A 
ATOM      3  C   UNL     1      -9.652   2.053 -16.480  1.00  0.00     0.013 A 
ATOM      4  C   UNL     1     -10.094   0.807 -16.966  1.00  0.00    -0.006 A 
ATOM      5  C   UNL     1     -11.438   0.698 -17.440  1.00  0.00     0.039 A 
ATOM      6  C   UNL     1     -11.954  -0.592 -17.771  1.00  0.00     0.072 A 
ATOM      7  C   UNL     1     -11.128  -1.727 -17.657  1.00  0.00     0.169 A 
ATOM      8  C   UNL     1      -9.784  -1.598 -17.291  1.00  0.00     0.162 A 
ATOM      9  C   UNL     1      -9.231  -0.335 -16.983  1.00  0.00     0.008 A 
ATOM     10  C   UNL     1     -12.215   1.887 -17.588  1.00  0.00     0.132 A 
ATOM     11  C   UNL     1     -11.724   3.123 -17.119  1.00  0.00     0.031 A 
ENDROOT
BRANCH  11  12
ATOM     12  C   UNL     1     -12.550   4.354 -17.240  1.00  0.00     0.031 A 
ATOM     13  C   UNL     1     -13.240   4.631 -18.440  1.00  0.00     0.132 A 
ATOM     14  C   UNL     1     -12.648   5.238 -16.153  1.00  0.00    -0.039 A 
ATOM     15  C   UNL     1     -14.058   5.794 -18.550  1.00  0.00     0.039 A 
ATOM     16  C   UNL     1     -13.361   6.430 -16.300  1.00  0.00     0.013 A 
ATOM     17  C   UNL     1     -11.978   4.929 -14.837  1.00  0.00     0.045 C 
ATOM     18  C   UNL     1     -14.008   6.766 -17.509  1.00  0.00    -0.006 A 
ATOM     19  C   UNL     1     -14.901   6.031 -19.674  1.00  0.00     0.072 A 
ATOM     20  C   UNL     1     -14.634   8.036 -17.684  1.00  0.00     0.008 A 
ATOM     21  C   UNL     1     -15.626   7.233 -19.774  1.00  0.00     0.169 A 
ATOM     22  C   UNL     1     -15.522   8.214 -18.768  1.00  0.00     0.162 A 
BRANCH  13  23
ATOM     23  O   UNL     1     -13.084   3.772 -19.534  1.00  0.00    -0.507 OA
ATOM     24  H   UNL     1     -13.819   3.563 -20.198  1.00  0.00     0.293 HD
ENDBRANCH  13  23
BRANCH  19  25
ATOM     25  C   UNL     1     -15.154   4.992 -20.702  1.00  0.00     0.264 C 
ATOM     26  O   UNL     1     -15.901   5.226 -21.689  1.00  0.00    -0.298 OA
ENDBRANCH  19  25
BRANCH  20  27
ATOM     27  C   UNL     1     -14.372   9.202 -16.711  1.00  0.00     0.017 C 
ATOM     28  C   UNL     1     -12.931   9.706 -16.834  1.00  0.00     0.012 C 
ATOM     29  C   UNL     1     -14.731   8.879 -15.248  1.00  0.00     0.012 C 
ENDBRANCH  20  27
BRANCH  21  30
ATOM     30  O   UNL     1     -16.451   7.421 -20.890  1.00  0.00    -0.504 OA
ATOM     31  H   UNL     1     -16.958   6.684 -21.359  1.00  0.00     0.293 HD
ENDBRANCH  21  30
BRANCH  22  32
ATOM     32  O   UNL     1     -16.322   9.361 -18.801  1.00  0.00    -0.504 OA
ATOM     33  H   UNL     1     -16.693   9.781 -19.641  1.00  0.00     0.293 HD
ENDBRANCH  22  32
ENDBRANCH  11  12
BRANCH  10  34
ATOM     34  O   UNL     1     -13.459   1.847 -18.227  1.00  0.00    -0.507 OA
ATOM     35  H   UNL     1     -13.598   2.051 -19.208  1.00  0.00     0.293 HD
ENDBRANCH  10  34
BRANCH   9  36
ATOM     36  C   UNL     1      -7.718  -0.278 -16.687  1.00  0.00     0.017 C 
ATOM     37  C   UNL     1      -6.875  -0.304 -17.969  1.00  0.00     0.012 C 
ATOM     38  C   UNL     1      -7.239  -1.290 -15.625  1.00  0.00     0.012 C 
ENDBRANCH   9  36
BRANCH   6  39
ATOM     39  C   UNL     1     -13.367  -0.792 -18.155  1.00  0.00     0.264 C 
ATOM     40  O   UNL     1     -14.024  -1.765 -17.701  1.00  0.00    -0.298 OA
ENDBRANCH   6  39
BRANCH   8  41
ATOM     41  O   UNL     1      -8.986  -2.745 -17.213  1.00  0.00    -0.504 OA
ATOM     42  H   UNL     1      -9.267  -3.642 -17.590  1.00  0.00     0.293 HD
ENDBRANCH   8  41
BRANCH   7  43
ATOM     43  O   UNL     1     -11.622  -3.019 -17.879  1.00  0.00    -0.504 OA
ATOM     44  H   UNL     1     -11.737  -3.433 -18.795  1.00  0.00     0.293 HD
ENDBRANCH   7  43
TORSDOF 11
ENDMDL
MODEL 3
REMARK VINA RESULT:    91.564      0.632      9.485
REMARK INTER + INTRA:         139.818
REMARK INTER:                 135.128
REMARK INTRA:                   4.690
REMARK UNBOUND:                 5.431
REMARK SMILES Cc1cc2c(C(C)C)c(O)c(O)c(C=O)c2c(O)c1-c1c(C)cc2c(C(C)C)c(O)c(O)c(C=O)c2c1O
REMARK SMILES IDX 1 1 2 2 3 3 4 4 16 5 13 6 11 7 9 8 5 9 17 10 19 11 20 12
REMARK SMILES IDX 37 13 21 14 36 15 23 16 22 17 24 18 33 19 25 20 31 21 29 22
REMARK SMILES IDX 38 23 34 25 35 26 26 27 27 28 28 29 32 30 30 32 18 34 6 36
REMARK SMILES IDX 7 37 8 38 14 39 15 40 10 41 12 43
REMARK H PARENT 38 24 32 31 30 33 18 35 10 42 12 44
REMARK Flexibility Score: inf
ROOT
ATOM      1  C   UNL     1     -10.005   4.596 -15.976  1.00  0.00     0.045 C 
ATOM      2  C   UNL     1     -10.520   3.286 -16.519  1.00  0.00    -0.039 A 
ATOM      3  C   UNL     1      -9.719   2.146 -16.435  1.00  0.00     0.013 A 
ATOM      4  C   UNL     1     -10.137   0.897 -16.937  1.00  0.00    -0.006 A 
ATOM      5  C   UNL     1     -11.460   0.782 -17.463  1.00  0.00     0.039 A 
ATOM      6  C   UNL     1     -11.957  -0.510 -17.813  1.00  0.00     0.072 A 
ATOM      7  C   UNL     1     -11.131  -1.642 -17.666  1.00  0.00     0.169 A 
ATOM      8  C   UNL     1      -9.803  -1.506 -17.249  1.00  0.00     0.162 A 
ATOM      9  C   UNL     1      -9.268  -0.241 -16.920  1.00  0.00     0.008 A 
ATOM     10  C   UNL     1     -12.236   1.968 -17.642  1.00  0.00     0.132 A 
ATOM     11  C   UNL     1     -11.769   3.206 -17.155  1.00  0.00     0.031 A 
ENDROOT
BRANCH  11  12
ATOM     12  C   UNL     1     -12.595   4.433 -17.309  1.00  0.00     0.031 A 
ATOM     13  C   UNL     1     -12.792   5.300 -16.213  1.00  0.00     0.132 A 
ATOM     14  C   UNL     1     -13.174   4.731 -18.554  1.00  0.00    -0.039 A 
ATOM     15  C   UNL     1     -13.558   6.494 -16.366  1.00  0.00     0.039 A 
ATOM     16  C   UNL     1     -14.013   5.842 -18.672  1.00  0.00     0.013 A 
ATOM     17  C   UNL     1     -12.921   3.859 -19.759  1.00  0.00     0.045 C 
ATOM     18  C   UNL     1     -14.281   6.692 -17.578  1.00  0.00    -0.006 A 
ATOM     19  C   UNL     1     -13.647   7.480 -15.341  1.00  0.00     0.072 A 
ATOM     20  C   UNL     1     -15.229   7.754 -17.682  1.00  0.00     0.008 A 
ATOM     21  C   UNL     1     -14.482   8.600 -15.508  1.00  0.00     0.169 A 
ATOM     22  C   UNL     1     -15.241   8.756 -16.686  1.00  0.00     0.162 A 
BRANCH  13  23
ATOM     23  O   UNL     1     -12.259   4.958 -14.965  1.00  0.00    -0.507 OA
ATOM     24  H   UNL     1     -11.644   5.558 -14.430  1.00  0.00     0.293 HD
ENDBRANCH  13  23
BRANCH  19  25
ATOM     25  C   UNL     1     -12.784   7.444 -14.135  1.00  0.00     0.264 C 
ATOM     26  O   UNL     1     -13.069   8.124 -13.114  1.00  0.00    -0.298 OA
ENDBRANCH  19  25
BRANCH  20  27
ATOM     27  C   UNL     1     -16.220   7.834 -18.858  1.00  0.00     0.017 C 
ATOM     28  C   UNL     1     -15.487   8.101 -20.177  1.00  0.00     0.012 C 
ATOM     29  C   UNL     1     -17.363   8.844 -18.636  1.00  0.00     0.012 C 
ENDBRANCH  20  27
BRANCH  21  30
ATOM     30  O   UNL     1     -14.532   9.551 -14.481  1.00  0.00    -0.504 OA
ATOM     31  H   UNL     1     -13.940  10.367 -14.425  1.00  0.00     0.293 HD
ENDBRANCH  21  30
BRANCH  22  32
ATOM     32  O   UNL     1     -15.985   9.918 -16.909  1.00  0.00    -0.504 OA
ATOM     33  H   UNL     1     -15.616  10.773 -17.301  1.00  0.00     0.293 HD
ENDBRANCH  22  32
ENDBRANCH  11  12
BRANCH  10  34
ATOM     34  O   UNL     1     -13.454   1.922 -18.329  1.00  0.00    -0.507 OA
ATOM     35  H   UNL     1     -13.978   1.073 -18.496  1.00  0.00     0.293 HD
ENDBRANCH  10  34
BRANCH   9  36
ATOM     36  C   UNL     1      -7.769  -0.177 -16.565  1.00  0.00     0.017 C 
ATOM     37  C   UNL     1      -6.875  -0.234 -17.811  1.00  0.00     0.012 C 
ATOM     38  C   UNL     1      -7.333  -1.163 -15.461  1.00  0.00     0.012 C 
ENDBRANCH   9  36
BRANCH   6  39
ATOM     39  C   UNL     1     -13.353  -0.716 -18.252  1.00  0.00     0.264 C 
ATOM     40  O   UNL     1     -14.042  -1.659 -17.781  1.00  0.00    -0.298 OA
ENDBRANCH   6  39
BRANCH   8  41
ATOM     41  O   UNL     1      -9.003  -2.649 -17.139  1.00  0.00    -0.504 OA
ATOM     42  H   UNL     1      -9.382  -3.579 -17.001  1.00  0.00     0.293 HD
ENDBRANCH   8  41
BRANCH   7  43
ATOM     43  O   UNL     1     -11.611  -2.936 -17.907  1.00  0.00    -0.504 OA
ATOM     44  H   UNL     1     -12.387  -3.149 -18.519  1.00  0.00     0.293 HD
ENDBRANCH   7  43
TORSDOF 11
ENDMDL
MODEL 4
REMARK VINA RESULT:    92.452      1.548      3.027
REMARK INTER + INTRA:         141.122
REMARK INTER:                 135.357
REMARK INTRA:                   5.764
REMARK UNBOUND:                 5.431
REMARK SMILES Cc1cc2c(C(C)C)c(O)c(O)c(C=O)c2c(O)c1-c1c(C)cc2c(C(C)C)c(O)c(O)c(C=O)c2c1O
REMARK SMILES IDX 1 1 2 2 3 3 4 4 16 5 13 6 11 7 9 8 5 9 17 10 19 11 20 12
REMARK SMILES IDX 37 13 21 14 36 15 23 16 22 17 24 18 33 19 25 20 31 21 29 22
REMARK SMILES IDX 38 23 34 25 35 26 26 27 27 28 28 29 32 30 30 32 18 34 6 36
REMARK SMILES IDX 7 37 8 38 14 39 15 40 10 41 12 43
REMARK H PARENT 38 24 32 31 30 33 18 35 10 42 12 44
REMARK Flexibility Score: inf
ROOT
ATOM      1  C   UNL     1     -11.078   5.353 -14.866  1.00  0.00     0.045 C 
ATOM      2  C   UNL     1     -12.121   5.599 -15.928  1.00  0.00    -0.039 A 
ATOM      3  C   UNL     1     -12.903   6.754 -15.865  1.00  0.00     0.013 A 
ATOM      4  C   UNL     1     -13.904   7.035 -16.817  1.00  0.00    -0.006 A 
ATOM      5  C   UNL     1     -14.053   6.150 -17.929  1.00  0.00     0.039 A 
ATOM      6  C   UNL     1     -14.940   6.513 -18.988  1.00  0.00     0.072 A 
ATOM      7  C   UNL     1     -15.674   7.712 -18.908  1.00  0.00     0.169 A 
ATOM      8  C   UNL     1     -15.598   8.519 -17.769  1.00  0.00     0.162 A 
ATOM      9  C   UNL     1     -14.754   8.180 -16.689  1.00  0.00     0.008 A 
ATOM     10  C   UNL     1     -13.326   4.921 -17.935  1.00  0.00     0.132 A 
ATOM     11  C   UNL     1     -12.355   4.662 -16.946  1.00  0.00     0.031 A 
ENDROOT
BRANCH  11  12
ATOM     12  C   UNL     1     -11.573   3.398 -16.975  1.00  0.00     0.031 A 
ATOM     13  C   UNL     1     -12.199   2.182 -17.325  1.00  0.00     0.132 A 
ATOM     14  C   UNL     1     -10.204   3.417 -16.659  1.00  0.00    -0.039 A 
ATOM     15  C   UNL     1     -11.445   0.973 -17.385  1.00  0.00     0.039 A 
ATOM     16  C   UNL     1      -9.493   2.216 -16.612  1.00  0.00     0.013 A 
ATOM     17  C   UNL     1      -9.495   4.713 -16.351  1.00  0.00     0.045 C 
ATOM     18  C   UNL     1     -10.107   0.976 -16.894  1.00  0.00    -0.006 A 
ATOM     19  C   UNL     1     -11.991  -0.243 -17.891  1.00  0.00     0.072 A 
ATOM     20  C   UNL     1      -9.401  -0.253 -16.730  1.00  0.00     0.008 A 
ATOM     21  C   UNL     1     -11.234  -1.428 -17.851  1.00  0.00     0.169 A 
ATOM     22  C   UNL     1      -9.934  -1.427 -17.308  1.00  0.00     0.162 A 
BRANCH  13  23
ATOM     23  O   UNL     1     -13.576   2.169 -17.578  1.00  0.00    -0.507 OA
ATOM     24  H   UNL     1     -14.075   2.926 -18.029  1.00  0.00     0.293 HD
ENDBRANCH  13  23
BRANCH  19  25
ATOM     25  C   UNL     1     -13.299  -0.289 -18.589  1.00  0.00     0.264 C 
ATOM     26  O   UNL     1     -13.391  -0.002 -19.812  1.00  0.00    -0.298 OA
ENDBRANCH  19  25
BRANCH  20  27
ATOM     27  C   UNL     1      -8.073  -0.319 -15.953  1.00  0.00     0.017 C 
ATOM     28  C   UNL     1      -6.875  -0.273 -16.907  1.00  0.00     0.012 C 
ATOM     29  C   UNL     1      -7.978  -1.518 -14.990  1.00  0.00     0.012 C 
ENDBRANCH  20  27
BRANCH  21  30
ATOM     30  O   UNL     1     -11.804  -2.598 -18.369  1.00  0.00    -0.504 OA
ATOM     31  H   UNL     1     -12.183  -2.688 -19.301  1.00  0.00     0.293 HD
ENDBRANCH  21  30
BRANCH  22  32
ATOM     32  O   UNL     1      -9.133  -2.571 -17.366  1.00  0.00    -0.504 OA
ATOM     33  H   UNL     1      -9.005  -3.225 -16.607  1.00  0.00     0.293 HD
ENDBRANCH  22  32
ENDBRANCH  11  12
BRANCH  10  34
ATOM     34  O   UNL     1     -13.588   3.946 -18.904  1.00  0.00    -0.507 OA
ATOM     35  H   UNL     1     -14.282   3.216 -18.799  1.00  0.00     0.293 HD
ENDBRANCH  10  34
BRANCH   9  36
ATOM     36  C   UNL     1     -14.811   9.076 -15.436  1.00  0.00     0.017 C 
ATOM     37  C   UNL     1     -14.403   8.320 -14.164  1.00  0.00     0.012 C 
ATOM     38  C   UNL     1     -16.127   9.865 -15.276  1.00  0.00     0.012 C 
ENDBRANCH   9  36
BRANCH   6  39
ATOM     39  C   UNL     1     -15.055   5.704 -20.220  1.00  0.00     0.264 C 
ATOM     40  O   UNL     1     -15.104   6.258 -21.350  1.00  0.00    -0.298 OA
ENDBRANCH   6  39
BRANCH   8  41
ATOM     41  O   UNL     1     -16.362   9.691 -17.712  1.00  0.00    -0.504 OA
ATOM     42  H   UNL     1     -17.284   9.732 -17.294  1.00  0.00     0.293 HD
ENDBRANCH   8  41
BRANCH   7  43
ATOM     43  O   UNL     1     -16.481   8.151 -19.967  1.00  0.00    -0.504 OA
ATOM     44  H   UNL     1     -16.239   8.912 -20.586  1.00  0.00     0.293 HD
ENDBRANCH   7  43
TORSDOF 11
ENDMDL
