MODEL 1
REMARK VINA RESULT:    -3.653      0.000      0.000
REMARK INTER + INTRA:         -14.558
REMARK INTER:                  -9.633
REMARK INTRA:                  -4.925
REMARK UNBOUND:                -4.925
REMARK SMILES CCCCCCCCCCCCCCCCCCCCCCCCCCCCCC(=O)[O-]
REMARK SMILES IDX 16 1 17 2 18 3 19 4 20 5 21 6 22 7 23 8 24 9 25 10 26 11
REMARK SMILES IDX 27 12 28 13 29 14 30 15 31 16 32 17 15 18 14 19 13 20 12 21
REMARK SMILES IDX 11 22 10 23 9 24 8 25 7 26 6 27 5 28 4 29 3 30 2 31 1 32
REMARK H PARENT
REMARK Flexibility Score: inf
ROOT
ATOM      1  C   UNL     1      -4.375 -66.801  -3.477  1.00  0.00     0.000 C 
ENDROOT
BRANCH   1   2
ATOM      2  C   UNL     1      -5.130 -67.254  -2.213  1.00  0.00     0.000 C 
BRANCH   2   3
ATOM      3  C   UNL     1      -5.340 -66.163  -1.145  1.00  0.00     0.000 C 
BRANCH   3   4
ATOM      4  C   UNL     1      -4.069 -65.722  -0.389  1.00  0.00     0.000 C 
BRANCH   4   5
ATOM      5  C   UNL     1      -4.183 -64.333   0.272  1.00  0.00     0.000 C 
BRANCH   5   6
ATOM      6  C   UNL     1      -3.336 -63.262  -0.439  1.00  0.00     0.000 C 
BRANCH   6   7
ATOM      7  C   UNL     1      -2.793 -63.736  -1.798  1.00  0.00     0.000 C 
BRANCH   7   8
ATOM      8  C   UNL     1      -3.553 -63.205  -3.031  1.00  0.00     0.000 C 
BRANCH   8   9
ATOM      9  C   UNL     1      -4.938 -62.601  -2.737  1.00  0.00     0.000 C 
BRANCH   9  10
ATOM     10  C   UNL     1      -6.084 -63.408  -3.369  1.00  0.00     0.000 C 
BRANCH  10  11
ATOM     11  C   UNL     1      -7.374 -63.356  -2.533  1.00  0.00     0.000 C 
BRANCH  11  12
ATOM     12  C   UNL     1      -7.120 -62.943  -1.075  1.00  0.00     0.000 C 
BRANCH  12  13
ATOM     13  C   UNL     1      -7.927 -63.817  -0.101  1.00  0.00     0.006 C 
BRANCH  13  14
ATOM     14  C   UNL     1      -8.818 -64.829  -0.832  1.00  0.00     0.053 C 
BRANCH  14  15
ATOM     15  C   UNL     1      -8.783 -66.176  -0.174  1.00  0.00     0.041 C 
ATOM     16  O   UNL     1      -8.353 -66.294   1.004  1.00  0.00    -0.550 OA
ATOM     17  O   UNL     1      -9.284 -67.290  -0.840  1.00  0.00    -0.550 OA
ENDBRANCH  14  15
ENDBRANCH  13  14
ENDBRANCH  12  13
ENDBRANCH  11  12
ENDBRANCH  10  11
ENDBRANCH   9  10
ENDBRANCH   8   9
ENDBRANCH   7   8
ENDBRANCH   6   7
ENDBRANCH   5   6
ENDBRANCH   4   5
ENDBRANCH   3   4
ENDBRANCH   2   3
ENDBRANCH   1   2
BRANCH   1  18
ATOM     18  C   UNL     1      -4.403 -67.850  -4.599  1.00  0.00     0.000 C 
BRANCH  18  19
ATOM     19  C   UNL     1      -3.442 -67.467  -5.733  1.00  0.00     0.000 C 
BRANCH  19  20
ATOM     20  C   UNL     1      -4.166 -67.183  -7.062  1.00  0.00     0.000 C 
BRANCH  20  21
ATOM     21  C   UNL     1      -4.415 -68.420  -7.948  1.00  0.00     0.000 C 
BRANCH  21  22
ATOM     22  C   UNL     1      -4.604 -68.116  -9.448  1.00  0.00     0.000 C 
BRANCH  22  23
ATOM     23  C   UNL     1      -6.070 -67.955  -9.897  1.00  0.00     0.000 C 
BRANCH  23  24
ATOM     24  C   UNL     1      -6.595 -66.507  -9.899  1.00  0.00    -0.000 C 
BRANCH  24  25
ATOM     25  C   UNL     1      -7.415 -66.168  -8.644  1.00  0.00    -0.000 C 
BRANCH  25  26
ATOM     26  C   UNL     1      -7.736 -64.666  -8.578  1.00  0.00    -0.000 C 
BRANCH  26  27
ATOM     27  C   UNL     1      -7.268 -64.016  -7.263  1.00  0.00    -0.000 C 
BRANCH  27  28
ATOM     28  C   UNL     1      -5.745 -64.021  -7.043  1.00  0.00    -0.000 C 
BRANCH  28  29
ATOM     29  C   UNL     1      -4.973 -63.367  -8.197  1.00  0.00    -0.000 C 
BRANCH  29  30
ATOM     30  C   UNL     1      -3.721 -64.176  -8.552  1.00  0.00    -0.000 C 
BRANCH  30  31
ATOM     31  C   UNL     1      -3.625 -64.406 -10.065  1.00  0.00    -0.003 C 
ATOM     32  C   UNL     1      -2.448 -65.314 -10.411  1.00  0.00     0.004 C 
ENDBRANCH  30  31
ENDBRANCH  29  30
ENDBRANCH  28  29
ENDBRANCH  27  28
ENDBRANCH  26  27
ENDBRANCH  25  26
ENDBRANCH  24  25
ENDBRANCH  23  24
ENDBRANCH  22  23
ENDBRANCH  21  22
ENDBRANCH  20  21
ENDBRANCH  19  20
ENDBRANCH  18  19
ENDBRANCH   1  18
TORSDOF 28
ENDMDL
MODEL 2
REMARK VINA RESULT:    -3.645      6.719     11.862
REMARK INTER + INTRA:         -14.537
REMARK INTER:                 -10.126
REMARK INTRA:                  -4.411
REMARK UNBOUND:                -4.925
REMARK SMILES CCCCCCCCCCCCCCCCCCCCCCCCCCCCCC(=O)[O-]
REMARK SMILES IDX 16 1 17 2 18 3 19 4 20 5 21 6 22 7 23 8 24 9 25 10 26 11
REMARK SMILES IDX 27 12 28 13 29 14 30 15 31 16 32 17 15 18 14 19 13 20 12 21
REMARK SMILES IDX 11 22 10 23 9 24 8 25 7 26 6 27 5 28 4 29 3 30 2 31 1 32
REMARK H PARENT
REMARK Flexibility Score: inf
ROOT
ATOM      1  C   UNL     1      -8.194 -72.931   3.879  1.00  0.00     0.000 C 
ENDROOT
BRANCH   1   2
ATOM      2  C   UNL     1      -9.627 -72.436   4.151  1.00  0.00     0.000 C 
BRANCH   2   3
ATOM      3  C   UNL     1      -9.954 -72.143   5.629  1.00  0.00     0.000 C 
BRANCH   3   4
ATOM      4  C   UNL     1      -9.872 -70.660   6.045  1.00  0.00     0.000 C 
BRANCH   4   5
ATOM      5  C   UNL     1     -11.117 -70.151   6.801  1.00  0.00     0.000 C 
BRANCH   5   6
ATOM      6  C   UNL     1     -11.230 -68.616   6.801  1.00  0.00     0.000 C 
BRANCH   6   7
ATOM      7  C   UNL     1      -9.881 -67.918   6.554  1.00  0.00     0.000 C 
BRANCH   7   8
ATOM      8  C   UNL     1      -9.974 -66.436   6.137  1.00  0.00     0.000 C 
BRANCH   8   9
ATOM      9  C   UNL     1      -9.837 -66.170   4.627  1.00  0.00     0.000 C 
BRANCH   9  10
ATOM     10  C   UNL     1      -8.752 -67.037   3.967  1.00  0.00     0.000 C 
BRANCH  10  11
ATOM     11  C   UNL     1      -8.385 -66.550   2.556  1.00  0.00     0.000 C 
BRANCH  11  12
ATOM     12  C   UNL     1      -7.326 -65.437   2.567  1.00  0.00     0.000 C 
BRANCH  12  13
ATOM     13  C   UNL     1      -6.669 -65.279   1.187  1.00  0.00     0.006 C 
BRANCH  13  14
ATOM     14  C   UNL     1      -7.505 -65.917   0.070  1.00  0.00     0.053 C 
BRANCH  14  15
ATOM     15  C   UNL     1      -8.396 -64.913  -0.598  1.00  0.00     0.041 C 
ATOM     16  O   UNL     1      -9.613 -64.837  -0.281  1.00  0.00    -0.550 OA
ATOM     17  O   UNL     1      -7.869 -64.020  -1.525  1.00  0.00    -0.550 OA
ENDBRANCH  14  15
ENDBRANCH  13  14
ENDBRANCH  12  13
ENDBRANCH  11  12
ENDBRANCH  10  11
ENDBRANCH   9  10
ENDBRANCH   8   9
ENDBRANCH   7   8
ENDBRANCH   6   7
ENDBRANCH   5   6
ENDBRANCH   4   5
ENDBRANCH   3   4
ENDBRANCH   2   3
ENDBRANCH   1   2
BRANCH   1  18
ATOM     18  C   UNL     1      -8.029 -74.441   4.104  1.00  0.00     0.000 C 
BRANCH  18  19
ATOM     19  C   UNL     1      -6.888 -74.728   5.090  1.00  0.00     0.000 C 
BRANCH  19  20
ATOM     20  C   UNL     1      -6.629 -73.563   6.064  1.00  0.00     0.000 C 
BRANCH  20  21
ATOM     21  C   UNL     1      -5.200 -72.986   6.027  1.00  0.00     0.000 C 
BRANCH  21  22
ATOM     22  C   UNL     1      -5.117 -71.452   6.159  1.00  0.00     0.000 C 
BRANCH  22  23
ATOM     23  C   UNL     1      -5.531 -70.669   4.897  1.00  0.00     0.000 C 
BRANCH  23  24
ATOM     24  C   UNL     1      -6.599 -69.583   5.126  1.00  0.00    -0.000 C 
BRANCH  24  25
ATOM     25  C   UNL     1      -6.157 -68.515   6.138  1.00  0.00    -0.000 C 
BRANCH  25  26
ATOM     26  C   UNL     1      -5.565 -67.287   5.428  1.00  0.00    -0.000 C 
BRANCH  26  27
ATOM     27  C   UNL     1      -4.686 -66.430   6.357  1.00  0.00    -0.000 C 
BRANCH  27  28
ATOM     28  C   UNL     1      -5.188 -64.991   6.578  1.00  0.00    -0.000 C 
BRANCH  28  29
ATOM     29  C   UNL     1      -6.675 -64.819   6.239  1.00  0.00    -0.000 C 
BRANCH  29  30
ATOM     30  C   UNL     1      -7.075 -63.340   6.249  1.00  0.00    -0.000 C 
BRANCH  30  31
ATOM     31  C   UNL     1      -8.230 -63.076   5.276  1.00  0.00    -0.003 C 
ATOM     32  C   UNL     1      -9.478 -62.604   6.016  1.00  0.00     0.004 C 
ENDBRANCH  30  31
ENDBRANCH  29  30
ENDBRANCH  28  29
ENDBRANCH  27  28
ENDBRANCH  26  27
ENDBRANCH  25  26
ENDBRANCH  24  25
ENDBRANCH  23  24
ENDBRANCH  22  23
ENDBRANCH  21  22
ENDBRANCH  20  21
ENDBRANCH  19  20
ENDBRANCH  18  19
ENDBRANCH   1  18
TORSDOF 28
ENDMDL
MODEL 3
REMARK VINA RESULT:    -3.630      2.396      4.866
REMARK INTER + INTRA:         -14.497
REMARK INTER:                  -8.976
REMARK INTRA:                  -5.521
REMARK UNBOUND:                -4.925
REMARK SMILES CCCCCCCCCCCCCCCCCCCCCCCCCCCCCC(=O)[O-]
REMARK SMILES IDX 16 1 17 2 18 3 19 4 20 5 21 6 22 7 23 8 24 9 25 10 26 11
REMARK SMILES IDX 27 12 28 13 29 14 30 15 31 16 32 17 15 18 14 19 13 20 12 21
REMARK SMILES IDX 11 22 10 23 9 24 8 25 7 26 6 27 5 28 4 29 3 30 2 31 1 32
REMARK H PARENT
REMARK Flexibility Score: inf
ROOT
ATOM      1  C   UNL     1      -4.764 -64.672  -3.996  1.00  0.00     0.000 C 
ENDROOT
BRANCH   1   2
ATOM      2  C   UNL     1      -4.028 -65.744  -3.170  1.00  0.00     0.000 C 
BRANCH   2   3
ATOM      3  C   UNL     1      -4.848 -66.375  -2.028  1.00  0.00     0.000 C 
BRANCH   3   4
ATOM      4  C   UNL     1      -4.610 -65.770  -0.629  1.00  0.00     0.000 C 
BRANCH   4   5
ATOM      5  C   UNL     1      -3.332 -64.913  -0.524  1.00  0.00     0.000 C 
BRANCH   5   6
ATOM      6  C   UNL     1      -3.604 -63.496   0.009  1.00  0.00     0.000 C 
BRANCH   6   7
ATOM      7  C   UNL     1      -5.103 -63.145   0.035  1.00  0.00     0.000 C 
BRANCH   7   8
ATOM      8  C   UNL     1      -5.602 -62.304  -1.158  1.00  0.00     0.000 C 
BRANCH   8   9
ATOM      9  C   UNL     1      -7.109 -62.412  -1.451  1.00  0.00     0.000 C 
BRANCH   9  10
ATOM     10  C   UNL     1      -7.532 -63.829  -1.876  1.00  0.00     0.000 C 
BRANCH  10  11
ATOM     11  C   UNL     1      -8.498 -64.482  -0.874  1.00  0.00     0.000 C 
BRANCH  11  12
ATOM     12  C   UNL     1      -8.347 -66.010  -0.813  1.00  0.00     0.000 C 
BRANCH  12  13
ATOM     13  C   UNL     1      -8.230 -66.500   0.640  1.00  0.00     0.006 C 
BRANCH  13  14
ATOM     14  C   UNL     1      -7.607 -65.443   1.561  1.00  0.00     0.053 C 
BRANCH  14  15
ATOM     15  C   UNL     1      -8.224 -65.465   2.926  1.00  0.00     0.041 C 
ATOM     16  O   UNL     1      -8.976 -66.417   3.267  1.00  0.00    -0.550 OA
ATOM     17  O   UNL     1      -7.919 -64.465   3.844  1.00  0.00    -0.550 OA
ENDBRANCH  14  15
ENDBRANCH  13  14
ENDBRANCH  12  13
ENDBRANCH  11  12
ENDBRANCH  10  11
ENDBRANCH   9  10
ENDBRANCH   8   9
ENDBRANCH   7   8
ENDBRANCH   6   7
ENDBRANCH   5   6
ENDBRANCH   4   5
ENDBRANCH   3   4
ENDBRANCH   2   3
ENDBRANCH   1   2
BRANCH   1  18
ATOM     18  C   UNL     1      -3.930 -63.399  -4.203  1.00  0.00     0.000 C 
BRANCH  18  19
ATOM     19  C   UNL     1      -2.484 -63.607  -3.733  1.00  0.00     0.000 C 
BRANCH  19  20
ATOM     20  C   UNL     1      -1.755 -62.285  -3.429  1.00  0.00     0.000 C 
BRANCH  20  21
ATOM     21  C   UNL     1      -0.233 -62.410  -3.220  1.00  0.00     0.000 C 
BRANCH  21  22
ATOM     22  C   UNL     1       0.623 -62.001  -4.435  1.00  0.00     0.000 C 
BRANCH  22  23
ATOM     23  C   UNL     1       1.627 -63.070  -4.911  1.00  0.00     0.000 C 
BRANCH  23  24
ATOM     24  C   UNL     1       1.193 -63.858  -6.162  1.00  0.00    -0.000 C 
BRANCH  24  25
ATOM     25  C   UNL     1       0.169 -63.099  -7.021  1.00  0.00    -0.000 C 
BRANCH  25  26
ATOM     26  C   UNL     1      -1.206 -63.785  -6.983  1.00  0.00    -0.000 C 
BRANCH  26  27
ATOM     27  C   UNL     1      -2.342 -62.866  -7.470  1.00  0.00    -0.000 C 
BRANCH  27  28
ATOM     28  C   UNL     1      -3.629 -63.596  -7.893  1.00  0.00    -0.000 C 
BRANCH  28  29
ATOM     29  C   UNL     1      -3.401 -65.085  -8.187  1.00  0.00    -0.000 C 
BRANCH  29  30
ATOM     30  C   UNL     1      -4.512 -65.945  -7.574  1.00  0.00    -0.000 C 
BRANCH  30  31
ATOM     31  C   UNL     1      -3.927 -67.040  -6.676  1.00  0.00    -0.003 C 
ATOM     32  C   UNL     1      -4.305 -68.429  -7.183  1.00  0.00     0.004 C 
ENDBRANCH  30  31
ENDBRANCH  29  30
ENDBRANCH  28  29
ENDBRANCH  27  28
ENDBRANCH  26  27
ENDBRANCH  25  26
ENDBRANCH  24  25
ENDBRANCH  23  24
ENDBRANCH  22  23
ENDBRANCH  21  22
ENDBRANCH  20  21
ENDBRANCH  19  20
ENDBRANCH  18  19
ENDBRANCH   1  18
TORSDOF 28
ENDMDL
MODEL 4
REMARK VINA RESULT:    -3.618      2.728      5.695
REMARK INTER + INTRA:         -14.464
REMARK INTER:                  -9.632
REMARK INTRA:                  -4.833
REMARK UNBOUND:                -4.925
REMARK SMILES CCCCCCCCCCCCCCCCCCCCCCCCCCCCCC(=O)[O-]
REMARK SMILES IDX 16 1 17 2 18 3 19 4 20 5 21 6 22 7 23 8 24 9 25 10 26 11
REMARK SMILES IDX 27 12 28 13 29 14 30 15 31 16 32 17 15 18 14 19 13 20 12 21
REMARK SMILES IDX 11 22 10 23 9 24 8 25 7 26 6 27 5 28 4 29 3 30 2 31 1 32
REMARK H PARENT
REMARK Flexibility Score: inf
ROOT
ATOM      1  C   UNL     1      -3.785 -61.866  -1.387  1.00  0.00     0.000 C 
ENDROOT
BRANCH   1   2
ATOM      2  C   UNL     1      -5.252 -61.486  -1.108  1.00  0.00     0.000 C 
BRANCH   2   3
ATOM      3  C   UNL     1      -6.305 -62.369  -1.806  1.00  0.00     0.000 C 
BRANCH   3   4
ATOM      4  C   UNL     1      -7.389 -62.964  -0.884  1.00  0.00     0.000 C 
BRANCH   4   5
ATOM      5  C   UNL     1      -8.042 -64.251  -1.430  1.00  0.00     0.000 C 
BRANCH   5   6
ATOM      6  C   UNL     1      -8.914 -64.969  -0.385  1.00  0.00     0.000 C 
BRANCH   6   7
ATOM      7  C   UNL     1      -8.265 -66.258   0.149  1.00  0.00     0.000 C 
BRANCH   7   8
ATOM      8  C   UNL     1      -8.438 -66.503   1.662  1.00  0.00     0.000 C 
BRANCH   8   9
ATOM      9  C   UNL     1      -7.972 -65.351   2.571  1.00  0.00     0.000 C 
BRANCH   9  10
ATOM     10  C   UNL     1      -6.491 -64.994   2.364  1.00  0.00     0.000 C 
BRANCH  10  11
ATOM     11  C   UNL     1      -6.233 -63.480   2.430  1.00  0.00     0.000 C 
BRANCH  11  12
ATOM     12  C   UNL     1      -7.465 -62.687   2.891  1.00  0.00     0.000 C 
BRANCH  12  13
ATOM     13  C   UNL     1      -7.411 -61.234   2.392  1.00  0.00     0.006 C 
BRANCH  13  14
ATOM     14  C   UNL     1      -8.802 -60.689   2.042  1.00  0.00     0.053 C 
BRANCH  14  15
ATOM     15  C   UNL     1      -8.716 -59.439   1.218  1.00  0.00     0.041 C 
ATOM     16  O   UNL     1      -9.318 -58.395   1.587  1.00  0.00    -0.550 OA
ATOM     17  O   UNL     1      -7.921 -59.410   0.077  1.00  0.00    -0.550 OA
ENDBRANCH  14  15
ENDBRANCH  13  14
ENDBRANCH  12  13
ENDBRANCH  11  12
ENDBRANCH  10  11
ENDBRANCH   9  10
ENDBRANCH   8   9
ENDBRANCH   7   8
ENDBRANCH   6   7
ENDBRANCH   5   6
ENDBRANCH   4   5
ENDBRANCH   3   4
ENDBRANCH   2   3
ENDBRANCH   1   2
BRANCH   1  18
ATOM     18  C   UNL     1      -3.642 -62.952  -2.462  1.00  0.00     0.000 C 
BRANCH  18  19
ATOM     19  C   UNL     1      -2.975 -64.210  -1.887  1.00  0.00     0.000 C 
BRANCH  19  20
ATOM     20  C   UNL     1      -3.577 -64.644  -0.538  1.00  0.00     0.000 C 
BRANCH  20  21
ATOM     21  C   UNL     1      -4.634 -65.764  -0.624  1.00  0.00     0.000 C 
BRANCH  21  22
ATOM     22  C   UNL     1      -5.140 -66.068  -2.049  1.00  0.00     0.000 C 
BRANCH  22  23
ATOM     23  C   UNL     1      -5.243 -67.567  -2.394  1.00  0.00     0.000 C 
BRANCH  23  24
ATOM     24  C   UNL     1      -4.701 -67.954  -3.783  1.00  0.00    -0.000 C 
BRANCH  24  25
ATOM     25  C   UNL     1      -3.911 -66.819  -4.453  1.00  0.00    -0.000 C 
BRANCH  25  26
ATOM     26  C   UNL     1      -3.365 -67.255  -5.822  1.00  0.00    -0.000 C 
BRANCH  26  27
ATOM     27  C   UNL     1      -4.476 -67.445  -6.871  1.00  0.00    -0.000 C 
BRANCH  27  28
ATOM     28  C   UNL     1      -4.436 -66.451  -8.045  1.00  0.00    -0.000 C 
BRANCH  28  29
ATOM     29  C   UNL     1      -3.787 -65.112  -7.671  1.00  0.00    -0.000 C 
BRANCH  29  30
ATOM     30  C   UNL     1      -2.456 -64.918  -8.407  1.00  0.00    -0.000 C 
BRANCH  30  31
ATOM     31  C   UNL     1      -1.500 -64.038  -7.593  1.00  0.00    -0.003 C 
ATOM     32  C   UNL     1      -2.012 -63.839  -6.169  1.00  0.00     0.004 C 
ENDBRANCH  30  31
ENDBRANCH  29  30
ENDBRANCH  28  29
ENDBRANCH  27  28
ENDBRANCH  26  27
ENDBRANCH  25  26
ENDBRANCH  24  25
ENDBRANCH  23  24
ENDBRANCH  22  23
ENDBRANCH  21  22
ENDBRANCH  20  21
ENDBRANCH  19  20
ENDBRANCH  18  19
ENDBRANCH   1  18
TORSDOF 28
ENDMDL
MODEL 5
REMARK VINA RESULT:    -3.563      1.448      4.150
REMARK INTER + INTRA:         -14.320
REMARK INTER:                  -8.668
REMARK INTRA:                  -5.652
REMARK UNBOUND:                -4.925
REMARK SMILES CCCCCCCCCCCCCCCCCCCCCCCCCCCCCC(=O)[O-]
REMARK SMILES IDX 16 1 17 2 18 3 19 4 20 5 21 6 22 7 23 8 24 9 25 10 26 11
REMARK SMILES IDX 27 12 28 13 29 14 30 15 31 16 32 17 15 18 14 19 13 20 12 21
REMARK SMILES IDX 11 22 10 23 9 24 8 25 7 26 6 27 5 28 4 29 3 30 2 31 1 32
REMARK H PARENT
REMARK Flexibility Score: inf
ROOT
ATOM      1  C   UNL     1      -5.043 -64.810  -7.339  1.00  0.00     0.000 C 
ENDROOT
BRANCH   1   2
ATOM      2  C   UNL     1      -5.501 -66.279  -7.266  1.00  0.00     0.000 C 
BRANCH   2   3
ATOM      3  C   UNL     1      -4.395 -67.327  -7.505  1.00  0.00     0.000 C 
BRANCH   3   4
ATOM      4  C   UNL     1      -3.551 -67.694  -6.267  1.00  0.00     0.000 C 
BRANCH   4   5
ATOM      5  C   UNL     1      -4.380 -67.910  -4.983  1.00  0.00     0.000 C 
BRANCH   5   6
ATOM      6  C   UNL     1      -3.991 -66.943  -3.851  1.00  0.00     0.000 C 
BRANCH   6   7
ATOM      7  C   UNL     1      -4.910 -67.061  -2.623  1.00  0.00     0.000 C 
BRANCH   7   8
ATOM      8  C   UNL     1      -4.928 -65.829  -1.695  1.00  0.00     0.000 C 
BRANCH   8   9
ATOM      9  C   UNL     1      -4.183 -64.594  -2.230  1.00  0.00     0.000 C 
BRANCH   9  10
ATOM     10  C   UNL     1      -5.078 -63.345  -2.303  1.00  0.00     0.000 C 
BRANCH  10  11
ATOM     11  C   UNL     1      -6.575 -63.688  -2.240  1.00  0.00     0.000 C 
BRANCH  11  12
ATOM     12  C   UNL     1      -7.279 -63.061  -1.027  1.00  0.00     0.000 C 
BRANCH  12  13
ATOM     13  C   UNL     1      -8.038 -64.121  -0.213  1.00  0.00     0.006 C 
BRANCH  13  14
ATOM     14  C   UNL     1      -8.617 -65.229  -1.102  1.00  0.00     0.053 C 
BRANCH  14  15
ATOM     15  C   UNL     1      -8.512 -66.575  -0.450  1.00  0.00     0.041 C 
ATOM     16  O   UNL     1      -8.114 -67.570  -1.112  1.00  0.00    -0.550 OA
ATOM     17  O   UNL     1      -8.794 -66.717   0.905  1.00  0.00    -0.550 OA
ENDBRANCH  14  15
ENDBRANCH  13  14
ENDBRANCH  12  13
ENDBRANCH  11  12
ENDBRANCH  10  11
ENDBRANCH   9  10
ENDBRANCH   8   9
ENDBRANCH   7   8
ENDBRANCH   6   7
ENDBRANCH   5   6
ENDBRANCH   4   5
ENDBRANCH   3   4
ENDBRANCH   2   3
ENDBRANCH   1   2
BRANCH   1  18
ATOM     18  C   UNL     1      -4.708 -64.218  -5.963  1.00  0.00     0.000 C 
BRANCH  18  19
ATOM     19  C   UNL     1      -3.378 -63.453  -6.003  1.00  0.00     0.000 C 
BRANCH  19  20
ATOM     20  C   UNL     1      -2.181 -64.350  -6.368  1.00  0.00     0.000 C 
BRANCH  20  21
ATOM     21  C   UNL     1      -1.557 -64.076  -7.751  1.00  0.00     0.000 C 
BRANCH  21  22
ATOM     22  C   UNL     1      -2.091 -62.819  -8.465  1.00  0.00     0.000 C 
BRANCH  22  23
ATOM     23  C   UNL     1      -2.576 -63.050  -9.910  1.00  0.00     0.000 C 
BRANCH  23  24
ATOM     24  C   UNL     1      -2.861 -64.520 -10.273  1.00  0.00    -0.000 C 
BRANCH  24  25
ATOM     25  C   UNL     1      -4.237 -64.717 -10.928  1.00  0.00    -0.000 C 
BRANCH  25  26
ATOM     26  C   UNL     1      -4.561 -66.209 -11.104  1.00  0.00    -0.000 C 
BRANCH  26  27
ATOM     27  C   UNL     1      -6.058 -66.519 -10.916  1.00  0.00    -0.000 C 
BRANCH  27  28
ATOM     28  C   UNL     1      -6.986 -65.292 -10.977  1.00  0.00    -0.000 C 
BRANCH  28  29
ATOM     29  C   UNL     1      -7.951 -65.215  -9.786  1.00  0.00    -0.000 C 
BRANCH  29  30
ATOM     30  C   UNL     1      -7.986 -63.802  -9.195  1.00  0.00    -0.000 C 
BRANCH  30  31
ATOM     31  C   UNL     1      -7.250 -62.808 -10.101  1.00  0.00    -0.003 C 
ATOM     32  C   UNL     1      -6.248 -61.975  -9.307  1.00  0.00     0.004 C 
ENDBRANCH  30  31
ENDBRANCH  29  30
ENDBRANCH  28  29
ENDBRANCH  27  28
ENDBRANCH  26  27
ENDBRANCH  25  26
ENDBRANCH  24  25
ENDBRANCH  23  24
ENDBRANCH  22  23
ENDBRANCH  21  22
ENDBRANCH  20  21
ENDBRANCH  19  20
ENDBRANCH  18  19
ENDBRANCH   1  18
TORSDOF 28
ENDMDL
MODEL 6
REMARK VINA RESULT:    -3.560      4.044      9.008
REMARK INTER + INTRA:         -14.312
REMARK INTER:                  -9.239
REMARK INTRA:                  -5.074
REMARK UNBOUND:                -4.925
REMARK SMILES CCCCCCCCCCCCCCCCCCCCCCCCCCCCCC(=O)[O-]
REMARK SMILES IDX 16 1 17 2 18 3 19 4 20 5 21 6 22 7 23 8 24 9 25 10 26 11
REMARK SMILES IDX 27 12 28 13 29 14 30 15 31 16 32 17 15 18 14 19 13 20 12 21
REMARK SMILES IDX 11 22 10 23 9 24 8 25 7 26 6 27 5 28 4 29 3 30 2 31 1 32
REMARK H PARENT
REMARK Flexibility Score: inf
ROOT
ATOM      1  C   UNL     1      -4.908 -62.212  -1.350  1.00  0.00     0.000 C 
ENDROOT
BRANCH   1   2
ATOM      2  C   UNL     1      -3.900 -62.962  -0.458  1.00  0.00     0.000 C 
BRANCH   2   3
ATOM      3  C   UNL     1      -4.395 -64.307   0.107  1.00  0.00     0.000 C 
BRANCH   3   4
ATOM      4  C   UNL     1      -4.069 -65.547  -0.751  1.00  0.00     0.000 C 
BRANCH   4   5
ATOM      5  C   UNL     1      -5.301 -66.406  -1.106  1.00  0.00     0.000 C 
BRANCH   5   6
ATOM      6  C   UNL     1      -5.103 -67.234  -2.388  1.00  0.00     0.000 C 
BRANCH   6   7
ATOM      7  C   UNL     1      -4.222 -66.522  -3.429  1.00  0.00     0.000 C 
BRANCH   7   8
ATOM      8  C   UNL     1      -3.959 -67.318  -4.723  1.00  0.00     0.000 C 
BRANCH   8   9
ATOM      9  C   UNL     1      -4.308 -66.582  -6.029  1.00  0.00     0.000 C 
BRANCH   9  10
ATOM     10  C   UNL     1      -4.747 -65.127  -5.791  1.00  0.00     0.000 C 
BRANCH  10  11
ATOM     11  C   UNL     1      -3.767 -64.108  -6.397  1.00  0.00     0.000 C 
BRANCH  11  12
ATOM     12  C   UNL     1      -2.594 -63.782  -5.459  1.00  0.00     0.000 C 
BRANCH  12  13
ATOM     13  C   UNL     1      -1.379 -63.265  -6.246  1.00  0.00     0.006 C 
BRANCH  13  14
ATOM     14  C   UNL     1      -0.180 -62.974  -5.335  1.00  0.00     0.053 C 
BRANCH  14  15
ATOM     15  C   UNL     1       1.075 -63.614  -5.848  1.00  0.00     0.041 C 
ATOM     16  O   UNL     1       2.188 -63.329  -5.332  1.00  0.00    -0.550 OA
ATOM     17  O   UNL     1       1.006 -64.572  -6.854  1.00  0.00    -0.550 OA
ENDBRANCH  14  15
ENDBRANCH  13  14
ENDBRANCH  12  13
ENDBRANCH  11  12
ENDBRANCH  10  11
ENDBRANCH   9  10
ENDBRANCH   8   9
ENDBRANCH   7   8
ENDBRANCH   6   7
ENDBRANCH   5   6
ENDBRANCH   4   5
ENDBRANCH   3   4
ENDBRANCH   2   3
ENDBRANCH   1   2
BRANCH   1  18
ATOM     18  C   UNL     1      -5.007 -62.798  -2.766  1.00  0.00     0.000 C 
BRANCH  18  19
ATOM     19  C   UNL     1      -6.390 -63.417  -3.009  1.00  0.00     0.000 C 
BRANCH  19  20
ATOM     20  C   UNL     1      -7.382 -63.139  -1.863  1.00  0.00     0.000 C 
BRANCH  20  21
ATOM     21  C   UNL     1      -8.211 -64.356  -1.408  1.00  0.00     0.000 C 
BRANCH  21  22
ATOM     22  C   UNL     1      -8.498 -64.415   0.106  1.00  0.00     0.000 C 
BRANCH  22  23
ATOM     23  C   UNL     1      -8.078 -65.729   0.795  1.00  0.00     0.000 C 
BRANCH  23  24
ATOM     24  C   UNL     1      -8.833 -66.049   2.099  1.00  0.00    -0.000 C 
BRANCH  24  25
ATOM     25  C   UNL     1      -7.946 -65.929   3.348  1.00  0.00    -0.000 C 
BRANCH  25  26
ATOM     26  C   UNL     1      -6.585 -65.303   3.006  1.00  0.00    -0.000 C 
BRANCH  26  27
ATOM     27  C   UNL     1      -6.379 -63.929   3.670  1.00  0.00    -0.000 C 
BRANCH  27  28
ATOM     28  C   UNL     1      -7.663 -63.102   3.858  1.00  0.00    -0.000 C 
BRANCH  28  29
ATOM     29  C   UNL     1      -7.766 -61.927   2.875  1.00  0.00    -0.000 C 
BRANCH  29  30
ATOM     30  C   UNL     1      -6.551 -61.881   1.942  1.00  0.00    -0.000 C 
BRANCH  30  31
ATOM     31  C   UNL     1      -5.978 -60.462   1.855  1.00  0.00    -0.003 C 
ATOM     32  C   UNL     1      -5.480 -59.985   3.216  1.00  0.00     0.004 C 
ENDBRANCH  30  31
ENDBRANCH  29  30
ENDBRANCH  28  29
ENDBRANCH  27  28
ENDBRANCH  26  27
ENDBRANCH  25  26
ENDBRANCH  24  25
ENDBRANCH  23  24
ENDBRANCH  22  23
ENDBRANCH  21  22
ENDBRANCH  20  21
ENDBRANCH  19  20
ENDBRANCH  18  19
ENDBRANCH   1  18
TORSDOF 28
ENDMDL
MODEL 7
REMARK VINA RESULT:    -3.546      4.177      9.156
REMARK INTER + INTRA:         -14.277
REMARK INTER:                  -9.743
REMARK INTRA:                  -4.534
REMARK UNBOUND:                -4.925
REMARK SMILES CCCCCCCCCCCCCCCCCCCCCCCCCCCCCC(=O)[O-]
REMARK SMILES IDX 16 1 17 2 18 3 19 4 20 5 21 6 22 7 23 8 24 9 25 10 26 11
REMARK SMILES IDX 27 12 28 13 29 14 30 15 31 16 32 17 15 18 14 19 13 20 12 21
REMARK SMILES IDX 11 22 10 23 9 24 8 25 7 26 6 27 5 28 4 29 3 30 2 31 1 32
REMARK H PARENT
REMARK Flexibility Score: inf
ROOT
ATOM      1  C   UNL     1      -2.916 -63.467  -3.198  1.00  0.00     0.000 C 
ENDROOT
BRANCH   1   2
ATOM      2  C   UNL     1      -3.754 -63.755  -4.458  1.00  0.00     0.000 C 
BRANCH   2   3
ATOM      3  C   UNL     1      -4.619 -65.030  -4.397  1.00  0.00     0.000 C 
BRANCH   3   4
ATOM      4  C   UNL     1      -3.856 -66.334  -4.082  1.00  0.00     0.000 C 
BRANCH   4   5
ATOM      5  C   UNL     1      -4.302 -67.543  -4.930  1.00  0.00     0.000 C 
BRANCH   5   6
ATOM      6  C   UNL     1      -3.590 -67.612  -6.293  1.00  0.00     0.000 C 
BRANCH   6   7
ATOM      7  C   UNL     1      -4.565 -67.522  -7.481  1.00  0.00     0.000 C 
BRANCH   7   8
ATOM      8  C   UNL     1      -5.176 -66.128  -7.726  1.00  0.00     0.000 C 
BRANCH   8   9
ATOM      9  C   UNL     1      -4.475 -65.286  -8.808  1.00  0.00     0.000 C 
BRANCH   9  10
ATOM     10  C   UNL     1      -3.718 -64.080  -8.224  1.00  0.00     0.000 C 
BRANCH  10  11
ATOM     11  C   UNL     1      -2.201 -64.167  -8.456  1.00  0.00     0.000 C 
BRANCH  11  12
ATOM     12  C   UNL     1      -1.430 -64.587  -7.195  1.00  0.00     0.000 C 
BRANCH  12  13
ATOM     13  C   UNL     1       0.083 -64.645  -7.461  1.00  0.00     0.006 C 
BRANCH  13  14
ATOM     14  C   UNL     1       0.884 -63.831  -6.437  1.00  0.00     0.053 C 
BRANCH  14  15
ATOM     15  C   UNL     1       1.516 -62.623  -7.060  1.00  0.00     0.041 C 
ATOM     16  O   UNL     1       0.850 -61.892  -7.841  1.00  0.00    -0.550 OA
ATOM     17  O   UNL     1       2.820 -62.270  -6.730  1.00  0.00    -0.550 OA
ENDBRANCH  14  15
ENDBRANCH  13  14
ENDBRANCH  12  13
ENDBRANCH  11  12
ENDBRANCH  10  11
ENDBRANCH   9  10
ENDBRANCH   8   9
ENDBRANCH   7   8
ENDBRANCH   6   7
ENDBRANCH   5   6
ENDBRANCH   4   5
ENDBRANCH   3   4
ENDBRANCH   2   3
ENDBRANCH   1   2
BRANCH   1  18
ATOM     18  C   UNL     1      -3.758 -63.427  -1.915  1.00  0.00     0.000 C 
BRANCH  18  19
ATOM     19  C   UNL     1      -3.235 -64.436  -0.883  1.00  0.00     0.000 C 
BRANCH  19  20
ATOM     20  C   UNL     1      -4.363 -65.212  -0.178  1.00  0.00     0.000 C 
BRANCH  20  21
ATOM     21  C   UNL     1      -5.745 -65.114  -0.855  1.00  0.00     0.000 C 
BRANCH  21  22
ATOM     22  C   UNL     1      -6.293 -66.447  -1.403  1.00  0.00     0.000 C 
BRANCH  22  23
ATOM     23  C   UNL     1      -7.632 -66.901  -0.787  1.00  0.00     0.000 C 
BRANCH  23  24
ATOM     24  C   UNL     1      -8.704 -65.800  -0.676  1.00  0.00    -0.000 C 
BRANCH  24  25
ATOM     25  C   UNL     1      -9.072 -65.470   0.779  1.00  0.00    -0.000 C 
BRANCH  25  26
ATOM     26  C   UNL     1      -8.585 -66.567   1.739  1.00  0.00    -0.000 C 
BRANCH  26  27
ATOM     27  C   UNL     1      -8.414 -66.060   3.183  1.00  0.00    -0.000 C 
BRANCH  27  28
ATOM     28  C   UNL     1      -6.964 -65.746   3.592  1.00  0.00    -0.000 C 
BRANCH  28  29
ATOM     29  C   UNL     1      -6.716 -64.246   3.807  1.00  0.00    -0.000 C 
BRANCH  29  30
ATOM     30  C   UNL     1      -5.977 -63.632   2.613  1.00  0.00    -0.000 C 
BRANCH  30  31
ATOM     31  C   UNL     1      -6.914 -62.749   1.782  1.00  0.00    -0.003 C 
ATOM     32  C   UNL     1      -6.125 -61.819   0.864  1.00  0.00     0.004 C 
ENDBRANCH  30  31
ENDBRANCH  29  30
ENDBRANCH  28  29
ENDBRANCH  27  28
ENDBRANCH  26  27
ENDBRANCH  25  26
ENDBRANCH  24  25
ENDBRANCH  23  24
ENDBRANCH  22  23
ENDBRANCH  21  22
ENDBRANCH  20  21
ENDBRANCH  19  20
ENDBRANCH  18  19
ENDBRANCH   1  18
TORSDOF 28
ENDMDL
MODEL 8
REMARK VINA RESULT:    -3.539      7.926     12.833
REMARK INTER + INTRA:         -14.258
REMARK INTER:                 -10.090
REMARK INTRA:                  -4.168
REMARK UNBOUND:                -4.925
REMARK SMILES CCCCCCCCCCCCCCCCCCCCCCCCCCCCCC(=O)[O-]
REMARK SMILES IDX 16 1 17 2 18 3 19 4 20 5 21 6 22 7 23 8 24 9 25 10 26 11
REMARK SMILES IDX 27 12 28 13 29 14 30 15 31 16 32 17 15 18 14 19 13 20 12 21
REMARK SMILES IDX 11 22 10 23 9 24 8 25 7 26 6 27 5 28 4 29 3 30 2 31 1 32
REMARK H PARENT
REMARK Flexibility Score: inf
ROOT
ATOM      1  C   UNL     1      -8.588 -69.993   4.976  1.00  0.00     0.000 C 
ENDROOT
BRANCH   1   2
ATOM      2  C   UNL     1      -9.272 -70.016   6.357  1.00  0.00     0.000 C 
BRANCH   2   3
ATOM      3  C   UNL     1     -10.300 -68.894   6.602  1.00  0.00     0.000 C 
BRANCH   3   4
ATOM      4  C   UNL     1      -9.708 -67.484   6.801  1.00  0.00     0.000 C 
BRANCH   4   5
ATOM      5  C   UNL     1     -10.440 -66.379   6.011  1.00  0.00     0.000 C 
BRANCH   5   6
ATOM      6  C   UNL     1      -9.536 -65.683   4.979  1.00  0.00     0.000 C 
BRANCH   6   7
ATOM      7  C   UNL     1      -8.161 -66.360   4.836  1.00  0.00     0.000 C 
BRANCH   7   8
ATOM      8  C   UNL     1      -7.594 -66.399   3.402  1.00  0.00     0.000 C 
BRANCH   8   9
ATOM      9  C   UNL     1      -8.555 -66.945   2.331  1.00  0.00     0.000 C 
BRANCH   9  10
ATOM     10  C   UNL     1      -8.851 -65.923   1.222  1.00  0.00     0.000 C 
BRANCH  10  11
ATOM     11  C   UNL     1      -8.955 -66.572  -0.168  1.00  0.00     0.000 C 
BRANCH  11  12
ATOM     12  C   UNL     1      -7.582 -66.826  -0.809  1.00  0.00     0.000 C 
BRANCH  12  13
ATOM     13  C   UNL     1      -6.754 -65.533  -0.882  1.00  0.00     0.006 C 
BRANCH  13  14
ATOM     14  C   UNL     1      -5.257 -65.789  -0.666  1.00  0.00     0.053 C 
BRANCH  14  15
ATOM     15  C   UNL     1      -4.478 -65.632  -1.937  1.00  0.00     0.041 C 
ATOM     16  O   UNL     1      -4.754 -66.341  -2.941  1.00  0.00    -0.550 OA
ATOM     17  O   UNL     1      -3.488 -64.658  -2.031  1.00  0.00    -0.550 OA
ENDBRANCH  14  15
ENDBRANCH  13  14
ENDBRANCH  12  13
ENDBRANCH  11  12
ENDBRANCH  10  11
ENDBRANCH   9  10
ENDBRANCH   8   9
ENDBRANCH   7   8
ENDBRANCH   6   7
ENDBRANCH   5   6
ENDBRANCH   4   5
ENDBRANCH   3   4
ENDBRANCH   2   3
ENDBRANCH   1   2
BRANCH   1  18
ATOM     18  C   UNL     1      -7.070 -70.206   5.057  1.00  0.00     0.000 C 
BRANCH  18  19
ATOM     19  C   UNL     1      -6.604 -70.295   6.517  1.00  0.00     0.000 C 
BRANCH  19  20
ATOM     20  C   UNL     1      -6.049 -71.684   6.886  1.00  0.00     0.000 C 
BRANCH  20  21
ATOM     21  C   UNL     1      -5.134 -72.325   5.824  1.00  0.00     0.000 C 
BRANCH  21  22
ATOM     22  C   UNL     1      -4.110 -73.336   6.377  1.00  0.00     0.000 C 
BRANCH  22  23
ATOM     23  C   UNL     1      -3.572 -74.346   5.344  1.00  0.00     0.000 C 
BRANCH  23  24
ATOM     24  C   UNL     1      -3.270 -75.749   5.902  1.00  0.00    -0.000 C 
BRANCH  24  25
ATOM     25  C   UNL     1      -4.208 -76.150   7.051  1.00  0.00    -0.000 C 
BRANCH  25  26
ATOM     26  C   UNL     1      -5.470 -76.848   6.521  1.00  0.00    -0.000 C 
BRANCH  26  27
ATOM     27  C   UNL     1      -6.767 -76.132   6.941  1.00  0.00    -0.000 C 
BRANCH  27  28
ATOM     28  C   UNL     1      -7.796 -75.940   5.812  1.00  0.00    -0.000 C 
BRANCH  28  29
ATOM     29  C   UNL     1      -7.376 -74.869   4.797  1.00  0.00    -0.000 C 
BRANCH  29  30
ATOM     30  C   UNL     1      -8.457 -73.792   4.653  1.00  0.00    -0.000 C 
BRANCH  30  31
ATOM     31  C   UNL     1      -9.217 -73.596   5.969  1.00  0.00    -0.003 C 
ATOM     32  C   UNL     1     -10.675 -73.224   5.713  1.00  0.00     0.004 C 
ENDBRANCH  30  31
ENDBRANCH  29  30
ENDBRANCH  28  29
ENDBRANCH  27  28
ENDBRANCH  26  27
ENDBRANCH  25  26
ENDBRANCH  24  25
ENDBRANCH  23  24
ENDBRANCH  22  23
ENDBRANCH  21  22
ENDBRANCH  20  21
ENDBRANCH  19  20
ENDBRANCH  18  19
ENDBRANCH   1  18
TORSDOF 28
ENDMDL
MODEL 9
REMARK VINA RESULT:    -3.519      1.730      3.516
REMARK INTER + INTRA:         -14.205
REMARK INTER:                  -9.691
REMARK INTRA:                  -4.513
REMARK UNBOUND:                -4.925
REMARK SMILES CCCCCCCCCCCCCCCCCCCCCCCCCCCCCC(=O)[O-]
REMARK SMILES IDX 16 1 17 2 18 3 19 4 20 5 21 6 22 7 23 8 24 9 25 10 26 11
REMARK SMILES IDX 27 12 28 13 29 14 30 15 31 16 32 17 15 18 14 19 13 20 12 21
REMARK SMILES IDX 11 22 10 23 9 24 8 25 7 26 6 27 5 28 4 29 3 30 2 31 1 32
REMARK H PARENT
REMARK Flexibility Score: inf
ROOT
ATOM      1  C   UNL     1      -3.961 -67.345  -4.622  1.00  0.00     0.000 C 
ENDROOT
BRANCH   1   2
ATOM      2  C   UNL     1      -3.678 -66.058  -3.823  1.00  0.00     0.000 C 
BRANCH   2   3
ATOM      3  C   UNL     1      -4.837 -65.568  -2.933  1.00  0.00     0.000 C 
BRANCH   3   4
ATOM      4  C   UNL     1      -5.173 -66.468  -1.726  1.00  0.00     0.000 C 
BRANCH   4   5
ATOM      5  C   UNL     1      -4.755 -65.874  -0.364  1.00  0.00     0.000 C 
BRANCH   5   6
ATOM      6  C   UNL     1      -4.178 -64.453  -0.484  1.00  0.00     0.000 C 
BRANCH   6   7
ATOM      7  C   UNL     1      -4.903 -63.436   0.415  1.00  0.00     0.000 C 
BRANCH   7   8
ATOM      8  C   UNL     1      -6.443 -63.454   0.320  1.00  0.00     0.000 C 
BRANCH   8   9
ATOM      9  C   UNL     1      -7.022 -62.976  -1.023  1.00  0.00     0.000 C 
BRANCH   9  10
ATOM     10  C   UNL     1      -7.940 -64.021  -1.680  1.00  0.00     0.000 C 
BRANCH  10  11
ATOM     11  C   UNL     1      -8.827 -64.752  -0.659  1.00  0.00     0.000 C 
BRANCH  11  12
ATOM     12  C   UNL     1      -8.609 -66.273  -0.664  1.00  0.00     0.000 C 
BRANCH  12  13
ATOM     13  C   UNL     1      -8.483 -66.822   0.766  1.00  0.00     0.006 C 
BRANCH  13  14
ATOM     14  C   UNL     1      -8.991 -65.826   1.817  1.00  0.00     0.053 C 
BRANCH  14  15
ATOM     15  C   UNL     1      -8.047 -65.712   2.975  1.00  0.00     0.041 C 
ATOM     16  O   UNL     1      -7.522 -66.746   3.468  1.00  0.00    -0.550 OA
ATOM     17  O   UNL     1      -7.699 -64.460   3.470  1.00  0.00    -0.550 OA
ENDBRANCH  14  15
ENDBRANCH  13  14
ENDBRANCH  12  13
ENDBRANCH  11  12
ENDBRANCH  10  11
ENDBRANCH   9  10
ENDBRANCH   8   9
ENDBRANCH   7   8
ENDBRANCH   6   7
ENDBRANCH   5   6
ENDBRANCH   4   5
ENDBRANCH   3   4
ENDBRANCH   2   3
ENDBRANCH   1   2
BRANCH   1  18
ATOM     18  C   UNL     1      -4.427 -67.068  -6.058  1.00  0.00     0.000 C 
BRANCH  18  19
ATOM     19  C   UNL     1      -3.441 -66.145  -6.788  1.00  0.00     0.000 C 
BRANCH  19  20
ATOM     20  C   UNL     1      -4.135 -64.968  -7.499  1.00  0.00     0.000 C 
BRANCH  20  21
ATOM     21  C   UNL     1      -5.056 -64.115  -6.603  1.00  0.00     0.000 C 
BRANCH  21  22
ATOM     22  C   UNL     1      -6.552 -64.174  -6.970  1.00  0.00     0.000 C 
BRANCH  22  23
ATOM     23  C   UNL     1      -6.877 -63.811  -8.432  1.00  0.00     0.000 C 
BRANCH  23  24
ATOM     24  C   UNL     1      -7.613 -64.906  -9.227  1.00  0.00    -0.000 C 
BRANCH  24  25
ATOM     25  C   UNL     1      -7.450 -66.304  -8.609  1.00  0.00    -0.000 C 
BRANCH  25  26
ATOM     26  C   UNL     1      -6.575 -67.204  -9.495  1.00  0.00    -0.000 C 
BRANCH  26  27
ATOM     27  C   UNL     1      -6.031 -66.470 -10.735  1.00  0.00    -0.000 C 
BRANCH  27  28
ATOM     28  C   UNL     1      -4.643 -66.938 -11.208  1.00  0.00    -0.000 C 
BRANCH  28  29
ATOM     29  C   UNL     1      -3.806 -67.557 -10.081  1.00  0.00    -0.000 C 
BRANCH  29  30
ATOM     30  C   UNL     1      -3.428 -69.006 -10.405  1.00  0.00    -0.000 C 
BRANCH  30  31
ATOM     31  C   UNL     1      -3.337 -69.225 -11.920  1.00  0.00    -0.003 C 
ATOM     32  C   UNL     1      -3.818 -70.621 -12.305  1.00  0.00     0.004 C 
ENDBRANCH  30  31
ENDBRANCH  29  30
ENDBRANCH  28  29
ENDBRANCH  27  28
ENDBRANCH  26  27
ENDBRANCH  25  26
ENDBRANCH  24  25
ENDBRANCH  23  24
ENDBRANCH  22  23
ENDBRANCH  21  22
ENDBRANCH  20  21
ENDBRANCH  19  20
ENDBRANCH  18  19
ENDBRANCH   1  18
TORSDOF 28
ENDMDL
