MODEL 1
REMARK VINA RESULT:    -3.616      0.000      0.000
REMARK INTER + INTRA:          -6.730
REMARK INTER:                  -5.518
REMARK INTRA:                  -1.211
REMARK UNBOUND:                -1.211
REMARK SMILES CCCCCCCCCCC(=O)[O-]
REMARK SMILES IDX 7 1 8 2 9 3 10 4 11 5 12 6 13 7 6 8 5 9 4 10 3 11 2 12 1 13
REMARK H PARENT
REMARK Flexibility Score: inf
ROOT
ATOM      1  C   UNL     1       7.498  79.417  36.393  1.00  0.00     0.000 C 
ENDROOT
BRANCH   1   2
ATOM      2  C   UNL     1       8.317  78.145  36.647  1.00  0.00     0.000 C 
BRANCH   2   3
ATOM      3  C   UNL     1       9.512  78.434  37.564  1.00  0.00     0.006 C 
BRANCH   3   4
ATOM      4  C   UNL     1       9.416  79.840  38.165  1.00  0.00     0.053 C 
BRANCH   4   5
ATOM      5  C   UNL     1      10.276  79.948  39.384  1.00  0.00     0.041 C 
ATOM      6  O   UNL     1      10.001  79.282  40.416  1.00  0.00    -0.550 OA
ATOM      7  O   UNL     1      11.412  80.748  39.364  1.00  0.00    -0.550 OA
ENDBRANCH   4   5
ENDBRANCH   3   4
ENDBRANCH   2   3
ENDBRANCH   1   2
BRANCH   1   8
ATOM      8  C   UNL     1       6.033  79.220  36.810  1.00  0.00     0.000 C 
BRANCH   8   9
ATOM      9  C   UNL     1       5.635  80.105  38.002  1.00  0.00    -0.000 C 
BRANCH   9  10
ATOM     10  C   UNL     1       5.194  79.283  39.227  1.00  0.00    -0.000 C 
BRANCH  10  11
ATOM     11  C   UNL     1       6.370  78.574  39.916  1.00  0.00    -0.000 C 
BRANCH  11  12
ATOM     12  C   UNL     1       6.355  77.055  39.696  1.00  0.00    -0.003 C 
ATOM     13  C   UNL     1       4.969  76.575  39.271  1.00  0.00     0.004 C 
ENDBRANCH  11  12
ENDBRANCH  10  11
ENDBRANCH   9  10
ENDBRANCH   8   9
ENDBRANCH   1   8
TORSDOF 9
ENDMDL
MODEL 2
REMARK VINA RESULT:    -3.566      3.516      5.861
REMARK INTER + INTRA:          -6.654
REMARK INTER:                  -6.107
REMARK INTRA:                  -0.547
REMARK UNBOUND:                -1.211
REMARK SMILES CCCCCCCCCCC(=O)[O-]
REMARK SMILES IDX 7 1 8 2 9 3 10 4 11 5 12 6 13 7 6 8 5 9 4 10 3 11 2 12 1 13
REMARK H PARENT
REMARK Flexibility Score: inf
ROOT
ATOM      1  C   UNL     1      11.377  80.697  39.868  1.00  0.00     0.000 C 
ENDROOT
BRANCH   1   2
ATOM      2  C   UNL     1      10.733  80.447  38.499  1.00  0.00     0.000 C 
BRANCH   2   3
ATOM      3  C   UNL     1       9.805  79.227  38.540  1.00  0.00     0.006 C 
BRANCH   3   4
ATOM      4  C   UNL     1       9.028  79.084  37.228  1.00  0.00     0.053 C 
BRANCH   4   5
ATOM      5  C   UNL     1       9.278  77.743  36.615  1.00  0.00     0.041 C 
ATOM      6  O   UNL     1      10.297  77.553  35.900  1.00  0.00    -0.550 OA
ATOM      7  O   UNL     1       8.413  76.688  36.875  1.00  0.00    -0.550 OA
ENDBRANCH   4   5
ENDBRANCH   3   4
ENDBRANCH   2   3
ENDBRANCH   1   2
BRANCH   1   8
ATOM      8  C   UNL     1      10.859  79.694  40.910  1.00  0.00     0.000 C 
BRANCH   8   9
ATOM      9  C   UNL     1      11.765  79.609  42.148  1.00  0.00    -0.000 C 
BRANCH   9  10
ATOM     10  C   UNL     1      12.278  80.988  42.601  1.00  0.00    -0.000 C 
BRANCH  10  11
ATOM     11  C   UNL     1      11.500  81.540  43.806  1.00  0.00    -0.000 C 
BRANCH  11  12
ATOM     12  C   UNL     1      10.652  80.467  44.504  1.00  0.00    -0.003 C 
ATOM     13  C   UNL     1       9.242  80.979  44.789  1.00  0.00     0.004 C 
ENDBRANCH  11  12
ENDBRANCH  10  11
ENDBRANCH   9  10
ENDBRANCH   8   9
ENDBRANCH   1   8
TORSDOF 9
ENDMDL
MODEL 3
REMARK VINA RESULT:    -3.498      1.148      2.419
REMARK INTER + INTRA:          -6.549
REMARK INTER:                  -5.495
REMARK INTRA:                  -1.054
REMARK UNBOUND:                -1.211
REMARK SMILES CCCCCCCCCCC(=O)[O-]
REMARK SMILES IDX 7 1 8 2 9 3 10 4 11 5 12 6 13 7 6 8 5 9 4 10 3 11 2 12 1 13
REMARK H PARENT
REMARK Flexibility Score: inf
ROOT
ATOM      1  C   UNL     1       9.747  78.353  37.170  1.00  0.00     0.000 C 
ENDROOT
BRANCH   1   2
ATOM      2  C   UNL     1       9.584  79.455  38.224  1.00  0.00     0.000 C 
BRANCH   2   3
ATOM      3  C   UNL     1       9.487  78.858  39.634  1.00  0.00     0.006 C 
BRANCH   3   4
ATOM      4  C   UNL     1       9.726  79.931  40.701  1.00  0.00     0.053 C 
BRANCH   4   5
ATOM      5  C   UNL     1      11.157  79.925  41.138  1.00  0.00     0.041 C 
ATOM      6  O   UNL     1      12.022  80.566  40.487  1.00  0.00    -0.550 OA
ATOM      7  O   UNL     1      11.527  79.250  42.295  1.00  0.00    -0.550 OA
ENDBRANCH   4   5
ENDBRANCH   3   4
ENDBRANCH   2   3
ENDBRANCH   1   2
BRANCH   1   8
ATOM      8  C   UNL     1       8.464  78.191  36.341  1.00  0.00     0.000 C 
BRANCH   8   9
ATOM      9  C   UNL     1       7.510  79.387  36.491  1.00  0.00    -0.000 C 
BRANCH   9  10
ATOM     10  C   UNL     1       6.165  78.995  37.128  1.00  0.00    -0.000 C 
BRANCH  10  11
ATOM     11  C   UNL     1       5.730  79.969  38.234  1.00  0.00    -0.000 C 
BRANCH  11  12
ATOM     12  C   UNL     1       5.543  79.276  39.591  1.00  0.00    -0.003 C 
ATOM     13  C   UNL     1       5.863  77.786  39.496  1.00  0.00     0.004 C 
ENDBRANCH  11  12
ENDBRANCH  10  11
ENDBRANCH   9  10
ENDBRANCH   8   9
ENDBRANCH   1   8
TORSDOF 9
ENDMDL
MODEL 4
REMARK VINA RESULT:    -3.454      3.550      5.955
REMARK INTER + INTRA:          -6.483
REMARK INTER:                  -5.812
REMARK INTRA:                  -0.671
REMARK UNBOUND:                -1.211
REMARK SMILES CCCCCCCCCCC(=O)[O-]
REMARK SMILES IDX 7 1 8 2 9 3 10 4 11 5 12 6 13 7 6 8 5 9 4 10 3 11 2 12 1 13
REMARK H PARENT
REMARK Flexibility Score: inf
ROOT
ATOM      1  C   UNL     1       6.075  76.573  38.864  1.00  0.00     0.000 C 
ENDROOT
BRANCH   1   2
ATOM      2  C   UNL     1       4.602  76.291  39.187  1.00  0.00     0.000 C 
BRANCH   2   3
ATOM      3  C   UNL     1       4.228  74.847  38.835  1.00  0.00     0.006 C 
BRANCH   3   4
ATOM      4  C   UNL     1       5.479  73.971  38.709  1.00  0.00     0.053 C 
BRANCH   4   5
ATOM      5  C   UNL     1       5.598  73.056  39.886  1.00  0.00     0.041 C 
ATOM      6  O   UNL     1       6.264  73.405  40.896  1.00  0.00    -0.550 OA
ATOM      7  O   UNL     1       4.931  71.837  39.889  1.00  0.00    -0.550 OA
ENDBRANCH   4   5
ENDBRANCH   3   4
ENDBRANCH   2   3
ENDBRANCH   1   2
BRANCH   1   8
ATOM      8  C   UNL     1       6.282  78.047  38.483  1.00  0.00     0.000 C 
BRANCH   8   9
ATOM      9  C   UNL     1       6.208  78.280  36.966  1.00  0.00    -0.000 C 
BRANCH   9  10
ATOM     10  C   UNL     1       7.512  78.863  36.393  1.00  0.00    -0.000 C 
BRANCH  10  11
ATOM     11  C   UNL     1       8.512  79.261  37.489  1.00  0.00    -0.000 C 
BRANCH  11  12
ATOM     12  C   UNL     1       9.851  78.522  37.363  1.00  0.00    -0.003 C 
ATOM     13  C   UNL     1       9.875  77.635  36.121  1.00  0.00     0.004 C 
ENDBRANCH  11  12
ENDBRANCH  10  11
ENDBRANCH   9  10
ENDBRANCH   8   9
ENDBRANCH   1   8
TORSDOF 9
ENDMDL
MODEL 5
REMARK VINA RESULT:    -3.444      1.706      3.383
REMARK INTER + INTRA:          -6.468
REMARK INTER:                  -5.638
REMARK INTRA:                  -0.830
REMARK UNBOUND:                -1.211
REMARK SMILES CCCCCCCCCCC(=O)[O-]
REMARK SMILES IDX 7 1 8 2 9 3 10 4 11 5 12 6 13 7 6 8 5 9 4 10 3 11 2 12 1 13
REMARK H PARENT
REMARK Flexibility Score: inf
ROOT
ATOM      1  C   UNL     1       9.573  79.027  38.805  1.00  0.00     0.000 C 
ENDROOT
BRANCH   1   2
ATOM      2  C   UNL     1       9.844  80.533  38.900  1.00  0.00     0.000 C 
BRANCH   2   3
ATOM      3  C   UNL     1      11.300  80.807  39.298  1.00  0.00     0.006 C 
BRANCH   3   4
ATOM      4  C   UNL     1      11.371  81.638  40.583  1.00  0.00     0.053 C 
BRANCH   4   5
ATOM      5  C   UNL     1      11.995  80.843  41.686  1.00  0.00     0.041 C 
ATOM      6  O   UNL     1      12.724  81.410  42.542  1.00  0.00    -0.550 OA
ATOM      7  O   UNL     1      11.732  79.484  41.798  1.00  0.00    -0.550 OA
ENDBRANCH   4   5
ENDBRANCH   3   4
ENDBRANCH   2   3
ENDBRANCH   1   2
BRANCH   1   8
ATOM      8  C   UNL     1       9.760  78.525  37.366  1.00  0.00     0.000 C 
BRANCH   8   9
ATOM      9  C   UNL     1       8.441  78.070  36.723  1.00  0.00    -0.000 C 
BRANCH   9  10
ATOM     10  C   UNL     1       7.667  79.233  36.076  1.00  0.00    -0.000 C 
BRANCH  10  11
ATOM     11  C   UNL     1       6.447  79.664  36.906  1.00  0.00    -0.000 C 
BRANCH  11  12
ATOM     12  C   UNL     1       5.987  78.576  37.888  1.00  0.00    -0.003 C 
ATOM     13  C   UNL     1       5.627  79.177  39.244  1.00  0.00     0.004 C 
ENDBRANCH  11  12
ENDBRANCH  10  11
ENDBRANCH   9  10
ENDBRANCH   8   9
ENDBRANCH   1   8
TORSDOF 9
ENDMDL
MODEL 6
REMARK VINA RESULT:    -3.430      5.809      8.057
REMARK INTER + INTRA:          -6.445
REMARK INTER:                  -5.551
REMARK INTRA:                  -0.895
REMARK UNBOUND:                -1.211
REMARK SMILES CCCCCCCCCCC(=O)[O-]
REMARK SMILES IDX 7 1 8 2 9 3 10 4 11 5 12 6 13 7 6 8 5 9 4 10 3 11 2 12 1 13
REMARK H PARENT
REMARK Flexibility Score: inf
ROOT
ATOM      1  C   UNL     1      10.246  80.898  44.809  1.00  0.00     0.000 C 
ENDROOT
BRANCH   1   2
ATOM      2  C   UNL     1       9.047  81.716  44.313  1.00  0.00     0.000 C 
BRANCH   2   3
ATOM      3  C   UNL     1       7.725  81.021  44.659  1.00  0.00     0.006 C 
BRANCH   3   4
ATOM      4  C   UNL     1       7.462  81.062  46.168  1.00  0.00     0.053 C 
BRANCH   4   5
ATOM      5  C   UNL     1       7.096  79.701  46.672  1.00  0.00     0.041 C 
ATOM      6  O   UNL     1       5.889  79.400  46.864  1.00  0.00    -0.550 OA
ATOM      7  O   UNL     1       8.086  78.749  46.882  1.00  0.00    -0.550 OA
ENDBRANCH   4   5
ENDBRANCH   3   4
ENDBRANCH   2   3
ENDBRANCH   1   2
BRANCH   1   8
ATOM      8  C   UNL     1      11.512  81.764  44.878  1.00  0.00     0.000 C 
BRANCH   8   9
ATOM      9  C   UNL     1      11.793  82.505  43.561  1.00  0.00    -0.000 C 
BRANCH   9  10
ATOM     10  C   UNL     1      12.361  81.579  42.471  1.00  0.00    -0.000 C 
BRANCH  10  11
ATOM     11  C   UNL     1      11.397  81.400  41.288  1.00  0.00    -0.000 C 
BRANCH  11  12
ATOM     12  C   UNL     1      10.995  79.935  41.069  1.00  0.00    -0.003 C 
ATOM     13  C   UNL     1      11.599  79.033  42.143  1.00  0.00     0.004 C 
ENDBRANCH  11  12
ENDBRANCH  10  11
ENDBRANCH   9  10
ENDBRANCH   8   9
ENDBRANCH   1   8
TORSDOF 9
ENDMDL
MODEL 7
REMARK VINA RESULT:    -3.427      1.247      2.366
REMARK INTER + INTRA:          -6.441
REMARK INTER:                  -5.497
REMARK INTRA:                  -0.945
REMARK UNBOUND:                -1.211
REMARK SMILES CCCCCCCCCCC(=O)[O-]
REMARK SMILES IDX 7 1 8 2 9 3 10 4 11 5 12 6 13 7 6 8 5 9 4 10 3 11 2 12 1 13
REMARK H PARENT
REMARK Flexibility Score: inf
ROOT
ATOM      1  C   UNL     1       6.036  79.122  37.398  1.00  0.00     0.000 C 
ENDROOT
BRANCH   1   2
ATOM      2  C   UNL     1       7.416  79.374  36.780  1.00  0.00     0.000 C 
BRANCH   2   3
ATOM      3  C   UNL     1       8.219  78.071  36.674  1.00  0.00     0.006 C 
BRANCH   3   4
ATOM      4  C   UNL     1       9.704  78.317  36.957  1.00  0.00     0.053 C 
BRANCH   4   5
ATOM      5  C   UNL     1       9.876  79.071  38.238  1.00  0.00     0.041 C 
ATOM      6  O   UNL     1      10.373  80.227  38.232  1.00  0.00    -0.550 OA
ATOM      7  O   UNL     1       9.440  78.515  39.434  1.00  0.00    -0.550 OA
ENDBRANCH   4   5
ENDBRANCH   3   4
ENDBRANCH   2   3
ENDBRANCH   1   2
BRANCH   1   8
ATOM      8  C   UNL     1       6.020  79.511  38.884  1.00  0.00     0.000 C 
BRANCH   8   9
ATOM      9  C   UNL     1       5.539  78.365  39.788  1.00  0.00    -0.000 C 
BRANCH   9  10
ATOM     10  C   UNL     1       5.721  76.982  39.138  1.00  0.00    -0.000 C 
BRANCH  10  11
ATOM     11  C   UNL     1       4.421  76.161  39.125  1.00  0.00    -0.000 C 
BRANCH  11  12
ATOM     12  C   UNL     1       4.463  75.005  38.115  1.00  0.00    -0.003 C 
ATOM     13  C   UNL     1       5.460  75.290  36.995  1.00  0.00     0.004 C 
ENDBRANCH  11  12
ENDBRANCH  10  11
ENDBRANCH   9  10
ENDBRANCH   8   9
ENDBRANCH   1   8
TORSDOF 9
ENDMDL
MODEL 8
REMARK VINA RESULT:    -3.421      3.396      5.602
REMARK INTER + INTRA:          -6.432
REMARK INTER:                  -5.721
REMARK INTRA:                  -0.711
REMARK UNBOUND:                -1.211
REMARK SMILES CCCCCCCCCCC(=O)[O-]
REMARK SMILES IDX 7 1 8 2 9 3 10 4 11 5 12 6 13 7 6 8 5 9 4 10 3 11 2 12 1 13
REMARK H PARENT
REMARK Flexibility Score: inf
ROOT
ATOM      1  C   UNL     1       5.937  77.986  40.020  1.00  0.00     0.000 C 
ENDROOT
BRANCH   1   2
ATOM      2  C   UNL     1       5.163  76.922  39.231  1.00  0.00     0.000 C 
BRANCH   2   3
ATOM      3  C   UNL     1       5.861  75.560  39.312  1.00  0.00     0.006 C 
BRANCH   3   4
ATOM      4  C   UNL     1       4.845  74.435  39.535  1.00  0.00     0.053 C 
BRANCH   4   5
ATOM      5  C   UNL     1       5.538  73.181  39.966  1.00  0.00     0.041 C 
ATOM      6  O   UNL     1       4.956  72.069  39.868  1.00  0.00    -0.550 OA
ATOM      7  O   UNL     1       6.847  73.234  40.428  1.00  0.00    -0.550 OA
ENDBRANCH   4   5
ENDBRANCH   3   4
ENDBRANCH   2   3
ENDBRANCH   1   2
BRANCH   1   8
ATOM      8  C   UNL     1       5.400  79.393  39.718  1.00  0.00     0.000 C 
BRANCH   8   9
ATOM      9  C   UNL     1       5.569  79.785  38.242  1.00  0.00    -0.000 C 
BRANCH   9  10
ATOM     10  C   UNL     1       7.047  79.894  37.825  1.00  0.00    -0.000 C 
BRANCH  10  11
ATOM     11  C   UNL     1       7.366  79.072  36.565  1.00  0.00    -0.000 C 
BRANCH  11  12
ATOM     12  C   UNL     1       8.161  77.796  36.878  1.00  0.00    -0.003 C 
ATOM     13  C   UNL     1       9.577  77.879  36.315  1.00  0.00     0.004 C 
ENDBRANCH  11  12
ENDBRANCH  10  11
ENDBRANCH   9  10
ENDBRANCH   8   9
ENDBRANCH   1   8
TORSDOF 9
ENDMDL
MODEL 9
REMARK VINA RESULT:    -3.418      3.221      5.197
REMARK INTER + INTRA:          -6.427
REMARK INTER:                  -5.316
REMARK INTRA:                  -1.111
REMARK UNBOUND:                -1.211
REMARK SMILES CCCCCCCCCCC(=O)[O-]
REMARK SMILES IDX 7 1 8 2 9 3 10 4 11 5 12 6 13 7 6 8 5 9 4 10 3 11 2 12 1 13
REMARK H PARENT
REMARK Flexibility Score: inf
ROOT
ATOM      1  C   UNL     1       6.029  78.859  38.743  1.00  0.00     0.000 C 
ENDROOT
BRANCH   1   2
ATOM      2  C   UNL     1       5.432  77.476  39.032  1.00  0.00     0.000 C 
BRANCH   2   3
ATOM      3  C   UNL     1       6.489  76.529  39.611  1.00  0.00     0.006 C 
BRANCH   3   4
ATOM      4  C   UNL     1       6.380  75.135  38.984  1.00  0.00     0.053 C 
BRANCH   4   5
ATOM      5  C   UNL     1       5.753  74.176  39.946  1.00  0.00     0.041 C 
ATOM      6  O   UNL     1       4.501  74.060  40.001  1.00  0.00    -0.550 OA
ATOM      7  O   UNL     1       6.555  73.373  40.747  1.00  0.00    -0.550 OA
ENDBRANCH   4   5
ENDBRANCH   3   4
ENDBRANCH   2   3
ENDBRANCH   1   2
BRANCH   1   8
ATOM      8  C   UNL     1       6.071  79.134  37.232  1.00  0.00     0.000 C 
BRANCH   8   9
ATOM      9  C   UNL     1       7.502  79.346  36.711  1.00  0.00    -0.000 C 
BRANCH   9  10
ATOM     10  C   UNL     1       8.301  78.033  36.627  1.00  0.00    -0.000 C 
BRANCH  10  11
ATOM     11  C   UNL     1       9.640  78.108  37.378  1.00  0.00    -0.000 C 
BRANCH  11  12
ATOM     12  C   UNL     1       9.752  79.360  38.260  1.00  0.00    -0.003 C 
ATOM     13  C   UNL     1       9.636  79.002  39.740  1.00  0.00     0.004 C 
ENDBRANCH  11  12
ENDBRANCH  10  11
ENDBRANCH   9  10
ENDBRANCH   8   9
ENDBRANCH   1   8
TORSDOF 9
ENDMDL
