MODEL 1
REMARK VINA RESULT:    -3.316      0.000      0.000
REMARK INTER + INTRA:          -4.326
REMARK INTER:                  -4.091
REMARK INTRA:                  -0.235
REMARK UNBOUND:                -0.235
REMARK SMILES [NH3+][C@H](Cc1ccc(O)cc1)C(=O)[O-]
REMARK SMILES IDX 3 1 2 2 1 3 11 7 12 8 13 9 4 10 5 11 10 12 6 13 9 14 7 15
REMARK SMILES IDX 8 16
REMARK H PARENT 1 4 1 5 1 6 8 17
REMARK Flexibility Score: inf
ROOT
ATOM      1  C   UNL     1      -6.863  -3.242  -0.027  1.00  0.00     0.107 C 
ENDROOT
BRANCH   1   2
ATOM      2  C   UNL     1      -7.112  -1.882   0.661  1.00  0.00     0.232 C 
BRANCH   2   3
ATOM      3  N   UNL     1      -8.436  -1.342   0.322  1.00  0.00    -0.350 N 
ATOM      4  H   UNL     1      -9.048  -1.334   1.169  1.00  0.00     0.345 HD
ATOM      5  H   UNL     1      -8.354  -0.368  -0.054  1.00  0.00     0.345 HD
ATOM      6  H   UNL     1      -8.894  -1.950  -0.397  1.00  0.00     0.345 HD
ENDBRANCH   2   3
BRANCH   2   7
ATOM      7  C   UNL     1      -6.977  -2.034   2.153  1.00  0.00     0.099 C 
ATOM      8  O   UNL     1      -7.064  -1.030   2.908  1.00  0.00    -0.544 OA
ATOM      9  O   UNL     1      -6.774  -3.292   2.706  1.00  0.00    -0.544 OA
ENDBRANCH   2   7
ENDBRANCH   1   2
BRANCH   1  10
ATOM     10  C   UNL     1      -5.443  -3.372  -0.518  1.00  0.00    -0.041 A 
ATOM     11  C   UNL     1      -4.846  -2.334  -1.253  1.00  0.00     0.008 A 
ATOM     12  C   UNL     1      -4.693  -4.519  -0.212  1.00  0.00     0.008 A 
ATOM     13  C   UNL     1      -3.522  -2.450  -1.685  1.00  0.00     0.046 A 
ATOM     14  C   UNL     1      -3.369  -4.632  -0.647  1.00  0.00     0.046 A 
ATOM     15  C   UNL     1      -2.779  -3.596  -1.385  1.00  0.00     0.115 A 
BRANCH  15  16
ATOM     16  O   UNL     1      -1.461  -3.697  -1.822  1.00  0.00    -0.508 OA
ATOM     17  H   UNL     1      -0.855  -2.886  -1.866  1.00  0.00     0.293 HD
ENDBRANCH  15  16
ENDBRANCH   1  10
TORSDOF 5
ENDMDL
MODEL 2
REMARK VINA RESULT:    -3.291      0.672      1.690
REMARK INTER + INTRA:          -4.295
REMARK INTER:                  -4.081
REMARK INTRA:                  -0.214
REMARK UNBOUND:                -0.235
REMARK SMILES [NH3+][C@H](Cc1ccc(O)cc1)C(=O)[O-]
REMARK SMILES IDX 3 1 2 2 1 3 11 7 12 8 13 9 4 10 5 11 10 12 6 13 9 14 7 15
REMARK SMILES IDX 8 16
REMARK H PARENT 1 4 1 5 1 6 8 17
REMARK Flexibility Score: inf
ROOT
ATOM      1  C   UNL     1      -6.596  -3.260   0.343  1.00  0.00     0.107 C 
ENDROOT
BRANCH   1   2
ATOM      2  C   UNL     1      -7.108  -1.803   0.375  1.00  0.00     0.232 C 
BRANCH   2   3
ATOM      3  N   UNL     1      -8.296  -1.632  -0.473  1.00  0.00    -0.350 N 
ATOM      4  H   UNL     1      -9.068  -1.190   0.076  1.00  0.00     0.345 HD
ATOM      5  H   UNL     1      -8.076  -1.033  -1.303  1.00  0.00     0.345 HD
ATOM      6  H   UNL     1      -8.633  -2.566  -0.805  1.00  0.00     0.345 HD
ENDBRANCH   2   3
BRANCH   2   7
ATOM      7  C   UNL     1      -7.417  -1.403   1.793  1.00  0.00     0.099 C 
ATOM      8  O   UNL     1      -6.697  -1.810   2.743  1.00  0.00    -0.544 OA
ATOM      9  O   UNL     1      -8.492  -0.563   2.058  1.00  0.00    -0.544 OA
ENDBRANCH   2   7
ENDBRANCH   1   2
BRANCH   1  10
ATOM     10  C   UNL     1      -5.222  -3.359  -0.269  1.00  0.00    -0.041 A 
ATOM     11  C   UNL     1      -4.415  -4.484  -0.029  1.00  0.00     0.008 A 
ATOM     12  C   UNL     1      -4.751  -2.342  -1.115  1.00  0.00     0.008 A 
ATOM     13  C   UNL     1      -3.151  -4.582  -0.618  1.00  0.00     0.046 A 
ATOM     14  C   UNL     1      -3.486  -2.443  -1.702  1.00  0.00     0.046 A 
ATOM     15  C   UNL     1      -2.682  -3.564  -1.455  1.00  0.00     0.115 A 
BRANCH  15  16
ATOM     16  O   UNL     1      -1.421  -3.676  -2.035  1.00  0.00    -0.508 OA
ATOM     17  H   UNL     1      -0.693  -2.995  -1.853  1.00  0.00     0.293 HD
ENDBRANCH  15  16
ENDBRANCH   1  10
TORSDOF 5
ENDMDL
MODEL 3
REMARK VINA RESULT:    -3.239      1.661      2.137
REMARK INTER + INTRA:          -4.232
REMARK INTER:                  -4.172
REMARK INTRA:                  -0.059
REMARK UNBOUND:                -0.235
REMARK SMILES [NH3+][C@H](Cc1ccc(O)cc1)C(=O)[O-]
REMARK SMILES IDX 3 1 2 2 1 3 11 7 12 8 13 9 4 10 5 11 10 12 6 13 9 14 7 15
REMARK SMILES IDX 8 16
REMARK H PARENT 1 4 1 5 1 6 8 17
REMARK Flexibility Score: inf
ROOT
ATOM      1  C   UNL     1      -6.552  -1.941  -0.068  1.00  0.00     0.107 C 
ENDROOT
BRANCH   1   2
ATOM      2  C   UNL     1      -6.780  -2.535   1.339  1.00  0.00     0.232 C 
BRANCH   2   3
ATOM      3  N   UNL     1      -5.522  -3.006   1.935  1.00  0.00    -0.350 N 
ATOM      4  H   UNL     1      -5.000  -3.597   1.248  1.00  0.00     0.345 HD
ATOM      5  H   UNL     1      -4.922  -2.198   2.222  1.00  0.00     0.345 HD
ATOM      6  H   UNL     1      -5.727  -3.597   2.774  1.00  0.00     0.345 HD
ENDBRANCH   2   3
BRANCH   2   7
ATOM      7  C   UNL     1      -7.425  -1.505   2.227  1.00  0.00     0.099 C 
ATOM      8  O   UNL     1      -7.070  -1.386   3.430  1.00  0.00    -0.544 OA
ATOM      9  O   UNL     1      -8.406  -0.664   1.716  1.00  0.00    -0.544 OA
ENDBRANCH   2   7
ENDBRANCH   1   2
BRANCH   1  10
ATOM     10  C   UNL     1      -5.573  -2.759  -0.871  1.00  0.00    -0.041 A 
ATOM     11  C   UNL     1      -5.920  -4.042  -1.325  1.00  0.00     0.008 A 
ATOM     12  C   UNL     1      -4.315  -2.229  -1.201  1.00  0.00     0.008 A 
ATOM     13  C   UNL     1      -5.017  -4.787  -2.089  1.00  0.00     0.046 A 
ATOM     14  C   UNL     1      -3.413  -2.977  -1.965  1.00  0.00     0.046 A 
ATOM     15  C   UNL     1      -3.762  -4.259  -2.411  1.00  0.00     0.115 A 
BRANCH  15  16
ATOM     16  O   UNL     1      -2.873  -5.013  -3.173  1.00  0.00    -0.508 OA
ATOM     17  H   UNL     1      -2.681  -4.786  -4.141  1.00  0.00     0.293 HD
ENDBRANCH  15  16
ENDBRANCH   1  10
TORSDOF 5
ENDMDL
MODEL 4
REMARK VINA RESULT:    -3.099      1.338      1.870
REMARK INTER + INTRA:          -4.058
REMARK INTER:                  -3.846
REMARK INTRA:                  -0.212
REMARK UNBOUND:                -0.235
REMARK SMILES [NH3+][C@H](Cc1ccc(O)cc1)C(=O)[O-]
REMARK SMILES IDX 3 1 2 2 1 3 11 7 12 8 13 9 4 10 5 11 10 12 6 13 9 14 7 15
REMARK SMILES IDX 8 16
REMARK H PARENT 1 4 1 5 1 6 8 17
REMARK Flexibility Score: inf
ROOT
ATOM      1  C   UNL     1      -6.772  -3.167  -0.389  1.00  0.00     0.107 C 
ENDROOT
BRANCH   1   2
ATOM      2  C   UNL     1      -7.015  -1.856   0.391  1.00  0.00     0.232 C 
BRANCH   2   3
ATOM      3  N   UNL     1      -8.381  -1.354   0.187  1.00  0.00    -0.350 N 
ATOM      4  H   UNL     1      -8.622  -0.660   0.931  1.00  0.00     0.345 HD
ATOM      5  H   UNL     1      -8.473  -0.899  -0.752  1.00  0.00     0.345 HD
ATOM      6  H   UNL     1      -9.063  -2.145   0.254  1.00  0.00     0.345 HD
ENDBRANCH   2   3
BRANCH   2   7
ATOM      7  C   UNL     1      -6.753  -2.080   1.856  1.00  0.00     0.099 C 
ATOM      8  O   UNL     1      -6.239  -3.158   2.256  1.00  0.00    -0.544 OA
ATOM      9  O   UNL     1      -7.062  -1.084   2.775  1.00  0.00    -0.544 OA
ENDBRANCH   2   7
ENDBRANCH   1   2
BRANCH   1  10
ATOM     10  C   UNL     1      -5.660  -3.023  -1.397  1.00  0.00    -0.041 A 
ATOM     11  C   UNL     1      -4.448  -2.410  -1.038  1.00  0.00     0.008 A 
ATOM     12  C   UNL     1      -5.815  -3.535  -2.696  1.00  0.00     0.008 A 
ATOM     13  C   UNL     1      -3.412  -2.300  -1.970  1.00  0.00     0.046 A 
ATOM     14  C   UNL     1      -4.776  -3.423  -3.626  1.00  0.00     0.046 A 
ATOM     15  C   UNL     1      -3.571  -2.805  -3.265  1.00  0.00     0.115 A 
BRANCH  15  16
ATOM     16  O   UNL     1      -2.529  -2.688  -4.181  1.00  0.00    -0.508 OA
ATOM     17  H   UNL     1      -1.839  -3.422  -4.294  1.00  0.00     0.293 HD
ENDBRANCH  15  16
ENDBRANCH   1  10
TORSDOF 5
ENDMDL
MODEL 5
REMARK VINA RESULT:    -3.080     12.029     13.203
REMARK INTER + INTRA:          -4.035
REMARK INTER:                  -3.838
REMARK INTRA:                  -0.196
REMARK UNBOUND:                -0.235
REMARK SMILES [NH3+][C@H](Cc1ccc(O)cc1)C(=O)[O-]
REMARK SMILES IDX 3 1 2 2 1 3 11 7 12 8 13 9 4 10 5 11 10 12 6 13 9 14 7 15
REMARK SMILES IDX 8 16
REMARK H PARENT 1 4 1 5 1 6 8 17
REMARK Flexibility Score: inf
ROOT
ATOM      1  C   UNL     1       3.949   2.835   4.245  1.00  0.00     0.107 C 
ENDROOT
BRANCH   1   2
ATOM      2  C   UNL     1       4.119   4.037   3.290  1.00  0.00     0.232 C 
BRANCH   2   3
ATOM      3  N   UNL     1       5.537   4.299   3.003  1.00  0.00    -0.350 N 
ATOM      4  H   UNL     1       5.631   4.796   2.089  1.00  0.00     0.345 HD
ATOM      5  H   UNL     1       5.967   4.882   3.759  1.00  0.00     0.345 HD
ATOM      6  H   UNL     1       6.057   3.393   2.930  1.00  0.00     0.345 HD
ENDBRANCH   2   3
BRANCH   2   7
ATOM      7  C   UNL     1       3.366   3.783   2.012  1.00  0.00     0.099 C 
ATOM      8  O   UNL     1       3.552   4.515   1.004  1.00  0.00    -0.544 OA
ATOM      9  O   UNL     1       2.472   2.722   1.933  1.00  0.00    -0.544 OA
ENDBRANCH   2   7
ENDBRANCH   1   2
BRANCH   1  10
ATOM     10  C   UNL     1       3.648   3.277   5.655  1.00  0.00    -0.041 A 
ATOM     11  C   UNL     1       3.591   2.337   6.699  1.00  0.00     0.008 A 
ATOM     12  C   UNL     1       3.456   4.638   5.943  1.00  0.00     0.008 A 
ATOM     13  C   UNL     1       3.335   2.754   8.008  1.00  0.00     0.046 A 
ATOM     14  C   UNL     1       3.199   5.051   7.254  1.00  0.00     0.046 A 
ATOM     15  C   UNL     1       3.138   4.110   8.291  1.00  0.00     0.115 A 
BRANCH  15  16
ATOM     16  O   UNL     1       2.884   4.510   9.600  1.00  0.00    -0.508 OA
ATOM     17  H   UNL     1       3.637   4.716  10.246  1.00  0.00     0.293 HD
ENDBRANCH  15  16
ENDBRANCH   1  10
TORSDOF 5
ENDMDL
MODEL 6
REMARK VINA RESULT:    -3.055     10.586     11.919
REMARK INTER + INTRA:          -4.004
REMARK INTER:                  -3.823
REMARK INTRA:                  -0.181
REMARK UNBOUND:                -0.235
REMARK SMILES [NH3+][C@H](Cc1ccc(O)cc1)C(=O)[O-]
REMARK SMILES IDX 3 1 2 2 1 3 11 7 12 8 13 9 4 10 5 11 10 12 6 13 9 14 7 15
REMARK SMILES IDX 8 16
REMARK H PARENT 1 4 1 5 1 6 8 17
REMARK Flexibility Score: inf
ROOT
ATOM      1  C   UNL     1      -2.799   7.101   4.910  1.00  0.00     0.107 C 
ENDROOT
BRANCH   1   2
ATOM      2  C   UNL     1      -3.168   8.387   4.139  1.00  0.00     0.232 C 
BRANCH   2   3
ATOM      3  N   UNL     1      -3.139   9.566   5.017  1.00  0.00    -0.350 N 
ATOM      4  H   UNL     1      -2.216  10.049   4.939  1.00  0.00     0.345 HD
ATOM      5  H   UNL     1      -3.902  10.237   4.763  1.00  0.00     0.345 HD
ATOM      6  H   UNL     1      -3.261   9.270   6.014  1.00  0.00     0.345 HD
ENDBRANCH   2   3
BRANCH   2   7
ATOM      7  C   UNL     1      -2.225   8.576   2.981  1.00  0.00     0.099 C 
ATOM      8  O   UNL     1      -1.006   8.280   3.095  1.00  0.00    -0.544 OA
ATOM      9  O   UNL     1      -2.703   9.060   1.770  1.00  0.00    -0.544 OA
ENDBRANCH   2   7
ENDBRANCH   1   2
BRANCH   1  10
ATOM     10  C   UNL     1      -4.023   6.347   5.364  1.00  0.00    -0.041 A 
ATOM     11  C   UNL     1      -5.280   6.626   4.802  1.00  0.00     0.008 A 
ATOM     12  C   UNL     1      -3.910   5.335   6.331  1.00  0.00     0.008 A 
ATOM     13  C   UNL     1      -6.408   5.909   5.210  1.00  0.00     0.046 A 
ATOM     14  C   UNL     1      -5.041   4.620   6.737  1.00  0.00     0.046 A 
ATOM     15  C   UNL     1      -6.294   4.905   6.178  1.00  0.00     0.115 A 
BRANCH  15  16
ATOM     16  O   UNL     1      -7.427   4.199   6.574  1.00  0.00    -0.508 OA
ATOM     17  H   UNL     1      -8.217   4.665   7.004  1.00  0.00     0.293 HD
ENDBRANCH  15  16
ENDBRANCH   1  10
TORSDOF 5
ENDMDL
MODEL 7
REMARK VINA RESULT:    -2.987      9.855     11.056
REMARK INTER + INTRA:          -3.920
REMARK INTER:                  -3.719
REMARK INTRA:                  -0.201
REMARK UNBOUND:                -0.235
REMARK SMILES [NH3+][C@H](Cc1ccc(O)cc1)C(=O)[O-]
REMARK SMILES IDX 3 1 2 2 1 3 11 7 12 8 13 9 4 10 5 11 10 12 6 13 9 14 7 15
REMARK SMILES IDX 8 16
REMARK H PARENT 1 4 1 5 1 6 8 17
REMARK Flexibility Score: inf
ROOT
ATOM      1  C   UNL     1      -6.012   5.231   5.747  1.00  0.00     0.107 C 
ENDROOT
BRANCH   1   2
ATOM      2  C   UNL     1      -5.784   4.804   7.213  1.00  0.00     0.232 C 
BRANCH   2   3
ATOM      3  N   UNL     1      -7.022   4.893   7.999  1.00  0.00    -0.350 N 
ATOM      4  H   UNL     1      -7.852   4.784   7.373  1.00  0.00     0.345 HD
ATOM      5  H   UNL     1      -7.047   4.152   8.738  1.00  0.00     0.345 HD
ATOM      6  H   UNL     1      -7.087   5.833   8.455  1.00  0.00     0.345 HD
ENDBRANCH   2   3
BRANCH   2   7
ATOM      7  C   UNL     1      -5.236   3.403   7.257  1.00  0.00     0.099 C 
ATOM      8  O   UNL     1      -3.998   3.204   7.374  1.00  0.00    -0.544 OA
ATOM      9  O   UNL     1      -6.102   2.318   7.188  1.00  0.00    -0.544 OA
ENDBRANCH   2   7
ENDBRANCH   1   2
BRANCH   1  10
ATOM     10  C   UNL     1      -5.075   6.335   5.330  1.00  0.00    -0.041 A 
ATOM     11  C   UNL     1      -5.568   7.621   5.053  1.00  0.00     0.008 A 
ATOM     12  C   UNL     1      -3.693   6.095   5.248  1.00  0.00     0.008 A 
ATOM     13  C   UNL     1      -4.692   8.648   4.689  1.00  0.00     0.046 A 
ATOM     14  C   UNL     1      -2.820   7.124   4.883  1.00  0.00     0.046 A 
ATOM     15  C   UNL     1      -3.317   8.404   4.602  1.00  0.00     0.115 A 
BRANCH  15  16
ATOM     16  O   UNL     1      -2.457   9.437   4.239  1.00  0.00    -0.508 OA
ATOM     17  H   UNL     1      -1.474   9.268   4.059  1.00  0.00     0.293 HD
ENDBRANCH  15  16
ENDBRANCH   1  10
TORSDOF 5
ENDMDL
MODEL 8
REMARK VINA RESULT:    -2.978     11.947     13.154
REMARK INTER + INTRA:          -3.910
REMARK INTER:                  -3.711
REMARK INTRA:                  -0.199
REMARK UNBOUND:                -0.235
REMARK SMILES [NH3+][C@H](Cc1ccc(O)cc1)C(=O)[O-]
REMARK SMILES IDX 3 1 2 2 1 3 11 7 12 8 13 9 4 10 5 11 10 12 6 13 9 14 7 15
REMARK SMILES IDX 8 16
REMARK H PARENT 1 4 1 5 1 6 8 17
REMARK Flexibility Score: inf
ROOT
ATOM      1  C   UNL     1       3.715   2.679   4.297  1.00  0.00     0.107 C 
ENDROOT
BRANCH   1   2
ATOM      2  C   UNL     1       4.534   3.126   3.067  1.00  0.00     0.232 C 
BRANCH   2   3
ATOM      3  N   UNL     1       5.773   2.346   2.933  1.00  0.00    -0.350 N 
ATOM      4  H   UNL     1       5.765   1.814   2.033  1.00  0.00     0.345 HD
ATOM      5  H   UNL     1       6.611   2.973   2.957  1.00  0.00     0.345 HD
ATOM      6  H   UNL     1       5.841   1.652   3.714  1.00  0.00     0.345 HD
ENDBRANCH   2   3
BRANCH   2   7
ATOM      7  C   UNL     1       3.698   2.996   1.823  1.00  0.00     0.099 C 
ATOM      8  O   UNL     1       4.207   3.189   0.687  1.00  0.00    -0.544 OA
ATOM      9  O   UNL     1       2.358   2.641   1.922  1.00  0.00    -0.544 OA
ENDBRANCH   2   7
ENDBRANCH   1   2
BRANCH   1  10
ATOM     10  C   UNL     1       3.466   3.820   5.251  1.00  0.00    -0.041 A 
ATOM     11  C   UNL     1       3.176   5.105   4.764  1.00  0.00     0.008 A 
ATOM     12  C   UNL     1       3.486   3.598   6.638  1.00  0.00     0.008 A 
ATOM     13  C   UNL     1       2.923   6.154   5.652  1.00  0.00     0.046 A 
ATOM     14  C   UNL     1       3.233   4.650   7.523  1.00  0.00     0.046 A 
ATOM     15  C   UNL     1       2.950   5.932   7.033  1.00  0.00     0.115 A 
BRANCH  15  16
ATOM     16  O   UNL     1       2.696   6.986   7.905  1.00  0.00    -0.508 OA
ATOM     17  H   UNL     1       3.256   7.132   8.737  1.00  0.00     0.293 HD
ENDBRANCH  15  16
ENDBRANCH   1  10
TORSDOF 5
ENDMDL
MODEL 9
REMARK VINA RESULT:    -2.933      2.394      3.011
REMARK INTER + INTRA:          -3.854
REMARK INTER:                  -3.644
REMARK INTRA:                  -0.210
REMARK UNBOUND:                -0.235
REMARK SMILES [NH3+][C@H](Cc1ccc(O)cc1)C(=O)[O-]
REMARK SMILES IDX 3 1 2 2 1 3 11 7 12 8 13 9 4 10 5 11 10 12 6 13 9 14 7 15
REMARK SMILES IDX 8 16
REMARK H PARENT 1 4 1 5 1 6 8 17
REMARK Flexibility Score: inf
ROOT
ATOM      1  C   UNL     1      -5.764  -3.777  -0.381  1.00  0.00     0.107 C 
ENDROOT
BRANCH   1   2
ATOM      2  C   UNL     1      -5.075  -3.288   0.912  1.00  0.00     0.232 C 
BRANCH   2   3
ATOM      3  N   UNL     1      -6.024  -2.607   1.804  1.00  0.00    -0.350 N 
ATOM      4  H   UNL     1      -6.167  -3.171   2.672  1.00  0.00     0.345 HD
ATOM      5  H   UNL     1      -5.673  -1.656   2.063  1.00  0.00     0.345 HD
ATOM      6  H   UNL     1      -6.952  -2.513   1.328  1.00  0.00     0.345 HD
ENDBRANCH   2   3
BRANCH   2   7
ATOM      7  C   UNL     1      -4.437  -4.453   1.620  1.00  0.00     0.099 C 
ATOM      8  O   UNL     1      -3.819  -5.337   0.968  1.00  0.00    -0.544 OA
ATOM      9  O   UNL     1      -4.509  -4.547   3.005  1.00  0.00    -0.544 OA
ENDBRANCH   2   7
ENDBRANCH   1   2
BRANCH   1  10
ATOM     10  C   UNL     1      -4.995  -3.376  -1.614  1.00  0.00    -0.041 A 
ATOM     11  C   UNL     1      -3.834  -2.593  -1.505  1.00  0.00     0.008 A 
ATOM     12  C   UNL     1      -5.415  -3.813  -2.881  1.00  0.00     0.008 A 
ATOM     13  C   UNL     1      -3.111  -2.244  -2.650  1.00  0.00     0.046 A 
ATOM     14  C   UNL     1      -4.690  -3.461  -4.023  1.00  0.00     0.046 A 
ATOM     15  C   UNL     1      -3.535  -2.675  -3.911  1.00  0.00     0.115 A 
BRANCH  15  16
ATOM     16  O   UNL     1      -2.805  -2.319  -5.042  1.00  0.00    -0.508 OA
ATOM     17  H   UNL     1      -3.141  -2.527  -5.975  1.00  0.00     0.293 HD
ENDBRANCH  15  16
ENDBRANCH   1  10
TORSDOF 5
ENDMDL
