MODEL 1
REMARK VINA RESULT:    -4.008      0.000      0.000
REMARK INTER + INTRA:          -4.841
REMARK INTER:                  -4.828
REMARK INTRA:                  -0.013
REMARK UNBOUND:                -0.013
REMARK SMILES Oc1cc(O)c2c(c1)O[C@@H](c1ccc(O)c(O)c1)[C@H](O)C2
REMARK SMILES IDX 21 1 19 2 10 3 9 4 7 5 8 6 2 7 3 8 4 9 6 10 20 11 11 13
REMARK SMILES IDX 18 14 12 15 16 16 13 17 14 18 17 19 15 21 5 23 1 25
REMARK H PARENT 20 12 17 20 15 22 5 24 1 26
REMARK Flexibility Score: inf
ROOT
ATOM      1  C   UNL     1      23.780  -3.415 -19.287  1.00  0.00     0.079 C 
ATOM      2  C   UNL     1      23.965  -4.931 -19.086  1.00  0.00     0.164 C 
ATOM      3  C   UNL     1      25.464  -5.275 -19.067  1.00  0.00     0.232 C 
ATOM      4  O   UNL     1      26.122  -4.520 -18.050  1.00  0.00    -0.482 OA
ATOM      5  C   UNL     1      25.794  -3.188 -17.780  1.00  0.00     0.131 A 
ATOM      6  C   UNL     1      26.602  -2.456 -16.906  1.00  0.00     0.093 A 
ATOM      7  C   UNL     1      26.310  -1.119 -16.627  1.00  0.00     0.122 A 
ATOM      8  C   UNL     1      25.207  -0.508 -17.235  1.00  0.00     0.092 A 
ATOM      9  C   UNL     1      24.387  -1.227 -18.113  1.00  0.00     0.126 A 
ATOM     10  C   UNL     1      24.655  -2.594 -18.363  1.00  0.00     0.039 A 
ENDROOT
BRANCH   2  11
ATOM     11  O   UNL     1      23.330  -5.630 -20.125  1.00  0.00    -0.389 OA
ATOM     12  H   UNL     1      23.058  -6.509 -19.753  1.00  0.00     0.211 HD
ENDBRANCH   2  11
BRANCH   3  13
ATOM     13  C   UNL     1      25.682  -6.751 -18.825  1.00  0.00    -0.001 A 
ATOM     14  C   UNL     1      24.665  -7.532 -18.252  1.00  0.00     0.057 A 
ATOM     15  C   UNL     1      26.918  -7.348 -19.124  1.00  0.00     0.012 A 
ATOM     16  C   UNL     1      24.872  -8.897 -18.000  1.00  0.00     0.157 A 
ATOM     17  C   UNL     1      27.125  -8.707 -18.874  1.00  0.00     0.050 A 
ATOM     18  C   UNL     1      26.108  -9.486 -18.315  1.00  0.00     0.157 A 
BRANCH  16  19
ATOM     19  O   UNL     1      23.854  -9.666 -17.435  1.00  0.00    -0.504 OA
ATOM     20  H   UNL     1      23.233  -9.289 -16.731  1.00  0.00     0.293 HD
ENDBRANCH  16  19
BRANCH  18  21
ATOM     21  O   UNL     1      26.343 -10.839 -18.076  1.00  0.00    -0.504 OA
ATOM     22  H   UNL     1      26.616 -11.185 -17.164  1.00  0.00     0.293 HD
ENDBRANCH  18  21
ENDBRANCH   3  13
BRANCH   9  23
ATOM     23  O   UNL     1      23.328  -0.552 -18.724  1.00  0.00    -0.507 OA
ATOM     24  H   UNL     1      23.447   0.084 -19.501  1.00  0.00     0.293 HD
ENDBRANCH   9  23
BRANCH   7  25
ATOM     25  O   UNL     1      27.125  -0.405 -15.753  1.00  0.00    -0.508 OA
ATOM     26  H   UNL     1      27.908  -0.842 -15.281  1.00  0.00     0.293 HD
ENDBRANCH   7  25
TORSDOF 6
ENDMDL
MODEL 2
REMARK VINA RESULT:    -2.896      2.090      7.228
REMARK INTER + INTRA:          -3.501
REMARK INTER:                  -3.166
REMARK INTRA:                  -0.335
REMARK UNBOUND:                -0.013
REMARK SMILES Oc1cc(O)c2c(c1)O[C@@H](c1ccc(O)c(O)c1)[C@H](O)C2
REMARK SMILES IDX 21 1 19 2 10 3 9 4 7 5 8 6 2 7 3 8 4 9 6 10 20 11 11 13
REMARK SMILES IDX 18 14 12 15 16 16 13 17 14 18 17 19 15 21 5 23 1 25
REMARK H PARENT 20 12 17 20 15 22 5 24 1 26
REMARK Flexibility Score: inf
ROOT
ATOM      1  C   UNL     1      25.863  -8.298 -17.279  1.00  0.00     0.079 C 
ATOM      2  C   UNL     1      25.916  -6.776 -17.508  1.00  0.00     0.164 C 
ATOM      3  C   UNL     1      25.801  -6.470 -19.011  1.00  0.00     0.232 C 
ATOM      4  O   UNL     1      24.602  -7.043 -19.532  1.00  0.00    -0.482 OA
ATOM      5  C   UNL     1      24.135  -8.296 -19.122  1.00  0.00     0.131 A 
ATOM      6  C   UNL     1      23.065  -8.877 -19.808  1.00  0.00     0.093 A 
ATOM      7  C   UNL     1      22.585 -10.133 -19.432  1.00  0.00     0.122 A 
ATOM      8  C   UNL     1      23.187 -10.818 -18.369  1.00  0.00     0.092 A 
ATOM      9  C   UNL     1      24.260 -10.251 -17.673  1.00  0.00     0.126 A 
ATOM     10  C   UNL     1      24.720  -8.959 -18.022  1.00  0.00     0.039 A 
ENDROOT
BRANCH   2  11
ATOM     11  O   UNL     1      27.124  -6.262 -17.010  1.00  0.00    -0.389 OA
ATOM     12  H   UNL     1      27.696  -6.063 -17.796  1.00  0.00     0.211 HD
ENDBRANCH   2  11
BRANCH   3  13
ATOM     13  C   UNL     1      25.804  -4.981 -19.267  1.00  0.00    -0.001 A 
ATOM     14  C   UNL     1      24.650  -4.218 -19.023  1.00  0.00     0.057 A 
ATOM     15  C   UNL     1      26.942  -4.350 -19.797  1.00  0.00     0.012 A 
ATOM     16  C   UNL     1      24.638  -2.840 -19.285  1.00  0.00     0.157 A 
ATOM     17  C   UNL     1      26.932  -2.978 -20.058  1.00  0.00     0.050 A 
ATOM     18  C   UNL     1      25.787  -2.218 -19.803  1.00  0.00     0.157 A 
BRANCH  16  19
ATOM     19  O   UNL     1      23.490  -2.090 -19.034  1.00  0.00    -0.504 OA
ATOM     20  H   UNL     1      23.337  -1.190 -19.472  1.00  0.00     0.293 HD
ENDBRANCH  16  19
BRANCH  18  21
ATOM     21  O   UNL     1      25.807  -0.850 -20.073  1.00  0.00    -0.504 OA
ATOM     22  H   UNL     1      25.455  -0.468 -20.944  1.00  0.00     0.293 HD
ENDBRANCH  18  21
ENDBRANCH   3  13
BRANCH   9  23
ATOM     23  O   UNL     1      24.849 -11.000 -16.651  1.00  0.00    -0.507 OA
ATOM     24  H   UNL     1      25.182 -10.596 -15.786  1.00  0.00     0.293 HD
ENDBRANCH   9  23
BRANCH   7  25
ATOM     25  O   UNL     1      21.517 -10.697 -20.125  1.00  0.00    -0.508 OA
ATOM     26  H   UNL     1      21.325 -10.456 -21.091  1.00  0.00     0.293 HD
ENDBRANCH   7  25
TORSDOF 6
ENDMDL
MODEL 3
REMARK VINA RESULT:    -1.775      1.707      2.402
REMARK INTER + INTRA:          -2.151
REMARK INTER:                  -1.881
REMARK INTRA:                  -0.269
REMARK UNBOUND:                -0.013
REMARK SMILES Oc1cc(O)c2c(c1)O[C@@H](c1ccc(O)c(O)c1)[C@H](O)C2
REMARK SMILES IDX 21 1 19 2 10 3 9 4 7 5 8 6 2 7 3 8 4 9 6 10 20 11 11 13
REMARK SMILES IDX 18 14 12 15 16 16 13 17 14 18 17 19 15 21 5 23 1 25
REMARK H PARENT 20 12 17 20 15 22 5 24 1 26
REMARK Flexibility Score: inf
ROOT
ATOM      1  C   UNL     1      26.848  -3.487 -19.578  1.00  0.00     0.079 C 
ATOM      2  C   UNL     1      26.240  -4.901 -19.535  1.00  0.00     0.164 C 
ATOM      3  C   UNL     1      25.967  -5.307 -18.076  1.00  0.00     0.232 C 
ATOM      4  O   UNL     1      25.115  -4.344 -17.457  1.00  0.00    -0.482 OA
ATOM      5  C   UNL     1      25.238  -2.973 -17.701  1.00  0.00     0.131 A 
ATOM      6  C   UNL     1      24.501  -2.077 -16.921  1.00  0.00     0.093 A 
ATOM      7  C   UNL     1      24.614  -0.701 -17.130  1.00  0.00     0.122 A 
ATOM      8  C   UNL     1      25.479  -0.217 -18.119  1.00  0.00     0.092 A 
ATOM      9  C   UNL     1      26.224  -1.100 -18.909  1.00  0.00     0.126 A 
ATOM     10  C   UNL     1      26.078  -2.496 -18.729  1.00  0.00     0.039 A 
ENDROOT
BRANCH   2  11
ATOM     11  O   UNL     1      27.125  -5.818 -20.125  1.00  0.00    -0.389 OA
ATOM     12  H   UNL     1      26.830  -6.723 -19.843  1.00  0.00     0.211 HD
ENDBRANCH   2  11
BRANCH   3  13
ATOM     13  C   UNL     1      25.326  -6.674 -18.001  1.00  0.00    -0.001 A 
ATOM     14  C   UNL     1      26.112  -7.810 -17.745  1.00  0.00     0.057 A 
ATOM     15  C   UNL     1      23.950  -6.831 -18.234  1.00  0.00     0.012 A 
ATOM     16  C   UNL     1      25.528  -9.085 -17.701  1.00  0.00     0.157 A 
ATOM     17  C   UNL     1      23.367  -8.100 -18.190  1.00  0.00     0.050 A 
ATOM     18  C   UNL     1      24.148  -9.228 -17.923  1.00  0.00     0.157 A 
BRANCH  16  19
ATOM     19  O   UNL     1      26.314 -10.207 -17.441  1.00  0.00    -0.504 OA
ATOM     20  H   UNL     1      26.160 -10.786 -16.625  1.00  0.00     0.293 HD
ENDBRANCH  16  19
BRANCH  18  21
ATOM     21  O   UNL     1      23.537 -10.482 -17.886  1.00  0.00    -0.504 OA
ATOM     22  H   UNL     1      22.540 -10.590 -17.746  1.00  0.00     0.293 HD
ENDBRANCH  18  21
ENDBRANCH   3  13
BRANCH   9  23
ATOM     23  O   UNL     1      27.103  -0.557 -19.849  1.00  0.00    -0.507 OA
ATOM     24  H   UNL     1      26.797  -0.115 -20.706  1.00  0.00     0.293 HD
ENDBRANCH   9  23
BRANCH   7  25
ATOM     25  O   UNL     1      23.871   0.177 -16.344  1.00  0.00    -0.508 OA
ATOM     26  H   UNL     1      24.312   0.770 -15.650  1.00  0.00     0.293 HD
ENDBRANCH   7  25
TORSDOF 6
ENDMDL
