MODEL 1
REMARK VINA RESULT:    -0.219      0.000      0.000
REMARK INTER + INTRA:          -0.787
REMARK INTER:                  -0.321
REMARK INTRA:                  -0.465
REMARK UNBOUND:                -0.465
REMARK SMILES Cc1cc2c(C(C)C)c(O)c(O)c(C=O)c2c(O)c1-c1c(C)cc2c(C(C)C)c(O)c(O)c(C=O)c2c1O
REMARK SMILES IDX 1 1 2 2 3 3 4 4 16 5 13 6 11 7 9 8 5 9 17 10 19 11 20 12
REMARK SMILES IDX 37 13 21 14 36 15 23 16 22 17 24 18 33 19 25 20 31 21 29 22
REMARK SMILES IDX 38 23 34 25 35 26 26 27 27 28 28 29 32 30 30 32 18 34 6 36
REMARK SMILES IDX 7 37 8 38 14 39 15 40 10 41 12 43
REMARK H PARENT 38 24 32 31 30 33 18 35 10 42 12 44
REMARK Flexibility Score: inf
ROOT
ATOM      1  C   UNL     1      -0.918 -19.704  16.682  1.00  0.00     0.045 C 
ATOM      2  C   UNL     1      -2.002 -18.737  17.089  1.00  0.00    -0.039 A 
ATOM      3  C   UNL     1      -3.002 -19.159  17.969  1.00  0.00     0.013 A 
ATOM      4  C   UNL     1      -4.068 -18.310  18.346  1.00  0.00    -0.006 A 
ATOM      5  C   UNL     1      -4.068 -16.964  17.871  1.00  0.00     0.039 A 
ATOM      6  C   UNL     1      -5.184 -16.129  18.159  1.00  0.00     0.072 A 
ATOM      7  C   UNL     1      -6.098 -16.522  19.156  1.00  0.00     0.169 A 
ATOM      8  C   UNL     1      -6.026 -17.805  19.713  1.00  0.00     0.162 A 
ATOM      9  C   UNL     1      -5.118 -18.760  19.207  1.00  0.00     0.008 A 
ATOM     10  C   UNL     1      -2.937 -16.493  17.141  1.00  0.00     0.132 A 
ATOM     11  C   UNL     1      -1.963 -17.392  16.685  1.00  0.00     0.031 A 
ENDROOT
BRANCH  11  12
ATOM     12  C   UNL     1      -0.841 -16.885  15.851  1.00  0.00     0.031 A 
ATOM     13  C   UNL     1      -1.008 -16.712  14.461  1.00  0.00     0.132 A 
ATOM     14  C   UNL     1       0.389 -16.576  16.452  1.00  0.00    -0.039 A 
ATOM     15  C   UNL     1       0.048 -16.170  13.672  1.00  0.00     0.039 A 
ATOM     16  C   UNL     1       1.462 -16.177  15.654  1.00  0.00     0.013 A 
ATOM     17  C   UNL     1       0.588 -16.729  17.940  1.00  0.00     0.045 C 
ATOM     18  C   UNL     1       1.339 -16.016  14.258  1.00  0.00    -0.006 A 
ATOM     19  C   UNL     1      -0.143 -15.797  12.312  1.00  0.00     0.072 A 
ATOM     20  C   UNL     1       2.470 -15.708  13.435  1.00  0.00     0.008 A 
ATOM     21  C   UNL     1       0.953 -15.390  11.533  1.00  0.00     0.169 A 
ATOM     22  C   UNL     1       2.254 -15.400  12.069  1.00  0.00     0.162 A 
BRANCH  13  23
ATOM     23  O   UNL     1      -2.201 -17.125  13.855  1.00  0.00    -0.507 OA
ATOM     24  H   UNL     1      -2.735 -17.931  14.154  1.00  0.00     0.293 HD
ENDBRANCH  13  23
BRANCH  19  25
ATOM     25  C   UNL     1      -1.497 -15.673  11.717  1.00  0.00     0.264 C 
ATOM     26  O   UNL     1      -2.346 -14.875  12.196  1.00  0.00    -0.298 OA
ENDBRANCH  19  25
BRANCH  20  27
ATOM     27  C   UNL     1       3.927 -15.718  13.944  1.00  0.00     0.017 C 
ATOM     28  C   UNL     1       4.101 -14.875  15.214  1.00  0.00     0.012 C 
ATOM     29  C   UNL     1       4.554 -17.124  14.057  1.00  0.00     0.012 C 
ENDBRANCH  20  27
BRANCH  21  30
ATOM     30  O   UNL     1       0.713 -14.938  10.228  1.00  0.00    -0.504 OA
ATOM     31  H   UNL     1       0.794 -13.977   9.932  1.00  0.00     0.293 HD
ENDBRANCH  21  30
BRANCH  22  32
ATOM     32  O   UNL     1       3.355 -15.101  11.258  1.00  0.00    -0.504 OA
ATOM     33  H   UNL     1       3.848 -15.774  10.689  1.00  0.00     0.293 HD
ENDBRANCH  22  32
ENDBRANCH  11  12
BRANCH  10  34
ATOM     34  O   UNL     1      -2.699 -15.131  16.925  1.00  0.00    -0.507 OA
ATOM     35  H   UNL     1      -1.880 -14.784  16.443  1.00  0.00     0.293 HD
ENDBRANCH  10  34
BRANCH   9  36
ATOM     36  C   UNL     1      -5.247 -20.235  19.631  1.00  0.00     0.017 C 
ATOM     37  C   UNL     1      -5.504 -20.347  21.137  1.00  0.00     0.012 C 
ATOM     38  C   UNL     1      -6.291 -21.031  18.825  1.00  0.00     0.012 C 
ENDBRANCH   9  36
BRANCH   6  39
ATOM     39  C   UNL     1      -5.499 -14.944  17.328  1.00  0.00     0.264 C 
ATOM     40  O   UNL     1      -5.628 -15.058  16.080  1.00  0.00    -0.298 OA
ENDBRANCH   6  39
BRANCH   8  41
ATOM     41  O   UNL     1      -6.879 -18.141  20.768  1.00  0.00    -0.504 OA
ATOM     42  H   UNL     1      -7.823 -17.786  20.848  1.00  0.00     0.293 HD
ENDBRANCH   8  41
BRANCH   7  43
ATOM     43  O   UNL     1      -7.120 -15.673  19.598  1.00  0.00    -0.504 OA
ATOM     44  H   UNL     1      -7.358 -15.521  20.567  1.00  0.00     0.293 HD
ENDBRANCH   7  43
TORSDOF 11
ENDMDL
