MODEL 1
REMARK VINA RESULT:    -4.881      0.000      0.000
REMARK INTER + INTRA:          -4.881
REMARK INTER:                  -4.881
REMARK INTRA:                   0.000
REMARK UNBOUND:                 0.000
REMARK SMILES C=C1CCC[C@]2(C)CC(=O)C(=C(C)C)C[C@@H]12
REMARK SMILES IDX 13 1 12 2 11 3 15 4 16 5 2 6 1 7 3 8 4 9 5 10 6 11 8 12 9 13
REMARK SMILES IDX 10 14 7 15 14 16
REMARK H PARENT
REMARK Flexibility Score: inf
ROOT
ATOM      1  C   UNL     1     154.868 160.652 196.668  1.00  0.00     0.039 C 
ATOM      2  C   UNL     1     155.275 160.814 198.115  1.00  0.00    -0.070 C 
ATOM      3  C   UNL     1     154.395 160.570 199.131  1.00  0.00    -0.006 C 
ATOM      4  C   UNL     1     152.960 160.148 198.845  1.00  0.00     0.047 C 
ATOM      5  C   UNL     1     151.966 160.624 199.934  1.00  0.00     0.025 C 
ATOM      6  C   UNL     1     150.514 160.194 199.721  1.00  0.00    -0.073 C 
ATOM      7  C   UNL     1     150.093 159.447 198.683  1.00  0.00     0.008 C 
ATOM      8  C   UNL     1     149.514 160.694 200.737  1.00  0.00     0.031 C 
ATOM      9  C   UNL     1     149.975 160.346 202.155  1.00  0.00     0.005 C 
ATOM     10  C   UNL     1     151.420 160.807 202.413  1.00  0.00     0.008 C 
ATOM     11  C   UNL     1     152.436 160.243 201.374  1.00  0.00    -0.018 C 
ATOM     12  C   UNL     1     153.810 160.905 201.637  1.00  0.00     0.088 C 
ATOM     13  C   UNL     1     154.810 160.581 200.564  1.00  0.00     0.159 C 
ATOM     14  O   UNL     1     155.992 160.307 200.904  1.00  0.00    -0.295 OA
ATOM     15  C   UNL     1     152.564 158.704 201.552  1.00  0.00     0.012 C 
ATOM     16  C   UNL     1     156.685 161.292 198.379  1.00  0.00     0.039 C 
ENDROOT
TORSDOF 0
ENDMDL
MODEL 2
REMARK VINA RESULT:    -4.816      2.239      4.576
REMARK INTER + INTRA:          -4.816
REMARK INTER:                  -4.816
REMARK INTRA:                   0.000
REMARK UNBOUND:                 0.000
REMARK SMILES C=C1CCC[C@]2(C)CC(=O)C(=C(C)C)C[C@@H]12
REMARK SMILES IDX 13 1 12 2 11 3 15 4 16 5 2 6 1 7 3 8 4 9 5 10 6 11 8 12 9 13
REMARK SMILES IDX 10 14 7 15 14 16
REMARK H PARENT
REMARK Flexibility Score: inf
ROOT
ATOM      1  C   UNL     1     152.856 156.452 204.941  1.00  0.00     0.039 C 
ATOM      2  C   UNL     1     153.906 156.628 203.868  1.00  0.00    -0.070 C 
ATOM      3  C   UNL     1     153.794 157.607 202.921  1.00  0.00    -0.006 C 
ATOM      4  C   UNL     1     152.595 158.545 202.895  1.00  0.00     0.047 C 
ATOM      5  C   UNL     1     152.241 159.029 201.467  1.00  0.00     0.025 C 
ATOM      6  C   UNL     1     151.070 160.008 201.384  1.00  0.00    -0.073 C 
ATOM      7  C   UNL     1     150.379 160.449 202.452  1.00  0.00     0.008 C 
ATOM      8  C   UNL     1     150.666 160.449 199.997  1.00  0.00     0.031 C 
ATOM      9  C   UNL     1     151.877 160.998 199.238  1.00  0.00     0.005 C 
ATOM     10  C   UNL     1     153.060 160.013 199.267  1.00  0.00     0.008 C 
ATOM     11  C   UNL     1     153.480 159.606 200.712  1.00  0.00    -0.018 C 
ATOM     12  C   UNL     1     154.555 158.498 200.606  1.00  0.00     0.088 C 
ATOM     13  C   UNL     1     154.882 157.895 201.942  1.00  0.00     0.159 C 
ATOM     14  O   UNL     1     156.089 157.656 202.217  1.00  0.00    -0.295 OA
ATOM     15  C   UNL     1     154.083 160.837 201.445  1.00  0.00     0.012 C 
ATOM     16  C   UNL     1     155.058 155.650 203.871  1.00  0.00     0.039 C 
ENDROOT
TORSDOF 0
ENDMDL
MODEL 3
REMARK VINA RESULT:    -4.789      2.631      4.171
REMARK INTER + INTRA:          -4.789
REMARK INTER:                  -4.789
REMARK INTRA:                   0.000
REMARK UNBOUND:                 0.000
REMARK SMILES C=C1CCC[C@]2(C)CC(=O)C(=C(C)C)C[C@@H]12
REMARK SMILES IDX 13 1 12 2 11 3 15 4 16 5 2 6 1 7 3 8 4 9 5 10 6 11 8 12 9 13
REMARK SMILES IDX 10 14 7 15 14 16
REMARK H PARENT
REMARK Flexibility Score: inf
ROOT
ATOM      1  C   UNL     1     149.289 162.187 196.259  1.00  0.00     0.039 C 
ATOM      2  C   UNL     1     150.721 161.860 195.903  1.00  0.00    -0.070 C 
ATOM      3  C   UNL     1     151.579 161.334 196.827  1.00  0.00    -0.006 C 
ATOM      4  C   UNL     1     151.133 161.077 198.260  1.00  0.00     0.047 C 
ATOM      5  C   UNL     1     152.290 161.213 199.282  1.00  0.00     0.025 C 
ATOM      6  C   UNL     1     151.910 160.926 200.735  1.00  0.00    -0.073 C 
ATOM      7  C   UNL     1     150.675 160.568 201.135  1.00  0.00     0.008 C 
ATOM      8  C   UNL     1     153.004 161.108 201.760  1.00  0.00     0.031 C 
ATOM      9  C   UNL     1     154.247 160.306 201.362  1.00  0.00     0.005 C 
ATOM     10  C   UNL     1     154.679 160.608 199.916  1.00  0.00     0.008 C 
ATOM     11  C   UNL     1     153.542 160.373 198.876  1.00  0.00    -0.018 C 
ATOM     12  C   UNL     1     154.042 160.866 197.497  1.00  0.00     0.088 C 
ATOM     13  C   UNL     1     152.950 160.868 196.466  1.00  0.00     0.159 C 
ATOM     14  O   UNL     1     153.216 160.458 195.304  1.00  0.00    -0.295 OA
ATOM     15  C   UNL     1     153.218 158.855 198.793  1.00  0.00     0.012 C 
ATOM     16  C   UNL     1     151.164 162.177 194.493  1.00  0.00     0.039 C 
ENDROOT
TORSDOF 0
ENDMDL
MODEL 4
REMARK VINA RESULT:    -4.774      1.196      1.610
REMARK INTER + INTRA:          -4.774
REMARK INTER:                  -4.774
REMARK INTRA:                   0.000
REMARK UNBOUND:                 0.000
REMARK SMILES C=C1CCC[C@]2(C)CC(=O)C(=C(C)C)C[C@@H]12
REMARK SMILES IDX 13 1 12 2 11 3 15 4 16 5 2 6 1 7 3 8 4 9 5 10 6 11 8 12 9 13
REMARK SMILES IDX 10 14 7 15 14 16
REMARK H PARENT
REMARK Flexibility Score: inf
ROOT
ATOM      1  C   UNL     1     156.676 161.136 197.329  1.00  0.00     0.039 C 
ATOM      2  C   UNL     1     156.345 161.086 198.803  1.00  0.00    -0.070 C 
ATOM      3  C   UNL     1     155.096 160.745 199.239  1.00  0.00    -0.006 C 
ATOM      4  C   UNL     1     153.979 160.423 198.255  1.00  0.00     0.047 C 
ATOM      5  C   UNL     1     152.576 160.788 198.799  1.00  0.00     0.025 C 
ATOM      6  C   UNL     1     151.410 160.448 197.869  1.00  0.00    -0.073 C 
ATOM      7  C   UNL     1     151.552 159.864 196.665  1.00  0.00     0.008 C 
ATOM      8  C   UNL     1     150.035 160.848 198.350  1.00  0.00     0.031 C 
ATOM      9  C   UNL     1     149.779 160.295 199.755  1.00  0.00     0.005 C 
ATOM     10  C   UNL     1     150.917 160.660 200.725  1.00  0.00     0.008 C 
ATOM     11  C   UNL     1     152.319 160.200 200.222  1.00  0.00    -0.018 C 
ATOM     12  C   UNL     1     153.386 160.765 201.191  1.00  0.00     0.088 C 
ATOM     13  C   UNL     1     154.783 160.547 200.684  1.00  0.00     0.159 C 
ATOM     14  O   UNL     1     155.671 160.184 201.501  1.00  0.00    -0.295 OA
ATOM     15  C   UNL     1     152.391 158.647 200.228  1.00  0.00     0.012 C 
ATOM     16  C   UNL     1     157.448 161.468 199.765  1.00  0.00     0.039 C 
ENDROOT
TORSDOF 0
ENDMDL
MODEL 5
REMARK VINA RESULT:    -4.749      2.950      4.449
REMARK INTER + INTRA:          -4.749
REMARK INTER:                  -4.749
REMARK INTRA:                   0.000
REMARK UNBOUND:                 0.000
REMARK SMILES C=C1CCC[C@]2(C)CC(=O)C(=C(C)C)C[C@@H]12
REMARK SMILES IDX 13 1 12 2 11 3 15 4 16 5 2 6 1 7 3 8 4 9 5 10 6 11 8 12 9 13
REMARK SMILES IDX 10 14 7 15 14 16
REMARK H PARENT
REMARK Flexibility Score: inf
ROOT
ATOM      1  C   UNL     1     151.561 156.921 196.054  1.00  0.00     0.039 C 
ATOM      2  C   UNL     1     150.700 158.118 196.385  1.00  0.00    -0.070 C 
ATOM      3  C   UNL     1     150.846 158.793 197.564  1.00  0.00    -0.006 C 
ATOM      4  C   UNL     1     151.867 158.352 198.603  1.00  0.00     0.047 C 
ATOM      5  C   UNL     1     151.429 158.678 200.052  1.00  0.00     0.025 C 
ATOM      6  C   UNL     1     152.435 158.295 201.138  1.00  0.00    -0.073 C 
ATOM      7  C   UNL     1     153.629 157.723 200.891  1.00  0.00     0.008 C 
ATOM      8  C   UNL     1     152.008 158.548 202.564  1.00  0.00     0.031 C 
ATOM      9  C   UNL     1     151.562 160.003 202.737  1.00  0.00     0.005 C 
ATOM     10  C   UNL     1     150.515 160.406 201.683  1.00  0.00     0.008 C 
ATOM     11  C   UNL     1     150.999 160.170 200.220  1.00  0.00    -0.018 C 
ATOM     12  C   UNL     1     149.810 160.452 199.270  1.00  0.00     0.088 C 
ATOM     13  C   UNL     1     150.113 160.061 197.852  1.00  0.00     0.159 C 
ATOM     14  O   UNL     1     149.748 160.830 196.922  1.00  0.00    -0.295 OA
ATOM     15  C   UNL     1     152.161 161.148 199.892  1.00  0.00     0.012 C 
ATOM     16  C   UNL     1     149.650 158.507 195.368  1.00  0.00     0.039 C 
ENDROOT
TORSDOF 0
ENDMDL
MODEL 6
REMARK VINA RESULT:    -4.620      2.829      3.886
REMARK INTER + INTRA:          -4.620
REMARK INTER:                  -4.620
REMARK INTRA:                   0.000
REMARK UNBOUND:                 0.000
REMARK SMILES C=C1CCC[C@]2(C)CC(=O)C(=C(C)C)C[C@@H]12
REMARK SMILES IDX 13 1 12 2 11 3 15 4 16 5 2 6 1 7 3 8 4 9 5 10 6 11 8 12 9 13
REMARK SMILES IDX 10 14 7 15 14 16
REMARK H PARENT
REMARK Flexibility Score: inf
ROOT
ATOM      1  C   UNL     1     157.778 157.914 200.887  1.00  0.00     0.039 C 
ATOM      2  C   UNL     1     156.832 157.285 201.884  1.00  0.00    -0.070 C 
ATOM      3  C   UNL     1     155.514 157.642 201.933  1.00  0.00    -0.006 C 
ATOM      4  C   UNL     1     154.950 158.705 201.000  1.00  0.00     0.047 C 
ATOM      5  C   UNL     1     153.771 159.490 201.627  1.00  0.00     0.025 C 
ATOM      6  C   UNL     1     153.136 160.544 200.719  1.00  0.00    -0.073 C 
ATOM      7  C   UNL     1     153.538 160.793 199.458  1.00  0.00     0.008 C 
ATOM      8  C   UNL     1     152.023 161.364 201.325  1.00  0.00     0.031 C 
ATOM      9  C   UNL     1     150.947 160.449 201.917  1.00  0.00     0.005 C 
ATOM     10  C   UNL     1     151.552 159.403 202.870  1.00  0.00     0.008 C 
ATOM     11  C   UNL     1     152.670 158.545 202.206  1.00  0.00    -0.018 C 
ATOM     12  C   UNL     1     153.308 157.656 203.300  1.00  0.00     0.088 C 
ATOM     13  C   UNL     1     154.530 156.936 202.805  1.00  0.00     0.159 C 
ATOM     14  O   UNL     1     154.693 155.730 203.131  1.00  0.00    -0.295 OA
ATOM     15  C   UNL     1     152.048 157.639 201.106  1.00  0.00     0.012 C 
ATOM     16  C   UNL     1     157.421 156.276 202.844  1.00  0.00     0.039 C 
ENDROOT
TORSDOF 0
ENDMDL
MODEL 7
REMARK VINA RESULT:    -4.618      2.503      4.036
REMARK INTER + INTRA:          -4.618
REMARK INTER:                  -4.618
REMARK INTRA:                   0.000
REMARK UNBOUND:                 0.000
REMARK SMILES C=C1CCC[C@]2(C)CC(=O)C(=C(C)C)C[C@@H]12
REMARK SMILES IDX 13 1 12 2 11 3 15 4 16 5 2 6 1 7 3 8 4 9 5 10 6 11 8 12 9 13
REMARK SMILES IDX 10 14 7 15 14 16
REMARK H PARENT
REMARK Flexibility Score: inf
ROOT
ATOM      1  C   UNL     1     152.254 154.856 199.591  1.00  0.00     0.039 C 
ATOM      2  C   UNL     1     152.613 156.031 198.709  1.00  0.00    -0.070 C 
ATOM      3  C   UNL     1     152.768 157.285 199.228  1.00  0.00    -0.006 C 
ATOM      4  C   UNL     1     152.562 157.555 200.712  1.00  0.00     0.047 C 
ATOM      5  C   UNL     1     152.046 158.989 200.996  1.00  0.00     0.025 C 
ATOM      6  C   UNL     1     151.860 159.331 202.474  1.00  0.00    -0.073 C 
ATOM      7  C   UNL     1     152.123 158.481 203.484  1.00  0.00     0.008 C 
ATOM      8  C   UNL     1     151.302 160.702 202.776  1.00  0.00     0.031 C 
ATOM      9  C   UNL     1     152.133 161.782 202.077  1.00  0.00     0.005 C 
ATOM     10  C   UNL     1     152.301 161.486 200.576  1.00  0.00     0.008 C 
ATOM     11  C   UNL     1     152.915 160.081 200.295  1.00  0.00    -0.018 C 
ATOM     12  C   UNL     1     152.879 159.837 198.767  1.00  0.00     0.088 C 
ATOM     13  C   UNL     1     153.264 158.430 198.409  1.00  0.00     0.159 C 
ATOM     14  O   UNL     1     154.019 158.245 197.417  1.00  0.00    -0.295 OA
ATOM     15  C   UNL     1     154.390 160.049 200.786  1.00  0.00     0.012 C 
ATOM     16  C   UNL     1     152.755 155.757 197.229  1.00  0.00     0.039 C 
ENDROOT
TORSDOF 0
ENDMDL
MODEL 8
REMARK VINA RESULT:    -4.474      2.969      5.346
REMARK INTER + INTRA:          -4.474
REMARK INTER:                  -4.474
REMARK INTRA:                   0.000
REMARK UNBOUND:                 0.000
REMARK SMILES C=C1CCC[C@]2(C)CC(=O)C(=C(C)C)C[C@@H]12
REMARK SMILES IDX 13 1 12 2 11 3 15 4 16 5 2 6 1 7 3 8 4 9 5 10 6 11 8 12 9 13
REMARK SMILES IDX 10 14 7 15 14 16
REMARK H PARENT
REMARK Flexibility Score: inf
ROOT
ATOM      1  C   UNL     1     152.162 161.561 202.084  1.00  0.00     0.039 C 
ATOM      2  C   UNL     1     152.195 160.546 200.964  1.00  0.00    -0.070 C 
ATOM      3  C   UNL     1     152.360 159.214 201.219  1.00  0.00    -0.006 C 
ATOM      4  C   UNL     1     152.541 158.700 202.641  1.00  0.00     0.047 C 
ATOM      5  C   UNL     1     153.412 157.421 202.711  1.00  0.00     0.025 C 
ATOM      6  C   UNL     1     153.594 156.835 204.112  1.00  0.00    -0.073 C 
ATOM      7  C   UNL     1     153.045 157.357 205.225  1.00  0.00     0.008 C 
ATOM      8  C   UNL     1     154.488 155.622 204.217  1.00  0.00     0.031 C 
ATOM      9  C   UNL     1     154.031 154.537 203.237  1.00  0.00     0.005 C 
ATOM     10  C   UNL     1     153.881 155.089 201.808  1.00  0.00     0.008 C 
ATOM     11  C   UNL     1     152.923 156.315 201.724  1.00  0.00    -0.018 C 
ATOM     12  C   UNL     1     152.985 156.876 200.283  1.00  0.00     0.088 C 
ATOM     13  C   UNL     1     152.251 158.179 200.149  1.00  0.00     0.159 C 
ATOM     14  O   UNL     1     151.537 158.368 199.128  1.00  0.00    -0.295 OA
ATOM     15  C   UNL     1     151.469 155.862 202.036  1.00  0.00     0.012 C 
ATOM     16  C   UNL     1     152.075 161.079 199.555  1.00  0.00     0.039 C 
ENDROOT
TORSDOF 0
ENDMDL
MODEL 9
REMARK VINA RESULT:    -4.395      2.867      4.327
REMARK INTER + INTRA:          -4.395
REMARK INTER:                  -4.395
REMARK INTRA:                   0.000
REMARK UNBOUND:                 0.000
REMARK SMILES C=C1CCC[C@]2(C)CC(=O)C(=C(C)C)C[C@@H]12
REMARK SMILES IDX 13 1 12 2 11 3 15 4 16 5 2 6 1 7 3 8 4 9 5 10 6 11 8 12 9 13
REMARK SMILES IDX 10 14 7 15 14 16
REMARK H PARENT
REMARK Flexibility Score: inf
ROOT
ATOM      1  C   UNL     1     154.667 156.271 197.217  1.00  0.00     0.039 C 
ATOM      2  C   UNL     1     153.202 156.640 197.251  1.00  0.00    -0.070 C 
ATOM      3  C   UNL     1     152.766 157.753 197.913  1.00  0.00    -0.006 C 
ATOM      4  C   UNL     1     153.737 158.655 198.662  1.00  0.00     0.047 C 
ATOM      5  C   UNL     1     153.089 159.349 199.886  1.00  0.00     0.025 C 
ATOM      6  C   UNL     1     154.006 160.301 200.654  1.00  0.00    -0.073 C 
ATOM      7  C   UNL     1     155.285 160.551 200.317  1.00  0.00     0.008 C 
ATOM      8  C   UNL     1     153.418 160.946 201.887  1.00  0.00     0.031 C 
ATOM      9  C   UNL     1     152.094 161.636 201.546  1.00  0.00     0.005 C 
ATOM     10  C   UNL     1     151.131 160.688 200.810  1.00  0.00     0.008 C 
ATOM     11  C   UNL     1     151.751 160.068 199.521  1.00  0.00    -0.018 C 
ATOM     12  C   UNL     1     150.760 159.016 198.968  1.00  0.00     0.088 C 
ATOM     13  C   UNL     1     151.350 158.218 197.841  1.00  0.00     0.159 C 
ATOM     14  O   UNL     1     150.629 157.967 196.838  1.00  0.00    -0.295 OA
ATOM     15  C   UNL     1     151.964 161.182 198.458  1.00  0.00     0.012 C 
ATOM     16  C   UNL     1     152.244 155.701 196.553  1.00  0.00     0.039 C 
ENDROOT
TORSDOF 0
ENDMDL
