MODEL 1
REMARK VINA RESULT:    -4.582      0.000      0.000
REMARK INTER + INTRA:          -4.582
REMARK INTER:                  -4.582
REMARK INTRA:                   0.000
REMARK UNBOUND:                 0.000
REMARK SMILES O=c1ccc2ccccc2o1
REMARK SMILES IDX 7 1 8 2 9 3 10 4 5 5 6 6 4 7 3 8 2 9 1 10 11 11
REMARK H PARENT
REMARK Flexibility Score: inf
ROOT
ATOM      1  C   UNL     1      22.270 -42.147   9.125  1.00  0.00     0.001 A 
ATOM      2  C   UNL     1      23.226 -43.105   8.769  1.00  0.00     0.004 A 
ATOM      3  C   UNL     1      22.859 -44.213   7.998  1.00  0.00     0.048 A 
ATOM      4  C   UNL     1      21.532 -44.366   7.580  1.00  0.00     0.138 A 
ATOM      5  C   UNL     1      20.567 -43.399   7.939  1.00  0.00     0.018 A 
ATOM      6  C   UNL     1      20.941 -42.291   8.711  1.00  0.00     0.012 A 
ATOM      7  C   UNL     1      19.249 -43.580   7.506  1.00  0.00     0.019 A 
ATOM      8  C   UNL     1      18.929 -44.699   6.739  1.00  0.00     0.094 A 
ATOM      9  C   UNL     1      19.937 -45.616   6.422  1.00  0.00     0.336 A 
ATOM     10  O   UNL     1      19.666 -46.632   5.730  1.00  0.00    -0.246 OA
ATOM     11  O   UNL     1      21.183 -45.421   6.846  1.00  0.00    -0.423 OA
ENDROOT
TORSDOF 0
ENDMDL
MODEL 2
REMARK VINA RESULT:    -4.455      1.746      1.795
REMARK INTER + INTRA:          -4.455
REMARK INTER:                  -4.455
REMARK INTRA:                   0.000
REMARK UNBOUND:                 0.000
REMARK SMILES O=c1ccc2ccccc2o1
REMARK SMILES IDX 7 1 8 2 9 3 10 4 5 5 6 6 4 7 3 8 2 9 1 10 11 11
REMARK H PARENT
REMARK Flexibility Score: inf
ROOT
ATOM      1  C   UNL     1      21.705 -42.501   8.328  1.00  0.00     0.001 A 
ATOM      2  C   UNL     1      22.363 -43.549   8.980  1.00  0.00     0.004 A 
ATOM      3  C   UNL     1      21.738 -44.793   9.125  1.00  0.00     0.048 A 
ATOM      4  C   UNL     1      20.449 -44.991   8.618  1.00  0.00     0.138 A 
ATOM      5  C   UNL     1      19.783 -43.933   7.959  1.00  0.00     0.018 A 
ATOM      6  C   UNL     1      20.416 -42.690   7.816  1.00  0.00     0.012 A 
ATOM      7  C   UNL     1      18.496 -44.161   7.463  1.00  0.00     0.019 A 
ATOM      8  C   UNL     1      17.911 -45.417   7.630  1.00  0.00     0.094 A 
ATOM      9  C   UNL     1      18.630 -46.416   8.293  1.00  0.00     0.336 A 
ATOM     10  O   UNL     1      18.118 -47.556   8.454  1.00  0.00    -0.246 OA
ATOM     11  O   UNL     1      19.853 -46.174   8.757  1.00  0.00    -0.423 OA
ENDROOT
TORSDOF 0
ENDMDL
MODEL 3
REMARK VINA RESULT:    -4.413      1.703      2.418
REMARK INTER + INTRA:          -4.413
REMARK INTER:                  -4.413
REMARK INTRA:                   0.000
REMARK UNBOUND:                 0.000
REMARK SMILES O=c1ccc2ccccc2o1
REMARK SMILES IDX 7 1 8 2 9 3 10 4 5 5 6 6 4 7 3 8 2 9 1 10 11 11
REMARK H PARENT
REMARK Flexibility Score: inf
ROOT
ATOM      1  C   UNL     1      22.982 -43.224   8.132  1.00  0.00     0.001 A 
ATOM      2  C   UNL     1      22.165 -42.233   8.687  1.00  0.00     0.004 A 
ATOM      3  C   UNL     1      20.783 -42.431   8.782  1.00  0.00     0.048 A 
ATOM      4  C   UNL     1      20.213 -43.623   8.321  1.00  0.00     0.138 A 
ATOM      5  C   UNL     1      21.038 -44.624   7.760  1.00  0.00     0.018 A 
ATOM      6  C   UNL     1      22.422 -44.420   7.668  1.00  0.00     0.012 A 
ATOM      7  C   UNL     1      20.440 -45.805   7.308  1.00  0.00     0.019 A 
ATOM      8  C   UNL     1      19.058 -45.959   7.423  1.00  0.00     0.094 A 
ATOM      9  C   UNL     1      18.305 -44.925   7.989  1.00  0.00     0.336 A 
ATOM     10  O   UNL     1      17.057 -45.046   8.100  1.00  0.00    -0.246 OA
ATOM     11  O   UNL     1      18.898 -43.811   8.411  1.00  0.00    -0.423 OA
ENDROOT
TORSDOF 0
ENDMDL
MODEL 4
REMARK VINA RESULT:    -4.352      2.433      4.549
REMARK INTER + INTRA:          -4.352
REMARK INTER:                  -4.352
REMARK INTRA:                   0.000
REMARK UNBOUND:                 0.000
REMARK SMILES O=c1ccc2ccccc2o1
REMARK SMILES IDX 7 1 8 2 9 3 10 4 5 5 6 6 4 7 3 8 2 9 1 10 11 11
REMARK H PARENT
REMARK Flexibility Score: inf
ROOT
ATOM      1  C   UNL     1      18.875 -48.793   6.351  1.00  0.00     0.001 A 
ATOM      2  C   UNL     1      19.900 -48.335   5.516  1.00  0.00     0.004 A 
ATOM      3  C   UNL     1      20.289 -46.991   5.550  1.00  0.00     0.048 A 
ATOM      4  C   UNL     1      19.653 -46.100   6.421  1.00  0.00     0.138 A 
ATOM      5  C   UNL     1      18.617 -46.562   7.264  1.00  0.00     0.018 A 
ATOM      6  C   UNL     1      18.233 -47.909   7.226  1.00  0.00     0.012 A 
ATOM      7  C   UNL     1      18.001 -45.647   8.124  1.00  0.00     0.019 A 
ATOM      8  C   UNL     1      18.421 -44.317   8.124  1.00  0.00     0.094 A 
ATOM      9  C   UNL     1      19.452 -43.932   7.261  1.00  0.00     0.336 A 
ATOM     10  O   UNL     1      19.845 -42.736   7.247  1.00  0.00    -0.246 OA
ATOM     11  O   UNL     1      20.023 -44.821   6.452  1.00  0.00    -0.423 OA
ENDROOT
TORSDOF 0
ENDMDL
MODEL 5
REMARK VINA RESULT:    -4.333      1.936      3.896
REMARK INTER + INTRA:          -4.333
REMARK INTER:                  -4.333
REMARK INTRA:                   0.000
REMARK UNBOUND:                 0.000
REMARK SMILES O=c1ccc2ccccc2o1
REMARK SMILES IDX 7 1 8 2 9 3 10 4 5 5 6 6 4 7 3 8 2 9 1 10 11 11
REMARK H PARENT
REMARK Flexibility Score: inf
ROOT
ATOM      1  C   UNL     1      17.940 -45.560   7.697  1.00  0.00     0.001 A 
ATOM      2  C   UNL     1      18.699 -46.529   8.363  1.00  0.00     0.004 A 
ATOM      3  C   UNL     1      20.003 -46.238   8.781  1.00  0.00     0.048 A 
ATOM      4  C   UNL     1      20.552 -44.975   8.533  1.00  0.00     0.138 A 
ATOM      5  C   UNL     1      19.786 -43.996   7.861  1.00  0.00     0.018 A 
ATOM      6  C   UNL     1      18.480 -44.293   7.446  1.00  0.00     0.012 A 
ATOM      7  C   UNL     1      20.362 -42.743   7.629  1.00  0.00     0.019 A 
ATOM      8  C   UNL     1      21.664 -42.498   8.064  1.00  0.00     0.094 A 
ATOM      9  C   UNL     1      22.362 -43.515   8.722  1.00  0.00     0.336 A 
ATOM     10  O   UNL     1      23.539 -43.312   9.121  1.00  0.00    -0.246 OA
ATOM     11  O   UNL     1      21.792 -44.699   8.931  1.00  0.00    -0.423 OA
ENDROOT
TORSDOF 0
ENDMDL
MODEL 6
REMARK VINA RESULT:    -4.257      2.785      4.076
REMARK INTER + INTRA:          -4.257
REMARK INTER:                  -4.257
REMARK INTRA:                   0.000
REMARK UNBOUND:                 0.000
REMARK SMILES O=c1ccc2ccccc2o1
REMARK SMILES IDX 7 1 8 2 9 3 10 4 5 5 6 6 4 7 3 8 2 9 1 10 11 11
REMARK H PARENT
REMARK Flexibility Score: inf
ROOT
ATOM      1  C   UNL     1      17.702 -44.765   7.986  1.00  0.00     0.001 A 
ATOM      2  C   UNL     1      18.650 -44.115   7.188  1.00  0.00     0.004 A 
ATOM      3  C   UNL     1      19.535 -44.859   6.399  1.00  0.00     0.048 A 
ATOM      4  C   UNL     1      19.473 -46.257   6.406  1.00  0.00     0.138 A 
ATOM      5  C   UNL     1      18.515 -46.913   7.211  1.00  0.00     0.018 A 
ATOM      6  C   UNL     1      17.631 -46.162   7.999  1.00  0.00     0.012 A 
ATOM      7  C   UNL     1      18.477 -48.311   7.196  1.00  0.00     0.019 A 
ATOM      8  C   UNL     1      19.378 -49.011   6.394  1.00  0.00     0.094 A 
ATOM      9  C   UNL     1      20.299 -48.294   5.623  1.00  0.00     0.336 A 
ATOM     10  O   UNL     1      21.120 -48.909   4.893  1.00  0.00    -0.246 OA
ATOM     11  O   UNL     1      20.314 -46.964   5.655  1.00  0.00    -0.423 OA
ENDROOT
TORSDOF 0
ENDMDL
MODEL 7
REMARK VINA RESULT:    -4.224      2.000      4.171
REMARK INTER + INTRA:          -4.224
REMARK INTER:                  -4.224
REMARK INTRA:                   0.000
REMARK UNBOUND:                 0.000
REMARK SMILES O=c1ccc2ccccc2o1
REMARK SMILES IDX 7 1 8 2 9 3 10 4 5 5 6 6 4 7 3 8 2 9 1 10 11 11
REMARK H PARENT
REMARK Flexibility Score: inf
ROOT
ATOM      1  C   UNL     1      18.817 -45.549   7.912  1.00  0.00     0.001 A 
ATOM      2  C   UNL     1      18.577 -44.364   7.209  1.00  0.00     0.004 A 
ATOM      3  C   UNL     1      19.572 -43.384   7.119  1.00  0.00     0.048 A 
ATOM      4  C   UNL     1      20.812 -43.588   7.735  1.00  0.00     0.138 A 
ATOM      5  C   UNL     1      21.055 -44.785   8.446  1.00  0.00     0.018 A 
ATOM      6  C   UNL     1      20.054 -45.763   8.531  1.00  0.00     0.012 A 
ATOM      7  C   UNL     1      22.304 -44.960   9.050  1.00  0.00     0.019 A 
ATOM      8  C   UNL     1      23.266 -43.956   8.935  1.00  0.00     0.094 A 
ATOM      9  C   UNL     1      22.954 -42.798   8.216  1.00  0.00     0.336 A 
ATOM     10  O   UNL     1      23.810 -41.881   8.101  1.00  0.00    -0.246 OA
ATOM     11  O   UNL     1      21.758 -42.655   7.650  1.00  0.00    -0.423 OA
ENDROOT
TORSDOF 0
ENDMDL
MODEL 8
REMARK VINA RESULT:    -4.186      1.226      2.422
REMARK INTER + INTRA:          -4.186
REMARK INTER:                  -4.186
REMARK INTRA:                   0.000
REMARK UNBOUND:                 0.000
REMARK SMILES O=c1ccc2ccccc2o1
REMARK SMILES IDX 7 1 8 2 9 3 10 4 5 5 6 6 4 7 3 8 2 9 1 10 11 11
REMARK H PARENT
REMARK Flexibility Score: inf
ROOT
ATOM      1  C   UNL     1      21.619 -42.835   8.542  1.00  0.00     0.001 A 
ATOM      2  C   UNL     1      20.380 -42.477   8.002  1.00  0.00     0.004 A 
ATOM      3  C   UNL     1      19.657 -43.392   7.228  1.00  0.00     0.048 A 
ATOM      4  C   UNL     1      20.175 -44.670   6.991  1.00  0.00     0.138 A 
ATOM      5  C   UNL     1      21.427 -45.033   7.536  1.00  0.00     0.018 A 
ATOM      6  C   UNL     1      22.145 -44.111   8.312  1.00  0.00     0.012 A 
ATOM      7  C   UNL     1      21.917 -46.318   7.283  1.00  0.00     0.019 A 
ATOM      8  C   UNL     1      21.163 -47.197   6.506  1.00  0.00     0.094 A 
ATOM      9  C   UNL     1      19.932 -46.768   5.999  1.00  0.00     0.336 A 
ATOM     10  O   UNL     1      19.237 -47.548   5.296  1.00  0.00    -0.246 OA
ATOM     11  O   UNL     1      19.487 -45.541   6.254  1.00  0.00    -0.423 OA
ENDROOT
TORSDOF 0
ENDMDL
MODEL 9
REMARK VINA RESULT:    -4.176      3.060      4.342
REMARK INTER + INTRA:          -4.176
REMARK INTER:                  -4.176
REMARK INTRA:                   0.000
REMARK UNBOUND:                 0.000
REMARK SMILES O=c1ccc2ccccc2o1
REMARK SMILES IDX 7 1 8 2 9 3 10 4 5 5 6 6 4 7 3 8 2 9 1 10 11 11
REMARK H PARENT
REMARK Flexibility Score: inf
ROOT
ATOM      1  C   UNL     1      19.109 -44.107   6.886  1.00  0.00     0.001 A 
ATOM      2  C   UNL     1      18.196 -44.352   7.917  1.00  0.00     0.004 A 
ATOM      3  C   UNL     1      17.813 -45.663   8.223  1.00  0.00     0.048 A 
ATOM      4  C   UNL     1      18.344 -46.734   7.496  1.00  0.00     0.138 A 
ATOM      5  C   UNL     1      19.266 -46.488   6.454  1.00  0.00     0.018 A 
ATOM      6  C   UNL     1      19.646 -45.172   6.154  1.00  0.00     0.012 A 
ATOM      7  C   UNL     1      19.779 -47.579   5.746  1.00  0.00     0.019 A 
ATOM      8  C   UNL     1      19.370 -48.868   6.086  1.00  0.00     0.094 A 
ATOM      9  C   UNL     1      18.453 -49.036   7.129  1.00  0.00     0.336 A 
ATOM     10  O   UNL     1      18.072 -50.192   7.449  1.00  0.00    -0.246 OA
ATOM     11  O   UNL     1      17.979 -47.981   7.787  1.00  0.00    -0.423 OA
ENDROOT
TORSDOF 0
ENDMDL
