MODEL 1
REMARK VINA RESULT:    -4.241      0.000      0.000
REMARK INTER + INTRA:          -5.319
REMARK INTER:                  -5.233
REMARK INTRA:                  -0.085
REMARK UNBOUND:                -0.085
REMARK SMILES CCCCCC(=O)[O-]
REMARK SMILES IDX 4 1 5 2 6 3 7 4 8 5 3 6 2 7 1 8
REMARK H PARENT
REMARK Flexibility Score: inf
ROOT
ATOM      1  C   UNL     1     -18.243 -30.564  24.102  1.00  0.00     0.006 C 
ENDROOT
BRANCH   1   2
ATOM      2  C   UNL     1     -16.817 -30.968  23.704  1.00  0.00     0.053 C 
BRANCH   2   3
ATOM      3  C   UNL     1     -16.428 -30.310  22.418  1.00  0.00     0.041 C 
ATOM      4  O   UNL     1     -15.893 -30.982  21.498  1.00  0.00    -0.550 OA
ATOM      5  O   UNL     1     -16.702 -28.962  22.217  1.00  0.00    -0.550 OA
ENDBRANCH   2   3
ENDBRANCH   1   2
BRANCH   1   6
ATOM      6  C   UNL     1     -19.322 -31.436  23.434  1.00  0.00     0.000 C 
BRANCH   6   7
ATOM      7  C   UNL     1     -20.771 -31.051  23.781  1.00  0.00    -0.003 C 
ATOM      8  C   UNL     1     -21.805 -31.997  23.171  1.00  0.00     0.004 C 
ENDBRANCH   6   7
ENDBRANCH   1   6
TORSDOF 4
ENDMDL
MODEL 2
REMARK VINA RESULT:    -4.239      3.271      4.806
REMARK INTER + INTRA:          -5.315
REMARK INTER:                  -5.256
REMARK INTRA:                  -0.059
REMARK UNBOUND:                -0.085
REMARK SMILES CCCCCC(=O)[O-]
REMARK SMILES IDX 4 1 5 2 6 3 7 4 8 5 3 6 2 7 1 8
REMARK H PARENT
REMARK Flexibility Score: inf
ROOT
ATOM      1  C   UNL     1     -19.244 -31.281  23.577  1.00  0.00     0.006 C 
ENDROOT
BRANCH   1   2
ATOM      2  C   UNL     1     -20.552 -30.624  24.038  1.00  0.00     0.053 C 
BRANCH   2   3
ATOM      3  C   UNL     1     -21.726 -31.458  23.634  1.00  0.00     0.041 C 
ATOM      4  O   UNL     1     -21.564 -32.462  22.891  1.00  0.00    -0.550 OA
ATOM      5  O   UNL     1     -22.993 -31.156  24.117  1.00  0.00    -0.550 OA
ENDBRANCH   2   3
ENDBRANCH   1   2
BRANCH   1   6
ATOM      6  C   UNL     1     -17.994 -30.485  23.997  1.00  0.00     0.000 C 
BRANCH   6   7
ATOM      7  C   UNL     1     -16.656 -31.112  23.568  1.00  0.00    -0.003 C 
ATOM      8  C   UNL     1     -16.238 -30.721  22.151  1.00  0.00     0.004 C 
ENDBRANCH   6   7
ENDBRANCH   1   6
TORSDOF 4
ENDMDL
MODEL 3
REMARK VINA RESULT:    -4.172      1.333      1.771
REMARK INTER + INTRA:          -5.233
REMARK INTER:                  -4.986
REMARK INTRA:                  -0.246
REMARK UNBOUND:                -0.085
REMARK SMILES CCCCCC(=O)[O-]
REMARK SMILES IDX 4 1 5 2 6 3 7 4 8 5 3 6 2 7 1 8
REMARK H PARENT
REMARK Flexibility Score: inf
ROOT
ATOM      1  C   UNL     1     -17.059 -30.951  23.686  1.00  0.00     0.006 C 
ENDROOT
BRANCH   1   2
ATOM      2  C   UNL     1     -16.119 -30.686  22.503  1.00  0.00     0.053 C 
BRANCH   2   3
ATOM      3  C   UNL     1     -16.665 -29.596  21.637  1.00  0.00     0.041 C 
ATOM      4  O   UNL     1     -16.679 -29.728  20.385  1.00  0.00    -0.550 OA
ATOM      5  O   UNL     1     -17.205 -28.453  22.215  1.00  0.00    -0.550 OA
ENDBRANCH   2   3
ENDBRANCH   1   2
BRANCH   1   6
ATOM      6  C   UNL     1     -18.404 -31.565  23.257  1.00  0.00     0.000 C 
BRANCH   6   7
ATOM      7  C   UNL     1     -19.645 -30.895  23.870  1.00  0.00    -0.003 C 
ATOM      8  C   UNL     1     -19.300 -29.752  24.824  1.00  0.00     0.004 C 
ENDBRANCH   6   7
ENDBRANCH   1   6
TORSDOF 4
ENDMDL
MODEL 4
REMARK VINA RESULT:    -4.124      3.365      4.563
REMARK INTER + INTRA:          -5.174
REMARK INTER:                  -5.062
REMARK INTRA:                  -0.111
REMARK UNBOUND:                -0.085
REMARK SMILES CCCCCC(=O)[O-]
REMARK SMILES IDX 4 1 5 2 6 3 7 4 8 5 3 6 2 7 1 8
REMARK H PARENT
REMARK Flexibility Score: inf
ROOT
ATOM      1  C   UNL     1     -19.425 -30.660  23.704  1.00  0.00     0.006 C 
ENDROOT
BRANCH   1   2
ATOM      2  C   UNL     1     -19.090 -29.787  24.921  1.00  0.00     0.053 C 
BRANCH   2   3
ATOM      3  C   UNL     1     -20.344 -29.299  25.573  1.00  0.00     0.041 C 
ATOM      4  O   UNL     1     -21.449 -29.844  25.312  1.00  0.00    -0.550 OA
ATOM      5  O   UNL     1     -20.287 -28.272  26.508  1.00  0.00    -0.550 OA
ENDBRANCH   2   3
ENDBRANCH   1   2
BRANCH   1   6
ATOM      6  C   UNL     1     -18.245 -31.543  23.258  1.00  0.00     0.000 C 
BRANCH   6   7
ATOM      7  C   UNL     1     -16.853 -30.985  23.604  1.00  0.00    -0.003 C 
ATOM      8  C   UNL     1     -16.086 -30.485  22.381  1.00  0.00     0.004 C 
ENDBRANCH   6   7
ENDBRANCH   1   6
TORSDOF 4
ENDMDL
MODEL 5
REMARK VINA RESULT:    -4.106      3.284      4.966
REMARK INTER + INTRA:          -5.152
REMARK INTER:                  -5.095
REMARK INTRA:                  -0.057
REMARK UNBOUND:                -0.085
REMARK SMILES CCCCCC(=O)[O-]
REMARK SMILES IDX 4 1 5 2 6 3 7 4 8 5 3 6 2 7 1 8
REMARK H PARENT
REMARK Flexibility Score: inf
ROOT
ATOM      1  C   UNL     1     -19.336 -31.286  23.661  1.00  0.00     0.006 C 
ENDROOT
BRANCH   1   2
ATOM      2  C   UNL     1     -20.542 -30.339  23.728  1.00  0.00     0.053 C 
BRANCH   2   3
ATOM      3  C   UNL     1     -21.817 -31.120  23.758  1.00  0.00     0.041 C 
ATOM      4  O   UNL     1     -22.685 -30.883  24.639  1.00  0.00    -0.550 OA
ATOM      5  O   UNL     1     -22.070 -32.077  22.783  1.00  0.00    -0.550 OA
ENDBRANCH   2   3
ENDBRANCH   1   2
BRANCH   1   6
ATOM      6  C   UNL     1     -18.014 -30.600  24.052  1.00  0.00     0.000 C 
BRANCH   6   7
ATOM      7  C   UNL     1     -16.748 -31.270  23.491  1.00  0.00    -0.003 C 
ATOM      8  C   UNL     1     -16.089 -30.464  22.371  1.00  0.00     0.004 C 
ENDBRANCH   6   7
ENDBRANCH   1   6
TORSDOF 4
ENDMDL
MODEL 6
REMARK VINA RESULT:    -3.888      8.476      9.939
REMARK INTER + INTRA:          -4.883
REMARK INTER:                  -4.785
REMARK INTRA:                  -0.098
REMARK UNBOUND:                -0.085
REMARK SMILES CCCCCC(=O)[O-]
REMARK SMILES IDX 4 1 5 2 6 3 7 4 8 5 3 6 2 7 1 8
REMARK H PARENT
REMARK Flexibility Score: inf
ROOT
ATOM      1  C   UNL     1     -26.824 -33.020  24.213  1.00  0.00     0.006 C 
ENDROOT
BRANCH   1   2
ATOM      2  C   UNL     1     -27.917 -33.408  23.208  1.00  0.00     0.053 C 
BRANCH   2   3
ATOM      3  C   UNL     1     -28.179 -32.280  22.262  1.00  0.00     0.041 C 
ATOM      4  O   UNL     1     -27.223 -31.599  21.807  1.00  0.00    -0.550 OA
ATOM      5  O   UNL     1     -29.477 -32.011  21.844  1.00  0.00    -0.550 OA
ENDBRANCH   2   3
ENDBRANCH   1   2
BRANCH   1   6
ATOM      6  C   UNL     1     -27.378 -32.751  25.625  1.00  0.00     0.000 C 
BRANCH   6   7
ATOM      7  C   UNL     1     -26.403 -33.067  26.772  1.00  0.00    -0.003 C 
ATOM      8  C   UNL     1     -24.975 -33.326  26.292  1.00  0.00     0.004 C 
ENDBRANCH   6   7
ENDBRANCH   1   6
TORSDOF 4
ENDMDL
MODEL 7
REMARK VINA RESULT:    -3.841      7.419      9.303
REMARK INTER + INTRA:          -4.824
REMARK INTER:                  -4.636
REMARK INTRA:                  -0.188
REMARK UNBOUND:                -0.085
REMARK SMILES CCCCCC(=O)[O-]
REMARK SMILES IDX 4 1 5 2 6 3 7 4 8 5 3 6 2 7 1 8
REMARK H PARENT
REMARK Flexibility Score: inf
ROOT
ATOM      1  C   UNL     1     -27.203 -32.262  25.154  1.00  0.00     0.006 C 
ENDROOT
BRANCH   1   2
ATOM      2  C   UNL     1     -27.592 -33.275  24.069  1.00  0.00     0.053 C 
BRANCH   2   3
ATOM      3  C   UNL     1     -27.351 -32.700  22.709  1.00  0.00     0.041 C 
ATOM      4  O   UNL     1     -26.226 -32.216  22.416  1.00  0.00    -0.550 OA
ATOM      5  O   UNL     1     -28.354 -32.743  21.748  1.00  0.00    -0.550 OA
ENDBRANCH   2   3
ENDBRANCH   1   2
BRANCH   1   6
ATOM      6  C   UNL     1     -26.513 -32.917  26.365  1.00  0.00     0.000 C 
BRANCH   6   7
ATOM      7  C   UNL     1     -25.033 -33.278  26.148  1.00  0.00    -0.003 C 
ATOM      8  C   UNL     1     -24.267 -32.218  25.357  1.00  0.00     0.004 C 
ENDBRANCH   6   7
ENDBRANCH   1   6
TORSDOF 4
ENDMDL
MODEL 8
REMARK VINA RESULT:    -3.793      1.988      2.643
REMARK INTER + INTRA:          -4.765
REMARK INTER:                  -4.642
REMARK INTRA:                  -0.123
REMARK UNBOUND:                -0.085
REMARK SMILES CCCCCC(=O)[O-]
REMARK SMILES IDX 4 1 5 2 6 3 7 4 8 5 3 6 2 7 1 8
REMARK H PARENT
REMARK Flexibility Score: inf
ROOT
ATOM      1  C   UNL     1     -19.528 -30.049  23.745  1.00  0.00     0.006 C 
ENDROOT
BRANCH   1   2
ATOM      2  C   UNL     1     -18.137 -30.606  24.075  1.00  0.00     0.053 C 
BRANCH   2   3
ATOM      3  C   UNL     1     -17.138 -30.150  23.059  1.00  0.00     0.041 C 
ATOM      4  O   UNL     1     -16.179 -30.897  22.733  1.00  0.00    -0.550 OA
ATOM      5  O   UNL     1     -17.295 -28.918  22.435  1.00  0.00    -0.550 OA
ENDBRANCH   2   3
ENDBRANCH   1   2
BRANCH   1   6
ATOM      6  C   UNL     1     -20.395 -29.824  24.998  1.00  0.00     0.000 C 
BRANCH   6   7
ATOM      7  C   UNL     1     -19.670 -29.140  26.171  1.00  0.00    -0.003 C 
ATOM      8  C   UNL     1     -19.767 -27.615  26.128  1.00  0.00     0.004 C 
ENDBRANCH   6   7
ENDBRANCH   1   6
TORSDOF 4
ENDMDL
MODEL 9
REMARK VINA RESULT:    -3.735      8.242      9.469
REMARK INTER + INTRA:          -4.694
REMARK INTER:                  -4.587
REMARK INTRA:                  -0.107
REMARK UNBOUND:                -0.085
REMARK SMILES CCCCCC(=O)[O-]
REMARK SMILES IDX 4 1 5 2 6 3 7 4 8 5 3 6 2 7 1 8
REMARK H PARENT
REMARK Flexibility Score: inf
ROOT
ATOM      1  C   UNL     1     -27.442 -32.339  24.584  1.00  0.00     0.006 C 
ENDROOT
BRANCH   1   2
ATOM      2  C   UNL     1     -25.928 -32.324  24.833  1.00  0.00     0.053 C 
BRANCH   2   3
ATOM      3  C   UNL     1     -25.601 -33.045  26.102  1.00  0.00     0.041 C 
ATOM      4  O   UNL     1     -24.431 -33.460  26.312  1.00  0.00    -0.550 OA
ATOM      5  O   UNL     1     -26.578 -33.216  27.076  1.00  0.00    -0.550 OA
ENDBRANCH   2   3
ENDBRANCH   1   2
BRANCH   1   6
ATOM      6  C   UNL     1     -27.872 -33.420  23.576  1.00  0.00     0.000 C 
BRANCH   6   7
ATOM      7  C   UNL     1     -28.227 -32.893  22.175  1.00  0.00    -0.003 C 
ATOM      8  C   UNL     1     -29.348 -31.854  22.192  1.00  0.00     0.004 C 
ENDBRANCH   6   7
ENDBRANCH   1   6
TORSDOF 4
ENDMDL
