MODEL 1
REMARK VINA RESULT:    -2.803      0.000      0.000
REMARK INTER + INTRA:          -3.774
REMARK INTER:                  -3.459
REMARK INTRA:                  -0.315
REMARK UNBOUND:                -0.315
REMARK SMILES CCCCCC(C)=O
REMARK SMILES IDX 4 1 3 2 2 3 1 4 5 5 6 6 8 7 7 8
REMARK H PARENT
REMARK Flexibility Score: inf
ROOT
ATOM      1  C   UNL     1     161.580 172.170 170.049  1.00  0.00     0.008 C 
ENDROOT
BRANCH   1   2
ATOM      2  C   UNL     1     162.721 171.327 169.464  1.00  0.00     0.000 C 
BRANCH   2   3
ATOM      3  C   UNL     1     163.245 171.941 168.161  1.00  0.00    -0.003 C 
ATOM      4  C   UNL     1     162.974 173.442 168.111  1.00  0.00     0.004 C 
ENDBRANCH   2   3
ENDBRANCH   1   2
BRANCH   1   5
ATOM      5  C   UNL     1     160.247 171.409 170.059  1.00  0.00     0.075 C 
BRANCH   5   6
ATOM      6  C   UNL     1     159.299 171.922 169.005  1.00  0.00     0.129 C 
ATOM      7  O   UNL     1     158.511 171.151 168.478  1.00  0.00    -0.300 OA
ATOM      8  C   UNL     1     159.297 173.364 168.593  1.00  0.00     0.087 C 
ENDBRANCH   5   6
ENDBRANCH   1   5
TORSDOF 4
ENDMDL
MODEL 2
REMARK VINA RESULT:    -2.796     14.961     16.385
REMARK INTER + INTRA:          -3.766
REMARK INTER:                  -3.453
REMARK INTRA:                  -0.313
REMARK UNBOUND:                -0.315
REMARK SMILES CCCCCC(C)=O
REMARK SMILES IDX 4 1 3 2 2 3 1 4 5 5 6 6 8 7 7 8
REMARK H PARENT
REMARK Flexibility Score: inf
ROOT
ATOM      1  C   UNL     1     169.577 158.945 169.980  1.00  0.00     0.008 C 
ENDROOT
BRANCH   1   2
ATOM      2  C   UNL     1     168.335 159.722 169.518  1.00  0.00     0.000 C 
BRANCH   2   3
ATOM      3  C   UNL     1     167.898 159.276 168.119  1.00  0.00    -0.003 C 
ATOM      4  C   UNL     1     168.138 157.783 167.916  1.00  0.00     0.004 C 
ENDBRANCH   2   3
ENDBRANCH   1   2
BRANCH   1   5
ATOM      5  C   UNL     1     170.847 159.805 169.931  1.00  0.00     0.075 C 
BRANCH   5   6
ATOM      6  C   UNL     1     171.852 159.267 168.945  1.00  0.00     0.129 C 
ATOM      7  O   UNL     1     172.714 160.010 168.498  1.00  0.00    -0.300 OA
ATOM      8  C   UNL     1     171.824 157.833 168.505  1.00  0.00     0.087 C 
ENDBRANCH   5   6
ENDBRANCH   1   5
TORSDOF 4
ENDMDL
MODEL 3
REMARK VINA RESULT:    -2.641      0.691      1.862
REMARK INTER + INTRA:          -3.574
REMARK INTER:                  -3.275
REMARK INTRA:                  -0.300
REMARK UNBOUND:                -0.315
REMARK SMILES CCCCCC(C)=O
REMARK SMILES IDX 4 1 3 2 2 3 1 4 5 5 6 6 8 7 7 8
REMARK H PARENT
REMARK Flexibility Score: inf
ROOT
ATOM      1  C   UNL     1     161.229 173.370 169.313  1.00  0.00     0.008 C 
ENDROOT
BRANCH   1   2
ATOM      2  C   UNL     1     162.318 173.508 168.240  1.00  0.00     0.000 C 
BRANCH   2   3
ATOM      3  C   UNL     1     163.128 172.213 168.111  1.00  0.00    -0.003 C 
ATOM      4  C   UNL     1     163.207 171.477 169.445  1.00  0.00     0.004 C 
ENDBRANCH   2   3
ENDBRANCH   1   2
BRANCH   1   5
ATOM      5  C   UNL     1     159.846 173.103 168.702  1.00  0.00     0.075 C 
BRANCH   5   6
ATOM      6  C   UNL     1     159.286 171.774 169.140  1.00  0.00     0.129 C 
ATOM      7  O   UNL     1     158.469 171.203 168.432  1.00  0.00    -0.300 OA
ATOM      8  C   UNL     1     159.717 171.129 170.424  1.00  0.00     0.087 C 
ENDBRANCH   5   6
ENDBRANCH   1   5
TORSDOF 4
ENDMDL
MODEL 4
REMARK VINA RESULT:    -2.633      8.071      9.574
REMARK INTER + INTRA:          -3.564
REMARK INTER:                  -3.339
REMARK INTRA:                  -0.225
REMARK UNBOUND:                -0.315
REMARK SMILES CCCCCC(C)=O
REMARK SMILES IDX 4 1 3 2 2 3 1 4 5 5 6 6 8 7 7 8
REMARK H PARENT
REMARK Flexibility Score: inf
ROOT
ATOM      1  C   UNL     1     167.232 166.451 170.339  1.00  0.00     0.008 C 
ENDROOT
BRANCH   1   2
ATOM      2  C   UNL     1     166.758 165.141 169.696  1.00  0.00     0.000 C 
BRANCH   2   3
ATOM      3  C   UNL     1     166.192 165.391 168.294  1.00  0.00    -0.003 C 
ATOM      4  C   UNL     1     164.761 165.917 168.363  1.00  0.00     0.004 C 
ENDBRANCH   2   3
ENDBRANCH   1   2
BRANCH   1   5
ATOM      5  C   UNL     1     168.759 166.504 170.485  1.00  0.00     0.075 C 
BRANCH   5   6
ATOM      6  C   UNL     1     169.391 167.404 169.454  1.00  0.00     0.129 C 
ATOM      7  O   UNL     1     169.586 168.581 169.721  1.00  0.00    -0.300 OA
ATOM      8  C   UNL     1     169.796 166.884 168.107  1.00  0.00     0.087 C 
ENDBRANCH   5   6
ENDBRANCH   1   5
TORSDOF 4
ENDMDL
MODEL 5
REMARK VINA RESULT:    -2.610      8.001      9.100
REMARK INTER + INTRA:          -3.535
REMARK INTER:                  -3.293
REMARK INTRA:                  -0.242
REMARK UNBOUND:                -0.315
REMARK SMILES CCCCCC(C)=O
REMARK SMILES IDX 4 1 3 2 2 3 1 4 5 5 6 6 8 7 7 8
REMARK H PARENT
REMARK Flexibility Score: inf
ROOT
ATOM      1  C   UNL     1     167.772 166.766 170.186  1.00  0.00     0.008 C 
ENDROOT
BRANCH   1   2
ATOM      2  C   UNL     1     169.296 166.644 170.044  1.00  0.00     0.000 C 
BRANCH   2   3
ATOM      3  C   UNL     1     169.818 167.555 168.929  1.00  0.00    -0.003 C 
ATOM      4  C   UNL     1     169.980 166.788 167.620  1.00  0.00     0.004 C 
ENDBRANCH   2   3
ENDBRANCH   1   2
BRANCH   1   5
ATOM      5  C   UNL     1     167.059 165.432 169.927  1.00  0.00     0.075 C 
BRANCH   5   6
ATOM      6  C   UNL     1     166.370 165.414 168.587  1.00  0.00     0.129 C 
ATOM      7  O   UNL     1     166.971 165.001 167.606  1.00  0.00    -0.300 OA
ATOM      8  C   UNL     1     164.955 165.886 168.430  1.00  0.00     0.087 C 
ENDBRANCH   5   6
ENDBRANCH   1   5
TORSDOF 4
ENDMDL
MODEL 6
REMARK VINA RESULT:    -2.549     14.758     16.303
REMARK INTER + INTRA:          -3.461
REMARK INTER:                  -3.316
REMARK INTRA:                  -0.145
REMARK UNBOUND:                -0.315
REMARK SMILES CCCCCC(C)=O
REMARK SMILES IDX 4 1 3 2 2 3 1 4 5 5 6 6 8 7 7 8
REMARK H PARENT
REMARK Flexibility Score: inf
ROOT
ATOM      1  C   UNL     1     169.550 158.604 168.951  1.00  0.00     0.008 C 
ENDROOT
BRANCH   1   2
ATOM      2  C   UNL     1     168.287 159.476 168.948  1.00  0.00     0.000 C 
BRANCH   2   3
ATOM      3  C   UNL     1     168.186 160.301 170.236  1.00  0.00    -0.003 C 
ATOM      4  C   UNL     1     167.329 159.590 171.280  1.00  0.00     0.004 C 
ENDBRANCH   2   3
ENDBRANCH   1   2
BRANCH   1   5
ATOM      5  C   UNL     1     170.760 159.342 169.540  1.00  0.00     0.075 C 
BRANCH   5   6
ATOM      6  C   UNL     1     172.004 159.127 168.716  1.00  0.00     0.129 C 
ATOM      7  O   UNL     1     172.767 160.062 168.522  1.00  0.00    -0.300 OA
ATOM      8  C   UNL     1     172.333 157.785 168.133  1.00  0.00     0.087 C 
ENDBRANCH   5   6
ENDBRANCH   1   5
TORSDOF 4
ENDMDL
MODEL 7
REMARK VINA RESULT:    -2.545     15.063     16.188
REMARK INTER + INTRA:          -3.455
REMARK INTER:                  -3.261
REMARK INTRA:                  -0.194
REMARK UNBOUND:                -0.315
REMARK SMILES CCCCCC(C)=O
REMARK SMILES IDX 4 1 3 2 2 3 1 4 5 5 6 6 8 7 7 8
REMARK H PARENT
REMARK Flexibility Score: inf
ROOT
ATOM      1  C   UNL     1     168.130 159.170 168.641  1.00  0.00     0.008 C 
ENDROOT
BRANCH   1   2
ATOM      2  C   UNL     1     169.188 159.624 169.656  1.00  0.00     0.000 C 
BRANCH   2   3
ATOM      3  C   UNL     1     170.586 159.152 169.240  1.00  0.00    -0.003 C 
ATOM      4  C   UNL     1     171.668 159.830 170.075  1.00  0.00     0.004 C 
ENDBRANCH   2   3
ENDBRANCH   1   2
BRANCH   1   5
ATOM      5  C   UNL     1     168.008 157.641 168.579  1.00  0.00     0.075 C 
BRANCH   5   6
ATOM      6  C   UNL     1     168.166 157.122 167.173  1.00  0.00     0.129 C 
ATOM      7  O   UNL     1     167.317 157.386 166.334  1.00  0.00    -0.300 OA
ATOM      8  C   UNL     1     169.351 156.293 166.775  1.00  0.00     0.087 C 
ENDBRANCH   5   6
ENDBRANCH   1   5
TORSDOF 4
ENDMDL
MODEL 8
REMARK VINA RESULT:    -2.515      7.649      8.383
REMARK INTER + INTRA:          -3.419
REMARK INTER:                  -3.306
REMARK INTRA:                  -0.113
REMARK UNBOUND:                -0.315
REMARK SMILES CCCCCC(C)=O
REMARK SMILES IDX 4 1 3 2 2 3 1 4 5 5 6 6 8 7 7 8
REMARK H PARENT
REMARK Flexibility Score: inf
ROOT
ATOM      1  C   UNL     1     162.491 163.866 170.052  1.00  0.00     0.008 C 
ENDROOT
BRANCH   1   2
ATOM      2  C   UNL     1     163.226 165.192 170.293  1.00  0.00     0.000 C 
BRANCH   2   3
ATOM      3  C   UNL     1     164.553 165.232 169.528  1.00  0.00    -0.003 C 
ATOM      4  C   UNL     1     164.421 166.032 168.235  1.00  0.00     0.004 C 
ENDBRANCH   2   3
ENDBRANCH   1   2
BRANCH   1   5
ATOM      5  C   UNL     1     161.353 164.014 169.033  1.00  0.00     0.075 C 
BRANCH   5   6
ATOM      6  C   UNL     1     160.474 162.790 168.991  1.00  0.00     0.129 C 
ATOM      7  O   UNL     1     160.889 161.770 168.460  1.00  0.00    -0.300 OA
ATOM      8  C   UNL     1     159.102 162.792 169.596  1.00  0.00     0.087 C 
ENDBRANCH   5   6
ENDBRANCH   1   5
TORSDOF 4
ENDMDL
MODEL 9
REMARK VINA RESULT:    -2.509      2.492      3.830
REMARK INTER + INTRA:          -3.410
REMARK INTER:                  -3.113
REMARK INTRA:                  -0.297
REMARK UNBOUND:                -0.315
REMARK SMILES CCCCCC(C)=O
REMARK SMILES IDX 4 1 3 2 2 3 1 4 5 5 6 6 8 7 7 8
REMARK H PARENT
REMARK Flexibility Score: inf
ROOT
ATOM      1  C   UNL     1     162.952 172.509 169.359  1.00  0.00     0.008 C 
ENDROOT
BRANCH   1   2
ATOM      2  C   UNL     1     162.066 171.349 169.835  1.00  0.00     0.000 C 
BRANCH   2   3
ATOM      3  C   UNL     1     160.669 171.849 170.223  1.00  0.00    -0.003 C 
ATOM      4  C   UNL     1     159.737 171.871 169.015  1.00  0.00     0.004 C 
ENDBRANCH   2   3
ENDBRANCH   1   2
BRANCH   1   5
ATOM      5  C   UNL     1     163.302 172.393 167.869  1.00  0.00     0.075 C 
BRANCH   5   6
ATOM      6  C   UNL     1     163.149 173.711 167.153  1.00  0.00     0.129 C 
ATOM      7  O   UNL     1     163.978 174.041 166.317  1.00  0.00    -0.300 OA
ATOM      8  C   UNL     1     161.993 174.624 167.436  1.00  0.00     0.087 C 
ENDBRANCH   5   6
ENDBRANCH   1   5
TORSDOF 4
ENDMDL
