MODEL 1
REMARK VINA RESULT:    -3.679      0.000      0.000
REMARK INTER + INTRA:          -4.884
REMARK INTER:                  -4.754
REMARK INTRA:                  -0.130
REMARK UNBOUND:                -0.130
REMARK SMILES CCCCCCC(=O)[O-]
REMARK SMILES IDX 5 1 6 2 7 3 8 4 9 5 4 6 3 7 2 8 1 9
REMARK H PARENT
REMARK Flexibility Score: inf
ROOT
ATOM      1  C   UNL     1      17.183  -5.387  12.130  1.00  0.00     0.006 C 
ENDROOT
BRANCH   1   2
ATOM      2  C   UNL     1      18.641  -5.014  12.424  1.00  0.00     0.053 C 
BRANCH   2   3
ATOM      3  C   UNL     1      18.729  -4.202  13.677  1.00  0.00     0.041 C 
ATOM      4  O   UNL     1      19.709  -3.435  13.868  1.00  0.00    -0.550 OA
ATOM      5  O   UNL     1      17.752  -4.328  14.657  1.00  0.00    -0.550 OA
ENDBRANCH   2   3
ENDBRANCH   1   2
BRANCH   1   6
ATOM      6  C   UNL     1      17.039  -6.325  10.917  1.00  0.00     0.000 C 
BRANCH   6   7
ATOM      7  C   UNL     1      18.119  -6.158   9.830  1.00  0.00    -0.000 C 
BRANCH   7   8
ATOM      8  C   UNL     1      17.801  -6.839   8.487  1.00  0.00    -0.003 C 
ATOM      9  C   UNL     1      16.884  -6.001   7.598  1.00  0.00     0.004 C 
ENDBRANCH   7   8
ENDBRANCH   6   7
ENDBRANCH   1   6
TORSDOF 5
ENDMDL
MODEL 2
REMARK VINA RESULT:    -3.212     12.648     14.255
REMARK INTER + INTRA:          -4.281
REMARK INTER:                  -3.886
REMARK INTRA:                  -0.395
REMARK UNBOUND:                -0.130
REMARK SMILES CCCCCCC(=O)[O-]
REMARK SMILES IDX 5 1 6 2 7 3 8 4 9 5 4 6 3 7 2 8 1 9
REMARK H PARENT
REMARK Flexibility Score: inf
ROOT
ATOM      1  C   UNL     1      18.651   9.678  12.984  1.00  0.00     0.006 C 
ENDROOT
BRANCH   1   2
ATOM      2  C   UNL     1      18.886   9.497  11.479  1.00  0.00     0.053 C 
BRANCH   2   3
ATOM      3  C   UNL     1      20.352   9.431  11.186  1.00  0.00     0.041 C 
ATOM      4  O   UNL     1      20.755   9.266  10.004  1.00  0.00    -0.550 OA
ATOM      5  O   UNL     1      21.272   9.502  12.224  1.00  0.00    -0.550 OA
ENDBRANCH   2   3
ENDBRANCH   1   2
BRANCH   1   6
ATOM      6  C   UNL     1      18.103   8.408  13.660  1.00  0.00     0.000 C 
BRANCH   6   7
ATOM      7  C   UNL     1      19.168   7.501  14.308  1.00  0.00    -0.000 C 
BRANCH   7   8
ATOM      8  C   UNL     1      19.231   6.069  13.747  1.00  0.00    -0.003 C 
ATOM      9  C   UNL     1      19.919   5.992  12.386  1.00  0.00     0.004 C 
ENDBRANCH   7   8
ENDBRANCH   6   7
ENDBRANCH   1   6
TORSDOF 5
ENDMDL
MODEL 3
REMARK VINA RESULT:    -3.125     17.990     19.101
REMARK INTER + INTRA:          -4.168
REMARK INTER:                  -4.095
REMARK INTRA:                  -0.074
REMARK UNBOUND:                -0.130
REMARK SMILES CCCCCCC(=O)[O-]
REMARK SMILES IDX 5 1 6 2 7 3 8 4 9 5 4 6 3 7 2 8 1 9
REMARK H PARENT
REMARK Flexibility Score: inf
ROOT
ATOM      1  C   UNL     1      36.920  -6.431  11.605  1.00  0.00     0.006 C 
ENDROOT
BRANCH   1   2
ATOM      2  C   UNL     1      36.677  -7.945  11.613  1.00  0.00     0.053 C 
BRANCH   2   3
ATOM      3  C   UNL     1      35.586  -8.303  10.653  1.00  0.00     0.041 C 
ATOM      4  O   UNL     1      35.317  -7.542   9.687  1.00  0.00    -0.550 OA
ATOM      5  O   UNL     1      34.832  -9.453  10.855  1.00  0.00    -0.550 OA
ENDBRANCH   2   3
ENDBRANCH   1   2
BRANCH   1   6
ATOM      6  C   UNL     1      36.895  -5.815  13.016  1.00  0.00     0.000 C 
BRANCH   6   7
ATOM      7  C   UNL     1      37.125  -4.291  13.069  1.00  0.00    -0.000 C 
BRANCH   7   8
ATOM      8  C   UNL     1      36.793  -3.630  14.418  1.00  0.00    -0.003 C 
ATOM      9  C   UNL     1      36.800  -2.104  14.351  1.00  0.00     0.004 C 
ENDBRANCH   7   8
ENDBRANCH   6   7
ENDBRANCH   1   6
TORSDOF 5
ENDMDL
MODEL 4
REMARK VINA RESULT:    -3.122     20.620     21.809
REMARK INTER + INTRA:          -4.164
REMARK INTER:                  -4.061
REMARK INTRA:                  -0.103
REMARK UNBOUND:                -0.130
REMARK SMILES CCCCCCC(=O)[O-]
REMARK SMILES IDX 5 1 6 2 7 3 8 4 9 5 4 6 3 7 2 8 1 9
REMARK H PARENT
REMARK Flexibility Score: inf
ROOT
ATOM      1  C   UNL     1      33.022  -0.734  -2.617  1.00  0.00     0.006 C 
ENDROOT
BRANCH   1   2
ATOM      2  C   UNL     1      31.518  -0.983  -2.781  1.00  0.00     0.053 C 
BRANCH   2   3
ATOM      3  C   UNL     1      30.761   0.302  -2.659  1.00  0.00     0.041 C 
ATOM      4  O   UNL     1      30.324   0.677  -1.540  1.00  0.00    -0.550 OA
ATOM      5  O   UNL     1      30.496   1.062  -3.792  1.00  0.00    -0.550 OA
ENDBRANCH   2   3
ENDBRANCH   1   2
BRANCH   1   6
ATOM      6  C   UNL     1      33.838  -1.175  -3.847  1.00  0.00     0.000 C 
BRANCH   6   7
ATOM      7  C   UNL     1      35.337  -1.418  -3.584  1.00  0.00    -0.000 C 
BRANCH   7   8
ATOM      8  C   UNL     1      35.880  -2.759  -4.110  1.00  0.00    -0.003 C 
ATOM      9  C   UNL     1      36.821  -3.448  -3.123  1.00  0.00     0.004 C 
ENDBRANCH   7   8
ENDBRANCH   6   7
ENDBRANCH   1   6
TORSDOF 5
ENDMDL
MODEL 5
REMARK VINA RESULT:    -3.087     20.103     21.283
REMARK INTER + INTRA:          -4.119
REMARK INTER:                  -3.836
REMARK INTRA:                  -0.282
REMARK UNBOUND:                -0.130
REMARK SMILES CCCCCCC(=O)[O-]
REMARK SMILES IDX 5 1 6 2 7 3 8 4 9 5 4 6 3 7 2 8 1 9
REMARK H PARENT
REMARK Flexibility Score: inf
ROOT
ATOM      1  C   UNL     1      31.859  -0.403  -1.844  1.00  0.00     0.006 C 
ENDROOT
BRANCH   1   2
ATOM      2  C   UNL     1      30.749   0.653  -1.915  1.00  0.00     0.053 C 
BRANCH   2   3
ATOM      3  C   UNL     1      30.789   1.362  -3.232  1.00  0.00     0.041 C 
ATOM      4  O   UNL     1      29.944   1.089  -4.125  1.00  0.00    -0.550 OA
ATOM      5  O   UNL     1      31.790   2.290  -3.491  1.00  0.00    -0.550 OA
ENDBRANCH   2   3
ENDBRANCH   1   2
BRANCH   1   6
ATOM      6  C   UNL     1      31.642  -1.565  -2.832  1.00  0.00     0.000 C 
BRANCH   6   7
ATOM      7  C   UNL     1      32.602  -1.585  -4.037  1.00  0.00    -0.000 C 
BRANCH   7   8
ATOM      8  C   UNL     1      33.814  -0.643  -3.920  1.00  0.00    -0.003 C 
ATOM      9  C   UNL     1      35.110  -1.379  -3.587  1.00  0.00     0.004 C 
ENDBRANCH   7   8
ENDBRANCH   6   7
ENDBRANCH   1   6
TORSDOF 5
ENDMDL
MODEL 6
REMARK VINA RESULT:    -3.051     21.033     22.200
REMARK INTER + INTRA:          -4.072
REMARK INTER:                  -3.881
REMARK INTRA:                  -0.191
REMARK UNBOUND:                -0.130
REMARK SMILES CCCCCCC(=O)[O-]
REMARK SMILES IDX 5 1 6 2 7 3 8 4 9 5 4 6 3 7 2 8 1 9
REMARK H PARENT
REMARK Flexibility Score: inf
ROOT
ATOM      1  C   UNL     1      31.509   2.496  -3.543  1.00  0.00     0.006 C 
ENDROOT
BRANCH   1   2
ATOM      2  C   UNL     1      32.705   3.261  -4.125  1.00  0.00     0.053 C 
BRANCH   2   3
ATOM      3  C   UNL     1      32.744   4.655  -3.582  1.00  0.00     0.041 C 
ATOM      4  O   UNL     1      33.649   5.451  -3.946  1.00  0.00    -0.550 OA
ATOM      5  O   UNL     1      31.811   5.059  -2.636  1.00  0.00    -0.550 OA
ENDBRANCH   2   3
ENDBRANCH   1   2
BRANCH   1   6
ATOM      6  C   UNL     1      31.451   1.031  -4.016  1.00  0.00     0.000 C 
BRANCH   6   7
ATOM      7  C   UNL     1      32.723   0.205  -3.742  1.00  0.00    -0.000 C 
BRANCH   7   8
ATOM      8  C   UNL     1      32.828  -0.374  -2.319  1.00  0.00    -0.003 C 
ATOM      9  C   UNL     1      31.467  -0.714  -1.713  1.00  0.00     0.004 C 
ENDBRANCH   7   8
ENDBRANCH   6   7
ENDBRANCH   1   6
TORSDOF 5
ENDMDL
MODEL 7
REMARK VINA RESULT:    -3.032     18.056     19.163
REMARK INTER + INTRA:          -4.048
REMARK INTER:                  -3.882
REMARK INTRA:                  -0.166
REMARK UNBOUND:                -0.130
REMARK SMILES CCCCCCC(=O)[O-]
REMARK SMILES IDX 5 1 6 2 7 3 8 4 9 5 4 6 3 7 2 8 1 9
REMARK H PARENT
REMARK Flexibility Score: inf
ROOT
ATOM      1  C   UNL     1      35.489  -8.490  11.980  1.00  0.00     0.006 C 
ENDROOT
BRANCH   1   2
ATOM      2  C   UNL     1      36.299  -9.286  10.949  1.00  0.00     0.053 C 
BRANCH   2   3
ATOM      3  C   UNL     1      36.267  -8.601   9.620  1.00  0.00     0.041 C 
ATOM      4  O   UNL     1      37.028  -8.981   8.693  1.00  0.00    -0.550 OA
ATOM      5  O   UNL     1      35.430  -7.510   9.421  1.00  0.00    -0.550 OA
ENDBRANCH   2   3
ENDBRANCH   1   2
BRANCH   1   6
ATOM      6  C   UNL     1      36.379  -7.776  13.016  1.00  0.00     0.000 C 
BRANCH   6   7
ATOM      7  C   UNL     1      36.941  -6.414  12.566  1.00  0.00    -0.000 C 
BRANCH   7   8
ATOM      8  C   UNL     1      36.836  -5.289  13.613  1.00  0.00    -0.003 C 
ATOM      9  C   UNL     1      37.125  -3.906  13.032  1.00  0.00     0.004 C 
ENDBRANCH   7   8
ENDBRANCH   6   7
ENDBRANCH   1   6
TORSDOF 5
ENDMDL
MODEL 8
REMARK VINA RESULT:    -2.972     12.323     13.629
REMARK INTER + INTRA:          -3.970
REMARK INTER:                  -3.669
REMARK INTRA:                  -0.302
REMARK UNBOUND:                -0.130
REMARK SMILES CCCCCCC(=O)[O-]
REMARK SMILES IDX 5 1 6 2 7 3 8 4 9 5 4 6 3 7 2 8 1 9
REMARK H PARENT
REMARK Flexibility Score: inf
ROOT
ATOM      1  C   UNL     1      19.075   6.764  11.953  1.00  0.00     0.006 C 
ENDROOT
BRANCH   1   2
ATOM      2  C   UNL     1      18.967   8.291  12.054  1.00  0.00     0.053 C 
BRANCH   2   3
ATOM      3  C   UNL     1      20.223   8.936  11.559  1.00  0.00     0.041 C 
ATOM      4  O   UNL     1      20.446   9.025  10.323  1.00  0.00    -0.550 OA
ATOM      5  O   UNL     1      21.172   9.395  12.465  1.00  0.00    -0.550 OA
ENDBRANCH   2   3
ENDBRANCH   1   2
BRANCH   1   6
ATOM      6  C   UNL     1      19.900   6.148  13.099  1.00  0.00     0.000 C 
BRANCH   6   7
ATOM      7  C   UNL     1      19.079   5.392  14.162  1.00  0.00    -0.000 C 
BRANCH   7   8
ATOM      8  C   UNL     1      18.371   6.288  15.194  1.00  0.00    -0.003 C 
ATOM      9  C   UNL     1      19.256   7.423  15.704  1.00  0.00     0.004 C 
ENDBRANCH   7   8
ENDBRANCH   6   7
ENDBRANCH   1   6
TORSDOF 5
ENDMDL
MODEL 9
REMARK VINA RESULT:    -2.903     11.584     13.317
REMARK INTER + INTRA:          -3.881
REMARK INTER:                  -3.575
REMARK INTRA:                  -0.306
REMARK UNBOUND:                -0.130
REMARK SMILES CCCCCCC(=O)[O-]
REMARK SMILES IDX 5 1 6 2 7 3 8 4 9 5 4 6 3 7 2 8 1 9
REMARK H PARENT
REMARK Flexibility Score: inf
ROOT
ATOM      1  C   UNL     1      17.847  -6.413  -1.195  1.00  0.00     0.006 C 
ENDROOT
BRANCH   1   2
ATOM      2  C   UNL     1      16.875  -7.133  -2.139  1.00  0.00     0.053 C 
BRANCH   2   3
ATOM      3  C   UNL     1      17.375  -8.508  -2.452  1.00  0.00     0.041 C 
ATOM      4  O   UNL     1      17.978  -9.178  -1.573  1.00  0.00    -0.550 OA
ATOM      5  O   UNL     1      17.219  -9.030  -3.730  1.00  0.00    -0.550 OA
ENDBRANCH   2   3
ENDBRANCH   1   2
BRANCH   1   6
ATOM      6  C   UNL     1      17.276  -6.231   0.224  1.00  0.00     0.000 C 
BRANCH   6   7
ATOM      7  C   UNL     1      17.950  -7.087   1.314  1.00  0.00    -0.000 C 
BRANCH   7   8
ATOM      8  C   UNL     1      17.130  -8.300   1.788  1.00  0.00    -0.003 C 
ATOM      9  C   UNL     1      17.960  -9.579   1.883  1.00  0.00     0.004 C 
ENDBRANCH   7   8
ENDBRANCH   6   7
ENDBRANCH   1   6
TORSDOF 5
ENDMDL
