MODEL 1
REMARK VINA RESULT:    -4.138      0.000      0.000
REMARK INTER + INTRA:          -7.412
REMARK INTER:                  -6.315
REMARK INTRA:                  -1.098
REMARK UNBOUND:                -1.098
REMARK SMILES CCCCCCCCCCC(=O)[O-]
REMARK SMILES IDX 7 1 8 2 9 3 10 4 11 5 12 6 13 7 6 8 5 9 4 10 3 11 2 12 1 13
REMARK H PARENT
REMARK Flexibility Score: inf
ROOT
ATOM      1  C   UNL     1     -45.727  26.062 -13.792  1.00  0.00     0.000 C 
ENDROOT
BRANCH   1   2
ATOM      2  C   UNL     1     -47.069  25.322 -13.693  1.00  0.00     0.000 C 
BRANCH   2   3
ATOM      3  C   UNL     1     -48.030  25.778 -14.798  1.00  0.00     0.006 C 
BRANCH   3   4
ATOM      4  C   UNL     1     -48.669  24.576 -15.501  1.00  0.00     0.053 C 
BRANCH   4   5
ATOM      5  C   UNL     1     -50.120  24.475 -15.149  1.00  0.00     0.041 C 
ATOM      6  O   UNL     1     -50.788  25.515 -14.911  1.00  0.00    -0.550 OA
ATOM      7  O   UNL     1     -50.745  23.235 -15.131  1.00  0.00    -0.550 OA
ENDBRANCH   4   5
ENDBRANCH   3   4
ENDBRANCH   2   3
ENDBRANCH   1   2
BRANCH   1   8
ATOM      8  C   UNL     1     -45.852  27.429 -14.481  1.00  0.00     0.000 C 
BRANCH   8   9
ATOM      9  C   UNL     1     -44.586  27.816 -15.265  1.00  0.00    -0.000 C 
BRANCH   9  10
ATOM     10  C   UNL     1     -44.858  27.945 -16.775  1.00  0.00    -0.000 C 
BRANCH  10  11
ATOM     11  C   UNL     1     -44.854  26.586 -17.512  1.00  0.00    -0.000 C 
BRANCH  11  12
ATOM     12  C   UNL     1     -46.242  26.164 -18.022  1.00  0.00    -0.003 C 
ATOM     13  C   UNL     1     -47.219  27.334 -18.128  1.00  0.00     0.004 C 
ENDBRANCH  11  12
ENDBRANCH  10  11
ENDBRANCH   9  10
ENDBRANCH   8   9
ENDBRANCH   1   8
TORSDOF 9
ENDMDL
MODEL 2
REMARK VINA RESULT:    -4.134      3.069      4.626
REMARK INTER + INTRA:          -7.407
REMARK INTER:                  -6.149
REMARK INTRA:                  -1.259
REMARK UNBOUND:                -1.098
REMARK SMILES CCCCCCCCCCC(=O)[O-]
REMARK SMILES IDX 7 1 8 2 9 3 10 4 11 5 12 6 13 7 6 8 5 9 4 10 3 11 2 12 1 13
REMARK H PARENT
REMARK Flexibility Score: inf
ROOT
ATOM      1  C   UNL     1     -45.049  26.780 -15.035  1.00  0.00     0.000 C 
ENDROOT
BRANCH   1   2
ATOM      2  C   UNL     1     -45.627  27.934 -15.869  1.00  0.00     0.000 C 
BRANCH   2   3
ATOM      3  C   UNL     1     -45.119  27.874 -17.314  1.00  0.00     0.006 C 
BRANCH   3   4
ATOM      4  C   UNL     1     -44.479  26.516 -17.617  1.00  0.00     0.053 C 
BRANCH   4   5
ATOM      5  C   UNL     1     -44.934  26.008 -18.949  1.00  0.00     0.041 C 
ATOM      6  O   UNL     1     -44.846  26.740 -19.969  1.00  0.00    -0.550 OA
ATOM      7  O   UNL     1     -45.410  24.709 -19.072  1.00  0.00    -0.550 OA
ENDBRANCH   4   5
ENDBRANCH   3   4
ENDBRANCH   2   3
ENDBRANCH   1   2
BRANCH   1   8
ATOM      8  C   UNL     1     -45.811  26.559 -13.720  1.00  0.00     0.000 C 
BRANCH   8   9
ATOM      9  C   UNL     1     -47.336  26.505 -13.921  1.00  0.00    -0.000 C 
BRANCH   9  10
ATOM     10  C   UNL     1     -47.809  25.118 -14.392  1.00  0.00    -0.000 C 
BRANCH  10  11
ATOM     11  C   UNL     1     -48.826  25.184 -15.554  1.00  0.00    -0.000 C 
BRANCH  11  12
ATOM     12  C   UNL     1     -48.165  25.208 -16.943  1.00  0.00    -0.003 C 
ATOM     13  C   UNL     1     -48.522  26.455 -17.750  1.00  0.00     0.004 C 
ENDBRANCH  11  12
ENDBRANCH  10  11
ENDBRANCH   9  10
ENDBRANCH   8   9
ENDBRANCH   1   8
TORSDOF 9
ENDMDL
MODEL 3
REMARK VINA RESULT:    -4.126      0.996      2.835
REMARK INTER + INTRA:          -7.394
REMARK INTER:                  -6.249
REMARK INTRA:                  -1.144
REMARK UNBOUND:                -1.098
REMARK SMILES CCCCCCCCCCC(=O)[O-]
REMARK SMILES IDX 7 1 8 2 9 3 10 4 11 5 12 6 13 7 6 8 5 9 4 10 3 11 2 12 1 13
REMARK H PARENT
REMARK Flexibility Score: inf
ROOT
ATOM      1  C   UNL     1     -47.673  25.375 -17.684  1.00  0.00     0.000 C 
ENDROOT
BRANCH   1   2
ATOM      2  C   UNL     1     -48.694  26.352 -17.081  1.00  0.00     0.000 C 
BRANCH   2   3
ATOM      3  C   UNL     1     -49.014  25.984 -15.628  1.00  0.00     0.006 C 
BRANCH   3   4
ATOM      4  C   UNL     1     -49.199  24.471 -15.472  1.00  0.00     0.053 C 
BRANCH   4   5
ATOM      5  C   UNL     1     -50.598  24.156 -15.045  1.00  0.00     0.041 C 
ATOM      6  O   UNL     1     -51.365  25.077 -14.661  1.00  0.00    -0.550 OA
ATOM      7  O   UNL     1     -51.068  22.851 -15.117  1.00  0.00    -0.550 OA
ENDBRANCH   4   5
ENDBRANCH   3   4
ENDBRANCH   2   3
ENDBRANCH   1   2
BRANCH   1   8
ATOM      8  C   UNL     1     -46.369  26.066 -18.110  1.00  0.00     0.000 C 
BRANCH   8   9
ATOM      9  C   UNL     1     -46.356  27.567 -17.769  1.00  0.00    -0.000 C 
BRANCH   9  10
ATOM     10  C   UNL     1     -45.212  27.930 -16.805  1.00  0.00    -0.000 C 
BRANCH  10  11
ATOM     11  C   UNL     1     -44.932  26.833 -15.752  1.00  0.00    -0.000 C 
BRANCH  11  12
ATOM     12  C   UNL     1     -45.655  27.069 -14.416  1.00  0.00    -0.003 C 
ATOM     13  C   UNL     1     -45.881  25.781 -13.626  1.00  0.00     0.004 C 
ENDBRANCH  11  12
ENDBRANCH  10  11
ENDBRANCH   9  10
ENDBRANCH   8   9
ENDBRANCH   1   8
TORSDOF 9
ENDMDL
MODEL 4
REMARK VINA RESULT:    -4.113      1.859      2.435
REMARK INTER + INTRA:          -7.375
REMARK INTER:                  -6.642
REMARK INTRA:                  -0.734
REMARK UNBOUND:                -1.098
REMARK SMILES CCCCCCCCCCC(=O)[O-]
REMARK SMILES IDX 7 1 8 2 9 3 10 4 11 5 12 6 13 7 6 8 5 9 4 10 3 11 2 12 1 13
REMARK H PARENT
REMARK Flexibility Score: inf
ROOT
ATOM      1  C   UNL     1     -45.088  26.497 -15.005  1.00  0.00     0.000 C 
ENDROOT
BRANCH   1   2
ATOM      2  C   UNL     1     -45.969  26.463 -13.747  1.00  0.00     0.000 C 
BRANCH   2   3
ATOM      3  C   UNL     1     -47.272  25.699 -14.010  1.00  0.00     0.006 C 
BRANCH   3   4
ATOM      4  C   UNL     1     -47.919  26.151 -15.323  1.00  0.00     0.053 C 
BRANCH   4   5
ATOM      5  C   UNL     1     -48.385  24.968 -16.111  1.00  0.00     0.041 C 
ATOM      6  O   UNL     1     -48.042  24.835 -17.315  1.00  0.00    -0.550 OA
ATOM      7  O   UNL     1     -49.158  23.987 -15.503  1.00  0.00    -0.550 OA
ENDBRANCH   4   5
ENDBRANCH   3   4
ENDBRANCH   2   3
ENDBRANCH   1   2
BRANCH   1   8
ATOM      8  C   UNL     1     -44.691  27.924 -15.413  1.00  0.00     0.000 C 
BRANCH   8   9
ATOM      9  C   UNL     1     -44.481  28.069 -16.930  1.00  0.00    -0.000 C 
BRANCH   9  10
ATOM     10  C   UNL     1     -45.133  26.918 -17.718  1.00  0.00    -0.000 C 
BRANCH  10  11
ATOM     11  C   UNL     1     -44.296  26.463 -18.935  1.00  0.00    -0.000 C 
BRANCH  11  12
ATOM     12  C   UNL     1     -43.131  27.411 -19.265  1.00  0.00    -0.003 C 
ATOM     13  C   UNL     1     -43.037  27.745 -20.753  1.00  0.00     0.004 C 
ENDBRANCH  11  12
ENDBRANCH  10  11
ENDBRANCH   9  10
ENDBRANCH   8   9
ENDBRANCH   1   8
TORSDOF 9
ENDMDL
MODEL 5
REMARK VINA RESULT:    -4.102      3.836      5.909
REMARK INTER + INTRA:          -7.358
REMARK INTER:                  -6.257
REMARK INTRA:                  -1.101
REMARK UNBOUND:                -1.098
REMARK SMILES CCCCCCCCCCC(=O)[O-]
REMARK SMILES IDX 7 1 8 2 9 3 10 4 11 5 12 6 13 7 6 8 5 9 4 10 3 11 2 12 1 13
REMARK H PARENT
REMARK Flexibility Score: inf
ROOT
ATOM      1  C   UNL     1     -47.247  27.182 -18.118  1.00  0.00     0.000 C 
ENDROOT
BRANCH   1   2
ATOM      2  C   UNL     1     -46.105  27.618 -17.187  1.00  0.00     0.000 C 
BRANCH   2   3
ATOM      3  C   UNL     1     -44.917  26.655 -17.287  1.00  0.00     0.006 C 
BRANCH   3   4
ATOM      4  C   UNL     1     -44.777  26.100 -18.708  1.00  0.00     0.053 C 
BRANCH   4   5
ATOM      5  C   UNL     1     -43.823  26.934 -19.504  1.00  0.00     0.041 C 
ATOM      6  O   UNL     1     -42.787  27.401 -18.963  1.00  0.00    -0.550 OA
ATOM      7  O   UNL     1     -44.053  27.154 -20.856  1.00  0.00    -0.550 OA
ENDBRANCH   4   5
ENDBRANCH   3   4
ENDBRANCH   2   3
ENDBRANCH   1   2
BRANCH   1   8
ATOM      8  C   UNL     1     -48.422  26.547 -17.360  1.00  0.00     0.000 C 
BRANCH   8   9
ATOM      9  C   UNL     1     -48.237  25.035 -17.140  1.00  0.00    -0.000 C 
BRANCH   9  10
ATOM     10  C   UNL     1     -48.471  24.631 -15.673  1.00  0.00    -0.000 C 
BRANCH  10  11
ATOM     11  C   UNL     1     -48.157  25.766 -14.671  1.00  0.00    -0.000 C 
BRANCH  11  12
ATOM     12  C   UNL     1     -46.936  25.477 -13.782  1.00  0.00    -0.003 C 
ATOM     13  C   UNL     1     -46.112  26.727 -13.478  1.00  0.00     0.004 C 
ENDBRANCH  11  12
ENDBRANCH  10  11
ENDBRANCH   9  10
ENDBRANCH   8   9
ENDBRANCH   1   8
TORSDOF 9
ENDMDL
MODEL 6
REMARK VINA RESULT:    -4.005      0.916      1.269
REMARK INTER + INTRA:          -7.211
REMARK INTER:                  -6.003
REMARK INTRA:                  -1.207
REMARK UNBOUND:                -1.098
REMARK SMILES CCCCCCCCCCC(=O)[O-]
REMARK SMILES IDX 7 1 8 2 9 3 10 4 11 5 12 6 13 7 6 8 5 9 4 10 3 11 2 12 1 13
REMARK H PARENT
REMARK Flexibility Score: inf
ROOT
ATOM      1  C   UNL     1     -45.886  27.618 -13.496  1.00  0.00     0.000 C 
ENDROOT
BRANCH   1   2
ATOM      2  C   UNL     1     -45.753  26.162 -13.967  1.00  0.00     0.000 C 
BRANCH   2   3
ATOM      3  C   UNL     1     -47.088  25.420 -13.842  1.00  0.00     0.006 C 
BRANCH   3   4
ATOM      4  C   UNL     1     -48.192  26.139 -14.624  1.00  0.00     0.053 C 
BRANCH   4   5
ATOM      5  C   UNL     1     -49.111  25.146 -15.263  1.00  0.00     0.041 C 
ATOM      6  O   UNL     1     -50.350  25.196 -15.042  1.00  0.00    -0.550 OA
ATOM      7  O   UNL     1     -48.606  24.196 -16.141  1.00  0.00    -0.550 OA
ENDBRANCH   4   5
ENDBRANCH   3   4
ENDBRANCH   2   3
ENDBRANCH   1   2
BRANCH   1   8
ATOM      8  C   UNL     1     -45.346  28.626 -14.521  1.00  0.00     0.000 C 
BRANCH   8   9
ATOM      9  C   UNL     1     -44.310  28.004 -15.474  1.00  0.00    -0.000 C 
BRANCH   9  10
ATOM     10  C   UNL     1     -44.689  28.208 -16.953  1.00  0.00    -0.000 C 
BRANCH  10  11
ATOM     11  C   UNL     1     -44.815  26.881 -17.737  1.00  0.00    -0.000 C 
BRANCH  11  12
ATOM     12  C   UNL     1     -46.251  26.333 -17.785  1.00  0.00    -0.003 C 
ATOM     13  C   UNL     1     -47.294  27.420 -18.040  1.00  0.00     0.004 C 
ENDBRANCH  11  12
ENDBRANCH  10  11
ENDBRANCH   9  10
ENDBRANCH   8   9
ENDBRANCH   1   8
TORSDOF 9
ENDMDL
MODEL 7
REMARK VINA RESULT:    -4.002      1.849      2.069
REMARK INTER + INTRA:          -7.205
REMARK INTER:                  -6.081
REMARK INTRA:                  -1.124
REMARK UNBOUND:                -1.098
REMARK SMILES CCCCCCCCCCC(=O)[O-]
REMARK SMILES IDX 7 1 8 2 9 3 10 4 11 5 12 6 13 7 6 8 5 9 4 10 3 11 2 12 1 13
REMARK H PARENT
REMARK Flexibility Score: inf
ROOT
ATOM      1  C   UNL     1     -45.786  26.212 -13.784  1.00  0.00     0.000 C 
ENDROOT
BRANCH   1   2
ATOM      2  C   UNL     1     -47.229  25.770 -14.071  1.00  0.00     0.000 C 
BRANCH   2   3
ATOM      3  C   UNL     1     -48.008  26.874 -14.795  1.00  0.00     0.006 C 
BRANCH   3   4
ATOM      4  C   UNL     1     -49.098  26.281 -15.692  1.00  0.00     0.053 C 
BRANCH   4   5
ATOM      5  C   UNL     1     -48.537  25.929 -17.034  1.00  0.00     0.041 C 
ATOM      6  O   UNL     1     -48.389  26.819 -17.912  1.00  0.00    -0.550 OA
ATOM      7  O   UNL     1     -48.134  24.626 -17.298  1.00  0.00    -0.550 OA
ENDBRANCH   4   5
ENDBRANCH   3   4
ENDBRANCH   2   3
ENDBRANCH   1   2
BRANCH   1   8
ATOM      8  C   UNL     1     -45.553  27.702 -14.075  1.00  0.00     0.000 C 
BRANCH   8   9
ATOM      9  C   UNL     1     -44.509  27.934 -15.181  1.00  0.00    -0.000 C 
BRANCH   9  10
ATOM     10  C   UNL     1     -45.105  28.676 -16.392  1.00  0.00    -0.000 C 
BRANCH  10  11
ATOM     11  C   UNL     1     -44.928  27.909 -17.723  1.00  0.00    -0.000 C 
BRANCH  11  12
ATOM     12  C   UNL     1     -44.885  26.381 -17.547  1.00  0.00    -0.003 C 
ATOM     13  C   UNL     1     -45.121  25.625 -18.853  1.00  0.00     0.004 C 
ENDBRANCH  11  12
ENDBRANCH  10  11
ENDBRANCH   9  10
ENDBRANCH   8   9
ENDBRANCH   1   8
TORSDOF 9
ENDMDL
MODEL 8
REMARK VINA RESULT:    -3.925      3.323      5.728
REMARK INTER + INTRA:          -7.088
REMARK INTER:                  -6.110
REMARK INTRA:                  -0.977
REMARK UNBOUND:                -1.098
REMARK SMILES CCCCCCCCCCC(=O)[O-]
REMARK SMILES IDX 7 1 8 2 9 3 10 4 11 5 12 6 13 7 6 8 5 9 4 10 3 11 2 12 1 13
REMARK H PARENT
REMARK Flexibility Score: inf
ROOT
ATOM      1  C   UNL     1     -48.467  27.539 -15.763  1.00  0.00     0.000 C 
ENDROOT
BRANCH   1   2
ATOM      2  C   UNL     1     -48.128  26.047 -15.906  1.00  0.00     0.000 C 
BRANCH   2   3
ATOM      3  C   UNL     1     -47.982  25.657 -17.381  1.00  0.00     0.006 C 
BRANCH   3   4
ATOM      4  C   UNL     1     -47.026  26.608 -18.109  1.00  0.00     0.053 C 
BRANCH   4   5
ATOM      5  C   UNL     1     -45.652  26.021 -18.174  1.00  0.00     0.041 C 
ATOM      6  O   UNL     1     -45.422  25.027 -18.912  1.00  0.00    -0.550 OA
ATOM      7  O   UNL     1     -44.614  26.601 -17.456  1.00  0.00    -0.550 OA
ENDBRANCH   4   5
ENDBRANCH   3   4
ENDBRANCH   2   3
ENDBRANCH   1   2
BRANCH   1   8
ATOM      8  C   UNL     1     -49.881  27.776 -15.210  1.00  0.00     0.000 C 
BRANCH   8   9
ATOM      9  C   UNL     1     -50.946  27.845 -16.318  1.00  0.00    -0.000 C 
BRANCH   9  10
ATOM     10  C   UNL     1     -51.972  26.702 -16.206  1.00  0.00    -0.000 C 
BRANCH  10  11
ATOM     11  C   UNL     1     -52.068  26.108 -14.782  1.00  0.00    -0.000 C 
BRANCH  11  12
ATOM     12  C   UNL     1     -52.197  24.575 -14.767  1.00  0.00    -0.003 C 
ATOM     13  C   UNL     1     -50.847  23.863 -14.842  1.00  0.00     0.004 C 
ENDBRANCH  11  12
ENDBRANCH  10  11
ENDBRANCH   9  10
ENDBRANCH   8   9
ENDBRANCH   1   8
TORSDOF 9
ENDMDL
MODEL 9
REMARK VINA RESULT:    -3.897      1.450      3.272
REMARK INTER + INTRA:          -7.045
REMARK INTER:                  -5.885
REMARK INTRA:                  -1.160
REMARK UNBOUND:                -1.098
REMARK SMILES CCCCCCCCCCC(=O)[O-]
REMARK SMILES IDX 7 1 8 2 9 3 10 4 11 5 12 6 13 7 6 8 5 9 4 10 3 11 2 12 1 13
REMARK H PARENT
REMARK Flexibility Score: inf
ROOT
ATOM      1  C   UNL     1     -46.384  26.999 -18.181  1.00  0.00     0.000 C 
ENDROOT
BRANCH   1   2
ATOM      2  C   UNL     1     -47.362  25.907 -17.723  1.00  0.00     0.000 C 
BRANCH   2   3
ATOM      3  C   UNL     1     -48.750  26.495 -17.444  1.00  0.00     0.006 C 
BRANCH   3   4
ATOM      4  C   UNL     1     -48.712  27.448 -16.244  1.00  0.00     0.053 C 
BRANCH   4   5
ATOM      5  C   UNL     1     -49.731  27.046 -15.225  1.00  0.00     0.041 C 
ATOM      6  O   UNL     1     -50.166  27.890 -14.398  1.00  0.00    -0.550 OA
ATOM      7  O   UNL     1     -50.235  25.752 -15.219  1.00  0.00    -0.550 OA
ENDBRANCH   4   5
ENDBRANCH   3   4
ENDBRANCH   2   3
ENDBRANCH   1   2
BRANCH   1   8
ATOM      8  C   UNL     1     -44.987  26.843 -17.560  1.00  0.00     0.000 C 
BRANCH   8   9
ATOM      9  C   UNL     1     -44.512  28.119 -16.844  1.00  0.00    -0.000 C 
BRANCH   9  10
ATOM     10  C   UNL     1     -44.569  27.977 -15.311  1.00  0.00    -0.000 C 
BRANCH  10  11
ATOM     11  C   UNL     1     -45.008  26.570 -14.847  1.00  0.00    -0.000 C 
BRANCH  11  12
ATOM     12  C   UNL     1     -46.060  26.597 -13.725  1.00  0.00    -0.003 C 
ATOM     13  C   UNL     1     -46.888  25.315 -13.655  1.00  0.00     0.004 C 
ENDBRANCH  11  12
ENDBRANCH  10  11
ENDBRANCH   9  10
ENDBRANCH   8   9
ENDBRANCH   1   8
TORSDOF 9
ENDMDL
