MODEL 1
REMARK VINA RESULT:    -4.573      0.000      0.000
REMARK INTER + INTRA:          -7.354
REMARK INTER:                  -6.444
REMARK INTRA:                  -0.910
REMARK UNBOUND:                -0.910
REMARK SMILES CCCCCCCCC(=O)[O-]
REMARK SMILES IDX 6 1 7 2 8 3 9 4 10 5 11 6 5 7 4 8 3 9 2 10 1 11
REMARK H PARENT
REMARK Flexibility Score: inf
ROOT
ATOM      1  C   UNL     1     -29.750   0.952  22.884  1.00  0.00     0.000 C 
ENDROOT
BRANCH   1   2
ATOM      2  C   UNL     1     -28.965   0.745  24.186  1.00  0.00     0.006 C 
BRANCH   2   3
ATOM      3  C   UNL     1     -27.505   0.387  23.895  1.00  0.00     0.053 C 
BRANCH   3   4
ATOM      4  C   UNL     1     -27.230  -1.035  24.267  1.00  0.00     0.041 C 
ATOM      5  O   UNL     1     -26.115  -1.556  23.997  1.00  0.00    -0.550 OA
ATOM      6  O   UNL     1     -28.220  -1.801  24.867  1.00  0.00    -0.550 OA
ENDBRANCH   3   4
ENDBRANCH   2   3
ENDBRANCH   1   2
BRANCH   1   7
ATOM      7  C   UNL     1     -31.002   0.067  22.850  1.00  0.00     0.000 C 
BRANCH   7   8
ATOM      8  C   UNL     1     -30.651  -1.365  22.416  1.00  0.00    -0.000 C 
BRANCH   8   9
ATOM      9  C   UNL     1     -29.955  -1.416  21.047  1.00  0.00    -0.000 C 
BRANCH   9  10
ATOM     10  C   UNL     1     -28.658  -2.237  21.074  1.00  0.00    -0.003 C 
ATOM     11  C   UNL     1     -27.486  -1.429  20.522  1.00  0.00     0.004 C 
ENDBRANCH   9  10
ENDBRANCH   8   9
ENDBRANCH   7   8
ENDBRANCH   1   7
TORSDOF 7
ENDMDL
MODEL 2
REMARK VINA RESULT:    -4.525      2.271      4.547
REMARK INTER + INTRA:          -7.287
REMARK INTER:                  -6.403
REMARK INTRA:                  -0.884
REMARK UNBOUND:                -0.910
REMARK SMILES CCCCCCCCC(=O)[O-]
REMARK SMILES IDX 6 1 7 2 8 3 9 4 10 5 11 6 5 7 4 8 3 9 2 10 1 11
REMARK H PARENT
REMARK Flexibility Score: inf
ROOT
ATOM      1  C   UNL     1     -27.001   0.352  23.758  1.00  0.00     0.000 C 
ENDROOT
BRANCH   1   2
ATOM      2  C   UNL     1     -27.866   0.356  22.490  1.00  0.00     0.006 C 
BRANCH   2   3
ATOM      3  C   UNL     1     -29.170   1.126  22.718  1.00  0.00     0.053 C 
BRANCH   3   4
ATOM      4  C   UNL     1     -30.332   0.185  22.763  1.00  0.00     0.041 C 
ATOM      5  O   UNL     1     -30.159  -1.046  22.559  1.00  0.00    -0.550 OA
ATOM      6  O   UNL     1     -31.614   0.673  22.979  1.00  0.00    -0.550 OA
ENDBRANCH   3   4
ENDBRANCH   2   3
ENDBRANCH   1   2
BRANCH   1   7
ATOM      7  C   UNL     1     -27.092  -0.996  24.482  1.00  0.00     0.000 C 
BRANCH   7   8
ATOM      8  C   UNL     1     -28.153  -0.953  25.592  1.00  0.00    -0.000 C 
BRANCH   8   9
ATOM      9  C   UNL     1     -28.179   0.391  26.336  1.00  0.00    -0.000 C 
BRANCH   9  10
ATOM     10  C   UNL     1     -29.605   0.913  26.564  1.00  0.00    -0.003 C 
ATOM     11  C   UNL     1     -30.633  -0.197  26.367  1.00  0.00     0.004 C 
ENDBRANCH   9  10
ENDBRANCH   8   9
ENDBRANCH   7   8
ENDBRANCH   1   7
TORSDOF 7
ENDMDL
MODEL 3
REMARK VINA RESULT:    -4.516      2.461      3.503
REMARK INTER + INTRA:          -7.274
REMARK INTER:                  -6.402
REMARK INTRA:                  -0.872
REMARK UNBOUND:                -0.910
REMARK SMILES CCCCCCCCC(=O)[O-]
REMARK SMILES IDX 6 1 7 2 8 3 9 4 10 5 11 6 5 7 4 8 3 9 2 10 1 11
REMARK H PARENT
REMARK Flexibility Score: inf
ROOT
ATOM      1  C   UNL     1     -27.191  -1.162  24.422  1.00  0.00     0.000 C 
ENDROOT
BRANCH   1   2
ATOM      2  C   UNL     1     -27.659  -0.132  25.458  1.00  0.00     0.006 C 
BRANCH   2   3
ATOM      3  C   UNL     1     -28.668  -0.750  26.431  1.00  0.00     0.053 C 
BRANCH   3   4
ATOM      4  C   UNL     1     -29.889   0.108  26.534  1.00  0.00     0.041 C 
ATOM      5  O   UNL     1     -29.777   1.353  26.682  1.00  0.00    -0.550 OA
ATOM      6  O   UNL     1     -31.150  -0.473  26.518  1.00  0.00    -0.550 OA
ENDBRANCH   3   4
ENDBRANCH   2   3
ENDBRANCH   1   2
BRANCH   1   7
ATOM      7  C   UNL     1     -28.277  -2.211  24.159  1.00  0.00     0.000 C 
BRANCH   7   8
ATOM      8  C   UNL     1     -29.104  -1.846  22.917  1.00  0.00    -0.000 C 
BRANCH   8   9
ATOM      9  C   UNL     1     -30.617  -1.858  23.188  1.00  0.00    -0.000 C 
BRANCH   9  10
ATOM     10  C   UNL     1     -31.254  -0.468  23.043  1.00  0.00    -0.003 C 
ATOM     11  C   UNL     1     -30.192   0.599  22.793  1.00  0.00     0.004 C 
ENDBRANCH   9  10
ENDBRANCH   8   9
ENDBRANCH   7   8
ENDBRANCH   1   7
TORSDOF 7
ENDMDL
MODEL 4
REMARK VINA RESULT:    -4.505      1.563      2.323
REMARK INTER + INTRA:          -7.258
REMARK INTER:                  -6.340
REMARK INTRA:                  -0.918
REMARK UNBOUND:                -0.910
REMARK SMILES CCCCCCCCC(=O)[O-]
REMARK SMILES IDX 6 1 7 2 8 3 9 4 10 5 11 6 5 7 4 8 3 9 2 10 1 11
REMARK H PARENT
REMARK Flexibility Score: inf
ROOT
ATOM      1  C   UNL     1     -29.127  -2.592  23.632  1.00  0.00     0.000 C 
ENDROOT
BRANCH   1   2
ATOM      2  C   UNL     1     -28.325  -1.906  24.746  1.00  0.00     0.006 C 
BRANCH   2   3
ATOM      3  C   UNL     1     -27.156  -1.105  24.167  1.00  0.00     0.053 C 
BRANCH   3   4
ATOM      4  C   UNL     1     -27.549   0.325  23.968  1.00  0.00     0.041 C 
ATOM      5  O   UNL     1     -28.564   0.789  24.550  1.00  0.00    -0.550 OA
ATOM      6  O   UNL     1     -26.823   1.131  23.101  1.00  0.00    -0.550 OA
ENDBRANCH   3   4
ENDBRANCH   2   3
ENDBRANCH   1   2
BRANCH   1   7
ATOM      7  C   UNL     1     -30.552  -2.031  23.555  1.00  0.00     0.000 C 
BRANCH   7   8
ATOM      8  C   UNL     1     -30.694  -1.050  22.381  1.00  0.00    -0.000 C 
BRANCH   8   9
ATOM      9  C   UNL     1     -30.021  -1.561  21.097  1.00  0.00    -0.000 C 
BRANCH   9  10
ATOM     10  C   UNL     1     -28.918  -0.619  20.594  1.00  0.00    -0.003 C 
ATOM     11  C   UNL     1     -27.592  -1.360  20.439  1.00  0.00     0.004 C 
ENDBRANCH   9  10
ENDBRANCH   8   9
ENDBRANCH   7   8
ENDBRANCH   1   7
TORSDOF 7
ENDMDL
MODEL 5
REMARK VINA RESULT:    -4.504      1.500      2.846
REMARK INTER + INTRA:          -7.256
REMARK INTER:                  -6.475
REMARK INTRA:                  -0.781
REMARK UNBOUND:                -0.910
REMARK SMILES CCCCCCCCC(=O)[O-]
REMARK SMILES IDX 6 1 7 2 8 3 9 4 10 5 11 6 5 7 4 8 3 9 2 10 1 11
REMARK H PARENT
REMARK Flexibility Score: inf
ROOT
ATOM      1  C   UNL     1     -27.522  -0.382  21.766  1.00  0.00     0.000 C 
ENDROOT
BRANCH   1   2
ATOM      2  C   UNL     1     -27.017   0.092  23.136  1.00  0.00     0.006 C 
BRANCH   2   3
ATOM      3  C   UNL     1     -26.593  -1.095  24.005  1.00  0.00     0.053 C 
BRANCH   3   4
ATOM      4  C   UNL     1     -27.781  -1.694  24.689  1.00  0.00     0.041 C 
ATOM      5  O   UNL     1     -28.359  -1.069  25.616  1.00  0.00    -0.550 OA
ATOM      6  O   UNL     1     -28.219  -2.964  24.337  1.00  0.00    -0.550 OA
ENDBRANCH   3   4
ENDBRANCH   2   3
ENDBRANCH   1   2
BRANCH   1   7
ATOM      7  C   UNL     1     -29.004  -0.038  21.578  1.00  0.00     0.000 C 
BRANCH   7   8
ATOM      8  C   UNL     1     -29.459   1.016  22.600  1.00  0.00    -0.000 C 
BRANCH   8   9
ATOM      9  C   UNL     1     -30.650   0.544  23.448  1.00  0.00    -0.000 C 
BRANCH   9  10
ATOM     10  C   UNL     1     -31.320  -0.714  22.878  1.00  0.00    -0.003 C 
ATOM     11  C   UNL     1     -31.375  -1.828  23.920  1.00  0.00     0.004 C 
ENDBRANCH   9  10
ENDBRANCH   8   9
ENDBRANCH   7   8
ENDBRANCH   1   7
TORSDOF 7
ENDMDL
MODEL 6
REMARK VINA RESULT:    -4.496      2.111      3.813
REMARK INTER + INTRA:          -7.246
REMARK INTER:                  -6.357
REMARK INTRA:                  -0.889
REMARK UNBOUND:                -0.910
REMARK SMILES CCCCCCCCC(=O)[O-]
REMARK SMILES IDX 6 1 7 2 8 3 9 4 10 5 11 6 5 7 4 8 3 9 2 10 1 11
REMARK H PARENT
REMARK Flexibility Score: inf
ROOT
ATOM      1  C   UNL     1     -29.681  -2.240  23.995  1.00  0.00     0.000 C 
ENDROOT
BRANCH   1   2
ATOM      2  C   UNL     1     -28.339  -2.271  23.252  1.00  0.00     0.006 C 
BRANCH   2   3
ATOM      3  C   UNL     1     -27.310  -1.369  23.941  1.00  0.00     0.053 C 
BRANCH   3   4
ATOM      4  C   UNL     1     -27.150  -0.087  23.187  1.00  0.00     0.041 C 
ATOM      5  O   UNL     1     -27.429  -0.035  21.960  1.00  0.00    -0.550 OA
ATOM      6  O   UNL     1     -26.645   1.037  23.826  1.00  0.00    -0.550 OA
ENDBRANCH   3   4
ENDBRANCH   2   3
ENDBRANCH   1   2
BRANCH   1   7
ATOM      7  C   UNL     1     -30.667  -1.285  23.312  1.00  0.00     0.000 C 
BRANCH   7   8
ATOM      8  C   UNL     1     -30.813   0.018  24.111  1.00  0.00    -0.000 C 
BRANCH   8   9
ATOM      9  C   UNL     1     -30.552  -0.175  25.614  1.00  0.00    -0.000 C 
BRANCH   9  10
ATOM     10  C   UNL     1     -29.498   0.798  26.161  1.00  0.00    -0.003 C 
ATOM     11  C   UNL     1     -28.576   0.104  27.159  1.00  0.00     0.004 C 
ENDBRANCH   9  10
ENDBRANCH   8   9
ENDBRANCH   7   8
ENDBRANCH   1   7
TORSDOF 7
ENDMDL
MODEL 7
REMARK VINA RESULT:    -4.476      1.455      2.752
REMARK INTER + INTRA:          -7.218
REMARK INTER:                  -6.310
REMARK INTRA:                  -0.909
REMARK UNBOUND:                -0.910
REMARK SMILES CCCCCCCCC(=O)[O-]
REMARK SMILES IDX 6 1 7 2 8 3 9 4 10 5 11 6 5 7 4 8 3 9 2 10 1 11
REMARK H PARENT
REMARK Flexibility Score: inf
ROOT
ATOM      1  C   UNL     1     -28.592   1.131  22.819  1.00  0.00     0.000 C 
ENDROOT
BRANCH   1   2
ATOM      2  C   UNL     1     -29.389   0.800  24.088  1.00  0.00     0.006 C 
BRANCH   2   3
ATOM      3  C   UNL     1     -30.587  -0.097  23.765  1.00  0.00     0.053 C 
BRANCH   3   4
ATOM      4  C   UNL     1     -30.341  -1.493  24.244  1.00  0.00     0.041 C 
ATOM      5  O   UNL     1     -29.309  -1.759  24.914  1.00  0.00    -0.550 OA
ATOM      6  O   UNL     1     -31.225  -2.509  23.908  1.00  0.00    -0.550 OA
ENDBRANCH   3   4
ENDBRANCH   2   3
ENDBRANCH   1   2
BRANCH   1   7
ATOM      7  C   UNL     1     -27.145   0.640  22.934  1.00  0.00     0.000 C 
BRANCH   7   8
ATOM      8  C   UNL     1     -27.034  -0.841  22.538  1.00  0.00    -0.000 C 
BRANCH   8   9
ATOM      9  C   UNL     1     -27.510  -1.107  21.101  1.00  0.00    -0.000 C 
BRANCH   9  10
ATOM     10  C   UNL     1     -28.615  -2.171  21.033  1.00  0.00    -0.003 C 
ATOM     11  C   UNL     1     -29.912  -1.581  20.486  1.00  0.00     0.004 C 
ENDBRANCH   9  10
ENDBRANCH   8   9
ENDBRANCH   7   8
ENDBRANCH   1   7
TORSDOF 7
ENDMDL
MODEL 8
REMARK VINA RESULT:    -4.467      2.168      3.724
REMARK INTER + INTRA:          -7.205
REMARK INTER:                  -6.331
REMARK INTRA:                  -0.873
REMARK UNBOUND:                -0.910
REMARK SMILES CCCCCCCCC(=O)[O-]
REMARK SMILES IDX 6 1 7 2 8 3 9 4 10 5 11 6 5 7 4 8 3 9 2 10 1 11
REMARK H PARENT
REMARK Flexibility Score: inf
ROOT
ATOM      1  C   UNL     1     -30.681  -0.662  23.925  1.00  0.00     0.000 C 
ENDROOT
BRANCH   1   2
ATOM      2  C   UNL     1     -30.512  -1.734  22.840  1.00  0.00     0.006 C 
BRANCH   2   3
ATOM      3  C   UNL     1     -30.428  -1.099  21.450  1.00  0.00     0.053 C 
BRANCH   3   4
ATOM      4  C   UNL     1     -29.159  -1.501  20.767  1.00  0.00     0.041 C 
ATOM      5  O   UNL     1     -28.578  -2.571  21.089  1.00  0.00    -0.550 OA
ATOM      6  O   UNL     1     -28.591  -0.670  19.810  1.00  0.00    -0.550 OA
ENDBRANCH   3   4
ENDBRANCH   2   3
ENDBRANCH   1   2
BRANCH   1   7
ATOM      7  C   UNL     1     -29.701  -0.890  25.081  1.00  0.00     0.000 C 
BRANCH   7   8
ATOM      8  C   UNL     1     -28.528  -1.780  24.641  1.00  0.00    -0.000 C 
BRANCH   8   9
ATOM      9  C   UNL     1     -27.169  -1.071  24.758  1.00  0.00    -0.000 C 
BRANCH   9  10
ATOM     10  C   UNL     1     -26.625  -0.611  23.398  1.00  0.00    -0.003 C 
ATOM     11  C   UNL     1     -27.176   0.762  23.022  1.00  0.00     0.004 C 
ENDBRANCH   9  10
ENDBRANCH   8   9
ENDBRANCH   7   8
ENDBRANCH   1   7
TORSDOF 7
ENDMDL
MODEL 9
REMARK VINA RESULT:    -4.461      2.151      4.299
REMARK INTER + INTRA:          -7.197
REMARK INTER:                  -6.253
REMARK INTRA:                  -0.943
REMARK UNBOUND:                -0.910
REMARK SMILES CCCCCCCCC(=O)[O-]
REMARK SMILES IDX 6 1 7 2 8 3 9 4 10 5 11 6 5 7 4 8 3 9 2 10 1 11
REMARK H PARENT
REMARK Flexibility Score: inf
ROOT
ATOM      1  C   UNL     1     -28.326   1.108  23.068  1.00  0.00     0.000 C 
ENDROOT
BRANCH   1   2
ATOM      2  C   UNL     1     -29.395   0.500  22.151  1.00  0.00     0.006 C 
BRANCH   2   3
ATOM      3  C   UNL     1     -30.597   0.005  22.961  1.00  0.00     0.053 C 
BRANCH   3   4
ATOM      4  C   UNL     1     -30.565  -1.485  23.088  1.00  0.00     0.041 C 
ATOM      5  O   UNL     1     -31.344  -2.069  23.887  1.00  0.00    -0.550 OA
ATOM      6  O   UNL     1     -29.642  -2.225  22.362  1.00  0.00    -0.550 OA
ENDBRANCH   3   4
ENDBRANCH   2   3
ENDBRANCH   1   2
BRANCH   1   7
ATOM      7  C   UNL     1     -27.107   0.185  23.179  1.00  0.00     0.000 C 
BRANCH   7   8
ATOM      8  C   UNL     1     -27.157  -0.637  24.476  1.00  0.00    -0.000 C 
BRANCH   8   9
ATOM      9  C   UNL     1     -27.796   0.134  25.643  1.00  0.00    -0.000 C 
BRANCH   9  10
ATOM     10  C   UNL     1     -28.899  -0.669  26.347  1.00  0.00    -0.003 C 
ATOM     11  C   UNL     1     -30.127   0.198  26.608  1.00  0.00     0.004 C 
ENDBRANCH   9  10
ENDBRANCH   8   9
ENDBRANCH   7   8
ENDBRANCH   1   7
TORSDOF 7
ENDMDL
