MODEL 1
REMARK VINA RESULT:    -2.980      0.000      0.000
REMARK INTER + INTRA:          -3.439
REMARK INTER:                  -3.590
REMARK INTRA:                   0.151
REMARK UNBOUND:                 0.151
REMARK SMILES O=c1c(O)c(-c2ccc(O)c(O)c2)oc2cc(O)cc(O)c12
REMARK SMILES IDX 5 1 3 2 2 3 1 4 22 5 20 6 19 7 17 8 16 9 15 10 14 11 6 12
REMARK SMILES IDX 7 13 8 14 9 15 13 16 11 17 10 18 12 20 4 22 21 24 18 26
REMARK H PARENT 10 19 12 21 4 23 21 25 18 27
REMARK Flexibility Score: inf
ROOT
ATOM      1  C   UNL     1      -2.994  68.301  -7.689  1.00  0.00     0.180 A 
ATOM      2  C   UNL     1      -2.552  68.613  -6.392  1.00  0.00     0.208 A 
ATOM      3  C   UNL     1      -1.195  68.448  -6.078  1.00  0.00     0.238 A 
ATOM      4  O   UNL     1      -0.814  68.678  -4.899  1.00  0.00    -0.285 OA
ATOM      5  C   UNL     1      -0.293  67.987  -7.067  1.00  0.00     0.111 A 
ATOM      6  C   UNL     1       1.111  67.821  -6.869  1.00  0.00     0.134 A 
ATOM      7  C   UNL     1       1.886  67.234  -7.878  1.00  0.00     0.093 A 
ATOM      8  C   UNL     1       1.321  66.869  -9.099  1.00  0.00     0.123 A 
ATOM      9  C   UNL     1      -0.039  67.083  -9.325  1.00  0.00     0.094 A 
ATOM     10  C   UNL     1      -0.845  67.632  -8.325  1.00  0.00     0.146 A 
ATOM     11  O   UNL     1      -2.137  67.808  -8.576  1.00  0.00    -0.452 OA
ENDROOT
BRANCH   1  12
ATOM     12  C   UNL     1      -4.406  68.473  -8.104  1.00  0.00     0.025 A 
ATOM     13  C   UNL     1      -4.738  68.993  -9.367  1.00  0.00     0.016 A 
ATOM     14  C   UNL     1      -6.077  69.125  -9.745  1.00  0.00     0.051 A 
ATOM     15  C   UNL     1      -7.100  68.729  -8.879  1.00  0.00     0.157 A 
ATOM     16  C   UNL     1      -5.435  68.057  -7.244  1.00  0.00     0.062 A 
ATOM     17  C   UNL     1      -6.779  68.188  -7.622  1.00  0.00     0.158 A 
BRANCH  15  18
ATOM     18  O   UNL     1      -8.427  68.874  -9.284  1.00  0.00    -0.504 OA
ATOM     19  H   UNL     1      -8.675  69.274 -10.180  1.00  0.00     0.293 HD
ENDBRANCH  15  18
BRANCH  17  20
ATOM     20  O   UNL     1      -7.793  67.784  -6.756  1.00  0.00    -0.504 OA
ATOM     21  H   UNL     1      -8.465  68.444  -6.382  1.00  0.00     0.293 HD
ENDBRANCH  17  20
ENDBRANCH   1  12
BRANCH   2  22
ATOM     22  O   UNL     1      -3.463  69.046  -5.425  1.00  0.00    -0.502 OA
ATOM     23  H   UNL     1      -3.914  69.952  -5.468  1.00  0.00     0.293 HD
ENDBRANCH   2  22
BRANCH   6  24
ATOM     24  O   UNL     1       1.793  68.236  -5.722  1.00  0.00    -0.507 OA
ATOM     25  H   UNL     1       2.105  69.180  -5.548  1.00  0.00     0.293 HD
ENDBRANCH   6  24
BRANCH   8  26
ATOM     26  O   UNL     1       2.125  66.303 -10.086  1.00  0.00    -0.508 OA
ATOM     27  H   UNL     1       2.971  65.795  -9.855  1.00  0.00     0.293 HD
ENDBRANCH   8  26
TORSDOF 6
ENDMDL
MODEL 2
REMARK VINA RESULT:    -1.926      1.353      3.167
REMARK INTER + INTRA:          -2.170
REMARK INTER:                  -2.252
REMARK INTRA:                   0.082
REMARK UNBOUND:                 0.151
REMARK SMILES O=c1c(O)c(-c2ccc(O)c(O)c2)oc2cc(O)cc(O)c12
REMARK SMILES IDX 5 1 3 2 2 3 1 4 22 5 20 6 19 7 17 8 16 9 15 10 14 11 6 12
REMARK SMILES IDX 7 13 8 14 9 15 13 16 11 17 10 18 12 20 4 22 21 24 18 26
REMARK H PARENT 10 19 12 21 4 23 21 25 18 27
REMARK Flexibility Score: inf
ROOT
ATOM      1  C   UNL     1      -2.837  67.911  -7.471  1.00  0.00     0.180 A 
ATOM      2  C   UNL     1      -2.283  67.749  -8.752  1.00  0.00     0.208 A 
ATOM      3  C   UNL     1      -0.891  67.843  -8.908  1.00  0.00     0.238 A 
ATOM      4  O   UNL     1      -0.404  67.751 -10.066  1.00  0.00    -0.285 OA
ATOM      5  C   UNL     1      -0.069  68.081  -7.780  1.00  0.00     0.111 A 
ATOM      6  C   UNL     1       1.356  68.154  -7.816  1.00  0.00     0.134 A 
ATOM      7  C   UNL     1       2.058  68.524  -6.662  1.00  0.00     0.093 A 
ATOM      8  C   UNL     1       1.393  68.758  -5.459  1.00  0.00     0.123 A 
ATOM      9  C   UNL     1       0.005  68.630  -5.397  1.00  0.00     0.094 A 
ATOM     10  C   UNL     1      -0.726  68.299  -6.541  1.00  0.00     0.146 A 
ATOM     11  O   UNL     1      -2.046  68.198  -6.443  1.00  0.00    -0.452 OA
ENDROOT
BRANCH   1  12
ATOM     12  C   UNL     1      -4.293  67.801  -7.222  1.00  0.00     0.025 A 
ATOM     13  C   UNL     1      -4.797  67.053  -6.144  1.00  0.00     0.016 A 
ATOM     14  C   UNL     1      -6.173  66.983  -5.916  1.00  0.00     0.051 A 
ATOM     15  C   UNL     1      -7.065  67.667  -6.747  1.00  0.00     0.157 A 
ATOM     16  C   UNL     1      -5.190  68.504  -8.044  1.00  0.00     0.062 A 
ATOM     17  C   UNL     1      -6.572  68.435  -7.816  1.00  0.00     0.158 A 
BRANCH  15  18
ATOM     18  O   UNL     1      -8.434  67.577  -6.495  1.00  0.00    -0.504 OA
ATOM     19  H   UNL     1      -9.006  68.395  -6.332  1.00  0.00     0.293 HD
ENDBRANCH  15  18
BRANCH  17  20
ATOM     20  O   UNL     1      -7.454  69.125  -8.645  1.00  0.00    -0.504 OA
ATOM     21  H   UNL     1      -7.608  68.845  -9.606  1.00  0.00     0.293 HD
ENDBRANCH  17  20
ENDBRANCH   1  12
BRANCH   2  22
ATOM     22  O   UNL     1      -3.113  67.537  -9.855  1.00  0.00    -0.502 OA
ATOM     23  H   UNL     1      -3.494  66.626 -10.083  1.00  0.00     0.293 HD
ENDBRANCH   2  22
BRANCH   6  24
ATOM     24  O   UNL     1       2.125  67.850  -8.943  1.00  0.00    -0.507 OA
ATOM     25  H   UNL     1       2.830  68.454  -9.338  1.00  0.00     0.293 HD
ENDBRANCH   6  24
BRANCH   8  26
ATOM     26  O   UNL     1       2.125  69.108  -4.326  1.00  0.00    -0.508 OA
ATOM     27  H   UNL     1       1.701  69.123  -3.405  1.00  0.00     0.293 HD
ENDBRANCH   8  26
TORSDOF 6
ENDMDL
MODEL 3
REMARK VINA RESULT:    -1.850      4.611      7.953
REMARK INTER + INTRA:          -2.077
REMARK INTER:                  -2.548
REMARK INTRA:                   0.471
REMARK UNBOUND:                 0.151
REMARK SMILES O=c1c(O)c(-c2ccc(O)c(O)c2)oc2cc(O)cc(O)c12
REMARK SMILES IDX 5 1 3 2 2 3 1 4 22 5 20 6 19 7 17 8 16 9 15 10 14 11 6 12
REMARK SMILES IDX 7 13 8 14 9 15 13 16 11 17 10 18 12 20 4 22 21 24 18 26
REMARK H PARENT 10 19 12 21 4 23 21 25 18 27
REMARK Flexibility Score: inf
ROOT
ATOM      1  C   UNL     1       1.347  64.146  -7.412  1.00  0.00     0.180 A 
ATOM      2  C   UNL     1       1.586  64.723  -8.671  1.00  0.00     0.208 A 
ATOM      3  C   UNL     1       1.415  66.107  -8.830  1.00  0.00     0.238 A 
ATOM      4  O   UNL     1       1.578  66.610  -9.973  1.00  0.00    -0.285 OA
ATOM      5  C   UNL     1       1.023  66.900  -7.724  1.00  0.00     0.111 A 
ATOM      6  C   UNL     1       0.859  68.318  -7.762  1.00  0.00     0.134 A 
ATOM      7  C   UNL     1       0.342  68.982  -6.643  1.00  0.00     0.093 A 
ATOM      8  C   UNL     1       0.045  68.292  -5.469  1.00  0.00     0.123 A 
ATOM      9  C   UNL     1       0.258  66.915  -5.401  1.00  0.00     0.094 A 
ATOM     10  C   UNL     1       0.739  66.218  -6.513  1.00  0.00     0.146 A 
ATOM     11  O   UNL     1       0.917  64.906  -6.412  1.00  0.00    -0.452 OA
ENDROOT
BRANCH   1  12
ATOM     12  C   UNL     1       1.531  62.698  -7.160  1.00  0.00     0.025 A 
ATOM     13  C   UNL     1       1.921  61.821  -8.186  1.00  0.00     0.016 A 
ATOM     14  C   UNL     1       2.111  60.463  -7.920  1.00  0.00     0.051 A 
ATOM     15  C   UNL     1       1.928  59.963  -6.628  1.00  0.00     0.157 A 
ATOM     16  C   UNL     1       1.368  62.197  -5.858  1.00  0.00     0.062 A 
ATOM     17  C   UNL     1       1.558  60.834  -5.589  1.00  0.00     0.158 A 
BRANCH  15  18
ATOM     18  O   UNL     1       2.123  58.602  -6.392  1.00  0.00    -0.504 OA
ATOM     19  H   UNL     1       1.422  58.028  -5.942  1.00  0.00     0.293 HD
ENDBRANCH  15  18
BRANCH  17  20
ATOM     20  O   UNL     1       1.381  60.344  -4.296  1.00  0.00    -0.504 OA
ATOM     21  H   UNL     1       0.461  60.125  -3.933  1.00  0.00     0.293 HD
ENDBRANCH  17  20
ENDBRANCH   1  12
BRANCH   2  22
ATOM     22  O   UNL     1       1.951  63.919  -9.754  1.00  0.00    -0.502 OA
ATOM     23  H   UNL     1       1.802  64.200 -10.716  1.00  0.00     0.293 HD
ENDBRANCH   2  22
BRANCH   6  24
ATOM     24  O   UNL     1       1.212  69.116  -8.854  1.00  0.00    -0.507 OA
ATOM     25  H   UNL     1       0.775  69.072  -9.763  1.00  0.00     0.293 HD
ENDBRANCH   6  24
BRANCH   8  26
ATOM     26  O   UNL     1      -0.454  68.988  -4.370  1.00  0.00    -0.508 OA
ATOM     27  H   UNL     1      -0.717  69.965  -4.435  1.00  0.00     0.293 HD
ENDBRANCH   8  26
TORSDOF 6
ENDMDL
MODEL 4
REMARK VINA RESULT:    -0.840      4.028      7.615
REMARK INTER + INTRA:          -0.861
REMARK INTER:                  -0.598
REMARK INTRA:                  -0.263
REMARK UNBOUND:                 0.151
REMARK SMILES O=c1c(O)c(-c2ccc(O)c(O)c2)oc2cc(O)cc(O)c12
REMARK SMILES IDX 5 1 3 2 2 3 1 4 22 5 20 6 19 7 17 8 16 9 15 10 14 11 6 12
REMARK SMILES IDX 7 13 8 14 9 15 13 16 11 17 10 18 12 20 4 22 21 24 18 26
REMARK H PARENT 10 19 12 21 4 23 21 25 18 27
REMARK Flexibility Score: inf
ROOT
ATOM      1  C   UNL     1       0.413  64.999  -6.428  1.00  0.00     0.180 A 
ATOM      2  C   UNL     1       1.031  65.397  -7.626  1.00  0.00     0.208 A 
ATOM      3  C   UNL     1       0.549  66.532  -8.296  1.00  0.00     0.238 A 
ATOM      4  O   UNL     1       1.072  66.852  -9.397  1.00  0.00    -0.285 OA
ATOM      5  C   UNL     1      -0.534  67.264  -7.754  1.00  0.00     0.111 A 
ATOM      6  C   UNL     1      -1.077  68.453  -8.328  1.00  0.00     0.134 A 
ATOM      7  C   UNL     1      -2.233  69.021  -7.776  1.00  0.00     0.093 A 
ATOM      8  C   UNL     1      -2.824  68.483  -6.634  1.00  0.00     0.123 A 
ATOM      9  C   UNL     1      -2.266  67.356  -6.029  1.00  0.00     0.094 A 
ATOM     10  C   UNL     1      -1.136  66.745  -6.578  1.00  0.00     0.146 A 
ATOM     11  O   UNL     1      -0.642  65.669  -5.978  1.00  0.00    -0.452 OA
ENDROOT
BRANCH   1  12
ATOM     12  C   UNL     1       0.881  63.829  -5.650  1.00  0.00     0.025 A 
ATOM     13  C   UNL     1       1.595  63.986  -4.450  1.00  0.00     0.016 A 
ATOM     14  C   UNL     1       2.006  62.867  -3.722  1.00  0.00     0.051 A 
ATOM     15  C   UNL     1       1.700  61.579  -4.169  1.00  0.00     0.157 A 
ATOM     16  C   UNL     1       0.557  62.534  -6.087  1.00  0.00     0.062 A 
ATOM     17  C   UNL     1       0.968  61.409  -5.357  1.00  0.00     0.158 A 
BRANCH  15  18
ATOM     18  O   UNL     1       2.124  60.480  -3.422  1.00  0.00    -0.504 OA
ATOM     19  H   UNL     1       2.972  60.501  -2.869  1.00  0.00     0.293 HD
ENDBRANCH  15  18
BRANCH  17  20
ATOM     20  O   UNL     1       0.653  60.128  -5.807  1.00  0.00    -0.504 OA
ATOM     21  H   UNL     1       0.629  59.903  -6.794  1.00  0.00     0.293 HD
ENDBRANCH  17  20
ENDBRANCH   1  12
BRANCH   2  22
ATOM     22  O   UNL     1       2.085  64.647  -8.155  1.00  0.00    -0.502 OA
ATOM     23  H   UNL     1       1.942  63.920  -8.846  1.00  0.00     0.293 HD
ENDBRANCH   2  22
BRANCH   6  24
ATOM     24  O   UNL     1      -0.510  69.125  -9.415  1.00  0.00    -0.507 OA
ATOM     25  H   UNL     1       0.271  69.760  -9.354  1.00  0.00     0.293 HD
ENDBRANCH   6  24
BRANCH   8  26
ATOM     26  O   UNL     1      -3.964  69.083  -6.103  1.00  0.00    -0.508 OA
ATOM     27  H   UNL     1      -4.017  69.348  -5.126  1.00  0.00     0.293 HD
ENDBRANCH   8  26
TORSDOF 6
ENDMDL
MODEL 5
REMARK VINA RESULT:    -0.201      2.147      3.339
REMARK INTER + INTRA:          -0.091
REMARK INTER:                   0.088
REMARK INTRA:                  -0.179
REMARK UNBOUND:                 0.151
REMARK SMILES O=c1c(O)c(-c2ccc(O)c(O)c2)oc2cc(O)cc(O)c12
REMARK SMILES IDX 5 1 3 2 2 3 1 4 22 5 20 6 19 7 17 8 16 9 15 10 14 11 6 12
REMARK SMILES IDX 7 13 8 14 9 15 13 16 11 17 10 18 12 20 4 22 21 24 18 26
REMARK H PARENT 10 19 12 21 4 23 21 25 18 27
REMARK Flexibility Score: inf
ROOT
ATOM      1  C   UNL     1      -2.216  67.461  -6.718  1.00  0.00     0.180 A 
ATOM      2  C   UNL     1      -1.652  68.058  -7.859  1.00  0.00     0.208 A 
ATOM      3  C   UNL     1      -0.413  67.594  -8.329  1.00  0.00     0.238 A 
ATOM      4  O   UNL     1       0.112  68.168  -9.319  1.00  0.00    -0.285 OA
ATOM      5  C   UNL     1       0.239  66.529  -7.662  1.00  0.00     0.111 A 
ATOM      6  C   UNL     1       1.478  65.953  -8.075  1.00  0.00     0.134 A 
ATOM      7  C   UNL     1       2.096  64.991  -7.266  1.00  0.00     0.093 A 
ATOM      8  C   UNL     1       1.490  64.538  -6.095  1.00  0.00     0.123 A 
ATOM      9  C   UNL     1       0.249  65.052  -5.713  1.00  0.00     0.094 A 
ATOM     10  C   UNL     1      -0.375  66.038  -6.481  1.00  0.00     0.146 A 
ATOM     11  O   UNL     1      -1.548  66.509  -6.077  1.00  0.00    -0.452 OA
ENDROOT
BRANCH   1  12
ATOM     12  C   UNL     1      -3.530  67.879  -6.178  1.00  0.00     0.025 A 
ATOM     13  C   UNL     1      -3.636  68.536  -4.941  1.00  0.00     0.016 A 
ATOM     14  C   UNL     1      -4.885  68.941  -4.462  1.00  0.00     0.051 A 
ATOM     15  C   UNL     1      -6.040  68.710  -5.213  1.00  0.00     0.157 A 
ATOM     16  C   UNL     1      -4.690  67.666  -6.940  1.00  0.00     0.062 A 
ATOM     17  C   UNL     1      -5.944  68.072  -6.462  1.00  0.00     0.158 A 
BRANCH  15  18
ATOM     18  O   UNL     1      -7.273  69.125  -4.709  1.00  0.00    -0.504 OA
ATOM     19  H   UNL     1      -7.398  70.027  -4.267  1.00  0.00     0.293 HD
ENDBRANCH  15  18
BRANCH  17  20
ATOM     20  O   UNL     1      -7.091  67.845  -7.220  1.00  0.00    -0.504 OA
ATOM     21  H   UNL     1      -7.105  67.162  -7.969  1.00  0.00     0.293 HD
ENDBRANCH  17  20
ENDBRANCH   1  12
BRANCH   2  22
ATOM     22  O   UNL     1      -2.302  69.123  -8.489  1.00  0.00    -0.502 OA
ATOM     23  H   UNL     1      -2.164  70.087  -8.210  1.00  0.00     0.293 HD
ENDBRANCH   2  22
BRANCH   6  24
ATOM     24  O   UNL     1       2.124  66.266  -9.274  1.00  0.00    -0.507 OA
ATOM     25  H   UNL     1       1.665  66.623 -10.099  1.00  0.00     0.293 HD
ENDBRANCH   6  24
BRANCH   8  26
ATOM     26  O   UNL     1       2.125  63.569  -5.322  1.00  0.00    -0.508 OA
ATOM     27  H   UNL     1       3.031  63.195  -5.579  1.00  0.00     0.293 HD
ENDBRANCH   8  26
TORSDOF 6
ENDMDL
