MODEL 1
REMARK VINA RESULT:    -4.845      0.000      0.000
REMARK INTER + INTRA:          -6.496
REMARK INTER:                  -6.545
REMARK INTRA:                   0.048
REMARK UNBOUND:                 0.048
REMARK SMILES O=c1c(-c2ccc(O)cc2)coc2c([C@@H]3O[C@@H](CO)[C@@H](O)[C@@H](O)[C@H]3O)c(O)ccc12
REMARK SMILES IDX 3 1 11 2 12 3 13 4 30 5 2 6 1 7 29 8 28 9 26 10 14 11 4 12
REMARK SMILES IDX 5 13 6 14 7 15 10 16 9 17 8 18 15 20 24 21 16 22 22 23 17 24
REMARK SMILES IDX 20 25 25 26 23 28 18 30 19 31 21 33 27 35
REMARK H PARENT 8 19 25 27 23 29 19 32 21 34 27 36
REMARK Flexibility Score: inf
ROOT
ATOM      1  C   UNL     1       4.879 -20.390  15.029  1.00  0.00     0.065 A 
ATOM      2  C   UNL     1       4.503 -19.044  14.926  1.00  0.00     0.208 A 
ATOM      3  O   UNL     1       3.223 -18.695  14.906  1.00  0.00    -0.463 OA
ATOM      4  C   UNL     1       2.224 -19.571  14.982  1.00  0.00     0.147 A 
ATOM      5  C   UNL     1       2.515 -20.950  15.104  1.00  0.00     0.066 A 
ATOM      6  C   UNL     1       3.863 -21.356  15.132  1.00  0.00     0.200 A 
ATOM      7  O   UNL     1       4.158 -22.577  15.262  1.00  0.00    -0.288 OA
ATOM      8  C   UNL     1       1.468 -21.874  15.188  1.00  0.00     0.020 A 
ATOM      9  C   UNL     1       0.148 -21.440  15.142  1.00  0.00     0.047 A 
ATOM     10  C   UNL     1      -0.162 -20.080  15.011  1.00  0.00     0.125 A 
ATOM     11  C   UNL     1       0.881 -19.113  14.932  1.00  0.00     0.069 A 
ENDROOT
BRANCH   1  12
ATOM     12  C   UNL     1       6.317 -20.761  15.015  1.00  0.00    -0.011 A 
ATOM     13  C   UNL     1       7.130 -20.513  16.135  1.00  0.00     0.013 A 
ATOM     14  C   UNL     1       8.481 -20.872  16.123  1.00  0.00     0.047 A 
ATOM     15  C   UNL     1       9.037 -21.485  14.996  1.00  0.00     0.115 A 
ATOM     16  C   UNL     1       6.879 -21.388  13.888  1.00  0.00     0.013 A 
ATOM     17  C   UNL     1       8.232 -21.743  13.878  1.00  0.00     0.047 A 
BRANCH  15  18
ATOM     18  O   UNL     1      10.386 -21.833  14.997  1.00  0.00    -0.508 OA
ATOM     19  H   UNL     1      11.034 -21.446  15.673  1.00  0.00     0.293 HD
ENDBRANCH  15  18
ENDBRANCH   1  12
BRANCH  11  20
ATOM     20  C   UNL     1       0.674 -17.593  14.755  1.00  0.00     0.188 C 
ATOM     21  C   UNL     1      -0.751 -16.992  14.708  1.00  0.00     0.179 C 
ATOM     22  O   UNL     1       1.472 -16.843  15.653  1.00  0.00    -0.362 OA
ATOM     23  C   UNL     1      -1.284 -16.644  16.133  1.00  0.00     0.177 C 
ATOM     24  C   UNL     1       1.109 -17.020  17.019  1.00  0.00     0.176 C 
ATOM     25  C   UNL     1      -0.419 -17.258  17.255  1.00  0.00     0.177 C 
BRANCH  21  26
ATOM     26  O   UNL     1      -0.707 -15.826  13.918  1.00  0.00    -0.387 OA
ATOM     27  H   UNL     1      -0.258 -15.122  14.457  1.00  0.00     0.211 HD
ENDBRANCH  21  26
BRANCH  23  28
ATOM     28  O   UNL     1      -1.349 -15.250  16.325  1.00  0.00    -0.387 OA
ATOM     29  H   UNL     1      -1.114 -15.076  17.274  1.00  0.00     0.211 HD
ENDBRANCH  23  28
BRANCH  24  30
ATOM     30  C   UNL     1       1.640 -15.808  17.802  1.00  0.00     0.191 C 
BRANCH  30  31
ATOM     31  O   UNL     1       1.978 -16.198  19.105  1.00  0.00    -0.394 OA
ATOM     32  H   UNL     1       1.135 -16.514  19.525  1.00  0.00     0.210 HD
ENDBRANCH  30  31
ENDBRANCH  24  30
BRANCH  25  33
ATOM     33  O   UNL     1      -0.829 -16.770  18.510  1.00  0.00    -0.388 OA
ATOM     34  H   UNL     1      -1.365 -17.488  18.940  1.00  0.00     0.211 HD
ENDBRANCH  25  33
ENDBRANCH  11  20
BRANCH  10  35
ATOM     35  O   UNL     1      -1.507 -19.720  14.973  1.00  0.00    -0.507 OA
ATOM     36  H   UNL     1      -2.239 -20.385  14.750  1.00  0.00     0.293 HD
ENDBRANCH  10  35
TORSDOF 9
ENDMDL
MODEL 2
REMARK VINA RESULT:    -4.572     14.541     18.048
REMARK INTER + INTRA:          -6.127
REMARK INTER:                  -6.080
REMARK INTRA:                  -0.047
REMARK UNBOUND:                 0.048
REMARK SMILES O=c1c(-c2ccc(O)cc2)coc2c([C@@H]3O[C@@H](CO)[C@@H](O)[C@@H](O)[C@H]3O)c(O)ccc12
REMARK SMILES IDX 3 1 11 2 12 3 13 4 30 5 2 6 1 7 29 8 28 9 26 10 14 11 4 12
REMARK SMILES IDX 5 13 6 14 7 15 10 16 9 17 8 18 15 20 24 21 16 22 22 23 17 24
REMARK SMILES IDX 20 25 25 26 23 28 18 30 19 31 21 33 27 35
REMARK H PARENT 8 19 25 27 23 29 19 32 21 34 27 36
REMARK Flexibility Score: inf
ROOT
ATOM      1  C   UNL     1      10.686  -5.268  15.335  1.00  0.00     0.065 A 
ATOM      2  C   UNL     1      11.089  -6.583  15.060  1.00  0.00     0.208 A 
ATOM      3  O   UNL     1      12.370  -6.926  15.108  1.00  0.00    -0.463 OA
ATOM      4  C   UNL     1      13.346  -6.074  15.416  1.00  0.00     0.147 A 
ATOM      5  C   UNL     1      13.025  -4.732  15.723  1.00  0.00     0.066 A 
ATOM      6  C   UNL     1      11.676  -4.333  15.684  1.00  0.00     0.200 A 
ATOM      7  O   UNL     1      11.353  -3.146  15.973  1.00  0.00    -0.288 OA
ATOM      8  C   UNL     1      14.047  -3.833  16.050  1.00  0.00     0.020 A 
ATOM      9  C   UNL     1      15.371  -4.257  16.064  1.00  0.00     0.047 A 
ATOM     10  C   UNL     1      15.710  -5.580  15.753  1.00  0.00     0.125 A 
ATOM     11  C   UNL     1      14.693  -6.521  15.424  1.00  0.00     0.069 A 
ENDROOT
BRANCH   1  12
ATOM     12  C   UNL     1       9.252  -4.897  15.240  1.00  0.00    -0.011 A 
ATOM     13  C   UNL     1       8.412  -5.001  16.363  1.00  0.00     0.013 A 
ATOM     14  C   UNL     1       7.064  -4.642  16.275  1.00  0.00     0.047 A 
ATOM     15  C   UNL     1       6.538  -4.173  15.067  1.00  0.00     0.115 A 
ATOM     16  C   UNL     1       8.720  -4.415  14.032  1.00  0.00     0.013 A 
ATOM     17  C   UNL     1       7.369  -4.059  13.945  1.00  0.00     0.047 A 
BRANCH  15  18
ATOM     18  O   UNL     1       5.191  -3.823  14.993  1.00  0.00    -0.508 OA
ATOM     19  H   UNL     1       4.688  -3.473  15.800  1.00  0.00     0.293 HD
ENDBRANCH  15  18
ENDBRANCH   1  12
BRANCH  11  20
ATOM     20  C   UNL     1      14.936  -7.995  15.033  1.00  0.00     0.188 C 
ATOM     21  C   UNL     1      16.374  -8.564  14.959  1.00  0.00     0.179 C 
ATOM     22  O   UNL     1      14.117  -8.881  15.774  1.00  0.00    -0.362 OA
ATOM     23  C   UNL     1      16.854  -9.113  16.339  1.00  0.00     0.177 C 
ATOM     24  C   UNL     1      14.420  -8.904  17.166  1.00  0.00     0.176 C 
ATOM     25  C   UNL     1      15.932  -8.685  17.501  1.00  0.00     0.177 C 
BRANCH  21  26
ATOM     26  O   UNL     1      16.384  -9.600  14.004  1.00  0.00    -0.387 OA
ATOM     27  H   UNL     1      17.336  -9.824  13.825  1.00  0.00     0.211 HD
ENDBRANCH  21  26
BRANCH  23  28
ATOM     28  O   UNL     1      16.938 -10.519  16.325  1.00  0.00    -0.387 OA
ATOM     29  H   UNL     1      16.597 -10.822  15.443  1.00  0.00     0.211 HD
ENDBRANCH  23  28
BRANCH  24  30
ATOM     30  C   UNL     1      13.881 -10.226  17.737  1.00  0.00     0.191 C 
BRANCH  30  31
ATOM     31  O   UNL     1      13.340 -10.006  19.011  1.00  0.00    -0.394 OA
ATOM     32  H   UNL     1      12.876 -10.847  19.263  1.00  0.00     0.210 HD
ENDBRANCH  30  31
ENDBRANCH  24  30
BRANCH  25  33
ATOM     33  O   UNL     1      16.299  -9.348  18.686  1.00  0.00    -0.388 OA
ATOM     34  H   UNL     1      15.750  -8.961  19.418  1.00  0.00     0.211 HD
ENDBRANCH  25  33
ENDBRANCH  11  20
BRANCH  10  35
ATOM     35  O   UNL     1      17.058  -5.932  15.789  1.00  0.00    -0.507 OA
ATOM     36  H   UNL     1      17.557  -6.243  14.964  1.00  0.00     0.293 HD
ENDBRANCH  10  35
TORSDOF 9
ENDMDL
MODEL 3
REMARK VINA RESULT:    -3.373      1.719      3.272
REMARK INTER + INTRA:          -4.508
REMARK INTER:                  -5.007
REMARK INTRA:                   0.500
REMARK UNBOUND:                 0.048
REMARK SMILES O=c1c(-c2ccc(O)cc2)coc2c([C@@H]3O[C@@H](CO)[C@@H](O)[C@@H](O)[C@H]3O)c(O)ccc12
REMARK SMILES IDX 3 1 11 2 12 3 13 4 30 5 2 6 1 7 29 8 28 9 26 10 14 11 4 12
REMARK SMILES IDX 5 13 6 14 7 15 10 16 9 17 8 18 15 20 24 21 16 22 22 23 17 24
REMARK SMILES IDX 20 25 25 26 23 28 18 30 19 31 21 33 27 35
REMARK H PARENT 8 19 25 27 23 29 19 32 21 34 27 36
REMARK Flexibility Score: inf
ROOT
ATOM      1  C   UNL     1       4.058 -19.770  14.600  1.00  0.00     0.065 A 
ATOM      2  C   UNL     1       2.785 -20.314  14.821  1.00  0.00     0.208 A 
ATOM      3  O   UNL     1       1.700 -19.554  14.750  1.00  0.00    -0.463 OA
ATOM      4  C   UNL     1       1.733 -18.253  14.469  1.00  0.00     0.147 A 
ATOM      5  C   UNL     1       2.976 -17.628  14.217  1.00  0.00     0.066 A 
ATOM      6  C   UNL     1       4.148 -18.404  14.280  1.00  0.00     0.200 A 
ATOM      7  O   UNL     1       5.273 -17.881  14.039  1.00  0.00    -0.288 OA
ATOM      8  C   UNL     1       3.015 -16.261  13.917  1.00  0.00     0.020 A 
ATOM      9  C   UNL     1       1.840 -15.520  13.878  1.00  0.00     0.047 A 
ATOM     10  C   UNL     1       0.600 -16.119  14.134  1.00  0.00     0.125 A 
ATOM     11  C   UNL     1       0.525 -17.510  14.434  1.00  0.00     0.069 A 
ENDROOT
BRANCH   1  12
ATOM     12  C   UNL     1       5.262 -20.631  14.719  1.00  0.00    -0.011 A 
ATOM     13  C   UNL     1       6.313 -20.273  15.582  1.00  0.00     0.013 A 
ATOM     14  C   UNL     1       7.441 -21.090  15.700  1.00  0.00     0.047 A 
ATOM     15  C   UNL     1       7.535 -22.274  14.962  1.00  0.00     0.115 A 
ATOM     16  C   UNL     1       5.356 -21.828  13.988  1.00  0.00     0.013 A 
ATOM     17  C   UNL     1       6.488 -22.642  14.105  1.00  0.00     0.047 A 
BRANCH  15  18
ATOM     18  O   UNL     1       8.667 -23.076  15.086  1.00  0.00    -0.508 OA
ATOM     19  H   UNL     1       8.958 -23.449  15.983  1.00  0.00     0.293 HD
ENDBRANCH  15  18
ENDBRANCH   1  12
BRANCH  11  20
ATOM     20  C   UNL     1      -0.772 -18.280  14.766  1.00  0.00     0.188 C 
ATOM     21  C   UNL     1      -0.753 -19.466  15.760  1.00  0.00     0.179 C 
ATOM     22  O   UNL     1      -1.837 -17.407  15.097  1.00  0.00    -0.362 OA
ATOM     23  C   UNL     1      -0.954 -18.995  17.234  1.00  0.00     0.177 C 
ATOM     24  C   UNL     1      -1.622 -16.683  16.305  1.00  0.00     0.176 C 
ATOM     25  C   UNL     1      -0.812 -17.466  17.391  1.00  0.00     0.177 C 
BRANCH  21  26
ATOM     26  O   UNL     1      -1.784 -20.356  15.398  1.00  0.00    -0.387 OA
ATOM     27  H   UNL     1      -1.357 -21.132  14.947  1.00  0.00     0.211 HD
ENDBRANCH  21  26
BRANCH  23  28
ATOM     28  O   UNL     1      -2.217 -19.383  17.723  1.00  0.00    -0.387 OA
ATOM     29  H   UNL     1      -2.793 -18.574  17.715  1.00  0.00     0.211 HD
ENDBRANCH  23  28
BRANCH  24  30
ATOM     30  C   UNL     1      -2.995 -16.219  16.820  1.00  0.00     0.191 C 
BRANCH  30  31
ATOM     31  O   UNL     1      -2.854 -15.020  17.531  1.00  0.00    -0.394 OA
ATOM     32  H   UNL     1      -1.960 -15.059  17.962  1.00  0.00     0.210 HD
ENDBRANCH  30  31
ENDBRANCH  24  30
BRANCH  25  33
ATOM     33  O   UNL     1      -1.180 -17.072  18.691  1.00  0.00    -0.388 OA
ATOM     34  H   UNL     1      -0.811 -17.751  19.316  1.00  0.00     0.211 HD
ENDBRANCH  25  33
ENDBRANCH  11  20
BRANCH  10  35
ATOM     35  O   UNL     1      -0.536 -15.314  14.076  1.00  0.00    -0.507 OA
ATOM     36  H   UNL     1      -0.518 -14.334  14.334  1.00  0.00     0.293 HD
ENDBRANCH  10  35
TORSDOF 9
ENDMDL
MODEL 4
REMARK VINA RESULT:    -2.241     13.107     14.897
REMARK INTER + INTRA:          -2.979
REMARK INTER:                  -3.494
REMARK INTRA:                   0.515
REMARK UNBOUND:                 0.048
REMARK SMILES O=c1c(-c2ccc(O)cc2)coc2c([C@@H]3O[C@@H](CO)[C@@H](O)[C@@H](O)[C@H]3O)c(O)ccc12
REMARK SMILES IDX 3 1 11 2 12 3 13 4 30 5 2 6 1 7 29 8 28 9 26 10 14 11 4 12
REMARK SMILES IDX 5 13 6 14 7 15 10 16 9 17 8 18 15 20 24 21 16 22 22 23 17 24
REMARK SMILES IDX 20 25 25 26 23 28 18 30 19 31 21 33 27 35
REMARK H PARENT 8 19 25 27 23 29 19 32 21 34 27 36
REMARK Flexibility Score: inf
ROOT
ATOM      1  C   UNL     1      12.466  -8.475  15.228  1.00  0.00     0.065 A 
ATOM      2  C   UNL     1      11.119  -8.650  14.881  1.00  0.00     0.208 A 
ATOM      3  O   UNL     1      10.358  -7.611  14.560  1.00  0.00    -0.463 OA
ATOM      4  C   UNL     1      10.803  -6.356  14.539  1.00  0.00     0.147 A 
ATOM      5  C   UNL     1      12.155  -6.092  14.860  1.00  0.00     0.066 A 
ATOM      6  C   UNL     1      12.991  -7.171  15.203  1.00  0.00     0.200 A 
ATOM      7  O   UNL     1      14.209  -6.972  15.474  1.00  0.00    -0.288 OA
ATOM      8  C   UNL     1      12.627  -4.775  14.836  1.00  0.00     0.020 A 
ATOM      9  C   UNL     1      11.770  -3.731  14.508  1.00  0.00     0.047 A 
ATOM     10  C   UNL     1      10.426  -3.971  14.196  1.00  0.00     0.125 A 
ATOM     11  C   UNL     1       9.916  -5.301  14.204  1.00  0.00     0.069 A 
ENDROOT
BRANCH   1  12
ATOM     12  C   UNL     1      13.289  -9.647  15.618  1.00  0.00    -0.011 A 
ATOM     13  C   UNL     1      13.152 -10.223  16.894  1.00  0.00     0.013 A 
ATOM     14  C   UNL     1      13.921 -11.332  17.256  1.00  0.00     0.047 A 
ATOM     15  C   UNL     1      14.833 -11.884  16.351  1.00  0.00     0.115 A 
ATOM     16  C   UNL     1      14.199 -10.212  14.708  1.00  0.00     0.013 A 
ATOM     17  C   UNL     1      14.970 -11.321  15.074  1.00  0.00     0.047 A 
BRANCH  15  18
ATOM     18  O   UNL     1      15.595 -12.987  16.727  1.00  0.00    -0.508 OA
ATOM     19  H   UNL     1      15.821 -13.726  16.071  1.00  0.00     0.293 HD
ENDBRANCH  15  18
ENDBRANCH   1  12
BRANCH  11  20
ATOM     20  C   UNL     1       8.451  -5.694  13.911  1.00  0.00     0.188 C 
ATOM     21  C   UNL     1       7.766  -6.832  14.706  1.00  0.00     0.179 C 
ATOM     22  O   UNL     1       7.597  -4.565  13.875  1.00  0.00    -0.362 OA
ATOM     23  C   UNL     1       7.099  -6.308  16.016  1.00  0.00     0.177 C 
ATOM     24  C   UNL     1       7.467  -3.912  15.134  1.00  0.00     0.176 C 
ATOM     25  C   UNL     1       7.537  -4.870  16.369  1.00  0.00     0.177 C 
BRANCH  21  26
ATOM     26  O   UNL     1       6.790  -7.419  13.876  1.00  0.00    -0.387 OA
ATOM     27  H   UNL     1       6.065  -6.749  13.756  1.00  0.00     0.211 HD
ENDBRANCH  21  26
BRANCH  23  28
ATOM     28  O   UNL     1       5.694  -6.340  15.919  1.00  0.00    -0.387 OA
ATOM     29  H   UNL     1       5.345  -5.631  16.520  1.00  0.00     0.211 HD
ENDBRANCH  23  28
BRANCH  24  30
ATOM     30  C   UNL     1       6.165  -3.094  15.102  1.00  0.00     0.191 C 
BRANCH  30  31
ATOM     31  O   UNL     1       5.063  -3.954  15.195  1.00  0.00    -0.394 OA
ATOM     32  H   UNL     1       4.901  -4.295  14.277  1.00  0.00     0.210 HD
ENDBRANCH  30  31
ENDBRANCH  24  30
BRANCH  25  33
ATOM     33  O   UNL     1       6.777  -4.378  17.446  1.00  0.00    -0.388 OA
ATOM     34  H   UNL     1       7.250  -4.640  18.280  1.00  0.00     0.211 HD
ENDBRANCH  25  33
ENDBRANCH  11  20
BRANCH  10  35
ATOM     35  O   UNL     1       9.627  -2.876  13.876  1.00  0.00    -0.507 OA
ATOM     36  H   UNL     1       9.742  -1.973  14.323  1.00  0.00     0.293 HD
ENDBRANCH  10  35
TORSDOF 9
ENDMDL
