MODEL 1
REMARK VINA RESULT:    -4.633      0.000      0.000
REMARK INTER + INTRA:          -7.800
REMARK INTER:                  -7.071
REMARK INTRA:                  -0.729
REMARK UNBOUND:                -0.729
REMARK SMILES CCCCCCCCCCC(=O)[O-]
REMARK SMILES IDX 7 1 8 2 9 3 10 4 11 5 12 6 13 7 6 8 5 9 4 10 3 11 2 12 1 13
REMARK H PARENT
REMARK Flexibility Score: inf
ROOT
ATOM      1  C   UNL     1      16.488 -12.244  22.413  1.00  0.00     0.000 C 
ENDROOT
BRANCH   1   2
ATOM      2  C   UNL     1      17.486 -11.495  21.511  1.00  0.00     0.000 C 
BRANCH   2   3
ATOM      3  C   UNL     1      18.640 -12.392  21.037  1.00  0.00     0.006 C 
BRANCH   3   4
ATOM      4  C   UNL     1      19.335 -13.125  22.193  1.00  0.00     0.053 C 
BRANCH   4   5
ATOM      5  C   UNL     1      20.819 -13.092  22.013  1.00  0.00     0.041 C 
ATOM      6  O   UNL     1      21.579 -13.109  23.017  1.00  0.00    -0.550 OA
ATOM      7  O   UNL     1      21.364 -12.991  20.739  1.00  0.00    -0.550 OA
ENDBRANCH   4   5
ENDBRANCH   3   4
ENDBRANCH   2   3
ENDBRANCH   1   2
BRANCH   1   8
ATOM      8  C   UNL     1      15.131 -12.471  21.730  1.00  0.00     0.000 C 
BRANCH   8   9
ATOM      9  C   UNL     1      13.939 -12.117  22.637  1.00  0.00    -0.000 C 
BRANCH   9  10
ATOM     10  C   UNL     1      13.169 -10.879  22.130  1.00  0.00    -0.000 C 
BRANCH  10  11
ATOM     11  C   UNL     1      13.687  -9.552  22.711  1.00  0.00    -0.000 C 
BRANCH  11  12
ATOM     12  C   UNL     1      14.302  -8.634  21.646  1.00  0.00    -0.003 C 
ATOM     13  C   UNL     1      15.740  -8.267  22.001  1.00  0.00     0.004 C 
ENDBRANCH  11  12
ENDBRANCH  10  11
ENDBRANCH   9  10
ENDBRANCH   8   9
ENDBRANCH   1   8
TORSDOF 9
ENDMDL
MODEL 2
REMARK VINA RESULT:    -4.545      3.521      6.042
REMARK INTER + INTRA:          -7.665
REMARK INTER:                  -7.168
REMARK INTRA:                  -0.497
REMARK UNBOUND:                -0.729
REMARK SMILES CCCCCCCCCCC(=O)[O-]
REMARK SMILES IDX 7 1 8 2 9 3 10 4 11 5 12 6 13 7 6 8 5 9 4 10 3 11 2 12 1 13
REMARK H PARENT
REMARK Flexibility Score: inf
ROOT
ATOM      1  C   UNL     1      14.843 -11.357  23.620  1.00  0.00     0.000 C 
ENDROOT
BRANCH   1   2
ATOM      2  C   UNL     1      13.560 -11.741  22.862  1.00  0.00     0.000 C 
BRANCH   2   3
ATOM      3  C   UNL     1      13.184 -10.715  21.781  1.00  0.00     0.006 C 
BRANCH   3   4
ATOM      4  C   UNL     1      14.411 -10.046  21.146  1.00  0.00     0.053 C 
BRANCH   4   5
ATOM      5  C   UNL     1      14.503  -8.615  21.570  1.00  0.00     0.041 C 
ATOM      6  O   UNL     1      15.557  -8.179  22.103  1.00  0.00    -0.550 OA
ATOM      7  O   UNL     1      13.407  -7.774  21.423  1.00  0.00    -0.550 OA
ENDBRANCH   4   5
ENDBRANCH   3   4
ENDBRANCH   2   3
ENDBRANCH   1   2
BRANCH   1   8
ATOM      8  C   UNL     1      15.850 -12.515  23.703  1.00  0.00     0.000 C 
BRANCH   8   9
ATOM      9  C   UNL     1      16.288 -13.025  22.318  1.00  0.00    -0.000 C 
BRANCH   9  10
ATOM     10  C   UNL     1      17.491 -12.234  21.760  1.00  0.00    -0.000 C 
BRANCH  10  11
ATOM     11  C   UNL     1      18.835 -12.965  21.922  1.00  0.00    -0.000 C 
BRANCH  11  12
ATOM     12  C   UNL     1      19.778 -12.752  20.731  1.00  0.00    -0.003 C 
ATOM     13  C   UNL     1      21.225 -13.050  21.114  1.00  0.00     0.004 C 
ENDBRANCH  11  12
ENDBRANCH  10  11
ENDBRANCH   9  10
ENDBRANCH   8   9
ENDBRANCH   1   8
TORSDOF 9
ENDMDL
MODEL 3
REMARK VINA RESULT:    -4.370      3.078      5.368
REMARK INTER + INTRA:          -7.398
REMARK INTER:                  -6.655
REMARK INTRA:                  -0.743
REMARK UNBOUND:                -0.729
REMARK SMILES CCCCCCCCCCC(=O)[O-]
REMARK SMILES IDX 7 1 8 2 9 3 10 4 11 5 12 6 13 7 6 8 5 9 4 10 3 11 2 12 1 13
REMARK H PARENT
REMARK Flexibility Score: inf
ROOT
ATOM      1  C   UNL     1      13.318 -11.190  22.194  1.00  0.00     0.000 C 
ENDROOT
BRANCH   1   2
ATOM      2  C   UNL     1      13.594 -10.757  20.743  1.00  0.00     0.000 C 
BRANCH   2   3
ATOM      3  C   UNL     1      13.625  -9.229  20.580  1.00  0.00     0.006 C 
BRANCH   3   4
ATOM      4  C   UNL     1      13.938  -8.499  21.893  1.00  0.00     0.053 C 
BRANCH   4   5
ATOM      5  C   UNL     1      15.393  -8.160  21.967  1.00  0.00     0.041 C 
ATOM      6  O   UNL     1      16.234  -9.042  22.280  1.00  0.00    -0.550 OA
ATOM      7  O   UNL     1      15.816  -6.856  21.739  1.00  0.00    -0.550 OA
ENDBRANCH   4   5
ENDBRANCH   3   4
ENDBRANCH   2   3
ENDBRANCH   1   2
BRANCH   1   8
ATOM      8  C   UNL     1      14.040 -12.494  22.569  1.00  0.00     0.000 C 
BRANCH   8   9
ATOM      9  C   UNL     1      14.863 -12.370  23.863  1.00  0.00    -0.000 C 
BRANCH   9  10
ATOM     10  C   UNL     1      16.380 -12.494  23.603  1.00  0.00    -0.000 C 
BRANCH  10  11
ATOM     11  C   UNL     1      16.728 -12.833  22.144  1.00  0.00    -0.000 C 
BRANCH  11  12
ATOM     12  C   UNL     1      17.747 -11.863  21.532  1.00  0.00    -0.003 C 
ATOM     13  C   UNL     1      19.011 -12.598  21.093  1.00  0.00     0.004 C 
ENDBRANCH  11  12
ENDBRANCH  10  11
ENDBRANCH   9  10
ENDBRANCH   8   9
ENDBRANCH   1   8
TORSDOF 9
ENDMDL
MODEL 4
REMARK VINA RESULT:    -4.336      1.501      2.399
REMARK INTER + INTRA:          -7.346
REMARK INTER:                  -6.576
REMARK INTRA:                  -0.770
REMARK UNBOUND:                -0.729
REMARK SMILES CCCCCCCCCCC(=O)[O-]
REMARK SMILES IDX 7 1 8 2 9 3 10 4 11 5 12 6 13 7 6 8 5 9 4 10 3 11 2 12 1 13
REMARK H PARENT
REMARK Flexibility Score: inf
ROOT
ATOM      1  C   UNL     1      14.142 -12.549  22.391  1.00  0.00     0.000 C 
ENDROOT
BRANCH   1   2
ATOM      2  C   UNL     1      15.004 -12.601  23.664  1.00  0.00     0.000 C 
BRANCH   2   3
ATOM      3  C   UNL     1      16.504 -12.730  23.356  1.00  0.00     0.006 C 
BRANCH   3   4
ATOM      4  C   UNL     1      16.847 -12.353  21.908  1.00  0.00     0.053 C 
BRANCH   4   5
ATOM      5  C   UNL     1      18.306 -12.553  21.648  1.00  0.00     0.041 C 
ATOM      6  O   UNL     1      19.038 -13.084  22.523  1.00  0.00    -0.550 OA
ATOM      7  O   UNL     1      18.868 -12.107  20.458  1.00  0.00    -0.550 OA
ENDBRANCH   4   5
ENDBRANCH   3   4
ENDBRANCH   2   3
ENDBRANCH   1   2
BRANCH   1   8
ATOM      8  C   UNL     1      13.476 -11.180  22.183  1.00  0.00     0.000 C 
BRANCH   8   9
ATOM      9  C   UNL     1      13.378 -10.782  20.699  1.00  0.00    -0.000 C 
BRANCH   9  10
ATOM     10  C   UNL     1      13.461  -9.254  20.499  1.00  0.00    -0.000 C 
BRANCH  10  11
ATOM     11  C   UNL     1      13.717  -8.476  21.801  1.00  0.00    -0.000 C 
BRANCH  11  12
ATOM     12  C   UNL     1      15.109  -7.832  21.848  1.00  0.00    -0.003 C 
ATOM     13  C   UNL     1      16.179  -8.860  22.204  1.00  0.00     0.004 C 
ENDBRANCH  11  12
ENDBRANCH  10  11
ENDBRANCH   9  10
ENDBRANCH   8   9
ENDBRANCH   1   8
TORSDOF 9
ENDMDL
MODEL 5
REMARK VINA RESULT:    -3.887     15.590     16.738
REMARK INTER + INTRA:          -6.661
REMARK INTER:                  -5.399
REMARK INTRA:                  -1.262
REMARK UNBOUND:                -0.729
REMARK SMILES CCCCCCCCCCC(=O)[O-]
REMARK SMILES IDX 7 1 8 2 9 3 10 4 11 5 12 6 13 7 6 8 5 9 4 10 3 11 2 12 1 13
REMARK H PARENT
REMARK Flexibility Score: inf
ROOT
ATOM      1  C   UNL     1      10.771  -6.473  34.868  1.00  0.00     0.000 C 
ENDROOT
BRANCH   1   2
ATOM      2  C   UNL     1      10.907  -6.326  36.394  1.00  0.00     0.000 C 
BRANCH   2   3
ATOM      3  C   UNL     1      11.464  -4.954  36.806  1.00  0.00     0.006 C 
BRANCH   3   4
ATOM      4  C   UNL     1      12.047  -4.170  35.622  1.00  0.00     0.053 C 
BRANCH   4   5
ATOM      5  C   UNL     1      13.163  -3.286  36.081  1.00  0.00     0.041 C 
ATOM      6  O   UNL     1      14.272  -3.783  36.407  1.00  0.00    -0.550 OA
ATOM      7  O   UNL     1      12.961  -1.916  36.198  1.00  0.00    -0.550 OA
ENDBRANCH   4   5
ENDBRANCH   3   4
ENDBRANCH   2   3
ENDBRANCH   1   2
BRANCH   1   8
ATOM      8  C   UNL     1       9.541  -7.300  34.462  1.00  0.00     0.000 C 
BRANCH   8   9
ATOM      9  C   UNL     1       8.349  -6.426  34.033  1.00  0.00    -0.000 C 
BRANCH   9  10
ATOM     10  C   UNL     1       8.796  -5.037  33.529  1.00  0.00    -0.000 C 
BRANCH  10  11
ATOM     11  C   UNL     1       8.205  -3.869  34.337  1.00  0.00    -0.000 C 
BRANCH  11  12
ATOM     12  C   UNL     1       7.490  -4.329  35.614  1.00  0.00    -0.003 C 
ATOM     13  C   UNL     1       8.030  -3.597  36.840  1.00  0.00     0.004 C 
ENDBRANCH  11  12
ENDBRANCH  10  11
ENDBRANCH   9  10
ENDBRANCH   8   9
ENDBRANCH   1   8
TORSDOF 9
ENDMDL
MODEL 6
REMARK VINA RESULT:    -3.780     16.166     17.811
REMARK INTER + INTRA:          -6.497
REMARK INTER:                  -5.981
REMARK INTRA:                  -0.516
REMARK UNBOUND:                -0.729
REMARK SMILES CCCCCCCCCCC(=O)[O-]
REMARK SMILES IDX 7 1 8 2 9 3 10 4 11 5 12 6 13 7 6 8 5 9 4 10 3 11 2 12 1 13
REMARK H PARENT
REMARK Flexibility Score: inf
ROOT
ATOM      1  C   UNL     1      11.747  -6.939  38.738  1.00  0.00     0.000 C 
ENDROOT
BRANCH   1   2
ATOM      2  C   UNL     1      12.197  -5.490  38.482  1.00  0.00     0.000 C 
BRANCH   2   3
ATOM      3  C   UNL     1      11.324  -4.777  37.437  1.00  0.00     0.006 C 
BRANCH   3   4
ATOM      4  C   UNL     1      12.067  -4.522  36.118  1.00  0.00     0.053 C 
BRANCH   4   5
ATOM      5  C   UNL     1      13.108  -3.464  36.303  1.00  0.00     0.041 C 
ATOM      6  O   UNL     1      12.809  -2.250  36.168  1.00  0.00    -0.550 OA
ATOM      7  O   UNL     1      14.423  -3.823  36.576  1.00  0.00    -0.550 OA
ENDBRANCH   4   5
ENDBRANCH   3   4
ENDBRANCH   2   3
ENDBRANCH   1   2
BRANCH   1   8
ATOM      8  C   UNL     1      12.924  -7.926  38.769  1.00  0.00     0.000 C 
BRANCH   8   9
ATOM      9  C   UNL     1      14.292  -7.222  38.827  1.00  0.00    -0.000 C 
BRANCH   9  10
ATOM     10  C   UNL     1      15.452  -8.172  38.460  1.00  0.00    -0.000 C 
BRANCH  10  11
ATOM     11  C   UNL     1      15.060  -9.660  38.481  1.00  0.00    -0.000 C 
BRANCH  11  12
ATOM     12  C   UNL     1      16.094 -10.560  37.793  1.00  0.00    -0.003 C 
ATOM     13  C   UNL     1      17.399  -9.808  37.545  1.00  0.00     0.004 C 
ENDBRANCH  11  12
ENDBRANCH  10  11
ENDBRANCH   9  10
ENDBRANCH   8   9
ENDBRANCH   1   8
TORSDOF 9
ENDMDL
MODEL 7
REMARK VINA RESULT:    -3.760     15.036     16.669
REMARK INTER + INTRA:          -6.468
REMARK INTER:                  -5.292
REMARK INTRA:                  -1.176
REMARK UNBOUND:                -0.729
REMARK SMILES CCCCCCCCCCC(=O)[O-]
REMARK SMILES IDX 7 1 8 2 9 3 10 4 11 5 12 6 13 7 6 8 5 9 4 10 3 11 2 12 1 13
REMARK H PARENT
REMARK Flexibility Score: inf
ROOT
ATOM      1  C   UNL     1       9.288  -4.160  36.318  1.00  0.00     0.000 C 
ENDROOT
BRANCH   1   2
ATOM      2  C   UNL     1      10.051  -5.247  37.096  1.00  0.00     0.000 C 
BRANCH   2   3
ATOM      3  C   UNL     1      11.564  -5.213  36.826  1.00  0.00     0.006 C 
BRANCH   3   4
ATOM      4  C   UNL     1      11.942  -4.254  35.689  1.00  0.00     0.053 C 
BRANCH   4   5
ATOM      5  C   UNL     1      13.016  -3.314  36.135  1.00  0.00     0.041 C 
ATOM      6  O   UNL     1      12.801  -2.075  36.165  1.00  0.00    -0.550 OA
ATOM      7  O   UNL     1      14.273  -3.803  36.470  1.00  0.00    -0.550 OA
ENDBRANCH   4   5
ENDBRANCH   3   4
ENDBRANCH   2   3
ENDBRANCH   1   2
BRANCH   1   8
ATOM      8  C   UNL     1       8.210  -4.744  35.392  1.00  0.00     0.000 C 
BRANCH   8   9
ATOM      9  C   UNL     1       8.519  -4.522  33.900  1.00  0.00    -0.000 C 
BRANCH   9  10
ATOM     10  C   UNL     1       8.870  -5.839  33.176  1.00  0.00    -0.000 C 
BRANCH  10  11
ATOM     11  C   UNL     1       8.259  -7.087  33.838  1.00  0.00    -0.000 C 
BRANCH  11  12
ATOM     12  C   UNL     1       9.263  -8.238  33.982  1.00  0.00    -0.003 C 
ATOM     13  C   UNL     1      10.664  -7.712  34.284  1.00  0.00     0.004 C 
ENDBRANCH  11  12
ENDBRANCH  10  11
ENDBRANCH   9  10
ENDBRANCH   8   9
ENDBRANCH   1   8
TORSDOF 9
ENDMDL
MODEL 8
REMARK VINA RESULT:    -3.670     14.431     16.100
REMARK INTER + INTRA:          -6.331
REMARK INTER:                  -5.223
REMARK INTRA:                  -1.108
REMARK UNBOUND:                -0.729
REMARK SMILES CCCCCCCCCCC(=O)[O-]
REMARK SMILES IDX 7 1 8 2 9 3 10 4 11 5 12 6 13 7 6 8 5 9 4 10 3 11 2 12 1 13
REMARK H PARENT
REMARK Flexibility Score: inf
ROOT
ATOM      1  C   UNL     1       8.130  -6.604  34.519  1.00  0.00     0.000 C 
ENDROOT
BRANCH   1   2
ATOM      2  C   UNL     1       8.748  -5.425  33.746  1.00  0.00     0.000 C 
BRANCH   2   3
ATOM      3  C   UNL     1       9.614  -4.523  34.639  1.00  0.00     0.006 C 
BRANCH   3   4
ATOM      4  C   UNL     1      11.112  -4.829  34.517  1.00  0.00     0.053 C 
BRANCH   4   5
ATOM      5  C   UNL     1      11.895  -3.998  35.484  1.00  0.00     0.041 C 
ATOM      6  O   UNL     1      13.135  -3.848  35.331  1.00  0.00    -0.550 OA
ATOM      7  O   UNL     1      11.263  -3.429  36.583  1.00  0.00    -0.550 OA
ENDBRANCH   4   5
ENDBRANCH   3   4
ENDBRANCH   2   3
ENDBRANCH   1   2
BRANCH   1   8
ATOM      8  C   UNL     1       8.161  -7.916  33.720  1.00  0.00     0.000 C 
BRANCH   8   9
ATOM      9  C   UNL     1       9.513  -8.161  33.027  1.00  0.00    -0.000 C 
BRANCH   9  10
ATOM     10  C   UNL     1      10.602  -8.621  34.020  1.00  0.00    -0.000 C 
BRANCH  10  11
ATOM     11  C   UNL     1      10.130  -9.723  34.984  1.00  0.00    -0.000 C 
BRANCH  11  12
ATOM     12  C   UNL     1      10.453  -9.413  36.451  1.00  0.00    -0.003 C 
ATOM     13  C   UNL     1      10.863  -7.953  36.626  1.00  0.00     0.004 C 
ENDBRANCH  11  12
ENDBRANCH  10  11
ENDBRANCH   9  10
ENDBRANCH   8   9
ENDBRANCH   1   8
TORSDOF 9
ENDMDL
MODEL 9
REMARK VINA RESULT:    -3.575     16.597     17.934
REMARK INTER + INTRA:          -6.185
REMARK INTER:                  -5.521
REMARK INTRA:                  -0.664
REMARK UNBOUND:                -0.729
REMARK SMILES CCCCCCCCCCC(=O)[O-]
REMARK SMILES IDX 7 1 8 2 9 3 10 4 11 5 12 6 13 7 6 8 5 9 4 10 3 11 2 12 1 13
REMARK H PARENT
REMARK Flexibility Score: inf
ROOT
ATOM      1  C   UNL     1      14.673  -8.419  38.749  1.00  0.00     0.000 C 
ENDROOT
BRANCH   1   2
ATOM      2  C   UNL     1      14.598  -6.882  38.724  1.00  0.00     0.000 C 
BRANCH   2   3
ATOM      3  C   UNL     1      13.200  -6.354  39.082  1.00  0.00     0.006 C 
BRANCH   3   4
ATOM      4  C   UNL     1      12.080  -7.079  38.324  1.00  0.00     0.053 C 
BRANCH   4   5
ATOM      5  C   UNL     1      11.349  -6.125  37.434  1.00  0.00     0.041 C 
ATOM      6  O   UNL     1      11.109  -4.953  37.824  1.00  0.00    -0.550 OA
ATOM      7  O   UNL     1      10.889  -6.545  36.192  1.00  0.00    -0.550 OA
ENDBRANCH   4   5
ENDBRANCH   3   4
ENDBRANCH   2   3
ENDBRANCH   1   2
BRANCH   1   8
ATOM      8  C   UNL     1      15.908  -8.962  38.014  1.00  0.00     0.000 C 
BRANCH   8   9
ATOM      9  C   UNL     1      16.594 -10.115  38.769  1.00  0.00    -0.000 C 
BRANCH   9  10
ATOM     10  C   UNL     1      15.607 -11.247  39.124  1.00  0.00    -0.000 C 
BRANCH  10  11
ATOM     11  C   UNL     1      15.176 -12.091  37.912  1.00  0.00    -0.000 C 
BRANCH  11  12
ATOM     12  C   UNL     1      13.656 -12.273  37.820  1.00  0.00    -0.003 C 
ATOM     13  C   UNL     1      12.953 -11.636  39.015  1.00  0.00     0.004 C 
ENDBRANCH  11  12
ENDBRANCH  10  11
ENDBRANCH   9  10
ENDBRANCH   8   9
ENDBRANCH   1   8
TORSDOF 9
ENDMDL
