MODEL 1
REMARK VINA RESULT:    -7.143      0.000      0.000
REMARK INTER + INTRA:          -8.966
REMARK INTER:                  -8.396
REMARK INTRA:                  -0.570
REMARK UNBOUND:                -0.570
REMARK SMILES C=C(C)[C@@H]1CC[C@]2(CO)CC[C@]3(C)[C@@H](CC[C@H]4[C@@]5(C)CC[C@@H](O)C(C)(C)[C@H]5CC[C@@]43C)[C@@H]12
REMARK SMILES IDX 4 1 5 2 6 3 7 4 32 5 14 6 15 7 16 8 17 9 18 10 20 11 21 12
REMARK SMILES IDX 22 13 24 14 27 15 28 16 29 17 30 18 12 19 11 20 10 21 13 22
REMARK SMILES IDX 31 23 25 24 26 25 19 26 2 27 3 28 1 29 8 30 9 31 23 33
REMARK H PARENT 9 32 23 34
REMARK Flexibility Score: inf
ROOT
ATOM      1  C   UNL     1      24.569  32.885  30.605  1.00  0.00     0.018 C 
ATOM      2  C   UNL     1      23.551  31.773  30.960  1.00  0.00     0.009 C 
ATOM      3  C   UNL     1      24.368  30.595  31.535  1.00  0.00     0.010 C 
ATOM      4  C   UNL     1      25.819  30.844  31.071  1.00  0.00    -0.003 C 
ATOM      5  C   UNL     1      25.884  32.378  31.209  1.00  0.00     0.008 C 
ATOM      6  C   UNL     1      27.231  33.059  30.836  1.00  0.00    -0.000 C 
ATOM      7  C   UNL     1      27.381  33.275  29.304  1.00  0.00     0.005 C 
ATOM      8  C   UNL     1      28.775  33.685  28.854  1.00  0.00     0.005 C 
ATOM      9  C   UNL     1      29.842  32.723  29.425  1.00  0.00     0.002 C 
ATOM     10  C   UNL     1      31.209  32.705  28.577  1.00  0.00    -0.026 C 
ATOM     11  C   UNL     1      31.630  34.150  28.141  1.00  0.00     0.010 C 
ATOM     12  C   UNL     1      33.000  34.242  27.457  1.00  0.00     0.033 C 
ATOM     13  C   UNL     1      34.118  33.660  28.328  1.00  0.00     0.120 C 
ATOM     14  C   UNL     1      33.850  32.176  28.723  1.00  0.00    -0.006 C 
ATOM     15  C   UNL     1      32.399  31.989  29.365  1.00  0.00     0.003 C 
ATOM     16  C   UNL     1      32.378  32.331  30.877  1.00  0.00     0.005 C 
ATOM     17  C   UNL     1      31.040  31.980  31.519  1.00  0.00     0.008 C 
ATOM     18  C   UNL     1      29.874  32.859  31.000  1.00  0.00    -0.024 C 
ATOM     19  C   UNL     1      28.450  32.379  31.619  1.00  0.00    -0.024 C 
ATOM     20  C   UNL     1      28.307  30.799  31.647  1.00  0.00     0.008 C 
ATOM     21  C   UNL     1      26.899  30.243  31.990  1.00  0.00     0.010 C 
ATOM     22  C   UNL     1      28.361  32.821  33.125  1.00  0.00     0.012 C 
ATOM     23  C   UNL     1      30.154  34.334  31.457  1.00  0.00     0.012 C 
ATOM     24  C   UNL     1      34.027  31.258  27.479  1.00  0.00     0.014 C 
ATOM     25  C   UNL     1      34.982  31.724  29.696  1.00  0.00     0.014 C 
ATOM     26  C   UNL     1      30.890  31.882  27.274  1.00  0.00     0.012 C 
ENDROOT
BRANCH   1  27
ATOM     27  C   UNL     1      24.163  34.268  31.103  1.00  0.00    -0.077 C 
ATOM     28  C   UNL     1      24.532  34.701  32.497  1.00  0.00     0.039 C 
ATOM     29  C   UNL     1      23.477  35.125  30.327  1.00  0.00     0.008 C 
ENDBRANCH   1  27
BRANCH   4  30
ATOM     30  C   UNL     1      25.974  30.264  29.625  1.00  0.00     0.163 C 
BRANCH  30  31
ATOM     31  O   UNL     1      25.731  28.882  29.622  1.00  0.00    -0.396 OA
ATOM     32  H   UNL     1      26.436  28.474  30.192  1.00  0.00     0.210 HD
ENDBRANCH  30  31
ENDBRANCH   4  30
BRANCH  13  33
ATOM     33  O   UNL     1      34.271  34.460  29.475  1.00  0.00    -0.393 OA
ATOM     34  H   UNL     1      33.434  34.373  30.006  1.00  0.00     0.210 HD
ENDBRANCH  13  33
TORSDOF 4
ENDMDL
MODEL 2
REMARK VINA RESULT:    -6.833      2.099      8.128
REMARK INTER + INTRA:          -8.601
REMARK INTER:                  -8.053
REMARK INTRA:                  -0.548
REMARK UNBOUND:                -0.570
REMARK SMILES C=C(C)[C@@H]1CC[C@]2(CO)CC[C@]3(C)[C@@H](CC[C@H]4[C@@]5(C)CC[C@@H](O)C(C)(C)[C@H]5CC[C@@]43C)[C@@H]12
REMARK SMILES IDX 4 1 5 2 6 3 7 4 32 5 14 6 15 7 16 8 17 9 18 10 20 11 21 12
REMARK SMILES IDX 22 13 24 14 27 15 28 16 29 17 30 18 12 19 11 20 10 21 13 22
REMARK SMILES IDX 31 23 25 24 26 25 19 26 2 27 3 28 1 29 8 30 9 31 23 33
REMARK H PARENT 9 32 23 34
REMARK Flexibility Score: inf
ROOT
ATOM      1  C   UNL     1      30.967  32.516  30.750  1.00  0.00     0.018 C 
ATOM      2  C   UNL     1      31.887  33.035  29.618  1.00  0.00     0.009 C 
ATOM      3  C   UNL     1      30.988  33.840  28.654  1.00  0.00     0.010 C 
ATOM      4  C   UNL     1      29.548  33.385  28.967  1.00  0.00    -0.003 C 
ATOM      5  C   UNL     1      29.641  33.243  30.500  1.00  0.00     0.008 C 
ATOM      6  C   UNL     1      28.349  32.796  31.242  1.00  0.00    -0.000 C 
ATOM      7  C   UNL     1      28.145  31.256  31.198  1.00  0.00     0.005 C 
ATOM      8  C   UNL     1      26.777  30.783  31.665  1.00  0.00     0.005 C 
ATOM      9  C   UNL     1      25.651  31.553  30.938  1.00  0.00     0.002 C 
ATOM     10  C   UNL     1      24.247  30.766  30.914  1.00  0.00    -0.026 C 
ATOM     11  C   UNL     1      23.949  30.088  32.295  1.00  0.00     0.010 C 
ATOM     12  C   UNL     1      22.561  29.442  32.407  1.00  0.00     0.033 C 
ATOM     13  C   UNL     1      21.437  30.440  32.111  1.00  0.00     0.120 C 
ATOM     14  C   UNL     1      21.578  31.089  30.701  1.00  0.00    -0.006 C 
ATOM     15  C   UNL     1      23.034  31.708  30.479  1.00  0.00     0.003 C 
ATOM     16  C   UNL     1      23.165  33.131  31.080  1.00  0.00     0.005 C 
ATOM     17  C   UNL     1      24.492  33.784  30.710  1.00  0.00     0.008 C 
ATOM     18  C   UNL     1      25.711  33.077  31.355  1.00  0.00    -0.024 C 
ATOM     19  C   UNL     1      27.111  33.728  30.844  1.00  0.00    -0.024 C 
ATOM     20  C   UNL     1      27.099  34.038  29.289  1.00  0.00     0.008 C 
ATOM     21  C   UNL     1      28.462  34.431  28.657  1.00  0.00     0.010 C 
ATOM     22  C   UNL     1      27.318  35.124  31.535  1.00  0.00     0.012 C 
ATOM     23  C   UNL     1      25.600  33.267  32.908  1.00  0.00     0.012 C 
ATOM     24  C   UNL     1      21.249  30.039  29.600  1.00  0.00     0.014 C 
ATOM     25  C   UNL     1      20.458  32.163  30.551  1.00  0.00     0.014 C 
ATOM     26  C   UNL     1      24.418  29.625  29.843  1.00  0.00     0.012 C 
ENDROOT
BRANCH   1  27
ATOM     27  C   UNL     1      31.531  32.741  32.149  1.00  0.00    -0.077 C 
ATOM     28  C   UNL     1      32.256  34.021  32.469  1.00  0.00     0.039 C 
ATOM     29  C   UNL     1      31.400  31.820  33.119  1.00  0.00     0.008 C 
ENDBRANCH   1  27
BRANCH   4  30
ATOM     30  C   UNL     1      29.264  32.074  28.160  1.00  0.00     0.163 C 
BRANCH  30  31
ATOM     31  O   UNL     1      29.938  32.101  26.929  1.00  0.00    -0.396 OA
ATOM     32  H   UNL     1      29.405  31.536  26.308  1.00  0.00     0.210 HD
ENDBRANCH  30  31
ENDBRANCH   4  30
BRANCH  13  33
ATOM     33  O   UNL     1      21.421  31.427  33.113  1.00  0.00    -0.393 OA
ATOM     34  H   UNL     1      20.547  31.896  33.048  1.00  0.00     0.210 HD
ENDBRANCH  13  33
TORSDOF 4
ENDMDL
MODEL 3
REMARK VINA RESULT:    -5.576      3.356      9.454
REMARK INTER + INTRA:          -7.124
REMARK INTER:                  -7.201
REMARK INTRA:                   0.076
REMARK UNBOUND:                -0.570
REMARK SMILES C=C(C)[C@@H]1CC[C@]2(CO)CC[C@]3(C)[C@@H](CC[C@H]4[C@@]5(C)CC[C@@H](O)C(C)(C)[C@H]5CC[C@@]43C)[C@@H]12
REMARK SMILES IDX 4 1 5 2 6 3 7 4 32 5 14 6 15 7 16 8 17 9 18 10 20 11 21 12
REMARK SMILES IDX 22 13 24 14 27 15 28 16 29 17 30 18 12 19 11 20 10 21 13 22
REMARK SMILES IDX 31 23 25 24 26 25 19 26 2 27 3 28 1 29 8 30 9 31 23 33
REMARK H PARENT 9 32 23 34
REMARK Flexibility Score: inf
ROOT
ATOM      1  C   UNL     1      27.750  31.520  30.156  1.00  0.00     0.018 C 
ATOM      2  C   UNL     1      28.881  31.142  31.144  1.00  0.00     0.009 C 
ATOM      3  C   UNL     1      28.193  30.615  32.422  1.00  0.00     0.010 C 
ATOM      4  C   UNL     1      26.740  31.130  32.341  1.00  0.00    -0.003 C 
ATOM      5  C   UNL     1      26.485  30.973  30.829  1.00  0.00     0.008 C 
ATOM      6  C   UNL     1      25.080  31.387  30.308  1.00  0.00    -0.000 C 
ATOM      7  C   UNL     1      24.959  32.920  30.083  1.00  0.00     0.005 C 
ATOM      8  C   UNL     1      23.543  33.417  29.836  1.00  0.00     0.005 C 
ATOM      9  C   UNL     1      22.581  32.900  30.930  1.00  0.00     0.002 C 
ATOM     10  C   UNL     1      21.257  33.799  31.096  1.00  0.00    -0.026 C 
ATOM     11  C   UNL     1      20.680  34.231  29.705  1.00  0.00     0.010 C 
ATOM     12  C   UNL     1      19.334  34.965  29.766  1.00  0.00     0.033 C 
ATOM     13  C   UNL     1      18.265  34.145  30.494  1.00  0.00     0.120 C 
ATOM     14  C   UNL     1      18.696  33.761  31.942  1.00  0.00    -0.006 C 
ATOM     15  C   UNL     1      20.135  33.067  31.965  1.00  0.00     0.003 C 
ATOM     16  C   UNL     1      20.061  31.551  31.651  1.00  0.00     0.005 C 
ATOM     17  C   UNL     1      21.407  30.864  31.850  1.00  0.00     0.008 C 
ATOM     18  C   UNL     1      22.476  31.326  30.828  1.00  0.00    -0.024 C 
ATOM     19  C   UNL     1      23.925  30.660  31.144  1.00  0.00    -0.024 C 
ATOM     20  C   UNL     1      24.257  30.649  32.696  1.00  0.00     0.008 C 
ATOM     21  C   UNL     1      25.709  30.262  33.085  1.00  0.00     0.010 C 
ATOM     22  C   UNL     1      23.906  29.146  30.723  1.00  0.00     0.012 C 
ATOM     23  C   UNL     1      22.004  30.859  29.407  1.00  0.00     0.012 C 
ATOM     24  C   UNL     1      18.676  35.023  32.852  1.00  0.00     0.014 C 
ATOM     25  C   UNL     1      17.593  32.838  32.545  1.00  0.00     0.014 C 
ATOM     26  C   UNL     1      21.720  35.101  31.851  1.00  0.00     0.012 C 
ENDROOT
BRANCH   1  27
ATOM     27  C   UNL     1      27.967  30.987  28.743  1.00  0.00    -0.077 C 
ATOM     28  C   UNL     1      27.170  29.807  28.256  1.00  0.00     0.039 C 
ATOM     29  C   UNL     1      28.861  31.545  27.909  1.00  0.00     0.008 C 
ENDBRANCH   1  27
BRANCH   4  30
ATOM     30  C   UNL     1      26.708  32.589  32.908  1.00  0.00     0.163 C 
BRANCH  30  31
ATOM     31  O   UNL     1      28.013  33.060  33.125  1.00  0.00    -0.396 OA
ATOM     32  H   UNL     1      28.458  33.064  32.236  1.00  0.00     0.210 HD
ENDBRANCH  30  31
ENDBRANCH   4  30
BRANCH  13  33
ATOM     33  O   UNL     1      17.975  32.993  29.740  1.00  0.00    -0.393 OA
ATOM     34  H   UNL     1      18.217  32.207  30.301  1.00  0.00     0.210 HD
ENDBRANCH  13  33
TORSDOF 4
ENDMDL
MODEL 4
REMARK VINA RESULT:    -5.021      5.573     11.141
REMARK INTER + INTRA:          -6.472
REMARK INTER:                  -6.896
REMARK INTRA:                   0.424
REMARK UNBOUND:                -0.570
REMARK SMILES C=C(C)[C@@H]1CC[C@]2(CO)CC[C@]3(C)[C@@H](CC[C@H]4[C@@]5(C)CC[C@@H](O)C(C)(C)[C@H]5CC[C@@]43C)[C@@H]12
REMARK SMILES IDX 4 1 5 2 6 3 7 4 32 5 14 6 15 7 16 8 17 9 18 10 20 11 21 12
REMARK SMILES IDX 22 13 24 14 27 15 28 16 29 17 30 18 12 19 11 20 10 21 13 22
REMARK SMILES IDX 31 23 25 24 26 25 19 26 2 27 3 28 1 29 8 30 9 31 23 33
REMARK H PARENT 9 32 23 34
REMARK Flexibility Score: inf
ROOT
ATOM      1  C   UNL     1      25.008  32.481  33.031  1.00  0.00     0.018 C 
ATOM      2  C   UNL     1      26.228  31.537  32.884  1.00  0.00     0.009 C 
ATOM      3  C   UNL     1      25.873  30.528  31.771  1.00  0.00     0.010 C 
ATOM      4  C   UNL     1      24.338  30.596  31.635  1.00  0.00    -0.003 C 
ATOM      5  C   UNL     1      24.119  32.109  31.838  1.00  0.00     0.008 C 
ATOM      6  C   UNL     1      22.653  32.621  31.764  1.00  0.00    -0.000 C 
ATOM      7  C   UNL     1      21.887  32.418  33.101  1.00  0.00     0.005 C 
ATOM      8  C   UNL     1      20.385  32.647  33.014  1.00  0.00     0.005 C 
ATOM      9  C   UNL     1      19.773  31.836  31.849  1.00  0.00     0.002 C 
ATOM     10  C   UNL     1      18.199  31.549  32.026  1.00  0.00    -0.026 C 
ATOM     11  C   UNL     1      17.444  32.811  32.566  1.00  0.00     0.010 C 
ATOM     12  C   UNL     1      15.917  32.672  32.622  1.00  0.00     0.033 C 
ATOM     13  C   UNL     1      15.323  32.305  31.259  1.00  0.00     0.120 C 
ATOM     14  C   UNL     1      15.928  30.989  30.683  1.00  0.00    -0.006 C 
ATOM     15  C   UNL     1      17.525  31.028  30.675  1.00  0.00     0.003 C 
ATOM     16  C   UNL     1      18.089  31.760  29.430  1.00  0.00     0.005 C 
ATOM     17  C   UNL     1      19.606  31.637  29.338  1.00  0.00     0.008 C 
ATOM     18  C   UNL     1      20.340  32.384  30.479  1.00  0.00    -0.024 C 
ATOM     19  C   UNL     1      21.946  32.133  30.413  1.00  0.00    -0.024 C 
ATOM     20  C   UNL     1      22.306  30.623  30.087  1.00  0.00     0.008 C 
ATOM     21  C   UNL     1      23.799  30.225  30.242  1.00  0.00     0.010 C 
ATOM     22  C   UNL     1      22.554  32.962  29.225  1.00  0.00     0.012 C 
ATOM     23  C   UNL     1      20.059  33.917  30.297  1.00  0.00     0.012 C 
ATOM     24  C   UNL     1      15.407  29.769  31.495  1.00  0.00     0.014 C 
ATOM     25  C   UNL     1      15.342  30.775  29.254  1.00  0.00     0.014 C 
ATOM     26  C   UNL     1      18.094  30.420  33.118  1.00  0.00     0.012 C 
ENDROOT
BRANCH   1  27
ATOM     27  C   UNL     1      25.380  33.959  33.075  1.00  0.00    -0.077 C 
ATOM     28  C   UNL     1      24.297  35.005  33.082  1.00  0.00     0.039 C 
ATOM     29  C   UNL     1      26.661  34.364  33.109  1.00  0.00     0.008 C 
ENDBRANCH   1  27
BRANCH   4  30
ATOM     30  C   UNL     1      23.711  29.648  32.713  1.00  0.00     0.163 C 
BRANCH  30  31
ATOM     31  O   UNL     1      22.633  28.933  32.169  1.00  0.00    -0.396 OA
ATOM     32  H   UNL     1      22.080  29.596  31.675  1.00  0.00     0.210 HD
ENDBRANCH  30  31
ENDBRANCH   4  30
BRANCH  13  33
ATOM     33  O   UNL     1      15.522  33.376  30.367  1.00  0.00    -0.393 OA
ATOM     34  H   UNL     1      16.486  33.617  30.409  1.00  0.00     0.210 HD
ENDBRANCH  13  33
TORSDOF 4
ENDMDL
MODEL 5
REMARK VINA RESULT:    -4.987      2.981      5.312
REMARK INTER + INTRA:          -6.432
REMARK INTER:                  -5.933
REMARK INTRA:                  -0.499
REMARK UNBOUND:                -0.570
REMARK SMILES C=C(C)[C@@H]1CC[C@]2(CO)CC[C@]3(C)[C@@H](CC[C@H]4[C@@]5(C)CC[C@@H](O)C(C)(C)[C@H]5CC[C@@]43C)[C@@H]12
REMARK SMILES IDX 4 1 5 2 6 3 7 4 32 5 14 6 15 7 16 8 17 9 18 10 20 11 21 12
REMARK SMILES IDX 22 13 24 14 27 15 28 16 29 17 30 18 12 19 11 20 10 21 13 22
REMARK SMILES IDX 31 23 25 24 26 25 19 26 2 27 3 28 1 29 8 30 9 31 23 33
REMARK H PARENT 9 32 23 34
REMARK Flexibility Score: inf
ROOT
ATOM      1  C   UNL     1      20.070  31.561  29.147  1.00  0.00     0.018 C 
ATOM      2  C   UNL     1      19.136  30.370  28.819  1.00  0.00     0.009 C 
ATOM      3  C   UNL     1      19.723  29.138  29.541  1.00  0.00     0.010 C 
ATOM      4  C   UNL     1      21.186  29.513  29.859  1.00  0.00    -0.003 C 
ATOM      5  C   UNL     1      21.006  31.000  30.224  1.00  0.00     0.008 C 
ATOM      6  C   UNL     1      22.287  31.781  30.633  1.00  0.00    -0.000 C 
ATOM      7  C   UNL     1      23.101  32.269  29.402  1.00  0.00     0.005 C 
ATOM      8  C   UNL     1      24.489  32.799  29.727  1.00  0.00     0.005 C 
ATOM      9  C   UNL     1      25.273  31.787  30.595  1.00  0.00     0.002 C 
ATOM     10  C   UNL     1      26.870  31.966  30.502  1.00  0.00    -0.026 C 
ATOM     11  C   UNL     1      27.278  33.478  30.524  1.00  0.00     0.010 C 
ATOM     12  C   UNL     1      28.790  33.735  30.590  1.00  0.00     0.033 C 
ATOM     13  C   UNL     1      29.437  33.047  31.796  1.00  0.00     0.120 C 
ATOM     14  C   UNL     1      29.187  31.508  31.805  1.00  0.00    -0.006 C 
ATOM     15  C   UNL     1      27.634  31.162  31.650  1.00  0.00     0.003 C 
ATOM     16  C   UNL     1      26.880  31.232  33.003  1.00  0.00     0.005 C 
ATOM     17  C   UNL     1      25.446  30.728  32.879  1.00  0.00     0.008 C 
ATOM     18  C   UNL     1      24.560  31.645  31.998  1.00  0.00    -0.024 C 
ATOM     19  C   UNL     1      23.075  31.015  31.796  1.00  0.00    -0.024 C 
ATOM     20  C   UNL     1      23.115  29.451  31.532  1.00  0.00     0.008 C 
ATOM     21  C   UNL     1      21.780  28.796  31.085  1.00  0.00     0.010 C 
ATOM     22  C   UNL     1      22.253  31.181  33.125  1.00  0.00     0.012 C 
ATOM     23  C   UNL     1      24.430  33.024  32.735  1.00  0.00     0.012 C 
ATOM     24  C   UNL     1      30.020  30.830  30.679  1.00  0.00     0.014 C 
ATOM     25  C   UNL     1      29.785  30.930  33.124  1.00  0.00     0.014 C 
ATOM     26  C   UNL     1      27.282  31.375  29.103  1.00  0.00     0.012 C 
ENDROOT
BRANCH   1  27
ATOM     27  C   UNL     1      19.327  32.820  29.581  1.00  0.00    -0.077 C 
ATOM     28  C   UNL     1      19.963  34.171  29.388  1.00  0.00     0.039 C 
ATOM     29  C   UNL     1      18.106  32.761  30.140  1.00  0.00     0.008 C 
ENDBRANCH   1  27
BRANCH   4  30
ATOM     30  C   UNL     1      22.054  29.203  28.594  1.00  0.00     0.163 C 
BRANCH  30  31
ATOM     31  O   UNL     1      22.303  27.825  28.496  1.00  0.00    -0.396 OA
ATOM     32  H   UNL     1      22.617  27.665  27.566  1.00  0.00     0.210 HD
ENDBRANCH  30  31
ENDBRANCH   4  30
BRANCH  13  33
ATOM     33  O   UNL     1      28.953  33.636  32.978  1.00  0.00    -0.393 OA
ATOM     34  H   UNL     1      28.418  32.945  33.452  1.00  0.00     0.210 HD
ENDBRANCH  13  33
TORSDOF 4
ENDMDL
MODEL 6
REMARK VINA RESULT:    -4.572      4.936     11.322
REMARK INTER + INTRA:          -5.944
REMARK INTER:                  -5.841
REMARK INTRA:                  -0.103
REMARK UNBOUND:                -0.570
REMARK SMILES C=C(C)[C@@H]1CC[C@]2(CO)CC[C@]3(C)[C@@H](CC[C@H]4[C@@]5(C)CC[C@@H](O)C(C)(C)[C@H]5CC[C@@]43C)[C@@H]12
REMARK SMILES IDX 4 1 5 2 6 3 7 4 32 5 14 6 15 7 16 8 17 9 18 10 20 11 21 12
REMARK SMILES IDX 22 13 24 14 27 15 28 16 29 17 30 18 12 19 11 20 10 21 13 22
REMARK SMILES IDX 31 23 25 24 26 25 19 26 2 27 3 28 1 29 8 30 9 31 23 33
REMARK H PARENT 9 32 23 34
REMARK Flexibility Score: inf
ROOT
ATOM      1  C   UNL     1      25.177  31.554  29.912  1.00  0.00     0.018 C 
ATOM      2  C   UNL     1      26.260  32.514  30.462  1.00  0.00     0.009 C 
ATOM      3  C   UNL     1      25.714  33.080  31.791  1.00  0.00     0.010 C 
ATOM      4  C   UNL     1      24.192  32.826  31.745  1.00  0.00    -0.003 C 
ATOM      5  C   UNL     1      24.174  31.442  31.066  1.00  0.00     0.008 C 
ATOM      6  C   UNL     1      22.779  30.795  30.831  1.00  0.00    -0.000 C 
ATOM      7  C   UNL     1      22.082  31.338  29.553  1.00  0.00     0.005 C 
ATOM      8  C   UNL     1      20.617  30.951  29.414  1.00  0.00     0.005 C 
ATOM      9  C   UNL     1      19.836  31.289  30.705  1.00  0.00     0.002 C 
ATOM     10  C   UNL     1      18.254  31.466  30.469  1.00  0.00    -0.026 C 
ATOM     11  C   UNL     1      17.696  30.374  29.494  1.00  0.00     0.010 C 
ATOM     12  C   UNL     1      16.170  30.378  29.331  1.00  0.00     0.033 C 
ATOM     13  C   UNL     1      15.448  30.234  30.674  1.00  0.00     0.120 C 
ATOM     14  C   UNL     1      15.849  31.351  31.685  1.00  0.00    -0.006 C 
ATOM     15  C   UNL     1      17.436  31.464  31.840  1.00  0.00     0.003 C 
ATOM     16  C   UNL     1      18.002  30.433  32.849  1.00  0.00     0.005 C 
ATOM     17  C   UNL     1      19.483  30.665  33.125  1.00  0.00     0.008 C 
ATOM     18  C   UNL     1      20.376  30.391  31.889  1.00  0.00    -0.024 C 
ATOM     19  C   UNL     1      21.931  30.760  32.189  1.00  0.00    -0.024 C 
ATOM     20  C   UNL     1      22.083  32.116  32.998  1.00  0.00     0.008 C 
ATOM     21  C   UNL     1      23.523  32.683  33.124  1.00  0.00     0.010 C 
ATOM     22  C   UNL     1      22.558  29.659  33.119  1.00  0.00     0.012 C 
ATOM     23  C   UNL     1      20.273  28.860  31.561  1.00  0.00     0.012 C 
ATOM     24  C   UNL     1      15.238  32.711  31.240  1.00  0.00     0.014 C 
ATOM     25  C   UNL     1      15.150  31.044  33.044  1.00  0.00     0.014 C 
ATOM     26  C   UNL     1      18.083  32.867  29.773  1.00  0.00     0.012 C 
ENDROOT
BRANCH   1  27
ATOM     27  C   UNL     1      25.728  30.209  29.451  1.00  0.00    -0.077 C 
ATOM     28  C   UNL     1      24.962  28.945  29.741  1.00  0.00     0.039 C 
ATOM     29  C   UNL     1      26.892  30.114  28.786  1.00  0.00     0.008 C 
ENDBRANCH   1  27
BRANCH   4  30
ATOM     30  C   UNL     1      23.526  34.002  30.955  1.00  0.00     0.163 C 
BRANCH  30  31
ATOM     31  O   UNL     1      23.207  35.058  31.823  1.00  0.00    -0.396 OA
ATOM     32  H   UNL     1      23.897  35.047  32.539  1.00  0.00     0.210 HD
ENDBRANCH  30  31
ENDBRANCH   4  30
BRANCH  13  33
ATOM     33  O   UNL     1      15.717  28.960  31.208  1.00  0.00    -0.393 OA
ATOM     34  H   UNL     1      16.292  29.094  32.009  1.00  0.00     0.210 HD
ENDBRANCH  13  33
TORSDOF 4
ENDMDL
MODEL 7
REMARK VINA RESULT:    -4.254      5.381      9.670
REMARK INTER + INTRA:          -5.570
REMARK INTER:                  -5.013
REMARK INTRA:                  -0.558
REMARK UNBOUND:                -0.570
REMARK SMILES C=C(C)[C@@H]1CC[C@]2(CO)CC[C@]3(C)[C@@H](CC[C@H]4[C@@]5(C)CC[C@@H](O)C(C)(C)[C@H]5CC[C@@]43C)[C@@H]12
REMARK SMILES IDX 4 1 5 2 6 3 7 4 32 5 14 6 15 7 16 8 17 9 18 10 20 11 21 12
REMARK SMILES IDX 22 13 24 14 27 15 28 16 29 17 30 18 12 19 11 20 10 21 13 22
REMARK SMILES IDX 31 23 25 24 26 25 19 26 2 27 3 28 1 29 8 30 9 31 23 33
REMARK H PARENT 9 32 23 34
REMARK Flexibility Score: inf
ROOT
ATOM      1  C   UNL     1      16.101  29.642  31.732  1.00  0.00     0.018 C 
ATOM      2  C   UNL     1      14.875  30.492  31.318  1.00  0.00     0.009 C 
ATOM      3  C   UNL     1      15.375  31.502  30.263  1.00  0.00     0.010 C 
ATOM      4  C   UNL     1      16.908  31.542  30.434  1.00  0.00    -0.003 C 
ATOM      5  C   UNL     1      17.182  30.053  30.725  1.00  0.00     0.008 C 
ATOM      6  C   UNL     1      18.665  29.646  30.958  1.00  0.00    -0.000 C 
ATOM      7  C   UNL     1      19.136  29.930  32.412  1.00  0.00     0.005 C 
ATOM      8  C   UNL     1      20.636  29.808  32.629  1.00  0.00     0.005 C 
ATOM      9  C   UNL     1      21.412  30.638  31.581  1.00  0.00     0.002 C 
ATOM     10  C   UNL     1      22.897  31.041  32.054  1.00  0.00    -0.026 C 
ATOM     11  C   UNL     1      23.612  29.847  32.773  1.00  0.00     0.010 C 
ATOM     12  C   UNL     1      25.085  30.097  33.124  1.00  0.00     0.033 C 
ATOM     13  C   UNL     1      25.912  30.478  31.893  1.00  0.00     0.120 C 
ATOM     14  C   UNL     1      25.347  31.736  31.166  1.00  0.00    -0.006 C 
ATOM     15  C   UNL     1      23.789  31.583  30.846  1.00  0.00     0.003 C 
ATOM     16  C   UNL     1      23.534  30.788  29.539  1.00  0.00     0.005 C 
ATOM     17  C   UNL     1      22.060  30.800  29.147  1.00  0.00     0.008 C 
ATOM     18  C   UNL     1      21.165  30.024  30.146  1.00  0.00    -0.024 C 
ATOM     19  C   UNL     1      19.592  30.158  29.758  1.00  0.00    -0.024 C 
ATOM     20  C   UNL     1      19.203  31.631  29.317  1.00  0.00     0.008 C 
ATOM     21  C   UNL     1      17.687  31.924  29.162  1.00  0.00     0.010 C 
ATOM     22  C   UNL     1      19.288  29.264  28.501  1.00  0.00     0.012 C 
ATOM     23  C   UNL     1      21.578  28.512  30.073  1.00  0.00     0.012 C 
ATOM     24  C   UNL     1      25.613  33.007  32.024  1.00  0.00     0.014 C 
ATOM     25  C   UNL     1      26.189  31.964  29.873  1.00  0.00     0.014 C 
ATOM     26  C   UNL     1      22.708  32.195  33.107  1.00  0.00     0.012 C 
ENDROOT
BRANCH   1  27
ATOM     27  C   UNL     1      15.828  28.141  31.752  1.00  0.00    -0.077 C 
ATOM     28  C   UNL     1      15.670  27.390  30.457  1.00  0.00     0.039 C 
ATOM     29  C   UNL     1      15.721  27.459  32.905  1.00  0.00     0.008 C 
ENDBRANCH   1  27
BRANCH   4  30
ATOM     30  C   UNL     1      17.244  32.553  31.581  1.00  0.00     0.163 C 
BRANCH  30  31
ATOM     31  O   UNL     1      16.259  33.551  31.660  1.00  0.00    -0.396 OA
ATOM     32  H   UNL     1      15.402  33.115  31.408  1.00  0.00     0.210 HD
ENDBRANCH  30  31
ENDBRANCH   4  30
BRANCH  13  33
ATOM     33  O   UNL     1      25.966  29.380  31.015  1.00  0.00    -0.393 OA
ATOM     34  H   UNL     1      25.356  28.683  31.380  1.00  0.00     0.210 HD
ENDBRANCH  13  33
TORSDOF 4
ENDMDL
