MODEL 1
REMARK VINA RESULT:    -7.762      0.000      0.000
REMARK INTER + INTRA:          -8.443
REMARK INTER:                  -8.443
REMARK INTRA:                   0.000
REMARK UNBOUND:                 0.000
REMARK SMILES Cc1cc(O)c2c(c1)C(=O)c1cc(O)cc(O)c1C2=O
REMARK SMILES IDX 1 1 2 2 8 3 7 4 6 5 4 6 3 7 19 8 20 9 18 10 11 11 9 12 10 13
REMARK SMILES IDX 12 14 13 15 15 16 16 17 5 18 17 20 14 22
REMARK H PARENT 5 19 17 21 14 23
REMARK Flexibility Score: inf
ROOT
ATOM      1  C   UNL     1      35.901  -2.603  -5.215  1.00  0.00     0.044 C 
ATOM      2  C   UNL     1      36.428  -1.420  -4.456  1.00  0.00    -0.047 A 
ATOM      3  C   UNL     1      35.709  -0.220  -4.435  1.00  0.00     0.016 A 
ATOM      4  C   UNL     1      36.172   0.879  -3.693  1.00  0.00     0.038 A 
ATOM      5  C   UNL     1      37.360   0.768  -2.937  1.00  0.00     0.076 A 
ATOM      6  C   UNL     1      38.109  -0.436  -2.999  1.00  0.00     0.127 A 
ATOM      7  C   UNL     1      37.618  -1.523  -3.730  1.00  0.00     0.050 A 
ATOM      8  C   UNL     1      37.737   1.900  -2.051  1.00  0.00     0.201 C 
ATOM      9  O   UNL     1      38.382   1.679  -0.992  1.00  0.00    -0.288 OA
ATOM     10  C   UNL     1      37.194   3.258  -2.316  1.00  0.00     0.076 A 
ATOM     11  C   UNL     1      36.005   3.364  -3.071  1.00  0.00     0.041 A 
ATOM     12  C   UNL     1      35.419   2.158  -3.702  1.00  0.00     0.194 C 
ATOM     13  O   UNL     1      34.294   2.223  -4.267  1.00  0.00    -0.289 OA
ATOM     14  C   UNL     1      35.385   4.616  -3.227  1.00  0.00     0.059 A 
ATOM     15  C   UNL     1      35.945   5.760  -2.651  1.00  0.00     0.120 A 
ATOM     16  C   UNL     1      37.139   5.665  -1.939  1.00  0.00     0.093 A 
ATOM     17  C   UNL     1      37.787   4.434  -1.787  1.00  0.00     0.131 A 
ENDROOT
BRANCH   6  18
ATOM     18  O   UNL     1      39.353  -0.583  -2.382  1.00  0.00    -0.507 OA
ATOM     19  H   UNL     1      40.231  -0.375  -2.837  1.00  0.00     0.293 HD
ENDBRANCH   6  18
BRANCH  17  20
ATOM     20  O   UNL     1      39.024   4.432  -1.140  1.00  0.00    -0.507 OA
ATOM     21  H   UNL     1      39.908   4.349  -1.624  1.00  0.00     0.293 HD
ENDBRANCH  17  20
BRANCH  15  22
ATOM     22  O   UNL     1      35.326   7.000  -2.792  1.00  0.00    -0.508 OA
ATOM     23  H   UNL     1      35.855   7.834  -3.022  1.00  0.00     0.293 HD
ENDBRANCH  15  22
TORSDOF 3
ENDMDL
MODEL 2
REMARK VINA RESULT:    -7.491      1.415      6.355
REMARK INTER + INTRA:          -8.148
REMARK INTER:                  -8.148
REMARK INTRA:                   0.000
REMARK UNBOUND:                 0.000
REMARK SMILES Cc1cc(O)c2c(c1)C(=O)c1cc(O)cc(O)c1C2=O
REMARK SMILES IDX 1 1 2 2 8 3 7 4 6 5 4 6 3 7 19 8 20 9 18 10 11 11 9 12 10 13
REMARK SMILES IDX 12 14 13 15 15 16 16 17 5 18 17 20 14 22
REMARK H PARENT 5 19 17 21 14 23
REMARK Flexibility Score: inf
ROOT
ATOM      1  C   UNL     1      37.836   5.988  -1.260  1.00  0.00     0.044 C 
ATOM      2  C   UNL     1      37.262   4.824  -2.016  1.00  0.00    -0.047 A 
ATOM      3  C   UNL     1      37.774   3.537  -1.820  1.00  0.00     0.016 A 
ATOM      4  C   UNL     1      37.215   2.435  -2.490  1.00  0.00     0.038 A 
ATOM      5  C   UNL     1      36.109   2.621  -3.350  1.00  0.00     0.076 A 
ATOM      6  C   UNL     1      35.625   3.935  -3.579  1.00  0.00     0.127 A 
ATOM      7  C   UNL     1      36.185   5.013  -2.886  1.00  0.00     0.050 A 
ATOM      8  C   UNL     1      35.456   1.416  -3.923  1.00  0.00     0.201 C 
ATOM      9  O   UNL     1      34.224   1.436  -4.185  1.00  0.00    -0.288 OA
ATOM     10  C   UNL     1      36.209   0.137  -4.008  1.00  0.00     0.076 A 
ATOM     11  C   UNL     1      37.313  -0.044  -3.146  1.00  0.00     0.041 A 
ATOM     12  C   UNL     1      37.784   1.079  -2.301  1.00  0.00     0.194 C 
ATOM     13  O   UNL     1      38.684   0.886  -1.439  1.00  0.00    -0.289 OA
ATOM     14  C   UNL     1      37.966  -1.288  -3.098  1.00  0.00     0.059 A 
ATOM     15  C   UNL     1      37.539  -2.344  -3.909  1.00  0.00     0.120 A 
ATOM     16  C   UNL     1      36.475  -2.156  -4.790  1.00  0.00     0.093 A 
ATOM     17  C   UNL     1      35.822  -0.921  -4.871  1.00  0.00     0.131 A 
ENDROOT
BRANCH   6  18
ATOM     18  O   UNL     1      34.619   4.217  -4.506  1.00  0.00    -0.507 OA
ATOM     19  H   UNL     1      33.694   4.531  -4.248  1.00  0.00     0.293 HD
ENDBRANCH   6  18
BRANCH  17  20
ATOM     20  O   UNL     1      34.826  -0.781  -5.840  1.00  0.00    -0.507 OA
ATOM     21  H   UNL     1      34.408  -1.562  -6.328  1.00  0.00     0.293 HD
ENDBRANCH  17  20
BRANCH  15  22
ATOM     22  O   UNL     1      38.175  -3.582  -3.855  1.00  0.00    -0.508 OA
ATOM     23  H   UNL     1      38.380  -4.036  -2.972  1.00  0.00     0.293 HD
ENDBRANCH  15  22
TORSDOF 3
ENDMDL
MODEL 3
REMARK VINA RESULT:    -7.385      1.574      3.641
REMARK INTER + INTRA:          -8.032
REMARK INTER:                  -8.032
REMARK INTRA:                   0.000
REMARK UNBOUND:                 0.000
REMARK SMILES Cc1cc(O)c2c(c1)C(=O)c1cc(O)cc(O)c1C2=O
REMARK SMILES IDX 1 1 2 2 8 3 7 4 6 5 4 6 3 7 19 8 20 9 18 10 11 11 9 12 10 13
REMARK SMILES IDX 12 14 13 15 15 16 16 17 5 18 17 20 14 22
REMARK H PARENT 5 19 17 21 14 23
REMARK Flexibility Score: inf
ROOT
ATOM      1  C   UNL     1      37.348  -2.101  -3.706  1.00  0.00     0.044 C 
ATOM      2  C   UNL     1      37.181  -0.632  -3.442  1.00  0.00    -0.047 A 
ATOM      3  C   UNL     1      38.198   0.089  -2.807  1.00  0.00     0.016 A 
ATOM      4  C   UNL     1      38.069   1.472  -2.594  1.00  0.00     0.038 A 
ATOM      5  C   UNL     1      36.915   2.150  -3.047  1.00  0.00     0.076 A 
ATOM      6  C   UNL     1      35.868   1.405  -3.650  1.00  0.00     0.127 A 
ATOM      7  C   UNL     1      36.027   0.033  -3.868  1.00  0.00     0.050 A 
ATOM      8  C   UNL     1      36.882   3.631  -2.936  1.00  0.00     0.201 C 
ATOM      9  O   UNL     1      36.230   4.308  -3.775  1.00  0.00    -0.288 OA
ATOM     10  C   UNL     1      37.765   4.317  -1.957  1.00  0.00     0.076 A 
ATOM     11  C   UNL     1      38.917   3.636  -1.507  1.00  0.00     0.041 A 
ATOM     12  C   UNL     1      39.138   2.222  -1.891  1.00  0.00     0.194 C 
ATOM     13  O   UNL     1      40.224   1.650  -1.600  1.00  0.00    -0.289 OA
ATOM     14  C   UNL     1      39.848   4.301  -0.689  1.00  0.00     0.059 A 
ATOM     15  C   UNL     1      39.634   5.629  -0.307  1.00  0.00     0.120 A 
ATOM     16  C   UNL     1      38.478   6.291  -0.717  1.00  0.00     0.093 A 
ATOM     17  C   UNL     1      37.526   5.645  -1.513  1.00  0.00     0.131 A 
ENDROOT
BRANCH   6  18
ATOM     18  O   UNL     1      34.647   1.978  -4.013  1.00  0.00    -0.507 OA
ATOM     19  H   UNL     1      34.404   2.220  -4.963  1.00  0.00     0.293 HD
ENDBRANCH   6  18
BRANCH  17  20
ATOM     20  O   UNL     1      36.352   6.341  -1.808  1.00  0.00    -0.507 OA
ATOM     21  H   UNL     1      35.570   6.413  -1.171  1.00  0.00     0.293 HD
ENDBRANCH  17  20
BRANCH  15  22
ATOM     22  O   UNL     1      40.560   6.295   0.492  1.00  0.00    -0.508 OA
ATOM     23  H   UNL     1      41.307   6.850   0.089  1.00  0.00     0.293 HD
ENDBRANCH  15  22
TORSDOF 3
ENDMDL
MODEL 4
REMARK VINA RESULT:    -7.283      2.025      5.857
REMARK INTER + INTRA:          -7.921
REMARK INTER:                  -7.921
REMARK INTRA:                   0.000
REMARK UNBOUND:                 0.000
REMARK SMILES Cc1cc(O)c2c(c1)C(=O)c1cc(O)cc(O)c1C2=O
REMARK SMILES IDX 1 1 2 2 8 3 7 4 6 5 4 6 3 7 19 8 20 9 18 10 11 11 9 12 10 13
REMARK SMILES IDX 12 14 13 15 15 16 16 17 5 18 17 20 14 22
REMARK H PARENT 5 19 17 21 14 23
REMARK Flexibility Score: inf
ROOT
ATOM      1  C   UNL     1      42.019   4.864  -0.510  1.00  0.00     0.044 C 
ATOM      2  C   UNL     1      40.635   4.612  -1.036  1.00  0.00    -0.047 A 
ATOM      3  C   UNL     1      40.248   3.321  -1.410  1.00  0.00     0.016 A 
ATOM      4  C   UNL     1      38.943   3.067  -1.862  1.00  0.00     0.038 A 
ATOM      5  C   UNL     1      38.000   4.118  -1.917  1.00  0.00     0.076 A 
ATOM      6  C   UNL     1      38.412   5.434  -1.581  1.00  0.00     0.127 A 
ATOM      7  C   UNL     1      39.711   5.658  -1.115  1.00  0.00     0.050 A 
ATOM      8  C   UNL     1      36.594   3.783  -2.259  1.00  0.00     0.201 C 
ATOM      9  O   UNL     1      35.652   4.477  -1.792  1.00  0.00    -0.288 OA
ATOM     10  C   UNL     1      36.292   2.525  -2.992  1.00  0.00     0.076 A 
ATOM     11  C   UNL     1      37.236   1.477  -2.934  1.00  0.00     0.041 A 
ATOM     12  C   UNL     1      38.551   1.701  -2.286  1.00  0.00     0.194 C 
ATOM     13  O   UNL     1      39.345   0.736  -2.118  1.00  0.00    -0.289 OA
ATOM     14  C   UNL     1      36.929   0.226  -3.497  1.00  0.00     0.059 A 
ATOM     15  C   UNL     1      35.699   0.016  -4.127  1.00  0.00     0.120 A 
ATOM     16  C   UNL     1      34.780   1.061  -4.221  1.00  0.00     0.093 A 
ATOM     17  C   UNL     1      35.071   2.321  -3.687  1.00  0.00     0.131 A 
ENDROOT
BRANCH   6  18
ATOM     18  O   UNL     1      37.578   6.546  -1.726  1.00  0.00    -0.507 OA
ATOM     19  H   UNL     1      36.881   6.814  -1.045  1.00  0.00     0.293 HD
ENDBRANCH   6  18
BRANCH  17  20
ATOM     20  O   UNL     1      34.142   3.341  -3.900  1.00  0.00    -0.507 OA
ATOM     21  H   UNL     1      33.402   3.567  -3.249  1.00  0.00     0.293 HD
ENDBRANCH  17  20
BRANCH  15  22
ATOM     22  O   UNL     1      35.385  -1.226  -4.674  1.00  0.00    -0.508 OA
ATOM     23  H   UNL     1      34.627  -1.337  -5.338  1.00  0.00     0.293 HD
ENDBRANCH  15  22
TORSDOF 3
ENDMDL
MODEL 5
REMARK VINA RESULT:    -7.140      1.602      5.591
REMARK INTER + INTRA:          -7.766
REMARK INTER:                  -7.766
REMARK INTRA:                   0.000
REMARK UNBOUND:                 0.000
REMARK SMILES Cc1cc(O)c2c(c1)C(=O)c1cc(O)cc(O)c1C2=O
REMARK SMILES IDX 1 1 2 2 8 3 7 4 6 5 4 6 3 7 19 8 20 9 18 10 11 11 9 12 10 13
REMARK SMILES IDX 12 14 13 15 15 16 16 17 5 18 17 20 14 22
REMARK H PARENT 5 19 17 21 14 23
REMARK Flexibility Score: inf
ROOT
ATOM      1  C   UNL     1      35.760   5.942  -1.796  1.00  0.00     0.044 C 
ATOM      2  C   UNL     1      36.405   4.593  -1.921  1.00  0.00    -0.047 A 
ATOM      3  C   UNL     1      35.882   3.640  -2.803  1.00  0.00     0.016 A 
ATOM      4  C   UNL     1      36.504   2.391  -2.959  1.00  0.00     0.038 A 
ATOM      5  C   UNL     1      37.685   2.097  -2.240  1.00  0.00     0.076 A 
ATOM      6  C   UNL     1      38.184   3.049  -1.314  1.00  0.00     0.127 A 
ATOM      7  C   UNL     1      37.559   4.294  -1.190  1.00  0.00     0.050 A 
ATOM      8  C   UNL     1      38.392   0.827  -2.542  1.00  0.00     0.201 C 
ATOM      9  O   UNL     1      39.644   0.759  -2.411  1.00  0.00    -0.288 OA
ATOM     10  C   UNL     1      37.654  -0.297  -3.175  1.00  0.00     0.076 A 
ATOM     11  C   UNL     1      36.475   0.000  -3.893  1.00  0.00     0.041 A 
ATOM     12  C   UNL     1      35.924   1.376  -3.872  1.00  0.00     0.194 C 
ATOM     13  O   UNL     1      34.947   1.677  -4.611  1.00  0.00    -0.289 OA
ATOM     14  C   UNL     1      35.824  -1.012  -4.620  1.00  0.00     0.059 A 
ATOM     15  C   UNL     1      36.328  -2.316  -4.626  1.00  0.00     0.120 A 
ATOM     16  C   UNL     1      37.469  -2.621  -3.886  1.00  0.00     0.093 A 
ATOM     17  C   UNL     1      38.123  -1.637  -3.138  1.00  0.00     0.131 A 
ENDROOT
BRANCH   6  18
ATOM     18  O   UNL     1      39.272   2.789  -0.477  1.00  0.00    -0.507 OA
ATOM     19  H   UNL     1      40.217   2.664  -0.812  1.00  0.00     0.293 HD
ENDBRANCH   6  18
BRANCH  17  20
ATOM     20  O   UNL     1      39.205  -2.037  -2.351  1.00  0.00    -0.507 OA
ATOM     21  H   UNL     1      39.123  -2.673  -1.570  1.00  0.00     0.293 HD
ENDBRANCH  17  20
BRANCH  15  22
ATOM     22  O   UNL     1      35.693  -3.318  -5.356  1.00  0.00    -0.508 OA
ATOM     23  H   UNL     1      34.709  -3.526  -5.228  1.00  0.00     0.293 HD
ENDBRANCH  15  22
TORSDOF 3
ENDMDL
MODEL 6
REMARK VINA RESULT:    -6.905      1.682      5.237
REMARK INTER + INTRA:          -7.511
REMARK INTER:                  -7.511
REMARK INTRA:                   0.000
REMARK UNBOUND:                 0.000
REMARK SMILES Cc1cc(O)c2c(c1)C(=O)c1cc(O)cc(O)c1C2=O
REMARK SMILES IDX 1 1 2 2 8 3 7 4 6 5 4 6 3 7 19 8 20 9 18 10 11 11 9 12 10 13
REMARK SMILES IDX 12 14 13 15 15 16 16 17 5 18 17 20 14 22
REMARK H PARENT 5 19 17 21 14 23
REMARK Flexibility Score: inf
ROOT
ATOM      1  C   UNL     1      37.099   5.768   0.558  1.00  0.00     0.044 C 
ATOM      2  C   UNL     1      37.135   4.480  -0.213  1.00  0.00    -0.047 A 
ATOM      3  C   UNL     1      36.413   4.353  -1.405  1.00  0.00     0.016 A 
ATOM      4  C   UNL     1      36.475   3.167  -2.156  1.00  0.00     0.038 A 
ATOM      5  C   UNL     1      37.292   2.100  -1.721  1.00  0.00     0.076 A 
ATOM      6  C   UNL     1      37.985   2.218  -0.488  1.00  0.00     0.127 A 
ATOM      7  C   UNL     1      37.924   3.415   0.232  1.00  0.00     0.050 A 
ATOM      8  C   UNL     1      37.445   0.923  -2.615  1.00  0.00     0.201 C 
ATOM      9  O   UNL     1      38.515   0.258  -2.599  1.00  0.00    -0.288 OA
ATOM     10  C   UNL     1      36.420   0.649  -3.656  1.00  0.00     0.076 A 
ATOM     11  C   UNL     1      35.605   1.718  -4.088  1.00  0.00     0.041 A 
ATOM     12  C   UNL     1      35.682   3.030  -3.402  1.00  0.00     0.194 C 
ATOM     13  O   UNL     1      35.053   4.022  -3.863  1.00  0.00    -0.289 OA
ATOM     14  C   UNL     1      34.720   1.533  -5.164  1.00  0.00     0.059 A 
ATOM     15  C   UNL     1      34.629   0.292  -5.801  1.00  0.00     0.120 A 
ATOM     16  C   UNL     1      35.403  -0.777  -5.351  1.00  0.00     0.093 A 
ATOM     17  C   UNL     1      36.276  -0.624  -4.269  1.00  0.00     0.131 A 
ENDROOT
BRANCH   6  18
ATOM     18  O   UNL     1      38.714   1.166   0.071  1.00  0.00    -0.507 OA
ATOM     19  H   UNL     1      38.823   1.028   1.066  1.00  0.00     0.293 HD
ENDBRANCH   6  18
BRANCH  17  20
ATOM     20  O   UNL     1      36.950  -1.761  -3.818  1.00  0.00    -0.507 OA
ATOM     21  H   UNL     1      37.957  -1.827  -3.758  1.00  0.00     0.293 HD
ENDBRANCH  17  20
BRANCH  15  22
ATOM     22  O   UNL     1      33.763   0.108  -6.876  1.00  0.00    -0.508 OA
ATOM     23  H   UNL     1      34.066   0.249  -7.832  1.00  0.00     0.293 HD
ENDBRANCH  15  22
TORSDOF 3
ENDMDL
MODEL 7
REMARK VINA RESULT:    -6.899      1.457      3.423
REMARK INTER + INTRA:          -7.504
REMARK INTER:                  -7.504
REMARK INTRA:                   0.000
REMARK UNBOUND:                 0.000
REMARK SMILES Cc1cc(O)c2c(c1)C(=O)c1cc(O)cc(O)c1C2=O
REMARK SMILES IDX 1 1 2 2 8 3 7 4 6 5 4 6 3 7 19 8 20 9 18 10 11 11 9 12 10 13
REMARK SMILES IDX 12 14 13 15 15 16 16 17 5 18 17 20 14 22
REMARK H PARENT 5 19 17 21 14 23
REMARK Flexibility Score: inf
ROOT
ATOM      1  C   UNL     1      36.378  -3.407  -4.648  1.00  0.00     0.044 C 
ATOM      2  C   UNL     1      36.010  -1.951  -4.635  1.00  0.00    -0.047 A 
ATOM      3  C   UNL     1      36.607  -1.082  -3.716  1.00  0.00     0.016 A 
ATOM      4  C   UNL     1      36.303   0.289  -3.725  1.00  0.00     0.038 A 
ATOM      5  C   UNL     1      35.405   0.805  -4.687  1.00  0.00     0.076 A 
ATOM      6  C   UNL     1      34.768  -0.089  -5.587  1.00  0.00     0.127 A 
ATOM      7  C   UNL     1      35.103  -1.446  -5.571  1.00  0.00     0.050 A 
ATOM      8  C   UNL     1      35.222   2.278  -4.758  1.00  0.00     0.201 C 
ATOM      9  O   UNL     1      34.942   2.822  -5.859  1.00  0.00    -0.288 OA
ATOM     10  C   UNL     1      35.555   3.121  -3.580  1.00  0.00     0.076 A 
ATOM     11  C   UNL     1      36.453   2.602  -2.621  1.00  0.00     0.041 A 
ATOM     12  C   UNL     1      36.916   1.198  -2.726  1.00  0.00     0.194 C 
ATOM     13  O   UNL     1      37.813   0.769  -1.950  1.00  0.00    -0.289 OA
ATOM     14  C   UNL     1      36.899   3.418  -1.566  1.00  0.00     0.059 A 
ATOM     15  C   UNL     1      36.448   4.736  -1.452  1.00  0.00     0.120 A 
ATOM     16  C   UNL     1      35.532   5.239  -2.374  1.00  0.00     0.093 A 
ATOM     17  C   UNL     1      35.057   4.441  -3.420  1.00  0.00     0.131 A 
ENDROOT
BRANCH   6  18
ATOM     18  O   UNL     1      33.780   0.322  -6.484  1.00  0.00    -0.507 OA
ATOM     19  H   UNL     1      33.937   0.437  -7.475  1.00  0.00     0.293 HD
ENDBRANCH   6  18
BRANCH  17  20
ATOM     20  O   UNL     1      34.072   4.983  -4.249  1.00  0.00    -0.507 OA
ATOM     21  H   UNL     1      34.113   4.951  -5.259  1.00  0.00     0.293 HD
ENDBRANCH  17  20
BRANCH  15  22
ATOM     22  O   UNL     1      36.898   5.552  -0.416  1.00  0.00    -0.508 OA
ATOM     23  H   UNL     1      36.627   5.386   0.546  1.00  0.00     0.293 HD
ENDBRANCH  15  22
TORSDOF 3
ENDMDL
MODEL 8
REMARK VINA RESULT:    -6.331     15.040     16.436
REMARK INTER + INTRA:          -6.886
REMARK INTER:                  -6.886
REMARK INTRA:                   0.000
REMARK UNBOUND:                 0.000
REMARK SMILES Cc1cc(O)c2c(c1)C(=O)c1cc(O)cc(O)c1C2=O
REMARK SMILES IDX 1 1 2 2 8 3 7 4 6 5 4 6 3 7 19 8 20 9 18 10 11 11 9 12 10 13
REMARK SMILES IDX 12 14 13 15 15 16 16 17 5 18 17 20 14 22
REMARK H PARENT 5 19 17 21 14 23
REMARK Flexibility Score: inf
ROOT
ATOM      1  C   UNL     1      35.285 -10.675   6.275  1.00  0.00     0.044 C 
ATOM      2  C   UNL     1      33.956  -9.981   6.361  1.00  0.00    -0.047 A 
ATOM      3  C   UNL     1      32.799 -10.616   5.896  1.00  0.00     0.016 A 
ATOM      4  C   UNL     1      31.545  -9.994   6.012  1.00  0.00     0.038 A 
ATOM      5  C   UNL     1      31.443  -8.726   6.626  1.00  0.00     0.076 A 
ATOM      6  C   UNL     1      32.625  -8.067   7.053  1.00  0.00     0.127 A 
ATOM      7  C   UNL     1      33.859  -8.715   6.946  1.00  0.00     0.050 A 
ATOM      8  C   UNL     1      30.086  -8.167   6.861  1.00  0.00     0.201 C 
ATOM      9  O   UNL     1      29.884  -7.404   7.843  1.00  0.00    -0.288 OA
ATOM     10  C   UNL     1      28.936  -8.656   6.056  1.00  0.00     0.076 A 
ATOM     11  C   UNL     1      29.043  -9.925   5.445  1.00  0.00     0.041 A 
ATOM     12  C   UNL     1      30.328 -10.661   5.488  1.00  0.00     0.194 C 
ATOM     13  O   UNL     1      30.394 -11.845   5.057  1.00  0.00    -0.289 OA
ATOM     14  C   UNL     1      27.930 -10.482   4.791  1.00  0.00     0.059 A 
ATOM     15  C   UNL     1      26.721  -9.782   4.730  1.00  0.00     0.120 A 
ATOM     16  C   UNL     1      26.625  -8.513   5.298  1.00  0.00     0.093 A 
ATOM     17  C   UNL     1      27.724  -7.928   5.936  1.00  0.00     0.131 A 
ENDROOT
BRANCH   6  18
ATOM     18  O   UNL     1      32.623  -6.764   7.556  1.00  0.00    -0.507 OA
ATOM     19  H   UNL     1      31.886  -6.390   8.138  1.00  0.00     0.293 HD
ENDBRANCH   6  18
BRANCH  17  20
ATOM     20  O   UNL     1      27.578  -6.619   6.400  1.00  0.00    -0.507 OA
ATOM     21  H   UNL     1      27.272  -6.389   7.336  1.00  0.00     0.293 HD
ENDBRANCH  17  20
BRANCH  15  22
ATOM     22  O   UNL     1      25.612 -10.336   4.094  1.00  0.00    -0.508 OA
ATOM     23  H   UNL     1      25.701 -10.859   3.230  1.00  0.00     0.293 HD
ENDBRANCH  15  22
TORSDOF 3
ENDMDL
MODEL 9
REMARK VINA RESULT:    -6.277      3.816      6.195
REMARK INTER + INTRA:          -6.827
REMARK INTER:                  -6.827
REMARK INTRA:                   0.000
REMARK UNBOUND:                 0.000
REMARK SMILES Cc1cc(O)c2c(c1)C(=O)c1cc(O)cc(O)c1C2=O
REMARK SMILES IDX 1 1 2 2 8 3 7 4 6 5 4 6 3 7 19 8 20 9 18 10 11 11 9 12 10 13
REMARK SMILES IDX 12 14 13 15 15 16 16 17 5 18 17 20 14 22
REMARK H PARENT 5 19 17 21 14 23
REMARK Flexibility Score: inf
ROOT
ATOM      1  C   UNL     1      34.637   5.142  -2.312  1.00  0.00     0.044 C 
ATOM      2  C   UNL     1      36.105   4.971  -2.049  1.00  0.00    -0.047 A 
ATOM      3  C   UNL     1      36.672   5.470  -0.871  1.00  0.00     0.016 A 
ATOM      4  C   UNL     1      38.036   5.276  -0.595  1.00  0.00     0.038 A 
ATOM      5  C   UNL     1      38.841   4.548  -1.499  1.00  0.00     0.076 A 
ATOM      6  C   UNL     1      38.271   4.085  -2.713  1.00  0.00     0.127 A 
ATOM      7  C   UNL     1      36.906   4.272  -2.957  1.00  0.00     0.050 A 
ATOM      8  C   UNL     1      40.239   4.239  -1.103  1.00  0.00     0.201 C 
ATOM      9  O   UNL     1      40.793   3.189  -1.524  1.00  0.00    -0.288 OA
ATOM     10  C   UNL     1      40.912   5.065  -0.066  1.00  0.00     0.076 A 
ATOM     11  C   UNL     1      40.103   5.790   0.837  1.00  0.00     0.041 A 
ATOM     12  C   UNL     1      38.635   5.836   0.641  1.00  0.00     0.194 C 
ATOM     13  O   UNL     1      37.898   6.374   1.513  1.00  0.00    -0.289 OA
ATOM     14  C   UNL     1      40.696   6.471   1.915  1.00  0.00     0.059 A 
ATOM     15  C   UNL     1      42.082   6.448   2.091  1.00  0.00     0.120 A 
ATOM     16  C   UNL     1      42.886   5.766   1.179  1.00  0.00     0.093 A 
ATOM     17  C   UNL     1      42.323   5.097   0.087  1.00  0.00     0.131 A 
ENDROOT
BRANCH   6  18
ATOM     18  O   UNL     1      39.024   3.466  -3.713  1.00  0.00    -0.507 OA
ATOM     19  H   UNL     1      38.694   3.328  -4.658  1.00  0.00     0.293 HD
ENDBRANCH   6  18
BRANCH  17  20
ATOM     20  O   UNL     1      43.197   4.514  -0.833  1.00  0.00    -0.507 OA
ATOM     21  H   UNL     1      43.277   3.516  -0.972  1.00  0.00     0.293 HD
ENDBRANCH  17  20
BRANCH  15  22
ATOM     22  O   UNL     1      42.672   7.110   3.165  1.00  0.00    -0.508 OA
ATOM     23  H   UNL     1      42.235   7.918   3.595  1.00  0.00     0.293 HD
ENDBRANCH  15  22
TORSDOF 3
ENDMDL
