MODEL 1
REMARK VINA RESULT:    -2.547      0.000      0.000
REMARK INTER + INTRA:          -2.884
REMARK INTER:                  -2.845
REMARK INTRA:                  -0.039
REMARK UNBOUND:                -0.039
REMARK SMILES CCCC(=O)[O-]
REMARK SMILES IDX 3 1 4 2 5 3 6 4 2 5 1 6
REMARK H PARENT
REMARK Flexibility Score: inf
ROOT
ATOM      1  C   UNL     1     -43.090 -49.160  34.232  1.00  0.00     0.052 C 
ENDROOT
BRANCH   1   2
ATOM      2  C   UNL     1     -43.784 -49.370  35.543  1.00  0.00     0.041 C 
ATOM      3  O   UNL     1     -44.238 -50.504  35.847  1.00  0.00    -0.550 OA
ATOM      4  O   UNL     1     -43.958 -48.302  36.416  1.00  0.00    -0.550 OA
ENDBRANCH   1   2
BRANCH   1   5
ATOM      5  C   UNL     1     -42.330 -47.828  34.199  1.00  0.00     0.003 C 
ATOM      6  C   UNL     1     -40.842 -48.000  34.504  1.00  0.00     0.004 C 
ENDBRANCH   1   5
TORSDOF 2
ENDMDL
MODEL 2
REMARK VINA RESULT:    -2.529      0.116      1.325
REMARK INTER + INTRA:          -2.864
REMARK INTER:                  -2.826
REMARK INTRA:                  -0.039
REMARK UNBOUND:                -0.039
REMARK SMILES CCCC(=O)[O-]
REMARK SMILES IDX 3 1 4 2 5 3 6 4 2 5 1 6
REMARK H PARENT
REMARK Flexibility Score: inf
ROOT
ATOM      1  C   UNL     1     -43.101 -49.216  34.308  1.00  0.00     0.052 C 
ENDROOT
BRANCH   1   2
ATOM      2  C   UNL     1     -43.851 -49.373  35.595  1.00  0.00     0.041 C 
ATOM      3  O   UNL     1     -44.026 -48.382  36.352  1.00  0.00    -0.550 OA
ATOM      4  O   UNL     1     -44.327 -50.622  35.975  1.00  0.00    -0.550 OA
ENDBRANCH   1   2
BRANCH   1   5
ATOM      5  C   UNL     1     -42.378 -47.865  34.234  1.00  0.00     0.003 C 
ATOM      6  C   UNL     1     -40.891 -47.984  34.566  1.00  0.00     0.004 C 
ENDBRANCH   1   5
TORSDOF 2
ENDMDL
MODEL 3
REMARK VINA RESULT:    -2.490      1.299      1.523
REMARK INTER + INTRA:          -2.820
REMARK INTER:                  -2.814
REMARK INTRA:                  -0.007
REMARK UNBOUND:                -0.039
REMARK SMILES CCCC(=O)[O-]
REMARK SMILES IDX 3 1 4 2 5 3 6 4 2 5 1 6
REMARK H PARENT
REMARK Flexibility Score: inf
ROOT
ATOM      1  C   UNL     1     -43.188 -48.333  36.281  1.00  0.00     0.052 C 
ENDROOT
BRANCH   1   2
ATOM      2  C   UNL     1     -44.594 -48.695  36.649  1.00  0.00     0.041 C 
ATOM      3  O   UNL     1     -45.106 -49.764  36.224  1.00  0.00    -0.550 OA
ATOM      4  O   UNL     1     -45.350 -47.835  37.436  1.00  0.00    -0.550 OA
ENDBRANCH   1   2
BRANCH   1   5
ATOM      5  C   UNL     1     -42.940 -48.479  34.775  1.00  0.00     0.003 C 
ATOM      6  C   UNL     1     -41.728 -47.675  34.304  1.00  0.00     0.004 C 
ENDBRANCH   1   5
TORSDOF 2
ENDMDL
MODEL 4
REMARK VINA RESULT:    -2.472      1.848      2.590
REMARK INTER + INTRA:          -2.801
REMARK INTER:                  -2.783
REMARK INTRA:                  -0.018
REMARK UNBOUND:                -0.039
REMARK SMILES CCCC(=O)[O-]
REMARK SMILES IDX 3 1 4 2 5 3 6 4 2 5 1 6
REMARK H PARENT
REMARK Flexibility Score: inf
ROOT
ATOM      1  C   UNL     1     -44.422 -49.356  36.109  1.00  0.00     0.052 C 
ENDROOT
BRANCH   1   2
ATOM      2  C   UNL     1     -45.566 -48.813  36.911  1.00  0.00     0.041 C 
ATOM      3  O   UNL     1     -45.447 -47.722  37.527  1.00  0.00    -0.550 OA
ATOM      4  O   UNL     1     -46.752 -49.531  37.003  1.00  0.00    -0.550 OA
ENDBRANCH   1   2
BRANCH   1   5
ATOM      5  C   UNL     1     -43.281 -48.337  35.988  1.00  0.00     0.003 C 
ATOM      6  C   UNL     1     -42.687 -48.295  34.580  1.00  0.00     0.004 C 
ENDBRANCH   1   5
TORSDOF 2
ENDMDL
MODEL 5
REMARK VINA RESULT:    -2.460      1.531      1.966
REMARK INTER + INTRA:          -2.787
REMARK INTER:                  -2.743
REMARK INTRA:                  -0.044
REMARK UNBOUND:                -0.039
REMARK SMILES CCCC(=O)[O-]
REMARK SMILES IDX 3 1 4 2 5 3 6 4 2 5 1 6
REMARK H PARENT
REMARK Flexibility Score: inf
ROOT
ATOM      1  C   UNL     1     -42.228 -47.772  34.211  1.00  0.00     0.052 C 
ENDROOT
BRANCH   1   2
ATOM      2  C   UNL     1     -43.019 -49.036  34.060  1.00  0.00     0.041 C 
ATOM      3  O   UNL     1     -42.996 -49.672  32.974  1.00  0.00    -0.550 OA
ATOM      4  O   UNL     1     -43.807 -49.492  35.110  1.00  0.00    -0.550 OA
ENDBRANCH   1   2
BRANCH   1   5
ATOM      5  C   UNL     1     -40.997 -47.977  35.104  1.00  0.00     0.003 C 
ATOM      6  C   UNL     1     -39.783 -48.470  34.316  1.00  0.00     0.004 C 
ENDBRANCH   1   5
TORSDOF 2
ENDMDL
MODEL 6
REMARK VINA RESULT:    -2.418      2.510      3.121
REMARK INTER + INTRA:          -2.740
REMARK INTER:                  -2.729
REMARK INTRA:                  -0.011
REMARK UNBOUND:                -0.039
REMARK SMILES CCCC(=O)[O-]
REMARK SMILES IDX 3 1 4 2 5 3 6 4 2 5 1 6
REMARK H PARENT
REMARK Flexibility Score: inf
ROOT
ATOM      1  C   UNL     1     -45.086 -49.803  36.460  1.00  0.00     0.052 C 
ENDROOT
BRANCH   1   2
ATOM      2  C   UNL     1     -46.474 -49.816  37.023  1.00  0.00     0.041 C 
ATOM      3  O   UNL     1     -47.014 -50.903  37.356  1.00  0.00    -0.550 OA
ATOM      4  O   UNL     1     -47.184 -48.628  37.148  1.00  0.00    -0.550 OA
ENDBRANCH   1   2
BRANCH   1   5
ATOM      5  C   UNL     1     -44.372 -48.475  36.741  1.00  0.00     0.003 C 
ATOM      6  C   UNL     1     -43.180 -48.248  35.811  1.00  0.00     0.004 C 
ENDBRANCH   1   5
TORSDOF 2
ENDMDL
MODEL 7
REMARK VINA RESULT:    -2.397      6.682      7.421
REMARK INTER + INTRA:          -2.717
REMARK INTER:                  -2.680
REMARK INTRA:                  -0.037
REMARK UNBOUND:                -0.039
REMARK SMILES CCCC(=O)[O-]
REMARK SMILES IDX 3 1 4 2 5 3 6 4 2 5 1 6
REMARK H PARENT
REMARK Flexibility Score: inf
ROOT
ATOM      1  C   UNL     1     -42.385 -45.082  41.403  1.00  0.00     0.052 C 
ENDROOT
BRANCH   1   2
ATOM      2  C   UNL     1     -41.086 -44.539  40.890  1.00  0.00     0.041 C 
ATOM      3  O   UNL     1     -40.162 -45.322  40.547  1.00  0.00    -0.550 OA
ATOM      4  O   UNL     1     -40.885 -43.166  40.821  1.00  0.00    -0.550 OA
ENDBRANCH   1   2
BRANCH   1   5
ATOM      5  C   UNL     1     -43.406 -45.271  40.274  1.00  0.00     0.003 C 
ATOM      6  C   UNL     1     -43.529 -46.732  39.840  1.00  0.00     0.004 C 
ENDBRANCH   1   5
TORSDOF 2
ENDMDL
MODEL 8
REMARK VINA RESULT:    -2.374      6.154      6.622
REMARK INTER + INTRA:          -2.691
REMARK INTER:                  -2.666
REMARK INTRA:                  -0.024
REMARK UNBOUND:                -0.039
REMARK SMILES CCCC(=O)[O-]
REMARK SMILES IDX 3 1 4 2 5 3 6 4 2 5 1 6
REMARK H PARENT
REMARK Flexibility Score: inf
ROOT
ATOM      1  C   UNL     1     -41.905 -45.676  40.279  1.00  0.00     0.052 C 
ENDROOT
BRANCH   1   2
ATOM      2  C   UNL     1     -43.329 -46.084  40.054  1.00  0.00     0.041 C 
ATOM      3  O   UNL     1     -44.255 -45.237  40.156  1.00  0.00    -0.550 OA
ATOM      4  O   UNL     1     -43.635 -47.408  39.764  1.00  0.00    -0.550 OA
ENDBRANCH   1   2
BRANCH   1   5
ATOM      5  C   UNL     1     -41.794 -44.554  41.319  1.00  0.00     0.003 C 
ATOM      6  C   UNL     1     -40.774 -43.488  40.918  1.00  0.00     0.004 C 
ENDBRANCH   1   5
TORSDOF 2
ENDMDL
MODEL 9
REMARK VINA RESULT:    -2.340      4.111      5.585
REMARK INTER + INTRA:          -2.653
REMARK INTER:                  -2.648
REMARK INTRA:                  -0.005
REMARK UNBOUND:                -0.039
REMARK SMILES CCCC(=O)[O-]
REMARK SMILES IDX 3 1 4 2 5 3 6 4 2 5 1 6
REMARK H PARENT
REMARK Flexibility Score: inf
ROOT
ATOM      1  C   UNL     1     -46.553 -50.767  38.036  1.00  0.00     0.052 C 
ENDROOT
BRANCH   1   2
ATOM      2  C   UNL     1     -46.344 -49.600  37.119  1.00  0.00     0.041 C 
ATOM      3  O   UNL     1     -45.309 -49.532  36.406  1.00  0.00    -0.550 OA
ATOM      4  O   UNL     1     -47.278 -48.573  37.078  1.00  0.00    -0.550 OA
ENDBRANCH   1   2
BRANCH   1   5
ATOM      5  C   UNL     1     -47.033 -52.008  37.274  1.00  0.00     0.003 C 
ATOM      6  C   UNL     1     -47.714 -53.025  38.190  1.00  0.00     0.004 C 
ENDBRANCH   1   5
TORSDOF 2
ENDMDL
