MODEL 1
REMARK VINA RESULT:    -3.998      0.000      0.000
REMARK INTER + INTRA:          -6.693
REMARK INTER:                  -6.101
REMARK INTRA:                  -0.592
REMARK UNBOUND:                -0.592
REMARK SMILES O=C([O-])CCCCCCCCC(=O)[O-]
REMARK SMILES IDX 7 1 6 2 5 3 4 4 2 5 1 6 3 7 8 8 9 9 10 10 11 11 12 12 13 13
REMARK SMILES IDX 14 14
REMARK H PARENT
REMARK Flexibility Score: inf
ROOT
ATOM      1  C   UNL     1       6.361  -1.827  -2.720  1.00  0.00     0.000 C 
ENDROOT
BRANCH   1   2
ATOM      2  C   UNL     1       6.060  -0.411  -2.196  1.00  0.00     0.000 C 
BRANCH   2   3
ATOM      3  C   UNL     1       5.441  -0.424  -0.788  1.00  0.00     0.006 C 
BRANCH   3   4
ATOM      4  C   UNL     1       6.455  -0.795   0.302  1.00  0.00     0.053 C 
BRANCH   4   5
ATOM      5  C   UNL     1       6.224   0.028   1.529  1.00  0.00     0.041 C 
ATOM      6  O   UNL     1       6.984   0.999   1.793  1.00  0.00    -0.550 OA
ATOM      7  O   UNL     1       5.201  -0.303   2.408  1.00  0.00    -0.550 OA
ENDBRANCH   4   5
ENDBRANCH   3   4
ENDBRANCH   2   3
ENDBRANCH   1   2
BRANCH   1   8
ATOM      8  C   UNL     1       5.601  -2.150  -4.017  1.00  0.00     0.000 C 
BRANCH   8   9
ATOM      9  C   UNL     1       4.838  -0.939  -4.575  1.00  0.00     0.000 C 
BRANCH   9  10
ATOM     10  C   UNL     1       3.409  -1.331  -4.979  1.00  0.00     0.006 C 
BRANCH  10  11
ATOM     11  C   UNL     1       2.601  -1.883  -3.795  1.00  0.00     0.053 C 
BRANCH  11  12
ATOM     12  C   UNL     1       1.900  -3.160  -4.147  1.00  0.00     0.041 C 
ATOM     13  O   UNL     1       1.118  -3.701  -3.322  1.00  0.00    -0.550 OA
ATOM     14  O   UNL     1       2.138  -3.768  -5.373  1.00  0.00    -0.550 OA
ENDBRANCH  11  12
ENDBRANCH  10  11
ENDBRANCH   9  10
ENDBRANCH   8   9
ENDBRANCH   1   8
TORSDOF 9
ENDMDL
MODEL 2
REMARK VINA RESULT:    -3.996      0.753      1.416
REMARK INTER + INTRA:          -6.690
REMARK INTER:                  -6.253
REMARK INTRA:                  -0.437
REMARK UNBOUND:                -0.592
REMARK SMILES O=C([O-])CCCCCCCCC(=O)[O-]
REMARK SMILES IDX 7 1 6 2 5 3 4 4 2 5 1 6 3 7 8 8 9 9 10 10 11 11 12 12 13 13
REMARK SMILES IDX 14 14
REMARK H PARENT
REMARK Flexibility Score: inf
ROOT
ATOM      1  C   UNL     1       5.920  -0.588  -2.772  1.00  0.00     0.000 C 
ENDROOT
BRANCH   1   2
ATOM      2  C   UNL     1       5.517  -0.665  -1.289  1.00  0.00     0.000 C 
BRANCH   2   3
ATOM      3  C   UNL     1       5.862   0.620  -0.517  1.00  0.00     0.006 C 
BRANCH   3   4
ATOM      4  C   UNL     1       6.730   0.354   0.719  1.00  0.00     0.053 C 
BRANCH   4   5
ATOM      5  C   UNL     1       5.940   0.582   1.969  1.00  0.00     0.041 C 
ATOM      6  O   UNL     1       5.273  -0.359   2.477  1.00  0.00    -0.550 OA
ATOM      7  O   UNL     1       5.902   1.844   2.548  1.00  0.00    -0.550 OA
ENDBRANCH   4   5
ENDBRANCH   3   4
ENDBRANCH   2   3
ENDBRANCH   1   2
BRANCH   1   8
ATOM      8  C   UNL     1       5.229  -1.662  -3.628  1.00  0.00     0.000 C 
BRANCH   8   9
ATOM      9  C   UNL     1       4.674  -1.104  -4.947  1.00  0.00     0.000 C 
BRANCH   9  10
ATOM     10  C   UNL     1       3.140  -1.181  -4.971  1.00  0.00     0.006 C 
BRANCH  10  11
ATOM     11  C   UNL     1       2.575  -1.922  -3.751  1.00  0.00     0.053 C 
BRANCH  11  12
ATOM     12  C   UNL     1       1.864  -3.180  -4.145  1.00  0.00     0.041 C 
ATOM     13  O   UNL     1       1.978  -3.632  -5.315  1.00  0.00    -0.550 OA
ATOM     14  O   UNL     1       1.049  -3.835  -3.230  1.00  0.00    -0.550 OA
ENDBRANCH  11  12
ENDBRANCH  10  11
ENDBRANCH   9  10
ENDBRANCH   8   9
ENDBRANCH   1   8
TORSDOF 9
ENDMDL
MODEL 3
REMARK VINA RESULT:    -3.987      0.182      6.408
REMARK INTER + INTRA:          -6.677
REMARK INTER:                  -6.023
REMARK INTRA:                  -0.654
REMARK UNBOUND:                -0.592
REMARK SMILES O=C([O-])CCCCCCCCC(=O)[O-]
REMARK SMILES IDX 7 1 6 2 5 3 4 4 2 5 1 6 3 7 8 8 9 9 10 10 11 11 12 12 13 13
REMARK SMILES IDX 14 14
REMARK H PARENT
REMARK Flexibility Score: inf
ROOT
ATOM      1  C   UNL     1       5.525  -2.204  -3.855  1.00  0.00     0.000 C 
ENDROOT
BRANCH   1   2
ATOM      2  C   UNL     1       4.944  -1.080  -4.732  1.00  0.00     0.000 C 
BRANCH   2   3
ATOM      3  C   UNL     1       3.414  -1.164  -4.860  1.00  0.00     0.006 C 
BRANCH   3   4
ATOM      4  C   UNL     1       2.763  -1.918  -3.693  1.00  0.00     0.053 C 
BRANCH   4   5
ATOM      5  C   UNL     1       1.981  -3.087  -4.201  1.00  0.00     0.041 C 
ATOM      6  O   UNL     1       1.168  -3.683  -3.444  1.00  0.00    -0.550 OA
ATOM      7  O   UNL     1       2.182  -3.551  -5.495  1.00  0.00    -0.550 OA
ENDBRANCH   4   5
ENDBRANCH   3   4
ENDBRANCH   2   3
ENDBRANCH   1   2
BRANCH   1   8
ATOM      8  C   UNL     1       6.456  -1.671  -2.753  1.00  0.00     0.000 C 
BRANCH   8   9
ATOM      9  C   UNL     1       6.036  -0.286  -2.239  1.00  0.00     0.000 C 
BRANCH   9  10
ATOM     10  C   UNL     1       5.341  -0.396  -0.874  1.00  0.00     0.006 C 
BRANCH  10  11
ATOM     11  C   UNL     1       6.316  -0.794   0.244  1.00  0.00     0.053 C 
BRANCH  11  12
ATOM     12  C   UNL     1       6.173   0.087   1.447  1.00  0.00     0.041 C 
ATOM     13  O   UNL     1       6.884   1.120   1.563  1.00  0.00    -0.550 OA
ATOM     14  O   UNL     1       5.279  -0.251   2.455  1.00  0.00    -0.550 OA
ENDBRANCH  11  12
ENDBRANCH  10  11
ENDBRANCH   9  10
ENDBRANCH   8   9
ENDBRANCH   1   8
TORSDOF 9
ENDMDL
MODEL 4
REMARK VINA RESULT:    -3.549      1.633      2.388
REMARK INTER + INTRA:          -6.009
REMARK INTER:                  -5.183
REMARK INTRA:                  -0.826
REMARK UNBOUND:                -0.592
REMARK SMILES O=C([O-])CCCCCCCCC(=O)[O-]
REMARK SMILES IDX 7 1 6 2 5 3 4 4 2 5 1 6 3 7 8 8 9 9 10 10 11 11 12 12 13 13
REMARK SMILES IDX 14 14
REMARK H PARENT
REMARK Flexibility Score: inf
ROOT
ATOM      1  C   UNL     1       8.165  -2.511  -1.190  1.00  0.00     0.000 C 
ENDROOT
BRANCH   1   2
ATOM      2  C   UNL     1       7.923  -1.340  -0.221  1.00  0.00     0.000 C 
BRANCH   2   3
ATOM      3  C   UNL     1       6.435  -1.153   0.116  1.00  0.00     0.006 C 
BRANCH   3   4
ATOM      4  C   UNL     1       6.047   0.320   0.295  1.00  0.00     0.053 C 
BRANCH   4   5
ATOM      5  C   UNL     1       5.683   0.595   1.719  1.00  0.00     0.041 C 
ATOM      6  O   UNL     1       5.360  -0.353   2.484  1.00  0.00    -0.550 OA
ATOM      7  O   UNL     1       5.654   1.900   2.191  1.00  0.00    -0.550 OA
ENDBRANCH   4   5
ENDBRANCH   3   4
ENDBRANCH   2   3
ENDBRANCH   1   2
BRANCH   1   8
ATOM      8  C   UNL     1       7.150  -2.542  -2.344  1.00  0.00     0.000 C 
BRANCH   8   9
ATOM      9  C   UNL     1       7.456  -1.503  -3.433  1.00  0.00     0.000 C 
BRANCH   9  10
ATOM     10  C   UNL     1       6.193  -0.714  -3.808  1.00  0.00     0.006 C 
BRANCH  10  11
ATOM     11  C   UNL     1       4.929  -1.299  -3.162  1.00  0.00     0.053 C 
BRANCH  11  12
ATOM     12  C   UNL     1       3.857  -1.560  -4.176  1.00  0.00     0.041 C 
ATOM     13  O   UNL     1       2.664  -1.722  -3.808  1.00  0.00    -0.550 OA
ATOM     14  O   UNL     1       4.182  -1.659  -5.523  1.00  0.00    -0.550 OA
ENDBRANCH  11  12
ENDBRANCH  10  11
ENDBRANCH   9  10
ENDBRANCH   8   9
ENDBRANCH   1   8
TORSDOF 9
ENDMDL
MODEL 5
REMARK VINA RESULT:    -3.527      1.399      6.295
REMARK INTER + INTRA:          -5.976
REMARK INTER:                  -5.330
REMARK INTRA:                  -0.645
REMARK UNBOUND:                -0.592
REMARK SMILES O=C([O-])CCCCCCCCC(=O)[O-]
REMARK SMILES IDX 7 1 6 2 5 3 4 4 2 5 1 6 3 7 8 8 9 9 10 10 11 11 12 12 13 13
REMARK SMILES IDX 14 14
REMARK H PARENT
REMARK Flexibility Score: inf
ROOT
ATOM      1  C   UNL     1       7.425  -1.723  -2.715  1.00  0.00     0.000 C 
ENDROOT
BRANCH   1   2
ATOM      2  C   UNL     1       6.464  -2.241  -3.799  1.00  0.00     0.000 C 
BRANCH   2   3
ATOM      3  C   UNL     1       5.367  -1.221  -4.150  1.00  0.00     0.006 C 
BRANCH   3   4
ATOM      4  C   UNL     1       4.024  -1.542  -3.483  1.00  0.00     0.053 C 
BRANCH   4   5
ATOM      5  C   UNL     1       3.009  -1.926  -4.513  1.00  0.00     0.041 C 
ATOM      6  O   UNL     1       2.921  -3.122  -4.900  1.00  0.00    -0.550 OA
ATOM      7  O   UNL     1       2.192  -0.957  -5.081  1.00  0.00    -0.550 OA
ENDBRANCH   4   5
ENDBRANCH   3   4
ENDBRANCH   2   3
ENDBRANCH   1   2
BRANCH   1   8
ATOM      8  C   UNL     1       7.371  -2.564  -1.428  1.00  0.00     0.000 C 
BRANCH   8   9
ATOM      9  C   UNL     1       7.129  -1.713  -0.172  1.00  0.00     0.000 C 
BRANCH   9  10
ATOM     10  C   UNL     1       6.021  -0.678  -0.417  1.00  0.00     0.006 C 
BRANCH  10  11
ATOM     11  C   UNL     1       6.327   0.670   0.251  1.00  0.00     0.053 C 
BRANCH  11  12
ATOM     12  C   UNL     1       5.578   0.837   1.537  1.00  0.00     0.041 C 
ATOM     13  O   UNL     1       5.154   1.971   1.881  1.00  0.00    -0.550 OA
ATOM     14  O   UNL     1       5.379  -0.255   2.373  1.00  0.00    -0.550 OA
ENDBRANCH  11  12
ENDBRANCH  10  11
ENDBRANCH   9  10
ENDBRANCH   8   9
ENDBRANCH   1   8
TORSDOF 9
ENDMDL
MODEL 6
REMARK VINA RESULT:    -3.492      1.188      1.816
REMARK INTER + INTRA:          -5.922
REMARK INTER:                  -5.325
REMARK INTRA:                  -0.597
REMARK UNBOUND:                -0.592
REMARK SMILES O=C([O-])CCCCCCCCC(=O)[O-]
REMARK SMILES IDX 7 1 6 2 5 3 4 4 2 5 1 6 3 7 8 8 9 9 10 10 11 11 12 12 13 13
REMARK SMILES IDX 14 14
REMARK H PARENT
REMARK Flexibility Score: inf
ROOT
ATOM      1  C   UNL     1       5.385  -2.253  -4.140  1.00  0.00     0.000 C 
ENDROOT
BRANCH   1   2
ATOM      2  C   UNL     1       6.299  -1.901  -2.953  1.00  0.00     0.000 C 
BRANCH   2   3
ATOM      3  C   UNL     1       6.019  -0.497  -2.391  1.00  0.00     0.006 C 
BRANCH   3   4
ATOM      4  C   UNL     1       5.217  -0.530  -1.084  1.00  0.00     0.053 C 
BRANCH   4   5
ATOM      5  C   UNL     1       5.667   0.565  -0.169  1.00  0.00     0.041 C 
ATOM      6  O   UNL     1       5.930   1.708  -0.630  1.00  0.00    -0.550 OA
ATOM      7  O   UNL     1       5.842   0.312   1.186  1.00  0.00    -0.550 OA
ENDBRANCH   4   5
ENDBRANCH   3   4
ENDBRANCH   2   3
ENDBRANCH   1   2
BRANCH   1   8
ATOM      8  C   UNL     1       4.705  -1.015  -4.749  1.00  0.00     0.000 C 
BRANCH   8   9
ATOM      9  C   UNL     1       3.195  -1.209  -4.956  1.00  0.00     0.000 C 
BRANCH   9  10
ATOM     10  C   UNL     1       2.637  -2.252  -3.976  1.00  0.00     0.006 C 
BRANCH  10  11
ATOM     11  C   UNL     1       1.860  -3.365  -4.693  1.00  0.00     0.053 C 
BRANCH  11  12
ATOM     12  C   UNL     1       1.414  -4.433  -3.741  1.00  0.00     0.041 C 
ATOM     13  O   UNL     1       0.589  -4.164  -2.829  1.00  0.00    -0.550 OA
ATOM     14  O   UNL     1       1.936  -5.717  -3.841  1.00  0.00    -0.550 OA
ENDBRANCH  11  12
ENDBRANCH  10  11
ENDBRANCH   9  10
ENDBRANCH   8   9
ENDBRANCH   1   8
TORSDOF 9
ENDMDL
MODEL 7
REMARK VINA RESULT:    -3.380      3.535      5.333
REMARK INTER + INTRA:          -5.751
REMARK INTER:                  -5.163
REMARK INTRA:                  -0.587
REMARK UNBOUND:                -0.592
REMARK SMILES O=C([O-])CCCCCCCCC(=O)[O-]
REMARK SMILES IDX 7 1 6 2 5 3 4 4 2 5 1 6 3 7 8 8 9 9 10 10 11 11 12 12 13 13
REMARK SMILES IDX 14 14
REMARK H PARENT
REMARK Flexibility Score: inf
ROOT
ATOM      1  C   UNL     1       6.629   0.913   2.339  1.00  0.00     0.000 C 
ENDROOT
BRANCH   1   2
ATOM      2  C   UNL     1       6.361   2.389   1.996  1.00  0.00     0.000 C 
BRANCH   2   3
ATOM      3  C   UNL     1       5.000   2.596   1.312  1.00  0.00     0.006 C 
BRANCH   3   4
ATOM      4  C   UNL     1       4.437   4.007   1.527  1.00  0.00     0.053 C 
BRANCH   4   5
ATOM      5  C   UNL     1       2.972   3.944   1.821  1.00  0.00     0.041 C 
ATOM      6  O   UNL     1       2.132   4.199   0.916  1.00  0.00    -0.550 OA
ATOM      7  O   UNL     1       2.531   3.650   3.105  1.00  0.00    -0.550 OA
ENDBRANCH   4   5
ENDBRANCH   3   4
ENDBRANCH   2   3
ENDBRANCH   1   2
BRANCH   1   8
ATOM      8  C   UNL     1       5.693  -0.048   1.586  1.00  0.00     0.000 C 
BRANCH   8   9
ATOM      9  C   UNL     1       6.385  -0.749   0.408  1.00  0.00     0.000 C 
BRANCH   9  10
ATOM     10  C   UNL     1       5.626  -0.495  -0.903  1.00  0.00     0.006 C 
BRANCH  10  11
ATOM     11  C   UNL     1       6.415   0.403  -1.867  1.00  0.00     0.053 C 
BRANCH  11  12
ATOM     12  C   UNL     1       6.359  -0.108  -3.274  1.00  0.00     0.041 C 
ATOM     13  O   UNL     1       7.184   0.305  -4.131  1.00  0.00    -0.550 OA
ATOM     14  O   UNL     1       5.374  -1.015  -3.647  1.00  0.00    -0.550 OA
ENDBRANCH  11  12
ENDBRANCH  10  11
ENDBRANCH   9  10
ENDBRANCH   8   9
ENDBRANCH   1   8
TORSDOF 9
ENDMDL
MODEL 8
REMARK VINA RESULT:    -3.342      2.595      6.409
REMARK INTER + INTRA:          -5.692
REMARK INTER:                  -5.098
REMARK INTRA:                  -0.594
REMARK UNBOUND:                -0.592
REMARK SMILES O=C([O-])CCCCCCCCC(=O)[O-]
REMARK SMILES IDX 7 1 6 2 5 3 4 4 2 5 1 6 3 7 8 8 9 9 10 10 11 11 12 12 13 13
REMARK SMILES IDX 14 14
REMARK H PARENT
REMARK Flexibility Score: inf
ROOT
ATOM      1  C   UNL     1       2.289  -3.308  -5.524  1.00  0.00     0.000 C 
ENDROOT
BRANCH   1   2
ATOM      2  C   UNL     1       2.201  -4.298  -4.349  1.00  0.00     0.000 C 
BRANCH   2   3
ATOM      3  C   UNL     1       0.750  -4.589  -3.932  1.00  0.00     0.006 C 
BRANCH   3   4
ATOM      4  C   UNL     1       0.581  -4.697  -2.410  1.00  0.00     0.053 C 
BRANCH   4   5
ATOM      5  C   UNL     1       0.753  -6.114  -1.966  1.00  0.00     0.041 C 
ATOM      6  O   UNL     1       1.385  -6.375  -0.907  1.00  0.00    -0.550 OA
ATOM      7  O   UNL     1       0.258  -7.153  -2.744  1.00  0.00    -0.550 OA
ENDBRANCH   4   5
ENDBRANCH   3   4
ENDBRANCH   2   3
ENDBRANCH   1   2
BRANCH   1   8
ATOM      8  C   UNL     1       2.270  -1.841  -5.061  1.00  0.00     0.000 C 
BRANCH   8   9
ATOM      9  C   UNL     1       3.216  -1.579  -3.880  1.00  0.00     0.000 C 
BRANCH   9  10
ATOM     10  C   UNL     1       4.645  -1.308  -4.372  1.00  0.00     0.006 C 
BRANCH  10  11
ATOM     11  C   UNL     1       5.706  -1.891  -3.428  1.00  0.00     0.053 C 
BRANCH  11  12
ATOM     12  C   UNL     1       6.055  -0.937  -2.327  1.00  0.00     0.041 C 
ATOM     13  O   UNL     1       6.237   0.283  -2.581  1.00  0.00    -0.550 OA
ATOM     14  O   UNL     1       6.213  -1.401  -1.027  1.00  0.00    -0.550 OA
ENDBRANCH  11  12
ENDBRANCH  10  11
ENDBRANCH   9  10
ENDBRANCH   8   9
ENDBRANCH   1   8
TORSDOF 9
ENDMDL
MODEL 9
REMARK VINA RESULT:    -3.304      4.132      5.905
REMARK INTER + INTRA:          -5.635
REMARK INTER:                  -5.165
REMARK INTRA:                  -0.471
REMARK UNBOUND:                -0.592
REMARK SMILES O=C([O-])CCCCCCCCC(=O)[O-]
REMARK SMILES IDX 7 1 6 2 5 3 4 4 2 5 1 6 3 7 8 8 9 9 10 10 11 11 12 12 13 13
REMARK SMILES IDX 14 14
REMARK H PARENT
REMARK Flexibility Score: inf
ROOT
ATOM      1  C   UNL     1       2.302  -4.130  -4.415  1.00  0.00     0.000 C 
ENDROOT
BRANCH   1   2
ATOM      2  C   UNL     1       1.867  -2.721  -3.976  1.00  0.00     0.000 C 
BRANCH   2   3
ATOM      3  C   UNL     1       3.059  -1.767  -3.794  1.00  0.00     0.006 C 
BRANCH   3   4
ATOM      4  C   UNL     1       3.757  -1.429  -5.118  1.00  0.00     0.053 C 
BRANCH   4   5
ATOM      5  C   UNL     1       5.192  -1.084  -4.878  1.00  0.00     0.041 C 
ATOM      6  O   UNL     1       5.675  -0.018  -5.347  1.00  0.00    -0.550 OA
ATOM      7  O   UNL     1       6.011  -1.958  -4.175  1.00  0.00    -0.550 OA
ENDBRANCH   4   5
ENDBRANCH   3   4
ENDBRANCH   2   3
ENDBRANCH   1   2
BRANCH   1   8
ATOM      8  C   UNL     1       1.448  -5.237  -3.774  1.00  0.00     0.000 C 
BRANCH   8   9
ATOM      9  C   UNL     1       0.525  -4.708  -2.666  1.00  0.00     0.000 C 
BRANCH   9  10
ATOM     10  C   UNL     1       0.855  -5.365  -1.317  1.00  0.00     0.006 C 
BRANCH  10  11
ATOM     11  C   UNL     1       1.376  -6.800  -1.482  1.00  0.00     0.053 C 
BRANCH  11  12
ATOM     12  C   UNL     1       0.331  -7.815  -1.132  1.00  0.00     0.041 C 
ATOM     13  O   UNL     1      -0.874  -7.613  -1.436  1.00  0.00    -0.550 OA
ATOM     14  O   UNL     1       0.684  -8.968  -0.442  1.00  0.00    -0.550 OA
ENDBRANCH  11  12
ENDBRANCH  10  11
ENDBRANCH   9  10
ENDBRANCH   8   9
ENDBRANCH   1   8
TORSDOF 9
ENDMDL
