MODEL 1
REMARK VINA RESULT:    -2.136      0.000      0.000
REMARK INTER + INTRA:          -2.136
REMARK INTER:                  -2.136
REMARK INTRA:                   0.000
REMARK UNBOUND:                 0.000
REMARK SMILES CC(=O)[O-]
REMARK SMILES IDX 1 1 2 2 3 3 4 4
REMARK H PARENT
REMARK Flexibility Score: inf
ROOT
ATOM      1  C   UNL     1      12.173  22.563 -19.339  1.00  0.00     0.063 C 
ATOM      2  C   UNL     1      13.178  22.992 -20.354  1.00  0.00     0.038 C 
ATOM      3  O   UNL     1      12.801  23.376 -21.492  1.00  0.00    -0.550 OA
ATOM      4  O   UNL     1      14.527  23.019 -20.029  1.00  0.00    -0.550 OA
ENDROOT
TORSDOF 0
ENDMDL
MODEL 2
REMARK VINA RESULT:    -2.109      1.325      1.713
REMARK INTER + INTRA:          -2.109
REMARK INTER:                  -2.109
REMARK INTRA:                   0.000
REMARK UNBOUND:                 0.000
REMARK SMILES CC(=O)[O-]
REMARK SMILES IDX 1 1 2 2 3 3 4 4
REMARK H PARENT
REMARK Flexibility Score: inf
ROOT
ATOM      1  C   UNL     1      12.703  22.933 -22.079  1.00  0.00     0.063 C 
ATOM      2  C   UNL     1      12.919  23.080 -20.611  1.00  0.00     0.038 C 
ATOM      3  O   UNL     1      11.933  23.153 -19.831  1.00  0.00    -0.550 OA
ATOM      4  O   UNL     1      14.207  23.082 -20.094  1.00  0.00    -0.550 OA
ENDROOT
TORSDOF 0
ENDMDL
MODEL 3
REMARK VINA RESULT:    -2.077      2.266      2.678
REMARK INTER + INTRA:          -2.077
REMARK INTER:                  -2.077
REMARK INTRA:                   0.000
REMARK UNBOUND:                 0.000
REMARK SMILES CC(=O)[O-]
REMARK SMILES IDX 1 1 2 2 3 3 4 4
REMARK H PARENT
REMARK Flexibility Score: inf
ROOT
ATOM      1  C   UNL     1      12.086  22.953 -20.070  1.00  0.00     0.063 C 
ATOM      2  C   UNL     1      12.414  22.120 -18.877  1.00  0.00     0.038 C 
ATOM      3  O   UNL     1      13.211  21.152 -18.983  1.00  0.00    -0.550 OA
ATOM      4  O   UNL     1      11.881  22.442 -17.636  1.00  0.00    -0.550 OA
ENDROOT
TORSDOF 0
ENDMDL
MODEL 4
REMARK VINA RESULT:    -2.016     24.468     24.737
REMARK INTER + INTRA:          -2.016
REMARK INTER:                  -2.016
REMARK INTRA:                   0.000
REMARK UNBOUND:                 0.000
REMARK SMILES CC(=O)[O-]
REMARK SMILES IDX 1 1 2 2 3 3 4 4
REMARK H PARENT
REMARK Flexibility Score: inf
ROOT
ATOM      1  C   UNL     1      31.670   6.511 -26.018  1.00  0.00     0.063 C 
ATOM      2  C   UNL     1      31.425   7.011 -24.634  1.00  0.00     0.038 C 
ATOM      3  O   UNL     1      31.904   8.115 -24.267  1.00  0.00    -0.550 OA
ATOM      4  O   UNL     1      30.624   6.283 -23.764  1.00  0.00    -0.550 OA
ENDROOT
TORSDOF 0
ENDMDL
MODEL 5
REMARK VINA RESULT:    -2.016      2.194      2.462
REMARK INTER + INTRA:          -2.016
REMARK INTER:                  -2.016
REMARK INTRA:                   0.000
REMARK UNBOUND:                 0.000
REMARK SMILES CC(=O)[O-]
REMARK SMILES IDX 1 1 2 2 3 3 4 4
REMARK H PARENT
REMARK Flexibility Score: inf
ROOT
ATOM      1  C   UNL     1      12.445  23.014 -20.178  1.00  0.00     0.063 C 
ATOM      2  C   UNL     1      12.592  22.252 -18.904  1.00  0.00     0.038 C 
ATOM      3  O   UNL     1      11.875  22.539 -17.910  1.00  0.00    -0.550 OA
ATOM      4  O   UNL     1      13.484  21.191 -18.827  1.00  0.00    -0.550 OA
ENDROOT
TORSDOF 0
ENDMDL
MODEL 6
REMARK VINA RESULT:    -1.992      2.372      2.530
REMARK INTER + INTRA:          -1.992
REMARK INTER:                  -1.992
REMARK INTRA:                   0.000
REMARK UNBOUND:                 0.000
REMARK SMILES CC(=O)[O-]
REMARK SMILES IDX 1 1 2 2 3 3 4 4
REMARK H PARENT
REMARK Flexibility Score: inf
ROOT
ATOM      1  C   UNL     1      13.445  21.113 -19.328  1.00  0.00     0.063 C 
ATOM      2  C   UNL     1      12.418  22.091 -18.863  1.00  0.00     0.038 C 
ATOM      3  O   UNL     1      12.006  22.992 -19.640  1.00  0.00    -0.550 OA
ATOM      4  O   UNL     1      11.876  21.977 -17.590  1.00  0.00    -0.550 OA
ENDROOT
TORSDOF 0
ENDMDL
MODEL 7
REMARK VINA RESULT:    -1.983     25.002     25.084
REMARK INTER + INTRA:          -1.983
REMARK INTER:                  -1.983
REMARK INTRA:                   0.000
REMARK UNBOUND:                 0.000
REMARK SMILES CC(=O)[O-]
REMARK SMILES IDX 1 1 2 2 3 3 4 4
REMARK H PARENT
REMARK Flexibility Score: inf
ROOT
ATOM      1  C   UNL     1      28.331   3.880 -26.515  1.00  0.00     0.063 C 
ATOM      2  C   UNL     1      29.216   4.524 -25.503  1.00  0.00     0.038 C 
ATOM      3  O   UNL     1      29.089   4.245 -24.282  1.00  0.00    -0.550 OA
ATOM      4  O   UNL     1      30.219   5.395 -25.909  1.00  0.00    -0.550 OA
ENDROOT
TORSDOF 0
ENDMDL
MODEL 8
REMARK VINA RESULT:    -1.969     26.455     26.845
REMARK INTER + INTRA:          -1.969
REMARK INTER:                  -1.969
REMARK INTRA:                   0.000
REMARK UNBOUND:                 0.000
REMARK SMILES CC(=O)[O-]
REMARK SMILES IDX 1 1 2 2 3 3 4 4
REMARK H PARENT
REMARK Flexibility Score: inf
ROOT
ATOM      1  C   UNL     1      29.647   3.875 -27.443  1.00  0.00     0.063 C 
ATOM      2  C   UNL     1      30.990   4.425 -27.784  1.00  0.00     0.038 C 
ATOM      3  O   UNL     1      31.693   4.972 -26.894  1.00  0.00    -0.550 OA
ATOM      4  O   UNL     1      31.492   4.288 -29.071  1.00  0.00    -0.550 OA
ENDROOT
TORSDOF 0
ENDMDL
MODEL 9
REMARK VINA RESULT:    -1.963     26.054     26.467
REMARK INTER + INTRA:          -1.963
REMARK INTER:                  -1.963
REMARK INTRA:                   0.000
REMARK UNBOUND:                 0.000
REMARK SMILES CC(=O)[O-]
REMARK SMILES IDX 1 1 2 2 3 3 4 4
REMARK H PARENT
REMARK Flexibility Score: inf
ROOT
ATOM      1  C   UNL     1      31.829   4.141 -25.892  1.00  0.00     0.063 C 
ATOM      2  C   UNL     1      31.391   5.035 -27.002  1.00  0.00     0.038 C 
ATOM      3  O   UNL     1      31.077   4.548 -28.120  1.00  0.00    -0.550 OA
ATOM      4  O   UNL     1      31.279   6.403 -26.790  1.00  0.00    -0.550 OA
ENDROOT
TORSDOF 0
ENDMDL
