MODEL 1
REMARK VINA RESULT:    -4.119      0.000      0.000
REMARK INTER + INTRA:          -4.819
REMARK INTER:                  -4.601
REMARK INTRA:                  -0.218
REMARK UNBOUND:                -0.218
REMARK SMILES CC(C)c1ccc(C(=O)[O-])cc1
REMARK SMILES IDX 7 1 6 2 11 3 5 4 12 5 4 6 8 7 9 8 10 9 2 10 1 11 3 12
REMARK H PARENT
REMARK Flexibility Score: inf
ROOT
ATOM      1  C   UNL     1      34.885 105.720 267.434  1.00  0.00    -0.003 A 
ATOM      2  C   UNL     1      34.899 106.812 266.549  1.00  0.00     0.010 A 
ATOM      3  C   UNL     1      34.875 104.418 266.906  1.00  0.00     0.010 A 
ATOM      4  C   UNL     1      34.904 106.606 265.168  1.00  0.00     0.004 A 
ATOM      5  C   UNL     1      34.880 104.212 265.525  1.00  0.00     0.004 A 
ATOM      6  C   UNL     1      34.895 105.305 264.639  1.00  0.00    -0.045 A 
ENDROOT
BRANCH   1   7
ATOM      7  C   UNL     1      34.880 105.933 268.898  1.00  0.00     0.071 C 
ATOM      8  O   UNL     1      34.883 104.952 269.688  1.00  0.00    -0.545 OA
ATOM      9  O   UNL     1      34.875 107.220 269.423  1.00  0.00    -0.545 OA
ENDBRANCH   1   7
BRANCH   6  10
ATOM     10  C   UNL     1      34.900 105.097 263.136  1.00  0.00     0.013 C 
ATOM     11  C   UNL     1      36.084 105.818 262.482  1.00  0.00     0.012 C 
ATOM     12  C   UNL     1      34.902 103.604 262.785  1.00  0.00     0.012 C 
ENDBRANCH   6  10
TORSDOF 2
ENDMDL
MODEL 2
REMARK VINA RESULT:    -3.831      0.653      1.788
REMARK INTER + INTRA:          -4.498
REMARK INTER:                  -4.279
REMARK INTRA:                  -0.219
REMARK UNBOUND:                -0.218
REMARK SMILES CC(C)c1ccc(C(=O)[O-])cc1
REMARK SMILES IDX 7 1 6 2 11 3 5 4 12 5 4 6 8 7 9 8 10 9 2 10 1 11 3 12
REMARK H PARENT
REMARK Flexibility Score: inf
ROOT
ATOM      1  C   UNL     1      34.893 106.331 267.056  1.00  0.00    -0.003 A 
ATOM      2  C   UNL     1      34.877 104.958 266.759  1.00  0.00     0.010 A 
ATOM      3  C   UNL     1      34.919 107.255 265.997  1.00  0.00     0.010 A 
ATOM      4  C   UNL     1      34.887 104.518 265.433  1.00  0.00     0.004 A 
ATOM      5  C   UNL     1      34.929 106.816 264.671  1.00  0.00     0.004 A 
ATOM      6  C   UNL     1      34.913 105.440 264.374  1.00  0.00    -0.045 A 
ENDROOT
BRANCH   1   7
ATOM      7  C   UNL     1      34.882 106.802 268.458  1.00  0.00     0.071 C 
ATOM      8  O   UNL     1      34.875 108.034 268.720  1.00  0.00    -0.545 OA
ATOM      9  O   UNL     1      34.877 105.890 269.508  1.00  0.00    -0.545 OA
ENDBRANCH   1   7
BRANCH   6  10
ATOM     10  C   UNL     1      34.924 104.948 262.938  1.00  0.00     0.013 C 
ATOM     11  C   UNL     1      36.137 105.493 262.176  1.00  0.00     0.012 C 
ATOM     12  C   UNL     1      34.878 103.417 262.879  1.00  0.00     0.012 C 
ENDBRANCH   6  10
TORSDOF 2
ENDMDL
MODEL 3
REMARK VINA RESULT:    -3.466      3.005      5.164
REMARK INTER + INTRA:          -4.090
REMARK INTER:                  -3.873
REMARK INTRA:                  -0.217
REMARK UNBOUND:                -0.218
REMARK SMILES CC(C)c1ccc(C(=O)[O-])cc1
REMARK SMILES IDX 7 1 6 2 11 3 5 4 12 5 4 6 8 7 9 8 10 9 2 10 1 11 3 12
REMARK H PARENT
REMARK Flexibility Score: inf
ROOT
ATOM      1  C   UNL     1      35.126 105.017 264.833  1.00  0.00    -0.003 A 
ATOM      2  C   UNL     1      34.972 104.237 265.991  1.00  0.00     0.010 A 
ATOM      3  C   UNL     1      35.198 106.414 264.960  1.00  0.00     0.010 A 
ATOM      4  C   UNL     1      34.892 104.840 267.249  1.00  0.00     0.004 A 
ATOM      5  C   UNL     1      35.119 107.018 266.217  1.00  0.00     0.004 A 
ATOM      6  C   UNL     1      34.965 106.237 267.377  1.00  0.00    -0.045 A 
ENDROOT
BRANCH   1   7
ATOM      7  C   UNL     1      35.211 104.383 263.500  1.00  0.00     0.071 C 
ATOM      8  O   UNL     1      34.877 103.179 263.340  1.00  0.00    -0.545 OA
ATOM      9  O   UNL     1      35.660 105.107 262.401  1.00  0.00    -0.545 OA
ENDBRANCH   1   7
BRANCH   6  10
ATOM     10  C   UNL     1      34.877 106.879 268.750  1.00  0.00     0.013 C 
ATOM     11  C   UNL     1      35.986 106.362 269.673  1.00  0.00     0.012 C 
ATOM     12  C   UNL     1      34.912 108.408 268.648  1.00  0.00     0.012 C 
ENDBRANCH   6  10
TORSDOF 2
ENDMDL
MODEL 4
REMARK VINA RESULT:    -3.287      2.574      4.060
REMARK INTER + INTRA:          -3.889
REMARK INTER:                  -3.681
REMARK INTRA:                  -0.209
REMARK UNBOUND:                -0.218
REMARK SMILES CC(C)c1ccc(C(=O)[O-])cc1
REMARK SMILES IDX 7 1 6 2 11 3 5 4 12 5 4 6 8 7 9 8 10 9 2 10 1 11 3 12
REMARK H PARENT
REMARK Flexibility Score: inf
ROOT
ATOM      1  C   UNL     1      35.542 105.076 263.647  1.00  0.00    -0.003 A 
ATOM      2  C   UNL     1      36.296 106.138 263.120  1.00  0.00     0.010 A 
ATOM      3  C   UNL     1      35.229 103.988 262.815  1.00  0.00     0.010 A 
ATOM      4  C   UNL     1      36.727 106.114 261.792  1.00  0.00     0.004 A 
ATOM      5  C   UNL     1      35.659 103.962 261.486  1.00  0.00     0.004 A 
ATOM      6  C   UNL     1      36.414 105.026 260.959  1.00  0.00    -0.045 A 
ENDROOT
BRANCH   1   7
ATOM      7  C   UNL     1      35.085 105.098 265.053  1.00  0.00     0.071 C 
ATOM      8  O   UNL     1      34.875 104.022 265.675  1.00  0.00    -0.545 OA
ATOM      9  O   UNL     1      34.881 106.306 265.710  1.00  0.00    -0.545 OA
ENDBRANCH   1   7
BRANCH   6  10
ATOM     10  C   UNL     1      36.888 105.013 259.517  1.00  0.00     0.013 C 
ATOM     11  C   UNL     1      36.377 106.241 258.756  1.00  0.00     0.012 C 
ATOM     12  C   UNL     1      38.416 104.913 259.440  1.00  0.00     0.012 C 
ENDBRANCH   6  10
TORSDOF 2
ENDMDL
MODEL 5
REMARK VINA RESULT:    -2.935      4.729      6.454
REMARK INTER + INTRA:          -3.497
REMARK INTER:                  -3.290
REMARK INTRA:                  -0.207
REMARK UNBOUND:                -0.218
REMARK SMILES CC(C)c1ccc(C(=O)[O-])cc1
REMARK SMILES IDX 7 1 6 2 11 3 5 4 12 5 4 6 8 7 9 8 10 9 2 10 1 11 3 12
REMARK H PARENT
REMARK Flexibility Score: inf
ROOT
ATOM      1  C   UNL     1      36.781 105.101 260.884  1.00  0.00    -0.003 A 
ATOM      2  C   UNL     1      37.081 106.131 261.792  1.00  0.00     0.010 A 
ATOM      3  C   UNL     1      35.852 104.116 261.258  1.00  0.00     0.010 A 
ATOM      4  C   UNL     1      36.466 106.174 263.045  1.00  0.00     0.004 A 
ATOM      5  C   UNL     1      35.236 104.159 262.510  1.00  0.00     0.004 A 
ATOM      6  C   UNL     1      35.537 105.190 263.420  1.00  0.00    -0.045 A 
ENDROOT
BRANCH   1   7
ATOM      7  C   UNL     1      37.430 105.052 259.556  1.00  0.00     0.071 C 
ATOM      8  O   UNL     1      38.610 104.627 259.434  1.00  0.00    -0.545 OA
ATOM      9  O   UNL     1      36.746 105.471 258.421  1.00  0.00    -0.545 OA
ENDBRANCH   1   7
BRANCH   6  10
ATOM     10  C   UNL     1      34.876 105.249 264.785  1.00  0.00     0.013 C 
ATOM     11  C   UNL     1      35.344 104.093 265.676  1.00  0.00     0.012 C 
ATOM     12  C   UNL     1      35.125 106.602 265.461  1.00  0.00     0.012 C 
ENDBRANCH   6  10
TORSDOF 2
ENDMDL
MODEL 6
REMARK VINA RESULT:    -1.311      3.675      5.325
REMARK INTER + INTRA:          -1.683
REMARK INTER:                  -1.467
REMARK INTRA:                  -0.216
REMARK UNBOUND:                -0.218
REMARK SMILES CC(C)c1ccc(C(=O)[O-])cc1
REMARK SMILES IDX 7 1 6 2 11 3 5 4 12 5 4 6 8 7 9 8 10 9 2 10 1 11 3 12
REMARK H PARENT
REMARK Flexibility Score: inf
ROOT
ATOM      1  C   UNL     1      35.580 104.900 262.994  1.00  0.00    -0.003 A 
ATOM      2  C   UNL     1      36.262 106.128 263.023  1.00  0.00     0.010 A 
ATOM      3  C   UNL     1      34.887 104.481 264.142  1.00  0.00     0.010 A 
ATOM      4  C   UNL     1      36.251 106.920 264.173  1.00  0.00     0.004 A 
ATOM      5  C   UNL     1      34.876 105.272 265.293  1.00  0.00     0.004 A 
ATOM      6  C   UNL     1      35.559 106.502 265.322  1.00  0.00    -0.045 A 
ENDROOT
BRANCH   1   7
ATOM      7  C   UNL     1      35.589 104.059 261.777  1.00  0.00     0.071 C 
ATOM      8  O   UNL     1      36.089 104.489 260.704  1.00  0.00    -0.545 OA
ATOM      9  O   UNL     1      35.046 102.779 261.801  1.00  0.00    -0.545 OA
ENDBRANCH   1   7
BRANCH   6  10
ATOM     10  C   UNL     1      35.556 107.372 266.565  1.00  0.00     0.013 C 
ATOM     11  C   UNL     1      34.875 108.720 266.295  1.00  0.00     0.012 C 
ATOM     12  C   UNL     1      34.896 106.648 267.744  1.00  0.00     0.012 C 
ENDBRANCH   6  10
TORSDOF 2
ENDMDL
