MODEL 1
REMARK VINA RESULT:    -2.590      0.000      0.000
REMARK INTER + INTRA:          -2.590
REMARK INTER:                  -2.590
REMARK INTRA:                   0.000
REMARK UNBOUND:                 0.000
REMARK SMILES CC(=O)[O-]
REMARK SMILES IDX 1 1 2 2 3 3 4 4
REMARK H PARENT
REMARK Flexibility Score: inf
ROOT
ATOM      1  C   UNL     1      19.190  21.193  10.009  1.00  0.00     0.063 C 
ATOM      2  C   UNL     1      17.866  20.568   9.725  1.00  0.00     0.038 C 
ATOM      3  O   UNL     1      17.184  20.080  10.663  1.00  0.00    -0.550 OA
ATOM      4  O   UNL     1      17.358  20.572   8.433  1.00  0.00    -0.550 OA
ENDROOT
TORSDOF 0
ENDMDL
MODEL 2
REMARK VINA RESULT:    -2.453      1.375      2.109
REMARK INTER + INTRA:          -2.453
REMARK INTER:                  -2.453
REMARK INTRA:                   0.000
REMARK UNBOUND:                 0.000
REMARK SMILES CC(=O)[O-]
REMARK SMILES IDX 1 1 2 2 3 3 4 4
REMARK H PARENT
REMARK Flexibility Score: inf
ROOT
ATOM      1  C   UNL     1      16.944  20.174  10.714  1.00  0.00     0.063 C 
ATOM      2  C   UNL     1      17.858  20.676   9.648  1.00  0.00     0.038 C 
ATOM      3  O   UNL     1      17.503  20.638   8.442  1.00  0.00    -0.550 OA
ATOM      4  O   UNL     1      19.082  21.236   9.989  1.00  0.00    -0.550 OA
ENDROOT
TORSDOF 0
ENDMDL
MODEL 3
REMARK VINA RESULT:    -2.445     12.589     12.994
REMARK INTER + INTRA:          -2.445
REMARK INTER:                  -2.445
REMARK INTRA:                   0.000
REMARK UNBOUND:                 0.000
REMARK SMILES CC(=O)[O-]
REMARK SMILES IDX 1 1 2 2 3 3 4 4
REMARK H PARENT
REMARK Flexibility Score: inf
ROOT
ATOM      1  C   UNL     1      20.763  33.252   5.704  1.00  0.00     0.063 C 
ATOM      2  C   UNL     1      21.402  32.688   6.928  1.00  0.00     0.038 C 
ATOM      3  O   UNL     1      21.219  33.235   8.046  1.00  0.00    -0.550 OA
ATOM      4  O   UNL     1      22.157  31.525   6.845  1.00  0.00    -0.550 OA
ENDROOT
TORSDOF 0
ENDMDL
MODEL 4
REMARK VINA RESULT:    -2.378     12.276     12.548
REMARK INTER + INTRA:          -2.378
REMARK INTER:                  -2.378
REMARK INTRA:                   0.000
REMARK UNBOUND:                 0.000
REMARK SMILES CC(=O)[O-]
REMARK SMILES IDX 1 1 2 2 3 3 4 4
REMARK H PARENT
REMARK Flexibility Score: inf
ROOT
ATOM      1  C   UNL     1      22.836  31.749   8.899  1.00  0.00     0.063 C 
ATOM      2  C   UNL     1      21.963  32.276   7.811  1.00  0.00     0.038 C 
ATOM      3  O   UNL     1      21.191  33.245   8.033  1.00  0.00    -0.550 OA
ATOM      4  O   UNL     1      22.038  31.733   6.535  1.00  0.00    -0.550 OA
ENDROOT
TORSDOF 0
ENDMDL
MODEL 5
REMARK VINA RESULT:    -2.368      4.507      4.837
REMARK INTER + INTRA:          -2.368
REMARK INTER:                  -2.368
REMARK INTRA:                   0.000
REMARK UNBOUND:                 0.000
REMARK SMILES CC(=O)[O-]
REMARK SMILES IDX 1 1 2 2 3 3 4 4
REMARK H PARENT
REMARK Flexibility Score: inf
ROOT
ATOM      1  C   UNL     1      15.022  19.376  10.596  1.00  0.00     0.063 C 
ATOM      2  C   UNL     1      13.759  19.069  11.327  1.00  0.00     0.038 C 
ATOM      3  O   UNL     1      13.402  17.875  11.497  1.00  0.00    -0.550 OA
ATOM      4  O   UNL     1      13.001  20.099  11.868  1.00  0.00    -0.550 OA
ENDROOT
TORSDOF 0
ENDMDL
MODEL 6
REMARK VINA RESULT:    -2.329     12.176     12.372
REMARK INTER + INTRA:          -2.329
REMARK INTER:                  -2.329
REMARK INTRA:                   0.000
REMARK UNBOUND:                 0.000
REMARK SMILES CC(=O)[O-]
REMARK SMILES IDX 1 1 2 2 3 3 4 4
REMARK H PARENT
REMARK Flexibility Score: inf
ROOT
ATOM      1  C   UNL     1      21.497  32.949   7.979  1.00  0.00     0.063 C 
ATOM      2  C   UNL     1      22.497  31.901   8.333  1.00  0.00     0.038 C 
ATOM      3  O   UNL     1      22.657  31.561   9.534  1.00  0.00    -0.550 OA
ATOM      4  O   UNL     1      23.217  31.260   7.334  1.00  0.00    -0.550 OA
ENDROOT
TORSDOF 0
ENDMDL
MODEL 7
REMARK VINA RESULT:    -2.251     12.123     12.452
REMARK INTER + INTRA:          -2.251
REMARK INTER:                  -2.251
REMARK INTRA:                   0.000
REMARK UNBOUND:                 0.000
REMARK SMILES CC(=O)[O-]
REMARK SMILES IDX 1 1 2 2 3 3 4 4
REMARK H PARENT
REMARK Flexibility Score: inf
ROOT
ATOM      1  C   UNL     1      22.377  31.381   6.905  1.00  0.00     0.063 C 
ATOM      2  C   UNL     1      22.073  32.115   8.167  1.00  0.00     0.038 C 
ATOM      3  O   UNL     1      22.571  31.731   9.257  1.00  0.00    -0.550 OA
ATOM      4  O   UNL     1      21.283  33.257   8.134  1.00  0.00    -0.550 OA
ENDROOT
TORSDOF 0
ENDMDL
MODEL 8
REMARK VINA RESULT:    -2.142     12.129     12.146
REMARK INTER + INTRA:          -2.142
REMARK INTER:                  -2.142
REMARK INTRA:                   0.000
REMARK UNBOUND:                 0.000
REMARK SMILES CC(=O)[O-]
REMARK SMILES IDX 1 1 2 2 3 3 4 4
REMARK H PARENT
REMARK Flexibility Score: inf
ROOT
ATOM      1  C   UNL     1      22.624  31.622   9.106  1.00  0.00     0.063 C 
ATOM      2  C   UNL     1      23.021  31.343   7.695  1.00  0.00     0.038 C 
ATOM      3  O   UNL     1      24.135  30.813   7.446  1.00  0.00    -0.550 OA
ATOM      4  O   UNL     1      22.140  31.619   6.658  1.00  0.00    -0.550 OA
ENDROOT
TORSDOF 0
ENDMDL
MODEL 9
REMARK VINA RESULT:    -2.126     13.370     13.720
REMARK INTER + INTRA:          -2.126
REMARK INTER:                  -2.126
REMARK INTRA:                   0.000
REMARK UNBOUND:                 0.000
REMARK SMILES CC(=O)[O-]
REMARK SMILES IDX 1 1 2 2 3 3 4 4
REMARK H PARENT
REMARK Flexibility Score: inf
ROOT
ATOM      1  C   UNL     1      20.941  33.107   6.441  1.00  0.00     0.063 C 
ATOM      2  C   UNL     1      20.653  33.098   4.978  1.00  0.00     0.038 C 
ATOM      3  O   UNL     1      19.475  32.933   4.567  1.00  0.00    -0.550 OA
ATOM      4  O   UNL     1      21.676  33.325   4.067  1.00  0.00    -0.550 OA
ENDROOT
TORSDOF 0
ENDMDL
