MODEL 1
REMARK VINA RESULT:    -5.323      0.000      0.000
REMARK INTER + INTRA:          -5.672
REMARK INTER:                  -5.634
REMARK INTRA:                  -0.038
REMARK UNBOUND:                -0.038
REMARK SMILES COc1ccc2ccc(=O)oc2c1
REMARK SMILES IDX 3 1 13 2 12 3 6 4 5 5 4 6 7 7 8 8 9 9 10 10 11 11 2 12 1 13
REMARK H PARENT
REMARK Flexibility Score: inf
ROOT
ATOM      1  C   UNL     1      21.765   0.811 -22.043  1.00  0.00     0.122 A 
ATOM      2  C   UNL     1      21.661   1.269 -20.724  1.00  0.00     0.094 A 
ATOM      3  C   UNL     1      20.932   0.544 -19.775  1.00  0.00     0.142 A 
ATOM      4  C   UNL     1      20.295  -0.659 -20.148  1.00  0.00     0.018 A 
ATOM      5  C   UNL     1      20.397  -1.121 -21.467  1.00  0.00     0.016 A 
ATOM      6  C   UNL     1      21.127  -0.392 -22.410  1.00  0.00     0.047 A 
ATOM      7  C   UNL     1      19.574  -1.360 -19.178  1.00  0.00     0.019 A 
ATOM      8  C   UNL     1      19.504  -0.856 -17.879  1.00  0.00     0.094 A 
ATOM      9  C   UNL     1      20.160   0.343 -17.581  1.00  0.00     0.336 A 
ATOM     10  O   UNL     1      20.109   0.814 -16.415  1.00  0.00    -0.246 OA
ATOM     11  O   UNL     1      20.841   0.991 -18.525  1.00  0.00    -0.423 OA
ENDROOT
BRANCH   1  12
ATOM     12  O   UNL     1      22.508   1.574 -22.955  1.00  0.00    -0.497 OA
ATOM     13  C   UNL     1      22.374   2.982 -23.125  1.00  0.00     0.278 C 
ENDBRANCH   1  12
TORSDOF 1
ENDMDL
MODEL 2
REMARK VINA RESULT:    -5.153      1.030      4.685
REMARK INTER + INTRA:          -5.493
REMARK INTER:                  -5.461
REMARK INTRA:                  -0.031
REMARK UNBOUND:                -0.038
REMARK SMILES COc1ccc2ccc(=O)oc2c1
REMARK SMILES IDX 3 1 13 2 12 3 6 4 5 5 4 6 7 7 8 8 9 9 10 10 11 11 2 12 1 13
REMARK H PARENT
REMARK Flexibility Score: inf
ROOT
ATOM      1  C   UNL     1      20.368   0.305 -17.545  1.00  0.00     0.122 A 
ATOM      2  C   UNL     1      21.073   0.987 -18.544  1.00  0.00     0.094 A 
ATOM      3  C   UNL     1      21.091   0.505 -19.857  1.00  0.00     0.142 A 
ATOM      4  C   UNL     1      20.394  -0.679 -20.180  1.00  0.00     0.018 A 
ATOM      5  C   UNL     1      19.687  -1.365 -19.184  1.00  0.00     0.016 A 
ATOM      6  C   UNL     1      19.672  -0.878 -17.874  1.00  0.00     0.047 A 
ATOM      7  C   UNL     1      20.431  -1.136 -21.501  1.00  0.00     0.019 A 
ATOM      8  C   UNL     1      21.150  -0.415 -22.454  1.00  0.00     0.094 A 
ATOM      9  C   UNL     1      21.817   0.750 -22.062  1.00  0.00     0.336 A 
ATOM     10  O   UNL     1      22.471   1.414 -22.908  1.00  0.00    -0.246 OA
ATOM     11  O   UNL     1      21.765   1.163 -20.797  1.00  0.00    -0.423 OA
ENDROOT
BRANCH   1  12
ATOM     12  O   UNL     1      20.381   0.830 -16.245  1.00  0.00    -0.497 OA
ATOM     13  C   UNL     1      19.213   1.132 -15.487  1.00  0.00     0.278 C 
ENDBRANCH   1  12
TORSDOF 1
ENDMDL
MODEL 3
REMARK VINA RESULT:    -4.901     14.624     17.294
REMARK INTER + INTRA:          -5.226
REMARK INTER:                  -5.195
REMARK INTRA:                  -0.031
REMARK UNBOUND:                -0.038
REMARK SMILES COc1ccc2ccc(=O)oc2c1
REMARK SMILES IDX 3 1 13 2 12 3 6 4 5 5 4 6 7 7 8 8 9 9 10 10 11 11 2 12 1 13
REMARK H PARENT
REMARK Flexibility Score: inf
ROOT
ATOM      1  C   UNL     1      11.310  -6.048  -9.985  1.00  0.00     0.122 A 
ATOM      2  C   UNL     1      11.001  -6.309  -8.644  1.00  0.00     0.094 A 
ATOM      3  C   UNL     1       9.711  -6.078  -8.155  1.00  0.00     0.142 A 
ATOM      4  C   UNL     1       8.712  -5.577  -9.017  1.00  0.00     0.018 A 
ATOM      5  C   UNL     1       9.016  -5.315 -10.359  1.00  0.00     0.016 A 
ATOM      6  C   UNL     1      10.307  -5.548 -10.842  1.00  0.00     0.047 A 
ATOM      7  C   UNL     1       7.433  -5.357  -8.497  1.00  0.00     0.019 A 
ATOM      8  C   UNL     1       7.182  -5.635  -7.154  1.00  0.00     0.094 A 
ATOM      9  C   UNL     1       8.221  -6.129  -6.358  1.00  0.00     0.336 A 
ATOM     10  O   UNL     1       8.015  -6.385  -5.144  1.00  0.00    -0.246 OA
ATOM     11  O   UNL     1       9.430  -6.330  -6.878  1.00  0.00    -0.423 OA
ENDROOT
BRANCH   1  12
ATOM     12  O   UNL     1      12.618  -6.297 -10.427  1.00  0.00    -0.497 OA
ATOM     13  C   UNL     1      13.484  -5.308 -10.974  1.00  0.00     0.278 C 
ENDBRANCH   1  12
TORSDOF 1
ENDMDL
MODEL 4
REMARK VINA RESULT:    -4.890     16.301     18.569
REMARK INTER + INTRA:          -5.214
REMARK INTER:                  -5.171
REMARK INTRA:                  -0.043
REMARK UNBOUND:                -0.038
REMARK SMILES COc1ccc2ccc(=O)oc2c1
REMARK SMILES IDX 3 1 13 2 12 3 6 4 5 5 4 6 7 7 8 8 9 9 10 10 11 11 2 12 1 13
REMARK H PARENT
REMARK Flexibility Score: inf
ROOT
ATOM      1  C   UNL     1       8.064  -6.137 -10.684  1.00  0.00     0.122 A 
ATOM      2  C   UNL     1       8.089  -5.367  -9.515  1.00  0.00     0.094 A 
ATOM      3  C   UNL     1       8.071  -5.982  -8.259  1.00  0.00     0.142 A 
ATOM      4  C   UNL     1       8.027  -7.389  -8.166  1.00  0.00     0.018 A 
ATOM      5  C   UNL     1       8.002  -8.164  -9.333  1.00  0.00     0.016 A 
ATOM      6  C   UNL     1       8.021  -7.543 -10.586  1.00  0.00     0.047 A 
ATOM      7  C   UNL     1       8.010  -7.974  -6.897  1.00  0.00     0.019 A 
ATOM      8  C   UNL     1       8.036  -7.157  -5.766  1.00  0.00     0.094 A 
ATOM      9  C   UNL     1       8.079  -5.769  -5.934  1.00  0.00     0.336 A 
ATOM     10  O   UNL     1       8.102  -5.016  -4.926  1.00  0.00    -0.246 OA
ATOM     11  O   UNL     1       8.094  -5.238  -7.155  1.00  0.00    -0.423 OA
ENDROOT
BRANCH   1  12
ATOM     12  O   UNL     1       8.084  -5.472 -11.919  1.00  0.00    -0.497 OA
ATOM     13  C   UNL     1       7.775  -4.093 -12.095  1.00  0.00     0.278 C 
ENDBRANCH   1  12
TORSDOF 1
ENDMDL
MODEL 5
REMARK VINA RESULT:    -4.839     16.564     18.799
REMARK INTER + INTRA:          -5.160
REMARK INTER:                  -5.118
REMARK INTRA:                  -0.041
REMARK UNBOUND:                -0.038
REMARK SMILES COc1ccc2ccc(=O)oc2c1
REMARK SMILES IDX 3 1 13 2 12 3 6 4 5 5 4 6 7 7 8 8 9 9 10 10 11 11 2 12 1 13
REMARK H PARENT
REMARK Flexibility Score: inf
ROOT
ATOM      1  C   UNL     1       8.075  -6.754  -6.841  1.00  0.00     0.122 A 
ATOM      2  C   UNL     1       7.976  -5.675  -7.728  1.00  0.00     0.094 A 
ATOM      3  C   UNL     1       8.049  -5.882  -9.109  1.00  0.00     0.142 A 
ATOM      4  C   UNL     1       8.224  -7.187  -9.616  1.00  0.00     0.018 A 
ATOM      5  C   UNL     1       8.324  -8.270  -8.732  1.00  0.00     0.016 A 
ATOM      6  C   UNL     1       8.250  -8.056  -7.353  1.00  0.00     0.047 A 
ATOM      7  C   UNL     1       8.293  -7.362 -11.001  1.00  0.00     0.019 A 
ATOM      8  C   UNL     1       8.188  -6.250 -11.837  1.00  0.00     0.094 A 
ATOM      9  C   UNL     1       8.015  -4.985 -11.265  1.00  0.00     0.336 A 
ATOM     10  O   UNL     1       7.918  -3.971 -12.003  1.00  0.00    -0.246 OA
ATOM     11  O   UNL     1       7.953  -4.848  -9.942  1.00  0.00    -0.423 OA
ENDROOT
BRANCH   1  12
ATOM     12  O   UNL     1       7.996  -6.493  -5.465  1.00  0.00    -0.497 OA
ATOM     13  C   UNL     1       8.370  -5.261  -4.857  1.00  0.00     0.278 C 
ENDBRANCH   1  12
TORSDOF 1
ENDMDL
MODEL 6
REMARK VINA RESULT:    -4.834     16.589     19.231
REMARK INTER + INTRA:          -5.154
REMARK INTER:                  -5.119
REMARK INTRA:                  -0.035
REMARK UNBOUND:                -0.038
REMARK SMILES COc1ccc2ccc(=O)oc2c1
REMARK SMILES IDX 3 1 13 2 12 3 6 4 5 5 4 6 7 7 8 8 9 9 10 10 11 11 2 12 1 13
REMARK H PARENT
REMARK Flexibility Score: inf
ROOT
ATOM      1  C   UNL     1       7.990  -7.569  -6.899  1.00  0.00     0.122 A 
ATOM      2  C   UNL     1       8.265  -8.006  -8.201  1.00  0.00     0.094 A 
ATOM      3  C   UNL     1       8.246  -7.106  -9.271  1.00  0.00     0.142 A 
ATOM      4  C   UNL     1       7.946  -5.746  -9.040  1.00  0.00     0.018 A 
ATOM      5  C   UNL     1       7.671  -5.304  -7.740  1.00  0.00     0.016 A 
ATOM      6  C   UNL     1       7.692  -6.209  -6.674  1.00  0.00     0.047 A 
ATOM      7  C   UNL     1       7.935  -4.871 -10.130  1.00  0.00     0.019 A 
ATOM      8  C   UNL     1       8.217  -5.363 -11.405  1.00  0.00     0.094 A 
ATOM      9  C   UNL     1       8.504  -6.723 -11.560  1.00  0.00     0.336 A 
ATOM     10  O   UNL     1       8.761  -7.185 -12.701  1.00  0.00    -0.246 OA
ATOM     11  O   UNL     1       8.508  -7.534 -10.504  1.00  0.00    -0.423 OA
ENDROOT
BRANCH   1  12
ATOM     12  O   UNL     1       8.023  -8.511  -5.860  1.00  0.00    -0.497 OA
ATOM     13  C   UNL     1       7.470  -8.301  -4.565  1.00  0.00     0.278 C 
ENDBRANCH   1  12
TORSDOF 1
ENDMDL
MODEL 7
REMARK VINA RESULT:    -4.778      2.627      4.954
REMARK INTER + INTRA:          -5.096
REMARK INTER:                  -5.062
REMARK INTRA:                  -0.033
REMARK UNBOUND:                -0.038
REMARK SMILES COc1ccc2ccc(=O)oc2c1
REMARK SMILES IDX 3 1 13 2 12 3 6 4 5 5 4 6 7 7 8 8 9 9 10 10 11 11 2 12 1 13
REMARK H PARENT
REMARK Flexibility Score: inf
ROOT
ATOM      1  C   UNL     1      22.212   1.554 -16.017  1.00  0.00     0.122 A 
ATOM      2  C   UNL     1      22.225   1.083 -17.336  1.00  0.00     0.094 A 
ATOM      3  C   UNL     1      21.095   0.465 -17.880  1.00  0.00     0.142 A 
ATOM      4  C   UNL     1      19.931   0.312 -17.097  1.00  0.00     0.018 A 
ATOM      5  C   UNL     1      19.913   0.782 -15.777  1.00  0.00     0.016 A 
ATOM      6  C   UNL     1      21.046   1.400 -15.239  1.00  0.00     0.047 A 
ATOM      7  C   UNL     1      18.818  -0.310 -17.669  1.00  0.00     0.019 A 
ATOM      8  C   UNL     1      18.888  -0.759 -18.988  1.00  0.00     0.094 A 
ATOM      9  C   UNL     1      20.075  -0.575 -19.705  1.00  0.00     0.336 A 
ATOM     10  O   UNL     1      20.158  -0.973 -20.895  1.00  0.00    -0.246 OA
ATOM     11  O   UNL     1      21.121   0.021 -19.135  1.00  0.00    -0.423 OA
ENDROOT
BRANCH   1  12
ATOM     12  O   UNL     1      23.371   2.168 -15.518  1.00  0.00    -0.497 OA
ATOM     13  C   UNL     1      23.373   3.278 -14.627  1.00  0.00     0.278 C 
ENDBRANCH   1  12
TORSDOF 1
ENDMDL
MODEL 8
REMARK VINA RESULT:    -4.726     14.919     18.173
REMARK INTER + INTRA:          -5.040
REMARK INTER:                  -5.006
REMARK INTRA:                  -0.035
REMARK UNBOUND:                -0.038
REMARK SMILES COc1ccc2ccc(=O)oc2c1
REMARK SMILES IDX 3 1 13 2 12 3 6 4 5 5 4 6 7 7 8 8 9 9 10 10 11 11 2 12 1 13
REMARK H PARENT
REMARK Flexibility Score: inf
ROOT
ATOM      1  C   UNL     1      11.183   2.944  -3.516  1.00  0.00     0.122 A 
ATOM      2  C   UNL     1      11.524   2.468  -4.789  1.00  0.00     0.094 A 
ATOM      3  C   UNL     1      12.629   2.990  -5.469  1.00  0.00     0.142 A 
ATOM      4  C   UNL     1      13.408   4.003  -4.872  1.00  0.00     0.018 A 
ATOM      5  C   UNL     1      13.072   4.482  -3.599  1.00  0.00     0.016 A 
ATOM      6  C   UNL     1      11.966   3.956  -2.923  1.00  0.00     0.047 A 
ATOM      7  C   UNL     1      14.506   4.504  -5.577  1.00  0.00     0.019 A 
ATOM      8  C   UNL     1      14.798   3.993  -6.842  1.00  0.00     0.094 A 
ATOM      9  C   UNL     1      13.981   2.988  -7.372  1.00  0.00     0.336 A 
ATOM     10  O   UNL     1      14.228   2.515  -8.511  1.00  0.00    -0.246 OA
ATOM     11  O   UNL     1      12.941   2.529  -6.679  1.00  0.00    -0.423 OA
ENDROOT
BRANCH   1  12
ATOM     12  O   UNL     1      10.067   2.387  -2.875  1.00  0.00    -0.497 OA
ATOM     13  C   UNL     1       8.717   2.611  -3.272  1.00  0.00     0.278 C 
ENDBRANCH   1  12
TORSDOF 1
ENDMDL
MODEL 9
REMARK VINA RESULT:    -4.618     14.564     17.295
REMARK INTER + INTRA:          -4.926
REMARK INTER:                  -4.883
REMARK INTRA:                  -0.043
REMARK UNBOUND:                -0.038
REMARK SMILES COc1ccc2ccc(=O)oc2c1
REMARK SMILES IDX 3 1 13 2 12 3 6 4 5 5 4 6 7 7 8 8 9 9 10 10 11 11 2 12 1 13
REMARK H PARENT
REMARK Flexibility Score: inf
ROOT
ATOM      1  C   UNL     1      13.879   3.132  -7.154  1.00  0.00     0.122 A 
ATOM      2  C   UNL     1      12.709   2.581  -6.616  1.00  0.00     0.094 A 
ATOM      3  C   UNL     1      12.251   2.977  -5.356  1.00  0.00     0.142 A 
ATOM      4  C   UNL     1      12.972   3.940  -4.617  1.00  0.00     0.018 A 
ATOM      5  C   UNL     1      14.143   4.494  -5.151  1.00  0.00     0.016 A 
ATOM      6  C   UNL     1      14.595   4.093  -6.412  1.00  0.00     0.047 A 
ATOM      7  C   UNL     1      12.489   4.315  -3.360  1.00  0.00     0.019 A 
ATOM      8  C   UNL     1      11.318   3.733  -2.875  1.00  0.00     0.094 A 
ATOM      9  C   UNL     1      10.655   2.785  -3.662  1.00  0.00     0.336 A 
ATOM     10  O   UNL     1       9.598   2.249  -3.242  1.00  0.00    -0.246 OA
ATOM     11  O   UNL     1      11.137   2.446  -4.856  1.00  0.00    -0.423 OA
ENDROOT
BRANCH   1  12
ATOM     12  O   UNL     1      14.295   2.701  -8.422  1.00  0.00    -0.497 OA
ATOM     13  C   UNL     1      13.707   1.619  -9.138  1.00  0.00     0.278 C 
ENDBRANCH   1  12
TORSDOF 1
ENDMDL
