MODEL 1
REMARK VINA RESULT:    -2.799      0.000      0.000
REMARK INTER + INTRA:          -3.249
REMARK INTER:                  -3.372
REMARK INTRA:                   0.122
REMARK UNBOUND:                 0.122
REMARK SMILES CC[C@@H](C)[C@@H]([NH3+])C(=O)[O-]
REMARK SMILES IDX 3 1 4 2 5 3 6 4 7 8 8 9 9 10 2 11 1 12
REMARK H PARENT 6 5 6 6 6 7
REMARK Flexibility Score: inf
ROOT
ATOM      1  C   UNL     1      97.398  71.126  84.573  1.00  0.00     0.050 C 
ATOM      2  C   UNL     1      97.162  69.942  83.617  1.00  0.00     0.014 C 
ENDROOT
BRANCH   1   3
ATOM      3  C   UNL     1      98.531  72.085  84.084  1.00  0.00     0.230 C 
BRANCH   3   4
ATOM      4  N   UNL     1      99.546  72.310  85.125  1.00  0.00    -0.350 N 
ATOM      5  H   UNL     1      99.296  73.163  85.676  1.00  0.00     0.345 HD
ATOM      6  H   UNL     1      99.575  71.496  85.781  1.00  0.00     0.345 HD
ATOM      7  H   UNL     1     100.496  72.453  84.712  1.00  0.00     0.345 HD
ENDBRANCH   3   4
BRANCH   3   8
ATOM      8  C   UNL     1      99.180  71.616  82.804  1.00  0.00     0.099 C 
ATOM      9  O   UNL     1      98.714  71.979  81.692  1.00  0.00    -0.544 OA
ATOM     10  O   UNL     1     100.277  70.762  82.836  1.00  0.00    -0.544 OA
ENDBRANCH   3   8
ENDBRANCH   1   3
BRANCH   1  11
ATOM     11  C   UNL     1      96.055  71.855  84.829  1.00  0.00     0.006 C 
ATOM     12  C   UNL     1      94.899  71.316  83.985  1.00  0.00     0.004 C 
ENDBRANCH   1  11
TORSDOF 4
ENDMDL
MODEL 2
REMARK VINA RESULT:    -2.762     13.265     14.346
REMARK INTER + INTRA:          -3.205
REMARK INTER:                  -3.138
REMARK INTRA:                  -0.067
REMARK UNBOUND:                 0.122
REMARK SMILES CC[C@@H](C)[C@@H]([NH3+])C(=O)[O-]
REMARK SMILES IDX 3 1 4 2 5 3 6 4 7 8 8 9 9 10 2 11 1 12
REMARK H PARENT 6 5 6 6 6 7
REMARK Flexibility Score: inf
ROOT
ATOM      1  C   UNL     1     100.553  69.767  70.050  1.00  0.00     0.050 C 
ATOM      2  C   UNL     1     101.647  68.875  69.433  1.00  0.00     0.014 C 
ENDROOT
BRANCH   1   3
ATOM      3  C   UNL     1      99.305  69.926  69.124  1.00  0.00     0.230 C 
BRANCH   3   4
ATOM      4  N   UNL     1      98.305  68.875  69.368  1.00  0.00    -0.350 N 
ATOM      5  H   UNL     1      98.433  68.489  70.332  1.00  0.00     0.345 HD
ATOM      6  H   UNL     1      97.340  69.275  69.304  1.00  0.00     0.345 HD
ATOM      7  H   UNL     1      98.397  68.089  68.685  1.00  0.00     0.345 HD
ENDBRANCH   3   4
BRANCH   3   8
ATOM      8  C   UNL     1      98.672  71.294  69.228  1.00  0.00     0.099 C 
ATOM      9  O   UNL     1      97.418  71.405  69.268  1.00  0.00    -0.544 OA
ATOM     10  O   UNL     1      99.459  72.439  69.256  1.00  0.00    -0.544 OA
ENDBRANCH   3   8
ENDBRANCH   1   3
BRANCH   1  11
ATOM     11  C   UNL     1     100.198  69.241  71.464  1.00  0.00     0.006 C 
ATOM     12  C   UNL     1     101.423  68.879  72.304  1.00  0.00     0.004 C 
ENDBRANCH   1  11
TORSDOF 4
ENDMDL
MODEL 3
REMARK VINA RESULT:    -2.740      2.140      2.728
REMARK INTER + INTRA:          -3.179
REMARK INTER:                  -3.072
REMARK INTRA:                  -0.107
REMARK UNBOUND:                 0.122
REMARK SMILES CC[C@@H](C)[C@@H]([NH3+])C(=O)[O-]
REMARK SMILES IDX 3 1 4 2 5 3 6 4 7 8 8 9 9 10 2 11 1 12
REMARK H PARENT 6 5 6 6 6 7
REMARK Flexibility Score: inf
ROOT
ATOM      1  C   UNL     1      95.630  70.542  83.760  1.00  0.00     0.050 C 
ATOM      2  C   UNL     1      94.896  71.863  84.055  1.00  0.00     0.014 C 
ENDROOT
BRANCH   1   3
ATOM      3  C   UNL     1      97.003  70.431  84.498  1.00  0.00     0.230 C 
BRANCH   3   4
ATOM      4  N   UNL     1      97.571  69.078  84.399  1.00  0.00    -0.350 N 
ATOM      5  H   UNL     1      96.839  68.374  84.648  1.00  0.00     0.345 HD
ATOM      6  H   UNL     1      97.882  68.890  83.418  1.00  0.00     0.345 HD
ATOM      7  H   UNL     1      98.382  68.952  85.047  1.00  0.00     0.345 HD
ENDBRANCH   3   4
BRANCH   3   8
ATOM      8  C   UNL     1      98.003  71.461  84.027  1.00  0.00     0.099 C 
ATOM      9  O   UNL     1      98.407  72.354  84.818  1.00  0.00    -0.544 OA
ATOM     10  O   UNL     1      98.467  71.452  82.717  1.00  0.00    -0.544 OA
ENDBRANCH   3   8
ENDBRANCH   1   3
BRANCH   1  11
ATOM     11  C   UNL     1      94.684  69.351  84.057  1.00  0.00     0.006 C 
ATOM     12  C   UNL     1      93.901  68.876  82.831  1.00  0.00     0.004 C 
ENDBRANCH   1  11
TORSDOF 4
ENDMDL
MODEL 4
REMARK VINA RESULT:    -2.680      2.188      2.623
REMARK INTER + INTRA:          -3.107
REMARK INTER:                  -3.035
REMARK INTRA:                  -0.072
REMARK UNBOUND:                 0.122
REMARK SMILES CC[C@@H](C)[C@@H]([NH3+])C(=O)[O-]
REMARK SMILES IDX 3 1 4 2 5 3 6 4 7 8 8 9 9 10 2 11 1 12
REMARK H PARENT 6 5 6 6 6 7
REMARK Flexibility Score: inf
ROOT
ATOM      1  C   UNL     1      95.233  70.345  84.365  1.00  0.00     0.050 C 
ATOM      2  C   UNL     1      95.034  69.265  83.286  1.00  0.00     0.014 C 
ENDROOT
BRANCH   1   3
ATOM      3  C   UNL     1      96.653  70.302  85.014  1.00  0.00     0.230 C 
BRANCH   3   4
ATOM      4  N   UNL     1      97.222  68.946  84.999  1.00  0.00    -0.350 N 
ATOM      5  H   UNL     1      97.970  68.874  85.727  1.00  0.00     0.345 HD
ATOM      6  H   UNL     1      96.481  68.243  85.225  1.00  0.00     0.345 HD
ATOM      7  H   UNL     1      97.644  68.715  84.071  1.00  0.00     0.345 HD
ENDBRANCH   3   4
BRANCH   3   8
ATOM      8  C   UNL     1      97.612  71.285  84.385  1.00  0.00     0.099 C 
ATOM      9  O   UNL     1      98.094  71.052  83.245  1.00  0.00    -0.544 OA
ATOM     10  O   UNL     1      97.991  72.438  85.062  1.00  0.00    -0.544 OA
ENDBRANCH   3   8
ENDBRANCH   1   3
BRANCH   1  11
ATOM     11  C   UNL     1      94.878  71.733  83.774  1.00  0.00     0.006 C 
ATOM     12  C   UNL     1      94.226  72.677  84.786  1.00  0.00     0.004 C 
ENDBRANCH   1  11
TORSDOF 4
ENDMDL
MODEL 5
REMARK VINA RESULT:    -2.577      2.660      3.911
REMARK INTER + INTRA:          -2.982
REMARK INTER:                  -3.077
REMARK INTRA:                   0.095
REMARK UNBOUND:                 0.122
REMARK SMILES CC[C@@H](C)[C@@H]([NH3+])C(=O)[O-]
REMARK SMILES IDX 3 1 4 2 5 3 6 4 7 8 8 9 9 10 2 11 1 12
REMARK H PARENT 6 5 6 6 6 7
REMARK Flexibility Score: inf
ROOT
ATOM      1  C   UNL     1      98.372  71.153  83.945  1.00  0.00     0.050 C 
ATOM      2  C   UNL     1      98.006  72.255  84.957  1.00  0.00     0.014 C 
ENDROOT
BRANCH   1   3
ATOM      3  C   UNL     1      97.178  70.194  83.632  1.00  0.00     0.230 C 
BRANCH   3   4
ATOM      4  N   UNL     1      97.355  68.876  84.261  1.00  0.00    -0.350 N 
ATOM      5  H   UNL     1      96.417  68.472  84.491  1.00  0.00     0.345 HD
ATOM      6  H   UNL     1      97.837  68.224  83.601  1.00  0.00     0.345 HD
ATOM      7  H   UNL     1      97.909  68.942  85.146  1.00  0.00     0.345 HD
ENDBRANCH   3   4
BRANCH   3   8
ATOM      8  C   UNL     1      95.840  70.786  84.009  1.00  0.00     0.099 C 
ATOM      9  O   UNL     1      95.369  71.747  83.346  1.00  0.00    -0.544 OA
ATOM     10  O   UNL     1      95.130  70.297  85.099  1.00  0.00    -0.544 OA
ENDBRANCH   3   8
ENDBRANCH   1   3
BRANCH   1  11
ATOM     11  C   UNL     1      98.977  71.802  82.675  1.00  0.00     0.006 C 
ATOM     12  C   UNL     1     100.457  71.475  82.471  1.00  0.00     0.004 C 
ENDBRANCH   1  11
TORSDOF 4
ENDMDL
MODEL 6
REMARK VINA RESULT:    -2.506      9.333     10.540
REMARK INTER + INTRA:          -2.897
REMARK INTER:                  -2.793
REMARK INTRA:                  -0.104
REMARK UNBOUND:                 0.122
REMARK SMILES CC[C@@H](C)[C@@H]([NH3+])C(=O)[O-]
REMARK SMILES IDX 3 1 4 2 5 3 6 4 7 8 8 9 9 10 2 11 1 12
REMARK H PARENT 6 5 6 6 6 7
REMARK Flexibility Score: inf
ROOT
ATOM      1  C   UNL     1     101.914  70.869  74.834  1.00  0.00     0.050 C 
ATOM      2  C   UNL     1     101.030  70.910  76.094  1.00  0.00     0.014 C 
ENDROOT
BRANCH   1   3
ATOM      3  C   UNL     1     103.396  71.275  75.118  1.00  0.00     0.230 C 
BRANCH   3   4
ATOM      4  N   UNL     1     104.349  70.386  74.436  1.00  0.00    -0.350 N 
ATOM      5  H   UNL     1     104.032  70.226  73.451  1.00  0.00     0.345 HD
ATOM      6  H   UNL     1     105.295  70.829  74.404  1.00  0.00     0.345 HD
ATOM      7  H   UNL     1     104.419  69.458  74.912  1.00  0.00     0.345 HD
ENDBRANCH   3   4
BRANCH   3   8
ATOM      8  C   UNL     1     103.681  72.719  74.777  1.00  0.00     0.099 C 
ATOM      9  O   UNL     1     102.804  73.414  74.201  1.00  0.00    -0.544 OA
ATOM     10  O   UNL     1     104.916  73.286  75.069  1.00  0.00    -0.544 OA
ENDBRANCH   3   8
ENDBRANCH   1   3
BRANCH   1  11
ATOM     11  C   UNL     1     101.785  69.479  74.160  1.00  0.00     0.006 C 
ATOM     12  C   UNL     1     101.017  69.515  72.837  1.00  0.00     0.004 C 
ENDBRANCH   1  11
TORSDOF 4
ENDMDL
MODEL 7
REMARK VINA RESULT:    -2.343      2.983      3.885
REMARK INTER + INTRA:          -2.700
REMARK INTER:                  -2.615
REMARK INTRA:                  -0.085
REMARK UNBOUND:                 0.122
REMARK SMILES CC[C@@H](C)[C@@H]([NH3+])C(=O)[O-]
REMARK SMILES IDX 3 1 4 2 5 3 6 4 7 8 8 9 9 10 2 11 1 12
REMARK H PARENT 6 5 6 6 6 7
REMARK Flexibility Score: inf
ROOT
ATOM      1  C   UNL     1      97.362  71.373  83.615  1.00  0.00     0.050 C 
ATOM      2  C   UNL     1      98.587  71.502  82.690  1.00  0.00     0.014 C 
ENDROOT
BRANCH   1   3
ATOM      3  C   UNL     1      96.749  69.936  83.616  1.00  0.00     0.230 C 
BRANCH   3   4
ATOM      4  N   UNL     1      97.255  69.125  84.734  1.00  0.00    -0.350 N 
ATOM      5  H   UNL     1      96.564  69.144  85.519  1.00  0.00     0.345 HD
ATOM      6  H   UNL     1      97.376  68.131  84.431  1.00  0.00     0.345 HD
ATOM      7  H   UNL     1      98.168  69.489  85.092  1.00  0.00     0.345 HD
ENDBRANCH   3   4
BRANCH   3   8
ATOM      8  C   UNL     1      95.238  69.946  83.610  1.00  0.00     0.099 C 
ATOM      9  O   UNL     1      94.603  68.875  83.427  1.00  0.00    -0.544 OA
ATOM     10  O   UNL     1      94.537  71.134  83.781  1.00  0.00    -0.544 OA
ENDBRANCH   3   8
ENDBRANCH   1   3
BRANCH   1  11
ATOM     11  C   UNL     1      97.735  71.875  85.033  1.00  0.00     0.006 C 
ATOM     12  C   UNL     1      99.135  72.486  85.114  1.00  0.00     0.004 C 
ENDBRANCH   1  11
TORSDOF 4
ENDMDL
MODEL 8
REMARK VINA RESULT:    -2.191      3.008      3.948
REMARK INTER + INTRA:          -2.517
REMARK INTER:                  -2.478
REMARK INTRA:                  -0.039
REMARK UNBOUND:                 0.122
REMARK SMILES CC[C@@H](C)[C@@H]([NH3+])C(=O)[O-]
REMARK SMILES IDX 3 1 4 2 5 3 6 4 7 8 8 9 9 10 2 11 1 12
REMARK H PARENT 6 5 6 6 6 7
REMARK Flexibility Score: inf
ROOT
ATOM      1  C   UNL     1      97.250  71.040  84.638  1.00  0.00     0.050 C 
ATOM      2  C   UNL     1      98.042  72.268  85.125  1.00  0.00     0.014 C 
ENDROOT
BRANCH   1   3
ATOM      3  C   UNL     1      95.718  71.152  84.924  1.00  0.00     0.230 C 
BRANCH   3   4
ATOM      4  N   UNL     1      95.246  72.542  84.842  1.00  0.00    -0.350 N 
ATOM      5  H   UNL     1      95.725  73.027  84.049  1.00  0.00     0.345 HD
ATOM      6  H   UNL     1      94.216  72.562  84.660  1.00  0.00     0.345 HD
ATOM      7  H   UNL     1      95.449  73.071  85.721  1.00  0.00     0.345 HD
ENDBRANCH   3   4
BRANCH   3   8
ATOM      8  C   UNL     1      94.891  70.258  84.029  1.00  0.00     0.099 C 
ATOM      9  O   UNL     1      94.116  70.765  83.177  1.00  0.00    -0.544 OA
ATOM     10  O   UNL     1      94.957  68.875  84.152  1.00  0.00    -0.544 OA
ENDBRANCH   3   8
ENDBRANCH   1   3
BRANCH   1  11
ATOM     11  C   UNL     1      97.571  70.780  83.145  1.00  0.00     0.006 C 
ATOM     12  C   UNL     1      98.830  71.502  82.659  1.00  0.00     0.004 C 
ENDBRANCH   1  11
TORSDOF 4
ENDMDL
