MODEL 1
REMARK VINA RESULT:    10.498      0.000      0.000
REMARK INTER + INTRA:          11.729
REMARK INTER:                  12.032
REMARK INTRA:                  -0.303
REMARK UNBOUND:                -0.303
REMARK SMILES O=C1C[C@H](c2ccc(O)cc2)Oc2cc(O)cc(O)c21
REMARK SMILES IDX 3 1 4 2 12 3 13 4 14 5 15 6 17 7 18 8 20 9 2 10 1 11 5 12
REMARK SMILES IDX 6 13 11 14 7 15 10 16 8 17 9 18 19 20 16 22
REMARK H PARENT 9 19 19 21 16 23
REMARK Flexibility Score: inf
ROOT
ATOM      1  C   UNL     1      13.153  -3.800  11.821  1.00  0.00     0.131 C 
ATOM      2  C   UNL     1      12.268  -2.650  11.316  1.00  0.00     0.211 C 
ATOM      3  O   UNL     1      13.058  -1.489  11.043  1.00  0.00    -0.484 OA
ATOM      4  C   UNL     1      14.079  -1.068  11.903  1.00  0.00     0.138 A 
ATOM      5  C   UNL     1      14.600   0.221  11.771  1.00  0.00     0.093 A 
ATOM      6  C   UNL     1      15.604   0.668  12.637  1.00  0.00     0.123 A 
ATOM      7  C   UNL     1      16.091  -0.182  13.634  1.00  0.00     0.093 A 
ATOM      8  C   UNL     1      15.591  -1.487  13.765  1.00  0.00     0.133 A 
ATOM      9  C   UNL     1      14.580  -1.939  12.890  1.00  0.00     0.102 A 
ATOM     10  C   UNL     1      14.037  -3.318  12.936  1.00  0.00     0.174 C 
ATOM     11  O   UNL     1      14.347  -4.111  13.865  1.00  0.00    -0.294 OA
ENDROOT
BRANCH   2  12
ATOM     12  C   UNL     1      11.510  -3.063  10.076  1.00  0.00    -0.007 A 
ATOM     13  C   UNL     1      11.983  -2.699   8.804  1.00  0.00     0.011 A 
ATOM     14  C   UNL     1      10.297  -3.766  10.181  1.00  0.00     0.011 A 
ATOM     15  C   UNL     1      11.267  -3.053   7.657  1.00  0.00     0.046 A 
ATOM     16  C   UNL     1       9.584  -4.120   9.032  1.00  0.00     0.046 A 
ATOM     17  C   UNL     1      10.066  -3.766   7.768  1.00  0.00     0.115 A 
BRANCH  17  18
ATOM     18  O   UNL     1       9.345  -4.125   6.631  1.00  0.00    -0.508 OA
ATOM     19  H   UNL     1       8.448  -4.592   6.699  1.00  0.00     0.293 HD
ENDBRANCH  17  18
ENDBRANCH   2  12
BRANCH   8  20
ATOM     20  O   UNL     1      16.104  -2.325  14.755  1.00  0.00    -0.507 OA
ATOM     21  H   UNL     1      15.638  -3.184  15.019  1.00  0.00     0.293 HD
ENDBRANCH   8  20
BRANCH   6  22
ATOM     22  O   UNL     1      16.123   1.956  12.519  1.00  0.00    -0.508 OA
ATOM     23  H   UNL     1      16.849   2.174  11.846  1.00  0.00     0.293 HD
ENDBRANCH   6  22
TORSDOF 4
ENDMDL
