MODEL 1
REMARK VINA RESULT:    -6.203      0.000      0.000
REMARK INTER + INTRA:          -7.845
REMARK INTER:                  -7.472
REMARK INTRA:                  -0.373
REMARK UNBOUND:                -0.373
REMARK SMILES O=c1c(O)c(-c2ccc(O)cc2O)oc2cc(O)cc(O)c12
REMARK SMILES IDX 5 1 3 2 2 3 1 4 22 5 20 6 19 7 17 8 16 9 15 10 14 11 6 12
REMARK SMILES IDX 8 13 7 14 9 15 11 16 12 17 10 18 13 20 4 22 21 24 18 26
REMARK H PARENT 10 19 13 21 4 23 21 25 18 27
REMARK Flexibility Score: inf
ROOT
ATOM      1  C   UNL     1      -3.854  14.896 -26.492  1.00  0.00     0.184 A 
ATOM      2  C   UNL     1      -4.153  15.639 -27.644  1.00  0.00     0.208 A 
ATOM      3  C   UNL     1      -3.477  16.850 -27.866  1.00  0.00     0.238 A 
ATOM      4  O   UNL     1      -3.787  17.540 -28.872  1.00  0.00    -0.285 OA
ATOM      5  C   UNL     1      -2.501  17.291 -26.939  1.00  0.00     0.111 A 
ATOM      6  C   UNL     1      -1.727  18.481 -27.084  1.00  0.00     0.134 A 
ATOM      7  C   UNL     1      -0.881  18.886 -26.042  1.00  0.00     0.093 A 
ATOM      8  C   UNL     1      -0.736  18.109 -24.890  1.00  0.00     0.123 A 
ATOM      9  C   UNL     1      -1.442  16.916 -24.766  1.00  0.00     0.094 A 
ATOM     10  C   UNL     1      -2.319  16.503 -25.772  1.00  0.00     0.146 A 
ATOM     11  O   UNL     1      -2.982  15.365 -25.608  1.00  0.00    -0.451 OA
ENDROOT
BRANCH   1  12
ATOM     12  C   UNL     1      -4.517  13.605 -26.208  1.00  0.00     0.063 A 
ATOM     13  C   UNL     1      -4.475  11.177 -26.331  1.00  0.00     0.047 A 
ATOM     14  C   UNL     1      -3.875  12.414 -26.580  1.00  0.00     0.020 A 
ATOM     15  C   UNL     1      -5.731  11.115 -25.721  1.00  0.00     0.119 A 
ATOM     16  C   UNL     1      -6.392  12.299 -25.367  1.00  0.00     0.093 A 
ATOM     17  C   UNL     1      -5.798  13.545 -25.619  1.00  0.00     0.130 A 
BRANCH  15  18
ATOM     18  O   UNL     1      -6.315   9.875 -25.476  1.00  0.00    -0.508 OA
ATOM     19  H   UNL     1      -7.233   9.797 -25.052  1.00  0.00     0.293 HD
ENDBRANCH  15  18
BRANCH  17  20
ATOM     20  O   UNL     1      -6.486  14.717 -25.307  1.00  0.00    -0.507 OA
ATOM     21  H   UNL     1      -6.015  15.518 -24.903  1.00  0.00     0.293 HD
ENDBRANCH  17  20
ENDBRANCH   1  12
BRANCH   2  22
ATOM     22  O   UNL     1      -5.134  15.190 -28.531  1.00  0.00    -0.502 OA
ATOM     23  H   UNL     1      -5.536  14.262 -28.473  1.00  0.00     0.293 HD
ENDBRANCH   2  22
BRANCH   6  24
ATOM     24  O   UNL     1      -1.728  19.280 -28.231  1.00  0.00    -0.507 OA
ATOM     25  H   UNL     1      -1.384  20.228 -28.271  1.00  0.00     0.293 HD
ENDBRANCH   6  24
BRANCH   8  26
ATOM     26  O   UNL     1       0.119  18.512 -23.866  1.00  0.00    -0.508 OA
ATOM     27  H   UNL     1      -0.184  19.154 -23.144  1.00  0.00     0.293 HD
ENDBRANCH   8  26
TORSDOF 6
ENDMDL
MODEL 2
REMARK VINA RESULT:    -6.184      2.680      6.657
REMARK INTER + INTRA:          -7.823
REMARK INTER:                  -7.402
REMARK INTRA:                  -0.421
REMARK UNBOUND:                -0.373
REMARK SMILES O=c1c(O)c(-c2ccc(O)cc2O)oc2cc(O)cc(O)c12
REMARK SMILES IDX 5 1 3 2 2 3 1 4 22 5 20 6 19 7 17 8 16 9 15 10 14 11 6 12
REMARK SMILES IDX 8 13 7 14 9 15 11 16 12 17 10 18 13 20 4 22 21 24 18 26
REMARK H PARENT 10 19 13 21 4 23 21 25 18 27
REMARK Flexibility Score: inf
ROOT
ATOM      1  C   UNL     1      -3.303  14.100 -27.029  1.00  0.00     0.184 A 
ATOM      2  C   UNL     1      -4.137  13.128 -26.457  1.00  0.00     0.208 A 
ATOM      3  C   UNL     1      -4.643  12.101 -27.270  1.00  0.00     0.238 A 
ATOM      4  O   UNL     1      -5.434  11.262 -26.764  1.00  0.00    -0.285 OA
ATOM      5  C   UNL     1      -4.293  12.054 -28.642  1.00  0.00     0.111 A 
ATOM      6  C   UNL     1      -4.716  11.036 -29.550  1.00  0.00     0.134 A 
ATOM      7  C   UNL     1      -4.416  11.160 -30.913  1.00  0.00     0.093 A 
ATOM      8  C   UNL     1      -3.655  12.231 -31.388  1.00  0.00     0.123 A 
ATOM      9  C   UNL     1      -3.188  13.196 -30.500  1.00  0.00     0.094 A 
ATOM     10  C   UNL     1      -3.500  13.119 -29.141  1.00  0.00     0.146 A 
ATOM     11  O   UNL     1      -3.045  14.068 -28.331  1.00  0.00    -0.451 OA
ENDROOT
BRANCH   1  12
ATOM     12  C   UNL     1      -2.724  15.197 -26.225  1.00  0.00     0.063 A 
ATOM     13  C   UNL     1      -1.042  15.943 -24.636  1.00  0.00     0.047 A 
ATOM     14  C   UNL     1      -1.611  14.930 -25.413  1.00  0.00     0.020 A 
ATOM     15  C   UNL     1      -1.585  17.230 -24.650  1.00  0.00     0.119 A 
ATOM     16  C   UNL     1      -2.711  17.501 -25.439  1.00  0.00     0.093 A 
ATOM     17  C   UNL     1      -3.292  16.488 -26.217  1.00  0.00     0.130 A 
BRANCH  15  18
ATOM     18  O   UNL     1      -1.005  18.230 -23.873  1.00  0.00    -0.508 OA
ATOM     19  H   UNL     1      -0.441  18.008 -23.061  1.00  0.00     0.293 HD
ENDBRANCH  15  18
BRANCH  17  20
ATOM     20  O   UNL     1      -4.441  16.757 -26.961  1.00  0.00    -0.507 OA
ATOM     21  H   UNL     1      -4.406  17.303 -27.813  1.00  0.00     0.293 HD
ENDBRANCH  17  20
ENDBRANCH   1  12
BRANCH   2  22
ATOM     22  O   UNL     1      -4.480  13.209 -25.104  1.00  0.00    -0.502 OA
ATOM     23  H   UNL     1      -4.569  14.094 -24.619  1.00  0.00     0.293 HD
ENDBRANCH   2  22
BRANCH   6  24
ATOM     24  O   UNL     1      -5.401   9.881 -29.165  1.00  0.00    -0.507 OA
ATOM     25  H   UNL     1      -6.106   9.844 -28.444  1.00  0.00     0.293 HD
ENDBRANCH   6  24
BRANCH   8  26
ATOM     26  O   UNL     1      -3.348  12.337 -32.743  1.00  0.00    -0.508 OA
ATOM     27  H   UNL     1      -3.054  13.216 -33.153  1.00  0.00     0.293 HD
ENDBRANCH   8  26
TORSDOF 6
ENDMDL
MODEL 3
REMARK VINA RESULT:    -5.973      1.788      6.755
REMARK INTER + INTRA:          -7.569
REMARK INTER:                  -7.179
REMARK INTRA:                  -0.390
REMARK UNBOUND:                -0.373
REMARK SMILES O=c1c(O)c(-c2ccc(O)cc2O)oc2cc(O)cc(O)c12
REMARK SMILES IDX 5 1 3 2 2 3 1 4 22 5 20 6 19 7 17 8 16 9 15 10 14 11 6 12
REMARK SMILES IDX 8 13 7 14 9 15 11 16 12 17 10 18 13 20 4 22 21 24 18 26
REMARK H PARENT 10 19 13 21 4 23 21 25 18 27
REMARK Flexibility Score: inf
ROOT
ATOM      1  C   UNL     1      -2.940  15.426 -26.802  1.00  0.00     0.184 A 
ATOM      2  C   UNL     1      -4.205  15.282 -26.213  1.00  0.00     0.208 A 
ATOM      3  C   UNL     1      -4.816  14.018 -26.213  1.00  0.00     0.238 A 
ATOM      4  O   UNL     1      -5.974  13.905 -25.733  1.00  0.00    -0.285 OA
ATOM      5  C   UNL     1      -4.143  12.912 -26.789  1.00  0.00     0.111 A 
ATOM      6  C   UNL     1      -4.650  11.578 -26.809  1.00  0.00     0.134 A 
ATOM      7  C   UNL     1      -3.958  10.588 -27.519  1.00  0.00     0.093 A 
ATOM      8  C   UNL     1      -2.746  10.871 -28.154  1.00  0.00     0.123 A 
ATOM      9  C   UNL     1      -2.215  12.156 -28.089  1.00  0.00     0.094 A 
ATOM     10  C   UNL     1      -2.899  13.173 -27.419  1.00  0.00     0.146 A 
ATOM     11  O   UNL     1      -2.362  14.387 -27.391  1.00  0.00    -0.451 OA
ENDROOT
BRANCH   1  12
ATOM     12  C   UNL     1      -2.236  16.726 -26.820  1.00  0.00     0.063 A 
ATOM     13  C   UNL     1      -0.641  18.239 -25.781  1.00  0.00     0.047 A 
ATOM     14  C   UNL     1      -1.320  17.018 -25.797  1.00  0.00     0.020 A 
ATOM     15  C   UNL     1      -0.878  19.189 -26.778  1.00  0.00     0.119 A 
ATOM     16  C   UNL     1      -1.808  18.918 -27.790  1.00  0.00     0.093 A 
ATOM     17  C   UNL     1      -2.498  17.696 -27.810  1.00  0.00     0.130 A 
BRANCH  15  18
ATOM     18  O   UNL     1      -0.191  20.400 -26.751  1.00  0.00    -0.508 OA
ATOM     19  H   UNL     1      -0.159  20.971 -25.914  1.00  0.00     0.293 HD
ENDBRANCH  15  18
BRANCH  17  20
ATOM     20  O   UNL     1      -3.457  17.457 -28.795  1.00  0.00    -0.507 OA
ATOM     21  H   UNL     1      -4.262  18.061 -28.911  1.00  0.00     0.293 HD
ENDBRANCH  17  20
ENDBRANCH   1  12
BRANCH   2  22
ATOM     22  O   UNL     1      -4.854  16.394 -25.670  1.00  0.00    -0.502 OA
ATOM     23  H   UNL     1      -4.589  17.345 -25.900  1.00  0.00     0.293 HD
ENDBRANCH   2  22
BRANCH   6  24
ATOM     24  O   UNL     1      -5.802  11.169 -26.131  1.00  0.00    -0.507 OA
ATOM     25  H   UNL     1      -6.072  11.488 -25.213  1.00  0.00     0.293 HD
ENDBRANCH   6  24
BRANCH   8  26
ATOM     26  O   UNL     1      -2.057   9.876 -28.844  1.00  0.00    -0.508 OA
ATOM     27  H   UNL     1      -1.510  10.086 -29.671  1.00  0.00     0.293 HD
ENDBRANCH   8  26
TORSDOF 6
ENDMDL
MODEL 4
REMARK VINA RESULT:    -5.691      3.472      7.041
REMARK INTER + INTRA:          -7.229
REMARK INTER:                  -6.861
REMARK INTRA:                  -0.367
REMARK UNBOUND:                -0.373
REMARK SMILES O=c1c(O)c(-c2ccc(O)cc2O)oc2cc(O)cc(O)c12
REMARK SMILES IDX 5 1 3 2 2 3 1 4 22 5 20 6 19 7 17 8 16 9 15 10 14 11 6 12
REMARK SMILES IDX 8 13 7 14 9 15 11 16 12 17 10 18 13 20 4 22 21 24 18 26
REMARK H PARENT 10 19 13 21 4 23 21 25 18 27
REMARK Flexibility Score: inf
ROOT
ATOM      1  C   UNL     1      -4.985  15.852 -29.014  1.00  0.00     0.184 A 
ATOM      2  C   UNL     1      -5.370  15.454 -27.725  1.00  0.00     0.208 A 
ATOM      3  C   UNL     1      -5.070  14.151 -27.297  1.00  0.00     0.238 A 
ATOM      4  O   UNL     1      -5.466  13.782 -26.160  1.00  0.00    -0.285 OA
ATOM      5  C   UNL     1      -4.374  13.270 -28.160  1.00  0.00     0.111 A 
ATOM      6  C   UNL     1      -3.983  11.941 -27.815  1.00  0.00     0.134 A 
ATOM      7  C   UNL     1      -3.412  11.114 -28.792  1.00  0.00     0.093 A 
ATOM      8  C   UNL     1      -3.162  11.591 -30.082  1.00  0.00     0.123 A 
ATOM      9  C   UNL     1      -3.486  12.904 -30.409  1.00  0.00     0.094 A 
ATOM     10  C   UNL     1      -4.088  13.742 -29.467  1.00  0.00     0.146 A 
ATOM     11  O   UNL     1      -4.392  14.984 -29.825  1.00  0.00    -0.451 OA
ENDROOT
BRANCH   1  12
ATOM     12  C   UNL     1      -5.255  17.214 -29.520  1.00  0.00     0.063 A 
ATOM     13  C   UNL     1      -4.469  19.484 -29.896  1.00  0.00     0.047 A 
ATOM     14  C   UNL     1      -4.245  18.185 -29.432  1.00  0.00     0.020 A 
ATOM     15  C   UNL     1      -5.708  19.833 -30.439  1.00  0.00     0.119 A 
ATOM     16  C   UNL     1      -6.731  18.879 -30.509  1.00  0.00     0.093 A 
ATOM     17  C   UNL     1      -6.516  17.573 -30.041  1.00  0.00     0.130 A 
BRANCH  15  18
ATOM     18  O   UNL     1      -5.915  21.131 -30.901  1.00  0.00    -0.508 OA
ATOM     19  H   UNL     1      -5.146  21.780 -31.017  1.00  0.00     0.293 HD
ENDBRANCH  15  18
BRANCH  17  20
ATOM     20  O   UNL     1      -7.556  16.645 -30.071  1.00  0.00    -0.507 OA
ATOM     21  H   UNL     1      -8.080  16.407 -29.237  1.00  0.00     0.293 HD
ENDBRANCH  17  20
ENDBRANCH   1  12
BRANCH   2  22
ATOM     22  O   UNL     1      -6.072  16.338 -26.901  1.00  0.00    -0.502 OA
ATOM     23  H   UNL     1      -5.617  16.891 -26.185  1.00  0.00     0.293 HD
ENDBRANCH   2  22
BRANCH   6  24
ATOM     24  O   UNL     1      -4.104  11.398 -26.533  1.00  0.00    -0.507 OA
ATOM     25  H   UNL     1      -4.737  11.737 -25.823  1.00  0.00     0.293 HD
ENDBRANCH   6  24
BRANCH   8  26
ATOM     26  O   UNL     1      -2.580  10.766 -31.042  1.00  0.00    -0.508 OA
ATOM     27  H   UNL     1      -2.976  10.671 -31.970  1.00  0.00     0.293 HD
ENDBRANCH   8  26
TORSDOF 6
ENDMDL
MODEL 5
REMARK VINA RESULT:    -5.650      2.268      4.183
REMARK INTER + INTRA:          -7.180
REMARK INTER:                  -6.788
REMARK INTRA:                  -0.392
REMARK UNBOUND:                -0.373
REMARK SMILES O=c1c(O)c(-c2ccc(O)cc2O)oc2cc(O)cc(O)c12
REMARK SMILES IDX 5 1 3 2 2 3 1 4 22 5 20 6 19 7 17 8 16 9 15 10 14 11 6 12
REMARK SMILES IDX 8 13 7 14 9 15 11 16 12 17 10 18 13 20 4 22 21 24 18 26
REMARK H PARENT 10 19 13 21 4 23 21 25 18 27
REMARK Flexibility Score: inf
ROOT
ATOM      1  C   UNL     1      -4.629  15.113 -27.679  1.00  0.00     0.184 A 
ATOM      2  C   UNL     1      -3.478  15.915 -27.645  1.00  0.00     0.208 A 
ATOM      3  C   UNL     1      -3.482  17.140 -28.331  1.00  0.00     0.238 A 
ATOM      4  O   UNL     1      -2.429  17.831 -28.342  1.00  0.00    -0.285 OA
ATOM      5  C   UNL     1      -4.644  17.552 -29.028  1.00  0.00     0.111 A 
ATOM      6  C   UNL     1      -4.774  18.792 -29.724  1.00  0.00     0.134 A 
ATOM      7  C   UNL     1      -5.923  19.039 -30.486  1.00  0.00     0.093 A 
ATOM      8  C   UNL     1      -6.972  18.117 -30.525  1.00  0.00     0.123 A 
ATOM      9  C   UNL     1      -6.880  16.932 -29.802  1.00  0.00     0.094 A 
ATOM     10  C   UNL     1      -5.732  16.642 -29.060  1.00  0.00     0.146 A 
ATOM     11  O   UNL     1      -5.680  15.494 -28.394  1.00  0.00    -0.451 OA
ENDROOT
BRANCH   1  12
ATOM     12  C   UNL     1      -4.696  13.821 -26.965  1.00  0.00     0.063 A 
ATOM     13  C   UNL     1      -3.966  11.509 -26.782  1.00  0.00     0.047 A 
ATOM     14  C   UNL     1      -3.923  12.746 -27.430  1.00  0.00     0.020 A 
ATOM     15  C   UNL     1      -4.793  11.326 -25.670  1.00  0.00     0.119 A 
ATOM     16  C   UNL     1      -5.588  12.385 -25.212  1.00  0.00     0.093 A 
ATOM     17  C   UNL     1      -5.554  13.629 -25.862  1.00  0.00     0.130 A 
BRANCH  15  18
ATOM     18  O   UNL     1      -4.823  10.088 -25.032  1.00  0.00    -0.508 OA
ATOM     19  H   UNL     1      -4.888  10.014 -24.023  1.00  0.00     0.293 HD
ENDBRANCH  15  18
BRANCH  17  20
ATOM     20  O   UNL     1      -6.385  14.661 -25.427  1.00  0.00    -0.507 OA
ATOM     21  H   UNL     1      -6.728  15.371 -26.064  1.00  0.00     0.293 HD
ENDBRANCH  17  20
ENDBRANCH   1  12
BRANCH   2  22
ATOM     22  O   UNL     1      -2.339  15.475 -26.965  1.00  0.00    -0.502 OA
ATOM     23  H   UNL     1      -1.466  15.276 -27.439  1.00  0.00     0.293 HD
ENDBRANCH   2  22
BRANCH   6  24
ATOM     24  O   UNL     1      -3.825  19.817 -29.677  1.00  0.00    -0.507 OA
ATOM     25  H   UNL     1      -3.002  19.866 -30.258  1.00  0.00     0.293 HD
ENDBRANCH   6  24
BRANCH   8  26
ATOM     26  O   UNL     1      -8.119  18.379 -31.274  1.00  0.00    -0.508 OA
ATOM     27  H   UNL     1      -8.972  18.709 -30.839  1.00  0.00     0.293 HD
ENDBRANCH   8  26
TORSDOF 6
ENDMDL
MODEL 6
REMARK VINA RESULT:    -5.247      1.927      6.684
REMARK INTER + INTRA:          -6.694
REMARK INTER:                  -6.275
REMARK INTRA:                  -0.418
REMARK UNBOUND:                -0.373
REMARK SMILES O=c1c(O)c(-c2ccc(O)cc2O)oc2cc(O)cc(O)c12
REMARK SMILES IDX 5 1 3 2 2 3 1 4 22 5 20 6 19 7 17 8 16 9 15 10 14 11 6 12
REMARK SMILES IDX 8 13 7 14 9 15 11 16 12 17 10 18 13 20 4 22 21 24 18 26
REMARK H PARENT 10 19 13 21 4 23 21 25 18 27
REMARK Flexibility Score: inf
ROOT
ATOM      1  C   UNL     1      -3.286  14.111 -27.220  1.00  0.00     0.184 A 
ATOM      2  C   UNL     1      -3.357  13.568 -28.512  1.00  0.00     0.208 A 
ATOM      3  C   UNL     1      -4.044  12.359 -28.705  1.00  0.00     0.238 A 
ATOM      4  O   UNL     1      -4.057  11.848 -29.856  1.00  0.00    -0.285 OA
ATOM      5  C   UNL     1      -4.664  11.718 -27.605  1.00  0.00     0.111 A 
ATOM      6  C   UNL     1      -5.420  10.511 -27.692  1.00  0.00     0.134 A 
ATOM      7  C   UNL     1      -5.880   9.898 -26.519  1.00  0.00     0.093 A 
ATOM      8  C   UNL     1      -5.665  10.484 -25.269  1.00  0.00     0.123 A 
ATOM      9  C   UNL     1      -4.980  11.693 -25.180  1.00  0.00     0.094 A 
ATOM     10  C   UNL     1      -4.479  12.310 -26.328  1.00  0.00     0.146 A 
ATOM     11  O   UNL     1      -3.821  13.456 -26.197  1.00  0.00    -0.451 OA
ENDROOT
BRANCH   1  12
ATOM     12  C   UNL     1      -2.593  15.388 -26.951  1.00  0.00     0.063 A 
ATOM     13  C   UNL     1      -0.560  16.552 -26.298  1.00  0.00     0.047 A 
ATOM     14  C   UNL     1      -1.244  15.363 -26.565  1.00  0.00     0.020 A 
ATOM     15  C   UNL     1      -1.219  17.780 -26.400  1.00  0.00     0.119 A 
ATOM     16  C   UNL     1      -2.573  17.816 -26.761  1.00  0.00     0.093 A 
ATOM     17  C   UNL     1      -3.268  16.626 -27.025  1.00  0.00     0.130 A 
BRANCH  15  18
ATOM     18  O   UNL     1      -0.524  18.957 -26.135  1.00  0.00    -0.508 OA
ATOM     19  H   UNL     1       0.200  19.297 -26.758  1.00  0.00     0.293 HD
ENDBRANCH  15  18
BRANCH  17  20
ATOM     20  O   UNL     1      -4.627  16.670 -27.336  1.00  0.00    -0.507 OA
ATOM     21  H   UNL     1      -5.270  15.959 -27.010  1.00  0.00     0.293 HD
ENDBRANCH  17  20
ENDBRANCH   1  12
BRANCH   2  22
ATOM     22  O   UNL     1      -2.719  14.212 -29.576  1.00  0.00    -0.502 OA
ATOM     23  H   UNL     1      -3.121  15.015 -30.045  1.00  0.00     0.293 HD
ENDBRANCH   2  22
BRANCH   6  24
ATOM     24  O   UNL     1      -5.768   9.892 -28.896  1.00  0.00    -0.507 OA
ATOM     25  H   UNL     1      -5.313  10.059 -29.781  1.00  0.00     0.293 HD
ENDBRANCH   6  24
BRANCH   8  26
ATOM     26  O   UNL     1      -6.140   9.876 -24.109  1.00  0.00    -0.508 OA
ATOM     27  H   UNL     1      -6.115   8.870 -23.990  1.00  0.00     0.293 HD
ENDBRANCH   8  26
TORSDOF 6
ENDMDL
MODEL 7
REMARK VINA RESULT:    -5.201      1.688      3.234
REMARK INTER + INTRA:          -6.639
REMARK INTER:                  -6.224
REMARK INTRA:                  -0.415
REMARK UNBOUND:                -0.373
REMARK SMILES O=c1c(O)c(-c2ccc(O)cc2O)oc2cc(O)cc(O)c12
REMARK SMILES IDX 5 1 3 2 2 3 1 4 22 5 20 6 19 7 17 8 16 9 15 10 14 11 6 12
REMARK SMILES IDX 8 13 7 14 9 15 11 16 12 17 10 18 13 20 4 22 21 24 18 26
REMARK H PARENT 10 19 13 21 4 23 21 25 18 27
REMARK Flexibility Score: inf
ROOT
ATOM      1  C   UNL     1      -2.428  15.592 -26.819  1.00  0.00     0.184 A 
ATOM      2  C   UNL     1      -1.444  15.709 -25.826  1.00  0.00     0.208 A 
ATOM      3  C   UNL     1      -0.843  16.959 -25.609  1.00  0.00     0.238 A 
ATOM      4  O   UNL     1       0.078  17.047 -24.754  1.00  0.00    -0.285 OA
ATOM      5  C   UNL     1      -1.248  18.078 -26.378  1.00  0.00     0.111 A 
ATOM      6  C   UNL     1      -0.736  19.400 -26.215  1.00  0.00     0.134 A 
ATOM      7  C   UNL     1      -1.115  20.403 -27.117  1.00  0.00     0.093 A 
ATOM      8  C   UNL     1      -2.036  20.145 -28.135  1.00  0.00     0.123 A 
ATOM      9  C   UNL     1      -2.586  18.873 -28.264  1.00  0.00     0.094 A 
ATOM     10  C   UNL     1      -2.201  17.843 -27.402  1.00  0.00     0.146 A 
ATOM     11  O   UNL     1      -2.742  16.642 -27.568  1.00  0.00    -0.451 OA
ENDROOT
BRANCH   1  12
ATOM     12  C   UNL     1      -3.112  14.309 -27.087  1.00  0.00     0.063 A 
ATOM     13  C   UNL     1      -3.035  12.075 -28.045  1.00  0.00     0.047 A 
ATOM     14  C   UNL     1      -2.417  13.298 -27.770  1.00  0.00     0.020 A 
ATOM     15  C   UNL     1      -4.358  11.852 -27.653  1.00  0.00     0.119 A 
ATOM     16  C   UNL     1      -5.068  12.863 -26.992  1.00  0.00     0.093 A 
ATOM     17  C   UNL     1      -4.457  14.096 -26.718  1.00  0.00     0.130 A 
BRANCH  15  18
ATOM     18  O   UNL     1      -4.959  10.627 -27.930  1.00  0.00    -0.508 OA
ATOM     19  H   UNL     1      -4.895  10.201 -28.847  1.00  0.00     0.293 HD
ENDBRANCH  15  18
BRANCH  17  20
ATOM     20  O   UNL     1      -5.188  15.112 -26.103  1.00  0.00    -0.507 OA
ATOM     21  H   UNL     1      -5.521  15.916 -26.622  1.00  0.00     0.293 HD
ENDBRANCH  17  20
ENDBRANCH   1  12
BRANCH   2  22
ATOM     22  O   UNL     1      -1.050  14.585 -25.096  1.00  0.00    -0.502 OA
ATOM     23  H   UNL     1      -1.404  14.389 -24.167  1.00  0.00     0.293 HD
ENDBRANCH   2  22
BRANCH   6  24
ATOM     24  O   UNL     1       0.118  19.786 -25.177  1.00  0.00    -0.507 OA
ATOM     25  H   UNL     1      -0.189  20.141 -24.283  1.00  0.00     0.293 HD
ENDBRANCH   6  24
BRANCH   8  26
ATOM     26  O   UNL     1      -2.419  21.153 -29.017  1.00  0.00    -0.508 OA
ATOM     27  H   UNL     1      -2.254  21.076 -30.014  1.00  0.00     0.293 HD
ENDBRANCH   8  26
TORSDOF 6
ENDMDL
MODEL 8
REMARK VINA RESULT:    -5.149      3.011      5.156
REMARK INTER + INTRA:          -6.577
REMARK INTER:                  -6.315
REMARK INTRA:                  -0.262
REMARK UNBOUND:                -0.373
REMARK SMILES O=c1c(O)c(-c2ccc(O)cc2O)oc2cc(O)cc(O)c12
REMARK SMILES IDX 5 1 3 2 2 3 1 4 22 5 20 6 19 7 17 8 16 9 15 10 14 11 6 12
REMARK SMILES IDX 8 13 7 14 9 15 11 16 12 17 10 18 13 20 4 22 21 24 18 26
REMARK H PARENT 10 19 13 21 4 23 21 25 18 27
REMARK Flexibility Score: inf
ROOT
ATOM      1  C   UNL     1      -4.175  16.743 -28.370  1.00  0.00     0.184 A 
ATOM      2  C   UNL     1      -3.693  15.448 -28.617  1.00  0.00     0.208 A 
ATOM      3  C   UNL     1      -2.670  14.936 -27.802  1.00  0.00     0.238 A 
ATOM      4  O   UNL     1      -2.203  13.796 -28.061  1.00  0.00    -0.285 OA
ATOM      5  C   UNL     1      -2.157  15.722 -26.741  1.00  0.00     0.111 A 
ATOM      6  C   UNL     1      -1.149  15.289 -25.827  1.00  0.00     0.134 A 
ATOM      7  C   UNL     1      -0.625  16.196 -24.897  1.00  0.00     0.093 A 
ATOM      8  C   UNL     1      -1.119  17.499 -24.806  1.00  0.00     0.123 A 
ATOM      9  C   UNL     1      -2.144  17.913 -25.653  1.00  0.00     0.094 A 
ATOM     10  C   UNL     1      -2.662  17.042 -26.615  1.00  0.00     0.146 A 
ATOM     11  O   UNL     1      -3.630  17.480 -27.411  1.00  0.00    -0.451 OA
ENDROOT
BRANCH   1  12
ATOM     12  C   UNL     1      -5.261  17.334 -29.180  1.00  0.00     0.063 A 
ATOM     13  C   UNL     1      -7.512  17.156 -30.083  1.00  0.00     0.047 A 
ATOM     14  C   UNL     1      -6.466  16.629 -29.320  1.00  0.00     0.020 A 
ATOM     15  C   UNL     1      -7.360  18.387 -30.727  1.00  0.00     0.119 A 
ATOM     16  C   UNL     1      -6.152  19.087 -30.615  1.00  0.00     0.093 A 
ATOM     17  C   UNL     1      -5.096  18.562 -29.855  1.00  0.00     0.130 A 
BRANCH  15  18
ATOM     18  O   UNL     1      -8.412  18.902 -31.481  1.00  0.00    -0.508 OA
ATOM     19  H   UNL     1      -8.250  19.556 -32.238  1.00  0.00     0.293 HD
ENDBRANCH  15  18
BRANCH  17  20
ATOM     20  O   UNL     1      -3.881  19.244 -29.790  1.00  0.00    -0.507 OA
ATOM     21  H   UNL     1      -2.994  18.757 -29.841  1.00  0.00     0.293 HD
ENDBRANCH  17  20
ENDBRANCH   1  12
BRANCH   2  22
ATOM     22  O   UNL     1      -4.204  14.703 -29.682  1.00  0.00    -0.502 OA
ATOM     23  H   UNL     1      -4.395  13.710 -29.609  1.00  0.00     0.293 HD
ENDBRANCH   2  22
BRANCH   6  24
ATOM     24  O   UNL     1      -0.652  13.984 -25.773  1.00  0.00    -0.507 OA
ATOM     25  H   UNL     1      -1.163  13.189 -25.418  1.00  0.00     0.293 HD
ENDBRANCH   6  24
BRANCH   8  26
ATOM     26  O   UNL     1      -0.603  18.390 -23.866  1.00  0.00    -0.508 OA
ATOM     27  H   UNL     1      -0.610  19.391 -24.024  1.00  0.00     0.293 HD
ENDBRANCH   8  26
TORSDOF 6
ENDMDL
MODEL 9
REMARK VINA RESULT:    -5.046      2.050      6.867
REMARK INTER + INTRA:          -6.452
REMARK INTER:                  -6.051
REMARK INTRA:                  -0.401
REMARK UNBOUND:                -0.373
REMARK SMILES O=c1c(O)c(-c2ccc(O)cc2O)oc2cc(O)cc(O)c12
REMARK SMILES IDX 5 1 3 2 2 3 1 4 22 5 20 6 19 7 17 8 16 9 15 10 14 11 6 12
REMARK SMILES IDX 8 13 7 14 9 15 11 16 12 17 10 18 13 20 4 22 21 24 18 26
REMARK H PARENT 10 19 13 21 4 23 21 25 18 27
REMARK Flexibility Score: inf
ROOT
ATOM      1  C   UNL     1      -1.930  15.223 -26.444  1.00  0.00     0.184 A 
ATOM      2  C   UNL     1      -1.193  14.239 -27.119  1.00  0.00     0.208 A 
ATOM      3  C   UNL     1      -1.770  12.975 -27.318  1.00  0.00     0.238 A 
ATOM      4  O   UNL     1      -1.085  12.077 -27.876  1.00  0.00    -0.285 OA
ATOM      5  C   UNL     1      -3.084  12.719 -26.853  1.00  0.00     0.111 A 
ATOM      6  C   UNL     1      -3.782  11.488 -27.036  1.00  0.00     0.134 A 
ATOM      7  C   UNL     1      -5.028  11.304 -26.422  1.00  0.00     0.093 A 
ATOM      8  C   UNL     1      -5.627  12.329 -25.686  1.00  0.00     0.123 A 
ATOM      9  C   UNL     1      -4.979  13.554 -25.553  1.00  0.00     0.094 A 
ATOM     10  C   UNL     1      -3.721  13.757 -26.124  1.00  0.00     0.146 A 
ATOM     11  O   UNL     1      -3.133  14.936 -25.962  1.00  0.00    -0.451 OA
ENDROOT
BRANCH   1  12
ATOM     12  C   UNL     1      -1.387  16.579 -26.216  1.00  0.00     0.063 A 
ATOM     13  C   UNL     1      -1.148  18.876 -26.978  1.00  0.00     0.047 A 
ATOM     14  C   UNL     1      -1.650  17.585 -27.160  1.00  0.00     0.020 A 
ATOM     15  C   UNL     1      -0.366  19.175 -25.860  1.00  0.00     0.119 A 
ATOM     16  C   UNL     1      -0.076  18.173 -24.924  1.00  0.00     0.093 A 
ATOM     17  C   UNL     1      -0.572  16.873 -25.103  1.00  0.00     0.130 A 
BRANCH  15  18
ATOM     18  O   UNL     1       0.125  20.468 -25.690  1.00  0.00    -0.508 OA
ATOM     19  H   UNL     1      -0.496  21.254 -25.540  1.00  0.00     0.293 HD
ENDBRANCH  15  18
BRANCH  17  20
ATOM     20  O   UNL     1      -0.238  15.872 -24.191  1.00  0.00    -0.507 OA
ATOM     21  H   UNL     1      -0.122  14.908 -24.479  1.00  0.00     0.293 HD
ENDBRANCH  17  20
ENDBRANCH   1  12
BRANCH   2  22
ATOM     22  O   UNL     1       0.108  14.511 -27.550  1.00  0.00    -0.502 OA
ATOM     23  H   UNL     1       0.598  13.918 -28.208  1.00  0.00     0.293 HD
ENDBRANCH   2  22
BRANCH   6  24
ATOM     24  O   UNL     1      -3.315  10.434 -27.826  1.00  0.00    -0.507 OA
ATOM     25  H   UNL     1      -2.484  10.470 -28.399  1.00  0.00     0.293 HD
ENDBRANCH   6  24
BRANCH   8  26
ATOM     26  O   UNL     1      -6.874  12.142 -25.092  1.00  0.00    -0.508 OA
ATOM     27  H   UNL     1      -7.603  11.606 -25.549  1.00  0.00     0.293 HD
ENDBRANCH   8  26
TORSDOF 6
ENDMDL
