MODEL 1
REMARK VINA RESULT:    16.967      0.000      0.000
REMARK INTER + INTRA:          28.079
REMARK INTER:                  25.894
REMARK INTRA:                   2.185
REMARK UNBOUND:                 2.185
REMARK SMILES CC1=CCC[C@H](C)C(=O)C[C@@H](C(C)C)C(=O)C1
REMARK SMILES IDX 8 1 9 2 6 3 7 4 5 5 4 6 3 7 2 8 1 9 10 11 11 12 15 13 16 14
REMARK SMILES IDX 17 15 12 17 13 18 14 19
REMARK H PARENT
REMARK Flexibility Score: 70.00
ROOT
ATOM      1  C   UNL     1      33.253  11.190  41.985  1.00  0.00     0.136 C 
ATOM      2  O   UNL     1      32.171  11.655  42.314  1.00  0.00    -0.299 OA
ENDROOT
BRANCH   1   3
ATOM      3  C   UNL     1      33.305  10.081  40.950  1.00  0.00     0.053 C 
ATOM      4  C   UNL     1      31.897   9.525  40.690  1.00  0.00     0.016 C 
BRANCH   3   5
ATOM      5  C   UNL     1      33.946  10.592  39.639  1.00  0.00     0.015 C 
BRANCH   5   6
ATOM      6  C   UNL     1      32.934  11.381  38.783  1.00  0.00     0.028 C 
BRANCH   6   7
ATOM      7  C   UNL     1      32.979  12.869  39.030  1.00  0.00    -0.028 C 
ATOM      8  C   UNL     1      34.096  13.584  39.312  1.00  0.00    -0.070 CG0
ATOM      9  C   UNL     1      33.954  15.082  39.429  1.00  0.00     0.039 C 
ATOM     10  G   UNL     1      35.460  12.957  39.565  1.00  0.00     0.000 G0
ENDBRANCH   6   7
ENDBRANCH   5   6
ENDBRANCH   3   5
ENDBRANCH   1   3
BRANCH   1  11
ATOM     11  C   UNL     1      34.510  11.726  42.632  1.00  0.00     0.087 C 
BRANCH  11  12
ATOM     12  C   UNL     1      34.880  13.142  42.117  1.00  0.00     0.066 C 
BRANCH  12  13
ATOM     13  C   UNL     1      35.924  13.072  41.011  1.00  0.00     0.140 C 
ATOM     14  O   UNL     1      37.115  13.132  41.280  1.00  0.00    -0.299 OA
BRANCH  13  15
ATOM     15  C   UNL     1      35.489  12.988  39.567  1.00  0.00     0.106 CG0
ATOM     16  G   UNL     1      34.100  13.555  39.306  1.00  0.00     0.000 G0
ENDBRANCH  13  15
ENDBRANCH  12  13
BRANCH  12  17
ATOM     17  C   UNL     1      35.302  14.128  43.254  1.00  0.00    -0.006 C 
ATOM     18  C   UNL     1      36.809  14.046  43.542  1.00  0.00     0.008 C 
ATOM     19  C   UNL     1      34.903  15.592  42.988  1.00  0.00     0.008 C 
ENDBRANCH  12  17
ENDBRANCH  11  12
ENDBRANCH   1  11
TORSDOF 1
ENDMDL
MODEL 2
REMARK VINA RESULT:    17.411      1.545      4.497
REMARK INTER + INTRA:          28.757
REMARK INTER:                  26.890
REMARK INTRA:                   1.867
REMARK UNBOUND:                 2.185
REMARK SMILES CC1=CCC[C@H](C)C(=O)C[C@@H](C(C)C)C(=O)C1
REMARK SMILES IDX 8 1 9 2 6 3 7 4 5 5 4 6 3 7 2 8 1 9 10 11 11 12 15 13 16 14
REMARK SMILES IDX 17 15 12 17 13 18 14 19
REMARK H PARENT
REMARK Flexibility Score: 70.00
ROOT
ATOM      1  C   UNL     1      35.806  12.975  41.967  1.00  0.00     0.136 C 
ATOM      2  O   UNL     1      36.801  12.812  41.275  1.00  0.00    -0.299 OA
ENDROOT
BRANCH   1   3
ATOM      3  C   UNL     1      35.826  14.020  43.068  1.00  0.00     0.053 C 
ATOM      4  C   UNL     1      37.122  14.839  43.005  1.00  0.00     0.016 C 
BRANCH   3   5
ATOM      5  C   UNL     1      34.588  14.939  42.966  1.00  0.00     0.015 C 
BRANCH   5   6
ATOM      6  C   UNL     1      34.979  16.375  42.561  1.00  0.00     0.028 C 
BRANCH   6   7
ATOM      7  C   UNL     1      34.302  16.842  41.296  1.00  0.00    -0.028 C 
ATOM      8  C   UNL     1      34.138  16.100  40.173  1.00  0.00    -0.070 CG0
ATOM      9  C   UNL     1      33.344  16.709  39.044  1.00  0.00     0.039 C 
ATOM     10  G   UNL     1      34.748  14.719  39.977  1.00  0.00     0.000 G0
ENDBRANCH   6   7
ENDBRANCH   5   6
ENDBRANCH   3   5
ENDBRANCH   1   3
BRANCH   1  11
ATOM     11  C   UNL     1      34.587  12.117  41.714  1.00  0.00     0.087 C 
BRANCH  11  12
ATOM     12  C   UNL     1      34.156  12.134  40.223  1.00  0.00     0.066 C 
BRANCH  12  13
ATOM     13  C   UNL     1      33.767  13.536  39.776  1.00  0.00     0.140 C 
ATOM     14  O   UNL     1      32.685  13.738  39.242  1.00  0.00    -0.299 OA
BRANCH  13  15
ATOM     15  C   UNL     1      34.743  14.677  39.936  1.00  0.00     0.106 CG0
ATOM     16  G   UNL     1      34.080  16.033  40.137  1.00  0.00     0.000 G0
ENDBRANCH  13  15
ENDBRANCH  12  13
BRANCH  12  17
ATOM     17  C   UNL     1      33.045  11.086  39.885  1.00  0.00    -0.006 C 
ATOM     18  C   UNL     1      33.651   9.760  39.395  1.00  0.00     0.008 C 
ATOM     19  C   UNL     1      32.072  10.814  41.047  1.00  0.00     0.008 C 
ENDBRANCH  12  17
ENDBRANCH  11  12
ENDBRANCH   1  11
TORSDOF 1
ENDMDL
MODEL 3
REMARK VINA RESULT:    18.339      1.939      3.204
REMARK INTER + INTRA:          30.173
REMARK INTER:                  28.011
REMARK INTRA:                   2.162
REMARK UNBOUND:                 2.185
REMARK SMILES CC1=CCC[C@H](C)C(=O)C[C@@H](C(C)C)C(=O)C1
REMARK SMILES IDX 8 1 9 2 6 3 7 4 5 5 4 6 3 7 2 8 1 9 10 11 11 12 15 13 16 14
REMARK SMILES IDX 17 15 12 17 13 18 14 19
REMARK H PARENT
REMARK Flexibility Score: 70.00
ROOT
ATOM      1  C   UNL     1      34.428  12.536  39.741  1.00  0.00     0.136 C 
ATOM      2  O   UNL     1      33.227  12.685  39.564  1.00  0.00    -0.299 OA
ENDROOT
BRANCH   1   3
ATOM      3  C   UNL     1      35.139  11.365  39.088  1.00  0.00     0.053 C 
ATOM      4  C   UNL     1      36.125  10.720  40.073  1.00  0.00     0.016 C 
BRANCH   3   5
ATOM      5  C   UNL     1      34.116  10.327  38.574  1.00  0.00     0.015 C 
BRANCH   5   6
ATOM      6  C   UNL     1      33.670   9.366  39.695  1.00  0.00     0.028 C 
BRANCH   6   7
ATOM      7  C   UNL     1      32.427   9.827  40.415  1.00  0.00    -0.028 C 
ATOM      8  C   UNL     1      32.406  10.583  41.540  1.00  0.00    -0.070 CG0
ATOM      9  C   UNL     1      31.060  11.028  42.057  1.00  0.00     0.039 C 
ATOM     10  G   UNL     1      33.654  10.960  42.328  1.00  0.00     0.000 G0
ENDBRANCH   6   7
ENDBRANCH   5   6
ENDBRANCH   3   5
ENDBRANCH   1   3
BRANCH   1  11
ATOM     11  C   UNL     1      35.168  13.518  40.622  1.00  0.00     0.087 C 
BRANCH  11  12
ATOM     12  C   UNL     1      35.176  13.080  42.111  1.00  0.00     0.066 C 
BRANCH  12  13
ATOM     13  C   UNL     1      33.849  12.450  42.510  1.00  0.00     0.140 C 
ATOM     14  O   UNL     1      32.959  13.135  42.994  1.00  0.00    -0.299 OA
BRANCH  13  15
ATOM     15  C   UNL     1      33.646  10.960  42.362  1.00  0.00     0.106 CG0
ATOM     16  G   UNL     1      32.426  10.582  41.533  1.00  0.00     0.000 G0
ENDBRANCH  13  15
ENDBRANCH  12  13
BRANCH  12  17
ATOM     17  C   UNL     1      35.596  14.222  43.093  1.00  0.00    -0.006 C 
ATOM     18  C   UNL     1      37.125  14.336  43.206  1.00  0.00     0.008 C 
ATOM     19  C   UNL     1      34.998  15.597  42.740  1.00  0.00     0.008 C 
ENDBRANCH  12  17
ENDBRANCH  11  12
ENDBRANCH   1  11
TORSDOF 1
ENDMDL
