MODEL 1
REMARK VINA RESULT:    -2.270      0.000      0.000
REMARK INTER + INTRA:          -2.270
REMARK INTER:                  -2.270
REMARK INTRA:                   0.000
REMARK UNBOUND:                 0.000
REMARK SMILES CC(=O)[O-]
REMARK SMILES IDX 1 1 2 2 3 3 4 4
REMARK H PARENT
REMARK Flexibility Score: inf
ROOT
ATOM      1  C   UNL     1      13.130 -27.276  24.334  1.00  0.00     0.063 C 
ATOM      2  C   UNL     1      12.355 -28.522  24.069  1.00  0.00     0.038 C 
ATOM      3  O   UNL     1      11.155 -28.452  23.696  1.00  0.00    -0.550 OA
ATOM      4  O   UNL     1      12.972 -29.762  24.180  1.00  0.00    -0.550 OA
ENDROOT
TORSDOF 0
ENDMDL
MODEL 2
REMARK VINA RESULT:    -2.224     11.507     11.984
REMARK INTER + INTRA:          -2.224
REMARK INTER:                  -2.224
REMARK INTRA:                   0.000
REMARK UNBOUND:                 0.000
REMARK SMILES CC(=O)[O-]
REMARK SMILES IDX 1 1 2 2 3 3 4 4
REMARK H PARENT
REMARK Flexibility Score: inf
ROOT
ATOM      1  C   UNL     1      23.594 -26.873  19.815  1.00  0.00     0.063 C 
ATOM      2  C   UNL     1      22.953 -25.542  19.615  1.00  0.00     0.038 C 
ATOM      3  O   UNL     1      23.636 -24.567  19.206  1.00  0.00    -0.550 OA
ATOM      4  O   UNL     1      21.589 -25.388  19.828  1.00  0.00    -0.550 OA
ENDROOT
TORSDOF 0
ENDMDL
MODEL 3
REMARK VINA RESULT:    -2.221     11.468     12.002
REMARK INTER + INTRA:          -2.221
REMARK INTER:                  -2.221
REMARK INTRA:                   0.000
REMARK UNBOUND:                 0.000
REMARK SMILES CC(=O)[O-]
REMARK SMILES IDX 1 1 2 2 3 3 4 4
REMARK H PARENT
REMARK Flexibility Score: inf
ROOT
ATOM      1  C   UNL     1      23.842 -24.261  19.608  1.00  0.00     0.063 C 
ATOM      2  C   UNL     1      22.994 -25.487  19.590  1.00  0.00     0.038 C 
ATOM      3  O   UNL     1      23.517 -26.613  19.377  1.00  0.00    -0.550 OA
ATOM      4  O   UNL     1      21.635 -25.398  19.862  1.00  0.00    -0.550 OA
ENDROOT
TORSDOF 0
ENDMDL
MODEL 4
REMARK VINA RESULT:    -2.219      1.248      2.018
REMARK INTER + INTRA:          -2.219
REMARK INTER:                  -2.219
REMARK INTRA:                   0.000
REMARK UNBOUND:                 0.000
REMARK SMILES CC(=O)[O-]
REMARK SMILES IDX 1 1 2 2 3 3 4 4
REMARK H PARENT
REMARK Flexibility Score: inf
ROOT
ATOM      1  C   UNL     1      12.600 -28.274  24.320  1.00  0.00     0.063 C 
ATOM      2  C   UNL     1      12.712 -29.601  23.649  1.00  0.00     0.038 C 
ATOM      3  O   UNL     1      13.509 -30.469  24.096  1.00  0.00    -0.550 OA
ATOM      4  O   UNL     1      11.900 -29.903  22.564  1.00  0.00    -0.550 OA
ENDROOT
TORSDOF 0
ENDMDL
MODEL 5
REMARK VINA RESULT:    -2.191      1.384      1.764
REMARK INTER + INTRA:          -2.191
REMARK INTER:                  -2.191
REMARK INTRA:                   0.000
REMARK UNBOUND:                 0.000
REMARK SMILES CC(=O)[O-]
REMARK SMILES IDX 1 1 2 2 3 3 4 4
REMARK H PARENT
REMARK Flexibility Score: inf
ROOT
ATOM      1  C   UNL     1      13.068 -29.726  23.921  1.00  0.00     0.063 C 
ATOM      2  C   UNL     1      12.369 -28.410  23.970  1.00  0.00     0.038 C 
ATOM      3  O   UNL     1      11.148 -28.332  23.671  1.00  0.00    -0.550 OA
ATOM      4  O   UNL     1      13.048 -27.276  24.396  1.00  0.00    -0.550 OA
ENDROOT
TORSDOF 0
ENDMDL
MODEL 6
REMARK VINA RESULT:    -2.190     11.916     12.391
REMARK INTER + INTRA:          -2.190
REMARK INTER:                  -2.190
REMARK INTRA:                   0.000
REMARK UNBOUND:                 0.000
REMARK SMILES CC(=O)[O-]
REMARK SMILES IDX 1 1 2 2 3 3 4 4
REMARK H PARENT
REMARK Flexibility Score: inf
ROOT
ATOM      1  C   UNL     1      21.925 -25.393  20.072  1.00  0.00     0.063 C 
ATOM      2  C   UNL     1      23.234 -25.113  19.417  1.00  0.00     0.038 C 
ATOM      3  O   UNL     1      23.645 -25.855  18.485  1.00  0.00    -0.550 OA
ATOM      4  O   UNL     1      23.979 -24.003  19.794  1.00  0.00    -0.550 OA
ENDROOT
TORSDOF 0
ENDMDL
MODEL 7
REMARK VINA RESULT:    -2.160     11.565     12.042
REMARK INTER + INTRA:          -2.160
REMARK INTER:                  -2.160
REMARK INTRA:                   0.000
REMARK UNBOUND:                 0.000
REMARK SMILES CC(=O)[O-]
REMARK SMILES IDX 1 1 2 2 3 3 4 4
REMARK H PARENT
REMARK Flexibility Score: inf
ROOT
ATOM      1  C   UNL     1      21.740 -25.427  20.131  1.00  0.00     0.063 C 
ATOM      2  C   UNL     1      23.090 -25.565  19.513  1.00  0.00     0.038 C 
ATOM      3  O   UNL     1      23.716 -24.542  19.129  1.00  0.00    -0.550 OA
ATOM      4  O   UNL     1      23.684 -26.816  19.409  1.00  0.00    -0.550 OA
ENDROOT
TORSDOF 0
ENDMDL
MODEL 8
REMARK VINA RESULT:    -2.133      2.903      3.195
REMARK INTER + INTRA:          -2.133
REMARK INTER:                  -2.133
REMARK INTRA:                   0.000
REMARK UNBOUND:                 0.000
REMARK SMILES CC(=O)[O-]
REMARK SMILES IDX 1 1 2 2 3 3 4 4
REMARK H PARENT
REMARK Flexibility Score: inf
ROOT
ATOM      1  C   UNL     1      13.374 -30.997  23.484  1.00  0.00     0.063 C 
ATOM      2  C   UNL     1      12.559 -30.835  22.246  1.00  0.00     0.038 C 
ATOM      3  O   UNL     1      11.525 -30.116  22.260  1.00  0.00    -0.550 OA
ATOM      4  O   UNL     1      12.968 -31.432  21.061  1.00  0.00    -0.550 OA
ENDROOT
TORSDOF 0
ENDMDL
MODEL 9
REMARK VINA RESULT:    -2.097     11.331     11.618
REMARK INTER + INTRA:          -2.097
REMARK INTER:                  -2.097
REMARK INTRA:                   0.000
REMARK UNBOUND:                 0.000
REMARK SMILES CC(=O)[O-]
REMARK SMILES IDX 1 1 2 2 3 3 4 4
REMARK H PARENT
REMARK Flexibility Score: inf
ROOT
ATOM      1  C   UNL     1      16.031 -38.125  28.073  1.00  0.00     0.063 C 
ATOM      2  C   UNL     1      17.331 -37.754  28.703  1.00  0.00     0.038 C 
ATOM      3  O   UNL     1      17.470 -37.823  29.952  1.00  0.00    -0.550 OA
ATOM      4  O   UNL     1      18.409 -37.384  27.908  1.00  0.00    -0.550 OA
ENDROOT
TORSDOF 0
ENDMDL
