MODEL 1
REMARK VINA RESULT:    -4.019      0.000      0.000
REMARK INTER + INTRA:          -5.732
REMARK INTER:                  -5.429
REMARK INTRA:                  -0.303
REMARK UNBOUND:                -0.303
REMARK SMILES CCCCCCCC(=O)[O-]
REMARK SMILES IDX 5 1 6 2 7 3 8 4 9 5 10 6 4 7 3 8 2 9 1 10
REMARK H PARENT
REMARK Flexibility Score: inf
ROOT
ATOM      1  C   UNL     1      38.906  20.250   4.408  1.00  0.00     0.000 C 
ENDROOT
BRANCH   1   2
ATOM      2  C   UNL     1      39.315  20.331   5.889  1.00  0.00     0.006 C 
BRANCH   2   3
ATOM      3  C   UNL     1      38.580  19.296   6.751  1.00  0.00     0.053 C 
BRANCH   3   4
ATOM      4  C   UNL     1      37.528  19.933   7.606  1.00  0.00     0.041 C 
ATOM      5  O   UNL     1      37.430  21.188   7.660  1.00  0.00    -0.550 OA
ATOM      6  O   UNL     1      36.678  19.143   8.370  1.00  0.00    -0.550 OA
ENDBRANCH   3   4
ENDBRANCH   2   3
ENDBRANCH   1   2
BRANCH   1   7
ATOM      7  C   UNL     1      37.715  21.161   4.074  1.00  0.00     0.000 C 
BRANCH   7   8
ATOM      8  C   UNL     1      36.415  20.372   3.839  1.00  0.00    -0.000 C 
BRANCH   8   9
ATOM      9  C   UNL     1      35.858  20.565   2.420  1.00  0.00    -0.003 C 
ATOM     10  C   UNL     1      34.456  21.174   2.415  1.00  0.00     0.004 C 
ENDBRANCH   8   9
ENDBRANCH   7   8
ENDBRANCH   1   7
TORSDOF 6
ENDMDL
MODEL 2
REMARK VINA RESULT:    -3.967      1.757      2.218
REMARK INTER + INTRA:          -5.662
REMARK INTER:                  -5.368
REMARK INTRA:                  -0.294
REMARK UNBOUND:                -0.303
REMARK SMILES CCCCCCCC(=O)[O-]
REMARK SMILES IDX 5 1 6 2 7 3 8 4 9 5 10 6 4 7 3 8 2 9 1 10
REMARK H PARENT
REMARK Flexibility Score: inf
ROOT
ATOM      1  C   UNL     1      36.908  20.004   5.130  1.00  0.00     0.000 C 
ENDROOT
BRANCH   1   2
ATOM      2  C   UNL     1      37.767  19.645   6.355  1.00  0.00     0.006 C 
BRANCH   2   3
ATOM      3  C   UNL     1      39.269  19.742   6.058  1.00  0.00     0.053 C 
BRANCH   3   4
ATOM      4  C   UNL     1      39.996  20.513   7.118  1.00  0.00     0.041 C 
ATOM      5  O   UNL     1      40.750  19.915   7.930  1.00  0.00    -0.550 OA
ATOM      6  O   UNL     1      39.813  21.885   7.230  1.00  0.00    -0.550 OA
ENDBRANCH   3   4
ENDBRANCH   2   3
ENDBRANCH   1   2
BRANCH   1   7
ATOM      7  C   UNL     1      37.717  20.705   4.027  1.00  0.00     0.000 C 
BRANCH   7   8
ATOM      8  C   UNL     1      36.843  21.138   2.838  1.00  0.00    -0.000 C 
BRANCH   8   9
ATOM      9  C   UNL     1      35.505  20.384   2.787  1.00  0.00    -0.003 C 
ATOM     10  C   UNL     1      34.401  21.187   2.098  1.00  0.00     0.004 C 
ENDBRANCH   8   9
ENDBRANCH   7   8
ENDBRANCH   1   7
TORSDOF 6
ENDMDL
MODEL 3
REMARK VINA RESULT:    -3.786      2.772      4.681
REMARK INTER + INTRA:          -5.417
REMARK INTER:                  -4.939
REMARK INTRA:                  -0.477
REMARK UNBOUND:                -0.303
REMARK SMILES CCCCCCCC(=O)[O-]
REMARK SMILES IDX 5 1 6 2 7 3 8 4 9 5 10 6 4 7 3 8 2 9 1 10
REMARK H PARENT
REMARK Flexibility Score: inf
ROOT
ATOM      1  C   UNL     1      39.181  20.011   4.487  1.00  0.00     0.000 C 
ENDROOT
BRANCH   1   2
ATOM      2  C   UNL     1      38.113  20.942   3.886  1.00  0.00     0.006 C 
BRANCH   2   3
ATOM      3  C   UNL     1      36.706  20.335   3.962  1.00  0.00     0.053 C 
BRANCH   3   4
ATOM      4  C   UNL     1      35.905  20.636   2.733  1.00  0.00     0.041 C 
ATOM      5  O   UNL     1      35.117  19.772   2.263  1.00  0.00    -0.550 OA
ATOM      6  O   UNL     1      36.052  21.857   2.086  1.00  0.00    -0.550 OA
ENDBRANCH   3   4
ENDBRANCH   2   3
ENDBRANCH   1   2
BRANCH   1   7
ATOM      7  C   UNL     1      39.439  20.293   5.975  1.00  0.00     0.000 C 
BRANCH   7   8
ATOM      8  C   UNL     1      38.848  19.208   6.892  1.00  0.00    -0.000 C 
BRANCH   8   9
ATOM      9  C   UNL     1      37.564  19.671   7.598  1.00  0.00    -0.003 C 
ATOM     10  C   UNL     1      37.414  21.193   7.611  1.00  0.00     0.004 C 
ENDBRANCH   8   9
ENDBRANCH   7   8
ENDBRANCH   1   7
TORSDOF 6
ENDMDL
MODEL 4
REMARK VINA RESULT:    -3.702      1.630      2.393
REMARK INTER + INTRA:          -5.303
REMARK INTER:                  -4.977
REMARK INTRA:                  -0.326
REMARK UNBOUND:                -0.303
REMARK SMILES CCCCCCCC(=O)[O-]
REMARK SMILES IDX 5 1 6 2 7 3 8 4 9 5 10 6 4 7 3 8 2 9 1 10
REMARK H PARENT
REMARK Flexibility Score: inf
ROOT
ATOM      1  C   UNL     1      36.822  20.033   4.839  1.00  0.00     0.000 C 
ENDROOT
BRANCH   1   2
ATOM      2  C   UNL     1      38.012  20.709   5.542  1.00  0.00     0.006 C 
BRANCH   2   3
ATOM      3  C   UNL     1      37.787  20.852   7.053  1.00  0.00     0.053 C 
BRANCH   3   4
ATOM      4  C   UNL     1      37.655  19.519   7.723  1.00  0.00     0.041 C 
ATOM      5  O   UNL     1      36.652  19.269   8.443  1.00  0.00    -0.550 OA
ATOM      6  O   UNL     1      38.655  18.565   7.581  1.00  0.00    -0.550 OA
ENDBRANCH   3   4
ENDBRANCH   2   3
ENDBRANCH   1   2
BRANCH   1   7
ATOM      7  C   UNL     1      36.557  20.611   3.440  1.00  0.00     0.000 C 
BRANCH   7   8
ATOM      8  C   UNL     1      37.750  21.419   2.900  1.00  0.00    -0.000 C 
BRANCH   8   9
ATOM      9  C   UNL     1      37.383  22.880   2.599  1.00  0.00    -0.003 C 
ATOM     10  C   UNL     1      38.608  23.793   2.526  1.00  0.00     0.004 C 
ENDBRANCH   8   9
ENDBRANCH   7   8
ENDBRANCH   1   7
TORSDOF 6
ENDMDL
MODEL 5
REMARK VINA RESULT:    -3.616      1.425      2.032
REMARK INTER + INTRA:          -5.187
REMARK INTER:                  -4.643
REMARK INTRA:                  -0.544
REMARK UNBOUND:                -0.303
REMARK SMILES CCCCCCCC(=O)[O-]
REMARK SMILES IDX 5 1 6 2 7 3 8 4 9 5 10 6 4 7 3 8 2 9 1 10
REMARK H PARENT
REMARK Flexibility Score: inf
ROOT
ATOM      1  C   UNL     1      39.580  21.810   5.399  1.00  0.00     0.000 C 
ENDROOT
BRANCH   1   2
ATOM      2  C   UNL     1      39.445  21.377   6.869  1.00  0.00     0.006 C 
BRANCH   2   3
ATOM      3  C   UNL     1      37.995  21.047   7.245  1.00  0.00     0.053 C 
BRANCH   3   4
ATOM      4  C   UNL     1      37.838  19.611   7.642  1.00  0.00     0.041 C 
ATOM      5  O   UNL     1      38.776  18.794   7.446  1.00  0.00    -0.550 OA
ATOM      6  O   UNL     1      36.643  19.168   8.196  1.00  0.00    -0.550 OA
ENDBRANCH   3   4
ENDBRANCH   2   3
ENDBRANCH   1   2
BRANCH   1   7
ATOM      7  C   UNL     1      39.835  20.624   4.455  1.00  0.00     0.000 C 
BRANCH   7   8
ATOM      8  C   UNL     1      38.960  20.677   3.191  1.00  0.00    -0.000 C 
BRANCH   8   9
ATOM      9  C   UNL     1      37.585  21.312   3.453  1.00  0.00    -0.003 C 
ATOM     10  C   UNL     1      36.542  20.291   3.909  1.00  0.00     0.004 C 
ENDBRANCH   8   9
ENDBRANCH   7   8
ENDBRANCH   1   7
TORSDOF 6
ENDMDL
MODEL 6
REMARK VINA RESULT:    -3.581      3.087      4.889
REMARK INTER + INTRA:          -5.140
REMARK INTER:                  -4.552
REMARK INTRA:                  -0.588
REMARK UNBOUND:                -0.303
REMARK SMILES CCCCCCCC(=O)[O-]
REMARK SMILES IDX 5 1 6 2 7 3 8 4 9 5 10 6 4 7 3 8 2 9 1 10
REMARK H PARENT
REMARK Flexibility Score: inf
ROOT
ATOM      1  C   UNL     1      36.999  19.982   5.528  1.00  0.00     0.000 C 
ENDROOT
BRANCH   1   2
ATOM      2  C   UNL     1      37.785  20.280   4.238  1.00  0.00     0.006 C 
BRANCH   2   3
ATOM      3  C   UNL     1      38.273  21.733   4.179  1.00  0.00     0.053 C 
BRANCH   3   4
ATOM      4  C   UNL     1      39.736  21.814   3.867  1.00  0.00     0.041 C 
ATOM      5  O   UNL     1      40.303  22.935   3.779  1.00  0.00    -0.550 OA
ATOM      6  O   UNL     1      40.465  20.654   3.638  1.00  0.00    -0.550 OA
ENDBRANCH   3   4
ENDBRANCH   2   3
ENDBRANCH   1   2
BRANCH   1   7
ATOM      7  C   UNL     1      37.771  20.385   6.795  1.00  0.00     0.000 C 
BRANCH   7   8
ATOM      8  C   UNL     1      38.721  19.278   7.284  1.00  0.00    -0.000 C 
BRANCH   8   9
ATOM      9  C   UNL     1      40.191  19.724   7.288  1.00  0.00    -0.003 C 
ATOM     10  C   UNL     1      40.346  21.244   7.346  1.00  0.00     0.004 C 
ENDBRANCH   8   9
ENDBRANCH   7   8
ENDBRANCH   1   7
TORSDOF 6
ENDMDL
MODEL 7
REMARK VINA RESULT:    -3.542      3.022      5.269
REMARK INTER + INTRA:          -5.088
REMARK INTER:                  -4.877
REMARK INTRA:                  -0.211
REMARK UNBOUND:                -0.303
REMARK SMILES CCCCCCCC(=O)[O-]
REMARK SMILES IDX 5 1 6 2 7 3 8 4 9 5 10 6 4 7 3 8 2 9 1 10
REMARK H PARENT
REMARK Flexibility Score: inf
ROOT
ATOM      1  C   UNL     1      37.949  21.229   5.221  1.00  0.00     0.000 C 
ENDROOT
BRANCH   1   2
ATOM      2  C   UNL     1      37.620  21.381   3.726  1.00  0.00     0.006 C 
BRANCH   2   3
ATOM      3  C   UNL     1      36.402  20.544   3.313  1.00  0.00     0.053 C 
BRANCH   3   4
ATOM      4  C   UNL     1      35.544  21.265   2.319  1.00  0.00     0.041 C 
ATOM      5  O   UNL     1      34.291  21.258   2.442  1.00  0.00    -0.550 OA
ATOM      6  O   UNL     1      36.126  21.915   1.238  1.00  0.00    -0.550 OA
ENDBRANCH   3   4
ENDBRANCH   2   3
ENDBRANCH   1   2
BRANCH   1   7
ATOM      7  C   UNL     1      37.300  19.983   5.845  1.00  0.00     0.000 C 
BRANCH   7   8
ATOM      8  C   UNL     1      37.658  19.813   7.331  1.00  0.00    -0.000 C 
BRANCH   8   9
ATOM      9  C   UNL     1      38.868  18.891   7.543  1.00  0.00    -0.003 C 
ATOM     10  C   UNL     1      40.193  19.655   7.575  1.00  0.00     0.004 C 
ENDBRANCH   8   9
ENDBRANCH   7   8
ENDBRANCH   1   7
TORSDOF 6
ENDMDL
MODEL 8
REMARK VINA RESULT:    -3.505      2.287      4.437
REMARK INTER + INTRA:          -5.037
REMARK INTER:                  -4.538
REMARK INTRA:                  -0.499
REMARK UNBOUND:                -0.303
REMARK SMILES CCCCCCCC(=O)[O-]
REMARK SMILES IDX 5 1 6 2 7 3 8 4 9 5 10 6 4 7 3 8 2 9 1 10
REMARK H PARENT
REMARK Flexibility Score: inf
ROOT
ATOM      1  C   UNL     1      40.171  21.960   5.953  1.00  0.00     0.000 C 
ENDROOT
BRANCH   1   2
ATOM      2  C   UNL     1      39.719  21.321   4.628  1.00  0.00     0.006 C 
BRANCH   2   3
ATOM      3  C   UNL     1      38.549  22.078   3.989  1.00  0.00     0.053 C 
BRANCH   3   4
ATOM      4  C   UNL     1      37.447  21.151   3.577  1.00  0.00     0.041 C 
ATOM      5  O   UNL     1      36.666  21.471   2.642  1.00  0.00    -0.550 OA
ATOM      6  O   UNL     1      37.259  19.950   4.249  1.00  0.00    -0.550 OA
ENDBRANCH   3   4
ENDBRANCH   2   3
ENDBRANCH   1   2
BRANCH   1   7
ATOM      7  C   UNL     1      39.687  21.176   7.182  1.00  0.00     0.000 C 
BRANCH   7   8
ATOM      8  C   UNL     1      39.909  19.660   7.040  1.00  0.00    -0.000 C 
BRANCH   8   9
ATOM      9  C   UNL     1      38.637  18.849   7.336  1.00  0.00    -0.003 C 
ATOM     10  C   UNL     1      37.445  19.734   7.702  1.00  0.00     0.004 C 
ENDBRANCH   8   9
ENDBRANCH   7   8
ENDBRANCH   1   7
TORSDOF 6
ENDMDL
MODEL 9
REMARK VINA RESULT:    -3.489      3.169      4.590
REMARK INTER + INTRA:          -5.016
REMARK INTER:                  -4.476
REMARK INTRA:                  -0.540
REMARK UNBOUND:                -0.303
REMARK SMILES CCCCCCCC(=O)[O-]
REMARK SMILES IDX 5 1 6 2 7 3 8 4 9 5 10 6 4 7 3 8 2 9 1 10
REMARK H PARENT
REMARK Flexibility Score: inf
ROOT
ATOM      1  C   UNL     1      40.224  21.317   6.989  1.00  0.00     0.000 C 
ENDROOT
BRANCH   1   2
ATOM      2  C   UNL     1      41.125  21.527   5.759  1.00  0.00     0.006 C 
BRANCH   2   3
ATOM      3  C   UNL     1      40.400  21.198   4.448  1.00  0.00     0.053 C 
BRANCH   3   4
ATOM      4  C   UNL     1      39.735  22.407   3.863  1.00  0.00     0.041 C 
ATOM      5  O   UNL     1      38.481  22.448   3.752  1.00  0.00    -0.550 OA
ATOM      6  O   UNL     1      40.502  23.473   3.409  1.00  0.00    -0.550 OA
ENDBRANCH   3   4
ENDBRANCH   2   3
ENDBRANCH   1   2
BRANCH   1   7
ATOM      7  C   UNL     1      40.265  19.872   7.510  1.00  0.00     0.000 C 
BRANCH   7   8
ATOM      8  C   UNL     1      38.967  19.101   7.214  1.00  0.00    -0.000 C 
BRANCH   8   9
ATOM      9  C   UNL     1      37.772  20.035   6.965  1.00  0.00    -0.003 C 
ATOM     10  C   UNL     1      37.112  19.799   5.606  1.00  0.00     0.004 C 
ENDBRANCH   8   9
ENDBRANCH   7   8
ENDBRANCH   1   7
TORSDOF 6
ENDMDL
