MODEL 1
REMARK VINA RESULT:    -2.728      0.000      0.000
REMARK INTER + INTRA:          -3.304
REMARK INTER:                  -3.206
REMARK INTRA:                  -0.097
REMARK UNBOUND:                -0.097
REMARK SMILES CCCCC(=O)[O-]
REMARK SMILES IDX 4 1 5 2 6 3 7 4 3 5 2 6 1 7
REMARK H PARENT
REMARK Flexibility Score: inf
ROOT
ATOM      1  C   UNL     1     -97.290 -26.520  83.692  1.00  0.00     0.053 C 
ENDROOT
BRANCH   1   2
ATOM      2  C   UNL     1     -98.531 -26.536  84.528  1.00  0.00     0.041 C 
ATOM      3  O   UNL     1     -98.679 -25.703  85.460  1.00  0.00    -0.550 OA
ATOM      4  O   UNL     1     -99.548 -27.440  84.246  1.00  0.00    -0.550 OA
ENDBRANCH   1   2
BRANCH   1   5
ATOM      5  C   UNL     1     -96.548 -27.855  83.807  1.00  0.00     0.006 C 
BRANCH   5   6
ATOM      6  C   UNL     1     -96.124 -28.123  85.256  1.00  0.00    -0.003 C 
ATOM      7  C   UNL     1     -95.963 -29.619  85.514  1.00  0.00     0.004 C 
ENDBRANCH   5   6
ENDBRANCH   1   5
TORSDOF 3
ENDMDL
MODEL 2
REMARK VINA RESULT:    -2.687     12.735     14.283
REMARK INTER + INTRA:          -3.255
REMARK INTER:                  -3.152
REMARK INTRA:                  -0.104
REMARK UNBOUND:                -0.097
REMARK SMILES CCCCC(=O)[O-]
REMARK SMILES IDX 4 1 5 2 6 3 7 4 3 5 2 6 1 7
REMARK H PARENT
REMARK Flexibility Score: inf
ROOT
ATOM      1  C   UNL     1     -96.835 -40.725  87.387  1.00  0.00     0.053 C 
ENDROOT
BRANCH   1   2
ATOM      2  C   UNL     1     -97.297 -39.764  88.437  1.00  0.00     0.041 C 
ATOM      3  O   UNL     1     -98.082 -40.146  89.345  1.00  0.00    -0.550 OA
ATOM      4  O   UNL     1     -96.821 -38.459  88.443  1.00  0.00    -0.550 OA
ENDBRANCH   1   2
BRANCH   1   5
ATOM      5  C   UNL     1     -97.766 -41.940  87.326  1.00  0.00     0.006 C 
BRANCH   5   6
ATOM      6  C   UNL     1     -96.967 -43.246  87.399  1.00  0.00    -0.003 C 
ATOM      7  C   UNL     1     -96.461 -43.504  88.815  1.00  0.00     0.004 C 
ENDBRANCH   5   6
ENDBRANCH   1   5
TORSDOF 3
ENDMDL
MODEL 3
REMARK VINA RESULT:    -2.684      2.639      2.831
REMARK INTER + INTRA:          -3.252
REMARK INTER:                  -3.195
REMARK INTRA:                  -0.056
REMARK UNBOUND:                -0.097
REMARK SMILES CCCCC(=O)[O-]
REMARK SMILES IDX 4 1 5 2 6 3 7 4 3 5 2 6 1 7
REMARK H PARENT
REMARK Flexibility Score: inf
ROOT
ATOM      1  C   UNL     1     -97.115 -26.715  83.332  1.00  0.00     0.053 C 
ENDROOT
BRANCH   1   2
ATOM      2  C   UNL     1     -96.294 -26.920  82.099  1.00  0.00     0.041 C 
ATOM      3  O   UNL     1     -95.392 -26.096  81.793  1.00  0.00    -0.550 OA
ATOM      4  O   UNL     1     -96.490 -28.048  81.312  1.00  0.00    -0.550 OA
ENDBRANCH   1   2
BRANCH   1   5
ATOM      5  C   UNL     1     -96.427 -27.346  84.546  1.00  0.00     0.006 C 
BRANCH   5   6
ATOM      6  C   UNL     1     -96.896 -28.790  84.753  1.00  0.00    -0.003 C 
ATOM      7  C   UNL     1     -95.865 -29.597  85.537  1.00  0.00     0.004 C 
ENDBRANCH   5   6
ENDBRANCH   1   5
TORSDOF 3
ENDMDL
MODEL 4
REMARK VINA RESULT:    -2.654      2.351      2.961
REMARK INTER + INTRA:          -3.217
REMARK INTER:                  -3.191
REMARK INTRA:                  -0.026
REMARK UNBOUND:                -0.097
REMARK SMILES CCCCC(=O)[O-]
REMARK SMILES IDX 4 1 5 2 6 3 7 4 3 5 2 6 1 7
REMARK H PARENT
REMARK Flexibility Score: inf
ROOT
ATOM      1  C   UNL     1     -96.331 -28.029  82.728  1.00  0.00     0.053 C 
ENDROOT
BRANCH   1   2
ATOM      2  C   UNL     1     -97.237 -28.174  81.546  1.00  0.00     0.041 C 
ATOM      3  O   UNL     1     -96.767 -28.135  80.378  1.00  0.00    -0.550 OA
ATOM      4  O   UNL     1     -98.594 -28.403  81.733  1.00  0.00    -0.550 OA
ENDBRANCH   1   2
BRANCH   1   5
ATOM      5  C   UNL     1     -97.148 -27.932  84.020  1.00  0.00     0.006 C 
BRANCH   5   6
ATOM      6  C   UNL     1     -96.245 -28.078  85.251  1.00  0.00    -0.003 C 
ATOM      7  C   UNL     1     -95.925 -29.543  85.529  1.00  0.00     0.004 C 
ENDBRANCH   5   6
ENDBRANCH   1   5
TORSDOF 3
ENDMDL
MODEL 5
REMARK VINA RESULT:    -2.640      2.534      3.489
REMARK INTER + INTRA:          -3.200
REMARK INTER:                  -3.160
REMARK INTRA:                  -0.040
REMARK UNBOUND:                -0.097
REMARK SMILES CCCCC(=O)[O-]
REMARK SMILES IDX 4 1 5 2 6 3 7 4 3 5 2 6 1 7
REMARK H PARENT
REMARK Flexibility Score: inf
ROOT
ATOM      1  C   UNL     1     -96.552 -28.296  83.616  1.00  0.00     0.053 C 
ENDROOT
BRANCH   1   2
ATOM      2  C   UNL     1     -96.193 -28.557  85.045  1.00  0.00     0.041 C 
ATOM      3  O   UNL     1     -95.983 -27.597  85.832  1.00  0.00    -0.550 OA
ATOM      4  O   UNL     1     -96.139 -29.861  85.522  1.00  0.00    -0.550 OA
ENDBRANCH   1   2
BRANCH   1   5
ATOM      5  C   UNL     1     -96.567 -26.790  83.334  1.00  0.00     0.006 C 
BRANCH   5   6
ATOM      6  C   UNL     1     -95.899 -26.478  81.990  1.00  0.00    -0.003 C 
ATOM      7  C   UNL     1     -96.455 -27.364  80.880  1.00  0.00     0.004 C 
ENDBRANCH   5   6
ENDBRANCH   1   5
TORSDOF 3
ENDMDL
MODEL 6
REMARK VINA RESULT:    -2.623      2.161      3.346
REMARK INTER + INTRA:          -3.180
REMARK INTER:                  -3.072
REMARK INTRA:                  -0.108
REMARK UNBOUND:                -0.097
REMARK SMILES CCCCC(=O)[O-]
REMARK SMILES IDX 4 1 5 2 6 3 7 4 3 5 2 6 1 7
REMARK H PARENT
REMARK Flexibility Score: inf
ROOT
ATOM      1  C   UNL     1     -96.586 -28.241  83.679  1.00  0.00     0.053 C 
ENDROOT
BRANCH   1   2
ATOM      2  C   UNL     1     -96.205 -28.590  85.083  1.00  0.00     0.041 C 
ATOM      3  O   UNL     1     -95.886 -27.684  85.897  1.00  0.00    -0.550 OA
ATOM      4  O   UNL     1     -96.250 -29.912  85.508  1.00  0.00    -0.550 OA
ENDBRANCH   1   2
BRANCH   1   5
ATOM      5  C   UNL     1     -96.917 -26.750  83.568  1.00  0.00     0.006 C 
BRANCH   5   6
ATOM      6  C   UNL     1     -98.422 -26.509  83.727  1.00  0.00    -0.003 C 
ATOM      7  C   UNL     1     -98.725 -25.752  85.017  1.00  0.00     0.004 C 
ENDBRANCH   5   6
ENDBRANCH   1   5
TORSDOF 3
ENDMDL
MODEL 7
REMARK VINA RESULT:    -2.619     13.855     14.584
REMARK INTER + INTRA:          -3.176
REMARK INTER:                  -3.065
REMARK INTRA:                  -0.111
REMARK UNBOUND:                -0.097
REMARK SMILES CCCCC(=O)[O-]
REMARK SMILES IDX 4 1 5 2 6 3 7 4 3 5 2 6 1 7
REMARK H PARENT
REMARK Flexibility Score: inf
ROOT
ATOM      1  C   UNL     1     -98.002 -39.906  89.289  1.00  0.00     0.053 C 
ENDROOT
BRANCH   1   2
ATOM      2  C   UNL     1     -97.650 -40.927  90.325  1.00  0.00     0.041 C 
ATOM      3  O   UNL     1     -98.531 -41.711  90.768  1.00  0.00    -0.550 OA
ATOM      4  O   UNL     1     -96.338 -41.048  90.766  1.00  0.00    -0.550 OA
ENDBRANCH   1   2
BRANCH   1   5
ATOM      5  C   UNL     1     -97.117 -40.073  88.050  1.00  0.00     0.006 C 
BRANCH   5   6
ATOM      6  C   UNL     1     -97.305 -41.460  87.425  1.00  0.00    -0.003 C 
ATOM      7  C   UNL     1     -95.986 -42.226  87.379  1.00  0.00     0.004 C 
ENDBRANCH   5   6
ENDBRANCH   1   5
TORSDOF 3
ENDMDL
MODEL 8
REMARK VINA RESULT:    -2.476     12.809     14.262
REMARK INTER + INTRA:          -3.007
REMARK INTER:                  -2.977
REMARK INTRA:                  -0.030
REMARK UNBOUND:                -0.097
REMARK SMILES CCCCC(=O)[O-]
REMARK SMILES IDX 4 1 5 2 6 3 7 4 3 5 2 6 1 7
REMARK H PARENT
REMARK Flexibility Score: inf
ROOT
ATOM      1  C   UNL     1     -97.672 -40.433  89.705  1.00  0.00     0.053 C 
ENDROOT
BRANCH   1   2
ATOM      2  C   UNL     1     -97.259 -39.885  88.375  1.00  0.00     0.041 C 
ATOM      3  O   UNL     1     -97.287 -40.617  87.351  1.00  0.00    -0.550 OA
ATOM      4  O   UNL     1     -96.890 -38.551  88.257  1.00  0.00    -0.550 OA
ENDBRANCH   1   2
BRANCH   1   5
ATOM      5  C   UNL     1     -96.637 -41.440  90.215  1.00  0.00     0.006 C 
BRANCH   5   6
ATOM      6  C   UNL     1     -96.519 -41.378  91.742  1.00  0.00    -0.003 C 
ATOM      7  C   UNL     1     -97.862 -41.043  92.385  1.00  0.00     0.004 C 
ENDBRANCH   5   6
ENDBRANCH   1   5
TORSDOF 3
ENDMDL
MODEL 9
REMARK VINA RESULT:    -2.448     14.247     15.084
REMARK INTER + INTRA:          -2.974
REMARK INTER:                  -2.860
REMARK INTRA:                  -0.115
REMARK UNBOUND:                -0.097
REMARK SMILES CCCCC(=O)[O-]
REMARK SMILES IDX 4 1 5 2 6 3 7 4 3 5 2 6 1 7
REMARK H PARENT
REMARK Flexibility Score: inf
ROOT
ATOM      1  C   UNL     1     -97.659 -41.333  87.433  1.00  0.00     0.053 C 
ENDROOT
BRANCH   1   2
ATOM      2  C   UNL     1     -96.694 -42.473  87.354  1.00  0.00     0.041 C 
ATOM      3  O   UNL     1     -95.454 -42.258  87.387  1.00  0.00    -0.550 OA
ATOM      4  O   UNL     1     -97.163 -43.779  87.294  1.00  0.00    -0.550 OA
ENDBRANCH   1   2
BRANCH   1   5
ATOM      5  C   UNL     1     -97.222 -40.334  88.509  1.00  0.00     0.006 C 
BRANCH   5   6
ATOM      6  C   UNL     1     -97.663 -40.799  89.901  1.00  0.00    -0.003 C 
ATOM      7  C   UNL     1     -96.460 -41.148  90.772  1.00  0.00     0.004 C 
ENDBRANCH   5   6
ENDBRANCH   1   5
TORSDOF 3
ENDMDL
