MODEL 1
REMARK VINA RESULT:    -3.801      0.000      0.000
REMARK INTER + INTRA:          -4.507
REMARK INTER:                  -4.468
REMARK INTRA:                  -0.039
REMARK UNBOUND:                -0.039
REMARK SMILES CCCCC(=O)[O-]
REMARK SMILES IDX 4 1 5 2 6 3 7 4 3 5 2 6 1 7
REMARK H PARENT
REMARK Flexibility Score: inf
ROOT
ATOM      1  C   UNL     1      96.360 123.813 125.634  1.00  0.00     0.053 C 
ENDROOT
BRANCH   1   2
ATOM      2  C   UNL     1      97.537 124.676 125.966  1.00  0.00     0.041 C 
ATOM      3  O   UNL     1      97.601 125.856 125.527  1.00  0.00    -0.550 OA
ATOM      4  O   UNL     1      98.586 124.163 126.718  1.00  0.00    -0.550 OA
ENDBRANCH   1   2
BRANCH   1   5
ATOM      5  C   UNL     1      95.814 124.164 124.244  1.00  0.00     0.006 C 
BRANCH   5   6
ATOM      6  C   UNL     1      94.325 123.820 124.091  1.00  0.00    -0.003 C 
ATOM      7  C   UNL     1      93.861 122.753 125.082  1.00  0.00     0.004 C 
ENDBRANCH   5   6
ENDBRANCH   1   5
TORSDOF 3
ENDMDL
MODEL 2
REMARK VINA RESULT:    -3.774      2.571      4.026
REMARK INTER + INTRA:          -4.475
REMARK INTER:                  -4.428
REMARK INTRA:                  -0.047
REMARK UNBOUND:                -0.039
REMARK SMILES CCCCC(=O)[O-]
REMARK SMILES IDX 4 1 5 2 6 3 7 4 3 5 2 6 1 7
REMARK H PARENT
REMARK Flexibility Score: inf
ROOT
ATOM      1  C   UNL     1      96.070 124.191 124.616  1.00  0.00     0.053 C 
ENDROOT
BRANCH   1   2
ATOM      2  C   UNL     1      94.726 123.539 124.698  1.00  0.00     0.041 C 
ATOM      3  O   UNL     1      94.508 122.640 125.554  1.00  0.00    -0.550 OA
ATOM      4  O   UNL     1      93.727 123.888 123.797  1.00  0.00    -0.550 OA
ENDBRANCH   1   2
BRANCH   1   5
ATOM      5  C   UNL     1      96.877 123.916 125.892  1.00  0.00     0.006 C 
BRANCH   5   6
ATOM      6  C   UNL     1      97.695 125.134 126.346  1.00  0.00    -0.003 C 
ATOM      7  C   UNL     1      97.729 126.246 125.299  1.00  0.00     0.004 C 
ENDBRANCH   5   6
ENDBRANCH   1   5
TORSDOF 3
ENDMDL
MODEL 3
REMARK VINA RESULT:    -3.769      0.108      1.228
REMARK INTER + INTRA:          -4.470
REMARK INTER:                  -4.434
REMARK INTRA:                  -0.035
REMARK UNBOUND:                -0.039
REMARK SMILES CCCCC(=O)[O-]
REMARK SMILES IDX 4 1 5 2 6 3 7 4 3 5 2 6 1 7
REMARK H PARENT
REMARK Flexibility Score: inf
ROOT
ATOM      1  C   UNL     1      96.355 123.852 125.613  1.00  0.00     0.053 C 
ENDROOT
BRANCH   1   2
ATOM      2  C   UNL     1      97.553 124.701 125.900  1.00  0.00     0.041 C 
ATOM      3  O   UNL     1      98.465 124.274 126.657  1.00  0.00    -0.550 OA
ATOM      4  O   UNL     1      97.641 125.983 125.371  1.00  0.00    -0.550 OA
ENDBRANCH   1   2
BRANCH   1   5
ATOM      5  C   UNL     1      95.808 124.154 124.212  1.00  0.00     0.006 C 
BRANCH   5   6
ATOM      6  C   UNL     1      94.317 123.809 124.074  1.00  0.00    -0.003 C 
ATOM      7  C   UNL     1      93.855 122.768 125.093  1.00  0.00     0.004 C 
ENDBRANCH   5   6
ENDBRANCH   1   5
TORSDOF 3
ENDMDL
MODEL 4
REMARK VINA RESULT:    -3.769      2.241      3.703
REMARK INTER + INTRA:          -4.469
REMARK INTER:                  -4.404
REMARK INTRA:                  -0.065
REMARK UNBOUND:                -0.039
REMARK SMILES CCCCC(=O)[O-]
REMARK SMILES IDX 4 1 5 2 6 3 7 4 3 5 2 6 1 7
REMARK H PARENT
REMARK Flexibility Score: inf
ROOT
ATOM      1  C   UNL     1      96.324 123.532 125.966  1.00  0.00     0.053 C 
ENDROOT
BRANCH   1   2
ATOM      2  C   UNL     1      95.515 123.869 124.753  1.00  0.00     0.041 C 
ATOM      3  O   UNL     1      95.984 124.638 123.872  1.00  0.00    -0.550 OA
ATOM      4  O   UNL     1      94.224 123.374 124.618  1.00  0.00    -0.550 OA
ENDBRANCH   1   2
BRANCH   1   5
ATOM      5  C   UNL     1      97.420 124.583 126.186  1.00  0.00     0.006 C 
BRANCH   5   6
ATOM      6  C   UNL     1      98.760 123.958 126.606  1.00  0.00    -0.003 C 
ATOM      7  C   UNL     1      98.768 122.436 126.474  1.00  0.00     0.004 C 
ENDBRANCH   5   6
ENDBRANCH   1   5
TORSDOF 3
ENDMDL
MODEL 5
REMARK VINA RESULT:    -3.648      1.790      2.384
REMARK INTER + INTRA:          -4.327
REMARK INTER:                  -4.291
REMARK INTRA:                  -0.035
REMARK UNBOUND:                -0.039
REMARK SMILES CCCCC(=O)[O-]
REMARK SMILES IDX 4 1 5 2 6 3 7 4 3 5 2 6 1 7
REMARK H PARENT
REMARK Flexibility Score: inf
ROOT
ATOM      1  C   UNL     1      97.998 124.245 126.340  1.00  0.00     0.053 C 
ENDROOT
BRANCH   1   2
ATOM      2  C   UNL     1      98.911 123.069 126.496  1.00  0.00     0.041 C 
ATOM      3  O   UNL     1      98.441 121.936 126.784  1.00  0.00    -0.550 OA
ATOM      4  O   UNL     1     100.285 123.234 126.371  1.00  0.00    -0.550 OA
ENDBRANCH   1   2
BRANCH   1   5
ATOM      5  C   UNL     1      96.584 123.779 125.970  1.00  0.00     0.006 C 
BRANCH   5   6
ATOM      6  C   UNL     1      96.148 124.262 124.578  1.00  0.00    -0.003 C 
ATOM      7  C   UNL     1      94.724 123.837 124.224  1.00  0.00     0.004 C 
ENDBRANCH   5   6
ENDBRANCH   1   5
TORSDOF 3
ENDMDL
MODEL 6
REMARK VINA RESULT:    -3.643      3.094      4.200
REMARK INTER + INTRA:          -4.321
REMARK INTER:                  -4.300
REMARK INTRA:                  -0.021
REMARK UNBOUND:                -0.039
REMARK SMILES CCCCC(=O)[O-]
REMARK SMILES IDX 4 1 5 2 6 3 7 4 3 5 2 6 1 7
REMARK H PARENT
REMARK Flexibility Score: inf
ROOT
ATOM      1  C   UNL     1      95.056 123.987 124.382  1.00  0.00     0.053 C 
ENDROOT
BRANCH   1   2
ATOM      2  C   UNL     1      93.756 123.266 124.212  1.00  0.00     0.041 C 
ATOM      3  O   UNL     1      93.154 123.297 123.105  1.00  0.00    -0.550 OA
ATOM      4  O   UNL     1      93.182 122.601 125.288  1.00  0.00    -0.550 OA
ENDBRANCH   1   2
BRANCH   1   5
ATOM      5  C   UNL     1      95.842 123.402 125.563  1.00  0.00     0.006 C 
BRANCH   5   6
ATOM      6  C   UNL     1      97.036 124.279 125.969  1.00  0.00    -0.003 C 
ATOM      7  C   UNL     1      98.259 123.459 126.376  1.00  0.00     0.004 C 
ENDBRANCH   5   6
ENDBRANCH   1   5
TORSDOF 3
ENDMDL
MODEL 7
REMARK VINA RESULT:    -3.278      2.812      4.209
REMARK INTER + INTRA:          -3.892
REMARK INTER:                  -3.876
REMARK INTRA:                  -0.016
REMARK UNBOUND:                -0.039
REMARK SMILES CCCCC(=O)[O-]
REMARK SMILES IDX 4 1 5 2 6 3 7 4 3 5 2 6 1 7
REMARK H PARENT
REMARK Flexibility Score: inf
ROOT
ATOM      1  C   UNL     1      97.589 122.954 126.384  1.00  0.00     0.053 C 
ENDROOT
BRANCH   1   2
ATOM      2  C   UNL     1      97.253 124.356 125.982  1.00  0.00     0.041 C 
ATOM      3  O   UNL     1      97.607 125.325 126.705  1.00  0.00    -0.550 OA
ATOM      4  O   UNL     1      96.506 124.590 124.834  1.00  0.00    -0.550 OA
ENDBRANCH   1   2
BRANCH   1   5
ATOM      5  C   UNL     1      99.110 122.746 126.377  1.00  0.00     0.006 C 
BRANCH   5   6
ATOM      6  C   UNL     1      99.503 121.271 126.552  1.00  0.00    -0.003 C 
ATOM      7  C   UNL     1     100.950 120.994 126.147  1.00  0.00     0.004 C 
ENDBRANCH   5   6
ENDBRANCH   1   5
TORSDOF 3
ENDMDL
MODEL 8
REMARK VINA RESULT:    -3.251     15.190     15.980
REMARK INTER + INTRA:          -3.860
REMARK INTER:                  -3.756
REMARK INTRA:                  -0.105
REMARK UNBOUND:                -0.039
REMARK SMILES CCCCC(=O)[O-]
REMARK SMILES IDX 4 1 5 2 6 3 7 4 3 5 2 6 1 7
REMARK H PARENT
REMARK Flexibility Score: inf
ROOT
ATOM      1  C   UNL     1      84.100 131.318 132.670  1.00  0.00     0.053 C 
ENDROOT
BRANCH   1   2
ATOM      2  C   UNL     1      82.872 131.800 131.965  1.00  0.00     0.041 C 
ATOM      3  O   UNL     1      81.875 131.040 131.836  1.00  0.00    -0.550 OA
ATOM      4  O   UNL     1      82.845 133.072 131.405  1.00  0.00    -0.550 OA
ENDBRANCH   1   2
BRANCH   1   5
ATOM      5  C   UNL     1      84.209 129.790 132.570  1.00  0.00     0.006 C 
BRANCH   5   6
ATOM      6  C   UNL     1      84.899 129.332 131.276  1.00  0.00    -0.003 C 
ATOM      7  C   UNL     1      83.950 128.600 130.329  1.00  0.00     0.004 C 
ENDBRANCH   5   6
ENDBRANCH   1   5
TORSDOF 3
ENDMDL
MODEL 9
REMARK VINA RESULT:    -3.245     13.664     14.409
REMARK INTER + INTRA:          -3.853
REMARK INTER:                  -3.870
REMARK INTRA:                   0.016
REMARK UNBOUND:                -0.039
REMARK SMILES CCCCC(=O)[O-]
REMARK SMILES IDX 4 1 5 2 6 3 7 4 3 5 2 6 1 7
REMARK H PARENT
REMARK Flexibility Score: inf
ROOT
ATOM      1  C   UNL     1      97.957 137.583 120.726  1.00  0.00     0.053 C 
ENDROOT
BRANCH   1   2
ATOM      2  C   UNL     1      97.796 136.130 120.407  1.00  0.00     0.041 C 
ATOM      3  O   UNL     1      96.809 135.488 120.854  1.00  0.00    -0.550 OA
ATOM      4  O   UNL     1      98.763 135.472 119.656  1.00  0.00    -0.550 OA
ENDBRANCH   1   2
BRANCH   1   5
ATOM      5  C   UNL     1      96.845 138.404 120.059  1.00  0.00     0.006 C 
BRANCH   5   6
ATOM      6  C   UNL     1      96.512 137.904 118.644  1.00  0.00    -0.003 C 
ATOM      7  C   UNL     1      96.551 139.019 117.600  1.00  0.00     0.004 C 
ENDBRANCH   5   6
ENDBRANCH   1   5
TORSDOF 3
ENDMDL
