MODEL 1
REMARK VINA RESULT:    -3.838      0.000      0.000
REMARK INTER + INTRA:          -5.306
REMARK INTER:                  -5.184
REMARK INTRA:                  -0.123
REMARK UNBOUND:                -0.123
REMARK SMILES [NH3+]CCCC[C@@H]([NH3+])C(=O)[O-]
REMARK SMILES IDX 4 1 3 2 2 3 1 4 5 8 6 9 7 10 8 14 9 15 10 16
REMARK H PARENT 1 5 1 6 1 7 7 11 7 12 7 13
REMARK Flexibility Score: inf
ROOT
ATOM      1  C   UNL     1     159.988 162.931 168.262  1.00  0.00     0.012 C 
ENDROOT
BRANCH   1   2
ATOM      2  C   UNL     1     160.895 161.797 168.759  1.00  0.00     0.061 C 
BRANCH   2   3
ATOM      3  C   UNL     1     160.418 161.199 170.093  1.00  0.00     0.258 C 
BRANCH   3   4
ATOM      4  N   UNL     1     159.062 161.631 170.439  1.00  0.00    -0.358 N 
ATOM      5  H   UNL     1     159.084 162.574 170.891  1.00  0.00     0.344 HD
ATOM      6  H   UNL     1     158.649 160.946 171.111  1.00  0.00     0.344 HD
ATOM      7  H   UNL     1     158.459 161.657 169.586  1.00  0.00     0.344 HD
ENDBRANCH   3   4
ENDBRANCH   2   3
ENDBRANCH   1   2
BRANCH   1   8
ATOM      8  C   UNL     1     160.625 164.303 168.532  1.00  0.00     0.072 C 
BRANCH   8   9
ATOM      9  C   UNL     1     159.596 165.452 168.459  1.00  0.00     0.227 C 
BRANCH   9  10
ATOM     10  N   UNL     1     159.559 166.188 169.729  1.00  0.00    -0.350 N 
ATOM     11  H   UNL     1     160.532 166.412 170.038  1.00  0.00     0.345 HD
ATOM     12  H   UNL     1     159.109 165.600 170.467  1.00  0.00     0.345 HD
ATOM     13  H   UNL     1     159.019 167.079 169.623  1.00  0.00     0.345 HD
ENDBRANCH   9  10
BRANCH   9  14
ATOM     14  C   UNL     1     159.916 166.394 167.327  1.00  0.00     0.099 C 
ATOM     15  O   UNL     1     160.971 166.243 166.658  1.00  0.00    -0.544 OA
ATOM     16  O   UNL     1     159.053 167.438 167.019  1.00  0.00    -0.544 OA
ENDBRANCH   9  14
ENDBRANCH   8   9
ENDBRANCH   1   8
TORSDOF 7
ENDMDL
MODEL 2
REMARK VINA RESULT:    -3.810     13.525     14.072
REMARK INTER + INTRA:          -5.269
REMARK INTER:                  -5.172
REMARK INTRA:                  -0.097
REMARK UNBOUND:                -0.123
REMARK SMILES [NH3+]CCCC[C@@H]([NH3+])C(=O)[O-]
REMARK SMILES IDX 4 1 3 2 2 3 1 4 5 8 6 9 7 10 8 14 9 15 10 16
REMARK H PARENT 1 5 1 6 1 7 7 11 7 12 7 13
REMARK Flexibility Score: inf
ROOT
ATOM      1  C   UNL     1     164.918 177.865 167.929  1.00  0.00     0.012 C 
ENDROOT
BRANCH   1   2
ATOM      2  C   UNL     1     164.651 176.769 166.886  1.00  0.00     0.061 C 
BRANCH   2   3
ATOM      3  C   UNL     1     165.892 176.448 166.037  1.00  0.00     0.258 C 
BRANCH   3   4
ATOM      4  N   UNL     1     166.562 175.223 166.478  1.00  0.00    -0.358 N 
ATOM      5  H   UNL     1     166.611 174.532 165.695  1.00  0.00     0.344 HD
ATOM      6  H   UNL     1     166.018 174.802 167.264  1.00  0.00     0.344 HD
ATOM      7  H   UNL     1     167.524 175.439 166.826  1.00  0.00     0.344 HD
ENDBRANCH   3   4
ENDBRANCH   2   3
ENDBRANCH   1   2
BRANCH   1   8
ATOM      8  C   UNL     1     163.639 178.662 168.227  1.00  0.00     0.072 C 
BRANCH   8   9
ATOM      9  C   UNL     1     162.701 177.923 169.204  1.00  0.00     0.227 C 
BRANCH   9  10
ATOM     10  N   UNL     1     162.920 178.389 170.579  1.00  0.00    -0.350 N 
ATOM     11  H   UNL     1     163.903 178.730 170.685  1.00  0.00     0.345 HD
ATOM     12  H   UNL     1     162.774 177.600 171.249  1.00  0.00     0.345 HD
ATOM     13  H   UNL     1     162.261 179.167 170.814  1.00  0.00     0.345 HD
ENDBRANCH   9  10
BRANCH   9  14
ATOM     14  C   UNL     1     161.256 178.117 168.819  1.00  0.00     0.099 C 
ATOM     15  O   UNL     1     160.350 177.488 169.425  1.00  0.00    -0.544 OA
ATOM     16  O   UNL     1     160.917 178.988 167.791  1.00  0.00    -0.544 OA
ENDBRANCH   9  14
ENDBRANCH   8   9
ENDBRANCH   1   8
TORSDOF 7
ENDMDL
MODEL 3
REMARK VINA RESULT:    -3.805     13.394     14.030
REMARK INTER + INTRA:          -5.263
REMARK INTER:                  -5.175
REMARK INTRA:                  -0.088
REMARK UNBOUND:                -0.123
REMARK SMILES [NH3+]CCCC[C@@H]([NH3+])C(=O)[O-]
REMARK SMILES IDX 4 1 3 2 2 3 1 4 5 8 6 9 7 10 8 14 9 15 10 16
REMARK H PARENT 1 5 1 6 1 7 7 11 7 12 7 13
REMARK Flexibility Score: inf
ROOT
ATOM      1  C   UNL     1     164.786 177.786 167.903  1.00  0.00     0.012 C 
ENDROOT
BRANCH   1   2
ATOM      2  C   UNL     1     163.386 178.175 168.399  1.00  0.00     0.061 C 
BRANCH   2   3
ATOM      3  C   UNL     1     163.236 178.029 169.922  1.00  0.00     0.258 C 
BRANCH   3   4
ATOM      4  N   UNL     1     162.058 177.242 170.290  1.00  0.00    -0.358 N 
ATOM      5  H   UNL     1     161.376 177.216 169.498  1.00  0.00     0.344 HD
ATOM      6  H   UNL     1     161.596 177.687 171.115  1.00  0.00     0.344 HD
ATOM      7  H   UNL     1     162.337 176.271 170.555  1.00  0.00     0.344 HD
ENDBRANCH   3   4
ENDBRANCH   2   3
ENDBRANCH   1   2
BRANCH   1   8
ATOM      8  C   UNL     1     164.714 176.608 166.920  1.00  0.00     0.072 C 
BRANCH   8   9
ATOM      9  C   UNL     1     166.020 176.436 166.114  1.00  0.00     0.227 C 
BRANCH   9  10
ATOM     10  N   UNL     1     166.636 175.137 166.409  1.00  0.00    -0.350 N 
ATOM     11  H   UNL     1     166.686 174.562 165.537  1.00  0.00     0.345 HD
ATOM     12  H   UNL     1     166.057 174.619 167.108  1.00  0.00     0.345 HD
ATOM     13  H   UNL     1     167.603 175.265 166.790  1.00  0.00     0.345 HD
ENDBRANCH   9  10
BRANCH   9  14
ATOM     14  C   UNL     1     165.763 176.560 164.634  1.00  0.00     0.099 C 
ATOM     15  O   UNL     1     164.584 176.546 164.194  1.00  0.00    -0.544 OA
ATOM     16  O   UNL     1     166.825 176.686 163.747  1.00  0.00    -0.544 OA
ENDBRANCH   9  14
ENDBRANCH   8   9
ENDBRANCH   1   8
TORSDOF 7
ENDMDL
MODEL 4
REMARK VINA RESULT:    -3.705     13.268     14.107
REMARK INTER + INTRA:          -5.128
REMARK INTER:                  -4.953
REMARK INTRA:                  -0.175
REMARK UNBOUND:                -0.123
REMARK SMILES [NH3+]CCCC[C@@H]([NH3+])C(=O)[O-]
REMARK SMILES IDX 4 1 3 2 2 3 1 4 5 8 6 9 7 10 8 14 9 15 10 16
REMARK H PARENT 1 5 1 6 1 7 7 11 7 12 7 13
REMARK Flexibility Score: inf
ROOT
ATOM      1  C   UNL     1     163.767 178.610 167.213  1.00  0.00     0.012 C 
ENDROOT
BRANCH   1   2
ATOM      2  C   UNL     1     162.785 178.792 168.379  1.00  0.00     0.061 C 
BRANCH   2   3
ATOM      3  C   UNL     1     163.231 178.049 169.649  1.00  0.00     0.258 C 
BRANCH   3   4
ATOM      4  N   UNL     1     162.140 177.282 170.253  1.00  0.00    -0.358 N 
ATOM      5  H   UNL     1     161.357 177.162 169.570  1.00  0.00     0.344 HD
ATOM      6  H   UNL     1     161.781 177.800 171.087  1.00  0.00     0.344 HD
ATOM      7  H   UNL     1     162.484 176.348 170.571  1.00  0.00     0.344 HD
ENDBRANCH   3   4
ENDBRANCH   2   3
ENDBRANCH   1   2
BRANCH   1   8
ATOM      8  C   UNL     1     164.917 177.670 167.605  1.00  0.00     0.072 C 
BRANCH   8   9
ATOM      9  C   UNL     1     164.910 176.361 166.786  1.00  0.00     0.227 C 
BRANCH   9  10
ATOM     10  N   UNL     1     163.610 176.172 166.132  1.00  0.00    -0.350 N 
ATOM     11  H   UNL     1     162.839 176.373 166.809  1.00  0.00     0.345 HD
ATOM     12  H   UNL     1     163.514 175.181 165.812  1.00  0.00     0.345 HD
ATOM     13  H   UNL     1     163.516 176.810 165.307  1.00  0.00     0.345 HD
ENDBRANCH   9  10
BRANCH   9  14
ATOM     14  C   UNL     1     166.010 176.361 165.756  1.00  0.00     0.099 C 
ATOM     15  O   UNL     1     166.703 175.327 165.570  1.00  0.00    -0.544 OA
ATOM     16  O   UNL     1     166.269 177.504 165.008  1.00  0.00    -0.544 OA
ENDBRANCH   9  14
ENDBRANCH   8   9
ENDBRANCH   1   8
TORSDOF 7
ENDMDL
MODEL 5
REMARK VINA RESULT:    -3.692     13.452     14.340
REMARK INTER + INTRA:          -5.110
REMARK INTER:                  -4.918
REMARK INTRA:                  -0.192
REMARK UNBOUND:                -0.123
REMARK SMILES [NH3+]CCCC[C@@H]([NH3+])C(=O)[O-]
REMARK SMILES IDX 4 1 3 2 2 3 1 4 5 8 6 9 7 10 8 14 9 15 10 16
REMARK H PARENT 1 5 1 6 1 7 7 11 7 12 7 13
REMARK Flexibility Score: inf
ROOT
ATOM      1  C   UNL     1     165.656 178.548 166.884  1.00  0.00     0.012 C 
ENDROOT
BRANCH   1   2
ATOM      2  C   UNL     1     166.022 177.470 165.854  1.00  0.00     0.061 C 
BRANCH   2   3
ATOM      3  C   UNL     1     165.580 176.063 166.289  1.00  0.00     0.258 C 
BRANCH   3   4
ATOM      4  N   UNL     1     166.702 175.124 166.347  1.00  0.00    -0.358 N 
ATOM      5  H   UNL     1     166.796 174.612 165.440  1.00  0.00     0.344 HD
ATOM      6  H   UNL     1     166.525 174.429 167.107  1.00  0.00     0.344 HD
ATOM      7  H   UNL     1     167.590 175.630 166.566  1.00  0.00     0.344 HD
ENDBRANCH   3   4
ENDBRANCH   2   3
ENDBRANCH   1   2
BRANCH   1   8
ATOM      8  C   UNL     1     164.875 177.942 168.060  1.00  0.00     0.072 C 
BRANCH   8   9
ATOM      9  C   UNL     1     163.472 178.568 168.216  1.00  0.00     0.227 C 
BRANCH   9  10
ATOM     10  N   UNL     1     162.644 178.271 167.041  1.00  0.00    -0.350 N 
ATOM     11  H   UNL     1     161.827 178.923 167.008  1.00  0.00     0.345 HD
ATOM     12  H   UNL     1     162.278 177.293 167.103  1.00  0.00     0.345 HD
ATOM     13  H   UNL     1     163.201 178.375 166.161  1.00  0.00     0.345 HD
ENDBRANCH   9  10
BRANCH   9  14
ATOM     14  C   UNL     1     162.792 178.068 169.465  1.00  0.00     0.099 C 
ATOM     15  O   UNL     1     163.460 177.871 170.513  1.00  0.00    -0.544 OA
ATOM     16  O   UNL     1     161.426 177.816 169.466  1.00  0.00    -0.544 OA
ENDBRANCH   9  14
ENDBRANCH   8   9
ENDBRANCH   1   8
TORSDOF 7
ENDMDL
MODEL 6
REMARK VINA RESULT:    -3.651      2.269      2.916
REMARK INTER + INTRA:          -5.054
REMARK INTER:                  -4.602
REMARK INTRA:                  -0.452
REMARK UNBOUND:                -0.123
REMARK SMILES [NH3+]CCCC[C@@H]([NH3+])C(=O)[O-]
REMARK SMILES IDX 4 1 3 2 2 3 1 4 5 8 6 9 7 10 8 14 9 15 10 16
REMARK H PARENT 1 5 1 6 1 7 7 11 7 12 7 13
REMARK Flexibility Score: inf
ROOT
ATOM      1  C   UNL     1     159.810 162.993 167.422  1.00  0.00     0.012 C 
ENDROOT
BRANCH   1   2
ATOM      2  C   UNL     1     160.967 162.293 166.694  1.00  0.00     0.061 C 
BRANCH   2   3
ATOM      3  C   UNL     1     161.316 162.966 165.356  1.00  0.00     0.258 C 
BRANCH   3   4
ATOM      4  N   UNL     1     162.661 163.543 165.362  1.00  0.00    -0.358 N 
ATOM      5  H   UNL     1     162.611 164.585 165.430  1.00  0.00     0.344 HD
ATOM      6  H   UNL     1     163.144 163.288 164.470  1.00  0.00     0.344 HD
ATOM      7  H   UNL     1     163.219 163.158 166.157  1.00  0.00     0.344 HD
ENDBRANCH   3   4
ENDBRANCH   2   3
ENDBRANCH   1   2
BRANCH   1   8
ATOM      8  C   UNL     1     160.339 164.017 168.438  1.00  0.00     0.072 C 
BRANCH   8   9
ATOM      9  C   UNL     1     159.585 165.362 168.360  1.00  0.00     0.227 C 
BRANCH   9  10
ATOM     10  N   UNL     1     159.729 166.104 169.618  1.00  0.00    -0.350 N 
ATOM     11  H   UNL     1     160.368 166.921 169.478  1.00  0.00     0.345 HD
ATOM     12  H   UNL     1     160.148 165.485 170.350  1.00  0.00     0.345 HD
ATOM     13  H   UNL     1     158.799 166.450 169.951  1.00  0.00     0.345 HD
ENDBRANCH   9  10
BRANCH   9  14
ATOM     14  C   UNL     1     160.086 166.197 167.210  1.00  0.00     0.099 C 
ATOM     15  O   UNL     1     159.301 166.965 166.596  1.00  0.00    -0.544 OA
ATOM     16  O   UNL     1     161.417 166.121 166.816  1.00  0.00    -0.544 OA
ENDBRANCH   9  14
ENDBRANCH   8   9
ENDBRANCH   1   8
TORSDOF 7
ENDMDL
MODEL 7
REMARK VINA RESULT:    -3.593     13.635     14.274
REMARK INTER + INTRA:          -4.976
REMARK INTER:                  -4.817
REMARK INTRA:                  -0.159
REMARK UNBOUND:                -0.123
REMARK SMILES [NH3+]CCCC[C@@H]([NH3+])C(=O)[O-]
REMARK SMILES IDX 4 1 3 2 2 3 1 4 5 8 6 9 7 10 8 14 9 15 10 16
REMARK H PARENT 1 5 1 6 1 7 7 11 7 12 7 13
REMARK Flexibility Score: inf
ROOT
ATOM      1  C   UNL     1     175.045 162.293 167.221  1.00  0.00     0.012 C 
ENDROOT
BRANCH   1   2
ATOM      2  C   UNL     1     176.139 162.003 168.257  1.00  0.00     0.061 C 
BRANCH   2   3
ATOM      3  C   UNL     1     175.674 162.269 169.699  1.00  0.00     0.258 C 
BRANCH   3   4
ATOM      4  N   UNL     1     175.935 161.133 170.583  1.00  0.00    -0.358 N 
ATOM      5  H   UNL     1     175.199 161.070 171.324  1.00  0.00     0.344 HD
ATOM      6  H   UNL     1     176.863 161.266 171.043  1.00  0.00     0.344 HD
ATOM      7  H   UNL     1     175.967 160.244 170.035  1.00  0.00     0.344 HD
ENDBRANCH   3   4
ENDBRANCH   2   3
ENDBRANCH   1   2
BRANCH   1   8
ATOM      8  C   UNL     1     173.667 162.400 167.891  1.00  0.00     0.072 C 
BRANCH   8   9
ATOM      9  C   UNL     1     172.600 162.995 166.947  1.00  0.00     0.227 C 
BRANCH   9  10
ATOM     10  N   UNL     1     173.188 164.043 166.104  1.00  0.00    -0.350 N 
ATOM     11  H   UNL     1     172.465 164.763 165.876  1.00  0.00     0.345 HD
ATOM     12  H   UNL     1     173.528 163.628 165.207  1.00  0.00     0.345 HD
ATOM     13  H   UNL     1     173.989 164.505 166.595  1.00  0.00     0.345 HD
ENDBRANCH   9  10
BRANCH   9  14
ATOM     14  C   UNL     1     171.984 161.925 166.082  1.00  0.00     0.099 C 
ATOM     15  O   UNL     1     172.390 161.753 164.904  1.00  0.00    -0.544 OA
ATOM     16  O   UNL     1     170.962 161.125 166.579  1.00  0.00    -0.544 OA
ENDBRANCH   9  14
ENDBRANCH   8   9
ENDBRANCH   1   8
TORSDOF 7
ENDMDL
MODEL 8
REMARK VINA RESULT:    -3.530      3.221      4.307
REMARK INTER + INTRA:          -4.891
REMARK INTER:                  -4.471
REMARK INTRA:                  -0.420
REMARK UNBOUND:                -0.123
REMARK SMILES [NH3+]CCCC[C@@H]([NH3+])C(=O)[O-]
REMARK SMILES IDX 4 1 3 2 2 3 1 4 5 8 6 9 7 10 8 14 9 15 10 16
REMARK H PARENT 1 5 1 6 1 7 7 11 7 12 7 13
REMARK Flexibility Score: inf
ROOT
ATOM      1  C   UNL     1     161.719 165.730 166.538  1.00  0.00     0.012 C 
ENDROOT
BRANCH   1   2
ATOM      2  C   UNL     1     161.814 165.613 165.010  1.00  0.00     0.061 C 
BRANCH   2   3
ATOM      3  C   UNL     1     161.912 164.154 164.534  1.00  0.00     0.258 C 
BRANCH   3   4
ATOM      4  N   UNL     1     162.751 163.340 165.415  1.00  0.00    -0.358 N 
ATOM      5  H   UNL     1     162.704 163.698 166.396  1.00  0.00     0.344 HD
ATOM      6  H   UNL     1     163.741 163.393 165.085  1.00  0.00     0.344 HD
ATOM      7  H   UNL     1     162.449 162.340 165.383  1.00  0.00     0.344 HD
ENDBRANCH   3   4
ENDBRANCH   2   3
ENDBRANCH   1   2
BRANCH   1   8
ATOM      8  C   UNL     1     160.265 165.586 167.011  1.00  0.00     0.072 C 
BRANCH   8   9
ATOM      9  C   UNL     1     160.155 164.810 168.341  1.00  0.00     0.227 C 
BRANCH   9  10
ATOM     10  N   UNL     1     158.875 165.099 169.000  1.00  0.00    -0.350 N 
ATOM     11  H   UNL     1     158.223 164.290 168.879  1.00  0.00     0.345 HD
ATOM     12  H   UNL     1     158.434 165.941 168.565  1.00  0.00     0.345 HD
ATOM     13  H   UNL     1     159.018 165.274 170.022  1.00  0.00     0.345 HD
ENDBRANCH   9  10
BRANCH   9  14
ATOM     14  C   UNL     1     160.293 163.326 168.114  1.00  0.00     0.099 C 
ATOM     15  O   UNL     1     160.794 162.594 169.006  1.00  0.00    -0.544 OA
ATOM     16  O   UNL     1     159.873 162.758 166.917  1.00  0.00    -0.544 OA
ENDBRANCH   9  14
ENDBRANCH   8   9
ENDBRANCH   1   8
TORSDOF 7
ENDMDL
MODEL 9
REMARK VINA RESULT:    -3.514     19.712     20.698
REMARK INTER + INTRA:          -4.870
REMARK INTER:                  -4.644
REMARK INTRA:                  -0.226
REMARK UNBOUND:                -0.123
REMARK SMILES [NH3+]CCCC[C@@H]([NH3+])C(=O)[O-]
REMARK SMILES IDX 4 1 3 2 2 3 1 4 5 8 6 9 7 10 8 14 9 15 10 16
REMARK H PARENT 1 5 1 6 1 7 7 11 7 12 7 13
REMARK Flexibility Score: inf
ROOT
ATOM      1  C   UNL     1     176.658 174.126 169.991  1.00  0.00     0.012 C 
ENDROOT
BRANCH   1   2
ATOM      2  C   UNL     1     176.888 173.398 168.659  1.00  0.00     0.061 C 
BRANCH   2   3
ATOM      3  C   UNL     1     176.153 174.066 167.486  1.00  0.00     0.258 C 
BRANCH   3   4
ATOM      4  N   UNL     1     174.767 174.399 167.819  1.00  0.00    -0.358 N 
ATOM      5  H   UNL     1     174.165 174.355 166.965  1.00  0.00     0.344 HD
ATOM      6  H   UNL     1     174.734 175.370 168.203  1.00  0.00     0.344 HD
ATOM      7  H   UNL     1     174.401 173.746 168.549  1.00  0.00     0.344 HD
ENDBRANCH   3   4
ENDBRANCH   2   3
ENDBRANCH   1   2
BRANCH   1   8
ATOM      8  C   UNL     1     177.714 175.219 170.210  1.00  0.00     0.072 C 
BRANCH   8   9
ATOM      9  C   UNL     1     177.140 176.639 170.008  1.00  0.00     0.227 C 
BRANCH   9  10
ATOM     10  N   UNL     1     175.750 176.700 170.475  1.00  0.00    -0.350 N 
ATOM     11  H   UNL     1     175.727 176.742 171.519  1.00  0.00     0.345 HD
ATOM     12  H   UNL     1     175.235 175.842 170.171  1.00  0.00     0.345 HD
ATOM     13  H   UNL     1     175.268 177.545 170.088  1.00  0.00     0.345 HD
ENDBRANCH   9  10
BRANCH   9  14
ATOM     14  C   UNL     1     177.971 177.667 170.731  1.00  0.00     0.099 C 
ATOM     15  O   UNL     1     178.740 178.426 170.086  1.00  0.00    -0.544 OA
ATOM     16  O   UNL     1     177.900 177.779 172.115  1.00  0.00    -0.544 OA
ENDBRANCH   9  14
ENDBRANCH   8   9
ENDBRANCH   1   8
TORSDOF 7
ENDMDL
