MODEL 1
REMARK VINA RESULT:     1.003      0.000      0.000
REMARK INTER + INTRA:           1.110
REMARK INTER:                   1.473
REMARK INTRA:                  -0.363
REMARK UNBOUND:                -0.363
REMARK SMILES O=C([O-])CCCCCCCC(=O)[O-]
REMARK SMILES IDX 7 1 6 2 5 3 4 4 2 5 1 6 3 7 8 8 9 9 10 10 11 11 12 12 13 13
REMARK H PARENT
REMARK Flexibility Score: inf
ROOT
ATOM      1  C   UNL     1     -16.320  23.249 -19.313  1.00  0.00     0.000 C 
ENDROOT
BRANCH   1   2
ATOM      2  C   UNL     1     -16.067  23.904 -17.950  1.00  0.00     0.000 C 
BRANCH   2   3
ATOM      3  C   UNL     1     -17.141  24.956 -17.636  1.00  0.00     0.006 C 
BRANCH   3   4
ATOM      4  C   UNL     1     -16.580  26.384 -17.662  1.00  0.00     0.053 C 
BRANCH   4   5
ATOM      5  C   UNL     1     -17.198  27.203 -18.753  1.00  0.00     0.041 C 
ATOM      6  O   UNL     1     -18.405  27.552 -18.678  1.00  0.00    -0.550 OA
ATOM      7  O   UNL     1     -16.430  27.608 -19.838  1.00  0.00    -0.550 OA
ENDBRANCH   4   5
ENDBRANCH   3   4
ENDBRANCH   2   3
ENDBRANCH   1   2
BRANCH   1   8
ATOM      8  C   UNL     1     -15.443  23.886 -20.400  1.00  0.00     0.000 C 
BRANCH   8   9
ATOM      9  C   UNL     1     -14.995  22.875 -21.468  1.00  0.00     0.006 C 
BRANCH   9  10
ATOM     10  C   UNL     1     -14.761  23.527 -22.837  1.00  0.00     0.053 C 
BRANCH  10  11
ATOM     11  C   UNL     1     -13.308  23.825 -23.032  1.00  0.00     0.041 C 
ATOM     12  O   UNL     1     -12.471  22.887 -23.079  1.00  0.00    -0.550 OA
ATOM     13  O   UNL     1     -12.872  25.142 -23.110  1.00  0.00    -0.550 OA
ENDBRANCH  10  11
ENDBRANCH   9  10
ENDBRANCH   8   9
ENDBRANCH   1   8
TORSDOF 8
ENDMDL
MODEL 2
REMARK VINA RESULT:     1.849      1.107      5.757
REMARK INTER + INTRA:           2.352
REMARK INTER:                   2.750
REMARK INTRA:                  -0.398
REMARK UNBOUND:                -0.363
REMARK SMILES O=C([O-])CCCCCCCC(=O)[O-]
REMARK SMILES IDX 7 1 6 2 5 3 4 4 2 5 1 6 3 7 8 8 9 9 10 10 11 11 12 12 13 13
REMARK H PARENT
REMARK Flexibility Score: inf
ROOT
ATOM      1  C   UNL     1     -15.868  24.322 -19.355  1.00  0.00     0.000 C 
ENDROOT
BRANCH   1   2
ATOM      2  C   UNL     1     -16.395  23.063 -20.053  1.00  0.00     0.000 C 
BRANCH   2   3
ATOM      3  C   UNL     1     -15.748  22.887 -21.435  1.00  0.00     0.006 C 
BRANCH   3   4
ATOM      4  C   UNL     1     -14.217  22.936 -21.370  1.00  0.00     0.053 C 
BRANCH   4   5
ATOM      5  C   UNL     1     -13.635  23.665 -22.542  1.00  0.00     0.041 C 
ATOM      6  O   UNL     1     -14.205  24.691 -22.998  1.00  0.00    -0.550 OA
ATOM      7  O   UNL     1     -12.445  23.228 -23.111  1.00  0.00    -0.550 OA
ENDBRANCH   4   5
ENDBRANCH   3   4
ENDBRANCH   2   3
ENDBRANCH   1   2
BRANCH   1   8
ATOM      8  C   UNL     1     -16.729  24.675 -18.133  1.00  0.00     0.000 C 
BRANCH   8   9
ATOM      9  C   UNL     1     -17.218  26.132 -18.153  1.00  0.00     0.006 C 
BRANCH   9  10
ATOM     10  C   UNL     1     -17.042  26.794 -19.526  1.00  0.00     0.053 C 
BRANCH  10  11
ATOM     11  C   UNL     1     -18.206  27.685 -19.828  1.00  0.00     0.041 C 
ATOM     12  O   UNL     1     -18.307  28.232 -20.957  1.00  0.00    -0.550 OA
ATOM     13  O   UNL     1     -19.152  27.951 -18.847  1.00  0.00    -0.550 OA
ENDBRANCH  10  11
ENDBRANCH   9  10
ENDBRANCH   8   9
ENDBRANCH   1   8
TORSDOF 8
ENDMDL
MODEL 3
REMARK VINA RESULT:     2.667      1.245      1.914
REMARK INTER + INTRA:           3.552
REMARK INTER:                   3.825
REMARK INTRA:                  -0.273
REMARK UNBOUND:                -0.363
REMARK SMILES O=C([O-])CCCCCCCC(=O)[O-]
REMARK SMILES IDX 7 1 6 2 5 3 4 4 2 5 1 6 3 7 8 8 9 9 10 10 11 11 12 12 13 13
REMARK H PARENT
REMARK Flexibility Score: inf
ROOT
ATOM      1  C   UNL     1     -16.768  24.722 -19.328  1.00  0.00     0.000 C 
ENDROOT
BRANCH   1   2
ATOM      2  C   UNL     1     -16.696  25.338 -17.925  1.00  0.00     0.000 C 
BRANCH   2   3
ATOM      3  C   UNL     1     -17.137  26.809 -17.946  1.00  0.00     0.006 C 
BRANCH   3   4
ATOM      4  C   UNL     1     -16.833  27.488 -19.288  1.00  0.00     0.053 C 
BRANCH   4   5
ATOM      5  C   UNL     1     -18.085  27.921 -19.987  1.00  0.00     0.041 C 
ATOM      6  O   UNL     1     -18.039  28.316 -21.181  1.00  0.00    -0.550 OA
ATOM      7  O   UNL     1     -19.306  27.857 -19.328  1.00  0.00    -0.550 OA
ENDBRANCH   4   5
ENDBRANCH   3   4
ENDBRANCH   2   3
ENDBRANCH   1   2
BRANCH   1   8
ATOM      8  C   UNL     1     -15.982  23.405 -19.391  1.00  0.00     0.000 C 
BRANCH   8   9
ATOM      9  C   UNL     1     -15.543  23.045 -20.819  1.00  0.00     0.006 C 
BRANCH   9  10
ATOM     10  C   UNL     1     -14.024  22.876 -20.945  1.00  0.00     0.053 C 
BRANCH  10  11
ATOM     11  C   UNL     1     -13.560  23.310 -22.300  1.00  0.00     0.041 C 
ATOM     12  O   UNL     1     -14.374  23.819 -23.114  1.00  0.00    -0.550 OA
ATOM     13  O   UNL     1     -12.241  23.104 -22.683  1.00  0.00    -0.550 OA
ENDBRANCH  10  11
ENDBRANCH   9  10
ENDBRANCH   8   9
ENDBRANCH   1   8
TORSDOF 8
ENDMDL
