MODEL 1
REMARK VINA RESULT:    -5.581      0.000      0.000
REMARK INTER + INTRA:          -6.122
REMARK INTER:                  -6.070
REMARK INTRA:                  -0.052
REMARK UNBOUND:                -0.052
REMARK SMILES COc1cc2ccc(=O)oc2cc1O
REMARK SMILES IDX 3 1 13 2 12 3 11 4 5 5 4 6 6 7 7 8 8 9 9 10 10 11 2 12 1 13
REMARK SMILES IDX 14 14
REMARK H PARENT 14 15
REMARK Flexibility Score: inf
ROOT
ATOM      1  C   UNL     1     -33.114  -3.513 -19.309  1.00  0.00     0.161 A 
ATOM      2  C   UNL     1     -33.750  -4.365 -20.233  1.00  0.00     0.161 A 
ATOM      3  C   UNL     1     -34.887  -5.090 -19.860  1.00  0.00     0.098 A 
ATOM      4  C   UNL     1     -35.404  -4.976 -18.567  1.00  0.00     0.142 A 
ATOM      5  C   UNL     1     -34.776  -4.126 -17.634  1.00  0.00     0.022 A 
ATOM      6  C   UNL     1     -33.637  -3.398 -18.004  1.00  0.00     0.062 A 
ATOM      7  C   UNL     1     -35.318  -4.033 -16.347  1.00  0.00     0.019 A 
ATOM      8  C   UNL     1     -36.452  -4.778 -16.027  1.00  0.00     0.094 A 
ATOM      9  C   UNL     1     -37.022  -5.600 -17.004  1.00  0.00     0.336 A 
ATOM     10  O   UNL     1     -38.047  -6.280 -16.735  1.00  0.00    -0.246 OA
ATOM     11  O   UNL     1     -36.486  -5.670 -18.220  1.00  0.00    -0.423 OA
ENDROOT
BRANCH   1  12
ATOM     12  O   UNL     1     -31.976  -2.800 -19.717  1.00  0.00    -0.493 OA
ATOM     13  C   UNL     1     -30.754  -2.742 -18.990  1.00  0.00     0.278 C 
ENDBRANCH   1  12
BRANCH   2  14
ATOM     14  O   UNL     1     -33.263  -4.505 -21.533  1.00  0.00    -0.504 OA
ATOM     15  H   UNL     1     -32.517  -5.148 -21.765  1.00  0.00     0.293 HD
ENDBRANCH   2  14
TORSDOF 2
ENDMDL
MODEL 2
REMARK VINA RESULT:    -5.553      3.734      6.239
REMARK INTER + INTRA:          -6.092
REMARK INTER:                  -6.035
REMARK INTRA:                  -0.057
REMARK UNBOUND:                -0.052
REMARK SMILES COc1cc2ccc(=O)oc2cc1O
REMARK SMILES IDX 3 1 13 2 12 3 11 4 5 5 4 6 6 7 7 8 8 9 9 10 10 11 2 12 1 13
REMARK SMILES IDX 14 14
REMARK H PARENT 14 15
REMARK Flexibility Score: inf
ROOT
ATOM      1  C   UNL     1     -37.532  -7.675 -14.542  1.00  0.00     0.161 A 
ATOM      2  C   UNL     1     -36.598  -7.849 -15.582  1.00  0.00     0.161 A 
ATOM      3  C   UNL     1     -36.036  -6.737 -16.220  1.00  0.00     0.098 A 
ATOM      4  C   UNL     1     -36.395  -5.444 -15.832  1.00  0.00     0.142 A 
ATOM      5  C   UNL     1     -37.329  -5.258 -14.793  1.00  0.00     0.022 A 
ATOM      6  C   UNL     1     -37.894  -6.369 -14.151  1.00  0.00     0.062 A 
ATOM      7  C   UNL     1     -37.668  -3.951 -14.427  1.00  0.00     0.019 A 
ATOM      8  C   UNL     1     -37.079  -2.879 -15.096  1.00  0.00     0.094 A 
ATOM      9  C   UNL     1     -36.160  -3.139 -16.117  1.00  0.00     0.336 A 
ATOM     10  O   UNL     1     -35.616  -2.185 -16.733  1.00  0.00    -0.246 OA
ATOM     11  O   UNL     1     -35.855  -4.393 -16.445  1.00  0.00    -0.423 OA
ENDROOT
BRANCH   1  12
ATOM     12  O   UNL     1     -38.076  -8.812 -13.923  1.00  0.00    -0.493 OA
ATOM     13  C   UNL     1     -39.464  -9.125 -13.884  1.00  0.00     0.278 C 
ENDBRANCH   1  12
BRANCH   2  14
ATOM     14  O   UNL     1     -36.214  -9.125 -15.996  1.00  0.00    -0.504 OA
ATOM     15  H   UNL     1     -36.840  -9.919 -15.950  1.00  0.00     0.293 HD
ENDBRANCH   2  14
TORSDOF 2
ENDMDL
MODEL 3
REMARK VINA RESULT:    -5.441      3.384      4.892
REMARK INTER + INTRA:          -5.970
REMARK INTER:                  -5.909
REMARK INTRA:                  -0.061
REMARK UNBOUND:                -0.052
REMARK SMILES COc1cc2ccc(=O)oc2cc1O
REMARK SMILES IDX 3 1 13 2 12 3 11 4 5 5 4 6 6 7 7 8 8 9 9 10 10 11 2 12 1 13
REMARK SMILES IDX 14 14
REMARK H PARENT 14 15
REMARK Flexibility Score: inf
ROOT
ATOM      1  C   UNL     1     -36.392  -4.535 -15.691  1.00  0.00     0.161 A 
ATOM      2  C   UNL     1     -36.199  -5.705 -16.452  1.00  0.00     0.161 A 
ATOM      3  C   UNL     1     -36.943  -6.858 -16.175  1.00  0.00     0.098 A 
ATOM      4  C   UNL     1     -37.883  -6.861 -15.142  1.00  0.00     0.142 A 
ATOM      5  C   UNL     1     -38.083  -5.696 -14.374  1.00  0.00     0.022 A 
ATOM      6  C   UNL     1     -37.341  -4.540 -14.648  1.00  0.00     0.062 A 
ATOM      7  C   UNL     1     -39.033  -5.730 -13.346  1.00  0.00     0.019 A 
ATOM      8  C   UNL     1     -39.745  -6.905 -13.112  1.00  0.00     0.094 A 
ATOM      9  C   UNL     1     -39.494  -8.023 -13.915  1.00  0.00     0.336 A 
ATOM     10  O   UNL     1     -40.128  -9.093 -13.720  1.00  0.00    -0.246 OA
ATOM     11  O   UNL     1     -38.585  -7.962 -14.886  1.00  0.00    -0.423 OA
ENDROOT
BRANCH   1  12
ATOM     12  O   UNL     1     -35.630  -3.397 -15.996  1.00  0.00    -0.493 OA
ATOM     13  C   UNL     1     -36.052  -2.350 -16.863  1.00  0.00     0.278 C 
ENDBRANCH   1  12
BRANCH   2  14
ATOM     14  O   UNL     1     -35.270  -5.740 -17.492  1.00  0.00    -0.504 OA
ATOM     15  H   UNL     1     -35.288  -5.076 -18.256  1.00  0.00     0.293 HD
ENDBRANCH   2  14
TORSDOF 2
ENDMDL
MODEL 4
REMARK VINA RESULT:    -5.434      6.084      7.661
REMARK INTER + INTRA:          -5.963
REMARK INTER:                  -5.915
REMARK INTRA:                  -0.048
REMARK UNBOUND:                -0.052
REMARK SMILES COc1cc2ccc(=O)oc2cc1O
REMARK SMILES IDX 3 1 13 2 12 3 11 4 5 5 4 6 6 7 7 8 8 9 9 10 10 11 2 12 1 13
REMARK SMILES IDX 14 14
REMARK H PARENT 14 15
REMARK Flexibility Score: inf
ROOT
ATOM      1  C   UNL     1     -38.338  -7.669 -14.653  1.00  0.00     0.161 A 
ATOM      2  C   UNL     1     -39.609  -7.977 -14.128  1.00  0.00     0.161 A 
ATOM      3  C   UNL     1     -40.210  -7.130 -13.190  1.00  0.00     0.098 A 
ATOM      4  C   UNL     1     -39.556  -5.972 -12.764  1.00  0.00     0.142 A 
ATOM      5  C   UNL     1     -38.284  -5.654 -13.282  1.00  0.00     0.022 A 
ATOM      6  C   UNL     1     -37.680  -6.499 -14.222  1.00  0.00     0.062 A 
ATOM      7  C   UNL     1     -37.655  -4.486 -12.836  1.00  0.00     0.019 A 
ATOM      8  C   UNL     1     -38.298  -3.678 -11.899  1.00  0.00     0.094 A 
ATOM      9  C   UNL     1     -39.560  -4.056 -11.430  1.00  0.00     0.336 A 
ATOM     10  O   UNL     1     -40.157  -3.339 -10.584  1.00  0.00    -0.246 OA
ATOM     11  O   UNL     1     -40.135  -5.172 -11.871  1.00  0.00    -0.423 OA
ENDROOT
BRANCH   1  12
ATOM     12  O   UNL     1     -37.765  -8.540 -15.593  1.00  0.00    -0.493 OA
ATOM     13  C   UNL     1     -36.383  -8.877 -15.645  1.00  0.00     0.278 C 
ENDBRANCH   1  12
BRANCH   2  14
ATOM     14  O   UNL     1     -40.292  -9.125 -14.530  1.00  0.00    -0.504 OA
ATOM     15  H   UNL     1     -40.651  -9.800 -13.866  1.00  0.00     0.293 HD
ENDBRANCH   2  14
TORSDOF 2
ENDMDL
MODEL 5
REMARK VINA RESULT:    -5.352      2.606      4.560
REMARK INTER + INTRA:          -5.873
REMARK INTER:                  -5.808
REMARK INTRA:                  -0.065
REMARK UNBOUND:                -0.052
REMARK SMILES COc1cc2ccc(=O)oc2cc1O
REMARK SMILES IDX 3 1 13 2 12 3 11 4 5 5 4 6 6 7 7 8 8 9 9 10 10 11 2 12 1 13
REMARK SMILES IDX 14 14
REMARK H PARENT 14 15
REMARK Flexibility Score: inf
ROOT
ATOM      1  C   UNL     1     -36.396  -5.303 -17.469  1.00  0.00     0.161 A 
ATOM      2  C   UNL     1     -37.709  -4.840 -17.252  1.00  0.00     0.161 A 
ATOM      3  C   UNL     1     -38.582  -5.554 -16.423  1.00  0.00     0.098 A 
ATOM      4  C   UNL     1     -38.161  -6.733 -15.803  1.00  0.00     0.142 A 
ATOM      5  C   UNL     1     -36.849  -7.205 -16.013  1.00  0.00     0.022 A 
ATOM      6  C   UNL     1     -35.972  -6.492 -16.841  1.00  0.00     0.062 A 
ATOM      7  C   UNL     1     -36.457  -8.388 -15.377  1.00  0.00     0.019 A 
ATOM      8  C   UNL     1     -37.366  -9.061 -14.562  1.00  0.00     0.094 A 
ATOM      9  C   UNL     1     -38.651  -8.533 -14.399  1.00  0.00     0.336 A 
ATOM     10  O   UNL     1     -39.487  -9.125 -13.667  1.00  0.00    -0.246 OA
ATOM     11  O   UNL     1     -38.998  -7.406 -15.016  1.00  0.00    -0.423 OA
ENDROOT
BRANCH   1  12
ATOM     12  O   UNL     1     -35.547  -4.562 -18.305  1.00  0.00    -0.493 OA
ATOM     13  C   UNL     1     -34.504  -3.709 -17.847  1.00  0.00     0.278 C 
ENDBRANCH   1  12
BRANCH   2  14
ATOM     14  O   UNL     1     -38.166  -3.667 -17.854  1.00  0.00    -0.504 OA
ATOM     15  H   UNL     1     -38.956  -3.147 -17.493  1.00  0.00     0.293 HD
ENDBRANCH   2  14
TORSDOF 2
ENDMDL
MODEL 6
REMARK VINA RESULT:    -5.306      6.004      7.928
REMARK INTER + INTRA:          -5.823
REMARK INTER:                  -5.762
REMARK INTRA:                  -0.061
REMARK UNBOUND:                -0.052
REMARK SMILES COc1cc2ccc(=O)oc2cc1O
REMARK SMILES IDX 3 1 13 2 12 3 11 4 5 5 4 6 6 7 7 8 8 9 9 10 10 11 2 12 1 13
REMARK SMILES IDX 14 14
REMARK H PARENT 14 15
REMARK Flexibility Score: inf
ROOT
ATOM      1  C   UNL     1     -39.397  -4.746 -12.239  1.00  0.00     0.161 A 
ATOM      2  C   UNL     1     -38.156  -4.284 -12.720  1.00  0.00     0.161 A 
ATOM      3  C   UNL     1     -37.372  -5.096 -13.547  1.00  0.00     0.098 A 
ATOM      4  C   UNL     1     -37.811  -6.372 -13.905  1.00  0.00     0.142 A 
ATOM      5  C   UNL     1     -39.052  -6.845 -13.430  1.00  0.00     0.022 A 
ATOM      6  C   UNL     1     -39.839  -6.035 -12.602  1.00  0.00     0.062 A 
ATOM      7  C   UNL     1     -39.465  -8.128 -13.807  1.00  0.00     0.019 A 
ATOM      8  C   UNL     1     -38.645  -8.896 -14.632  1.00  0.00     0.094 A 
ATOM      9  C   UNL     1     -37.427  -8.361 -15.066  1.00  0.00     0.336 A 
ATOM     10  O   UNL     1     -36.673  -9.038 -15.813  1.00  0.00    -0.246 OA
ATOM     11  O   UNL     1     -37.059  -7.138 -14.692  1.00  0.00    -0.423 OA
ENDROOT
BRANCH   1  12
ATOM     12  O   UNL     1     -40.158  -3.906 -11.412  1.00  0.00    -0.493 OA
ATOM     13  C   UNL     1     -40.451  -4.167 -10.044  1.00  0.00     0.278 C 
ENDBRANCH   1  12
BRANCH   2  14
ATOM     14  O   UNL     1     -37.683  -3.015 -12.384  1.00  0.00    -0.504 OA
ATOM     15  H   UNL     1     -38.281  -2.198 -12.386  1.00  0.00     0.293 HD
ENDBRANCH   2  14
TORSDOF 2
ENDMDL
MODEL 7
REMARK VINA RESULT:    -5.292      4.987      5.891
REMARK INTER + INTRA:          -5.808
REMARK INTER:                  -5.745
REMARK INTRA:                  -0.062
REMARK UNBOUND:                -0.052
REMARK SMILES COc1cc2ccc(=O)oc2cc1O
REMARK SMILES IDX 3 1 13 2 12 3 11 4 5 5 4 6 6 7 7 8 8 9 9 10 10 11 2 12 1 13
REMARK SMILES IDX 14 14
REMARK H PARENT 14 15
REMARK Flexibility Score: inf
ROOT
ATOM      1  C   UNL     1     -38.493  -4.898 -16.512  1.00  0.00     0.161 A 
ATOM      2  C   UNL     1     -38.033  -4.157 -15.406  1.00  0.00     0.161 A 
ATOM      3  C   UNL     1     -37.191  -4.752 -14.458  1.00  0.00     0.098 A 
ATOM      4  C   UNL     1     -36.800  -6.085 -14.600  1.00  0.00     0.142 A 
ATOM      5  C   UNL     1     -37.254  -6.836 -15.703  1.00  0.00     0.022 A 
ATOM      6  C   UNL     1     -38.096  -6.244 -16.653  1.00  0.00     0.062 A 
ATOM      7  C   UNL     1     -36.843  -8.169 -15.817  1.00  0.00     0.019 A 
ATOM      8  C   UNL     1     -36.005  -8.711 -14.844  1.00  0.00     0.094 A 
ATOM      9  C   UNL     1     -35.593  -7.906 -13.777  1.00  0.00     0.336 A 
ATOM     10  O   UNL     1     -34.835  -8.378 -12.889  1.00  0.00    -0.246 OA
ATOM     11  O   UNL     1     -35.999  -6.642 -13.694  1.00  0.00    -0.423 OA
ENDROOT
BRANCH   1  12
ATOM     12  O   UNL     1     -39.336  -4.271 -17.443  1.00  0.00    -0.493 OA
ATOM     13  C   UNL     1     -38.960  -3.936 -18.775  1.00  0.00     0.278 C 
ENDBRANCH   1  12
BRANCH   2  14
ATOM     14  O   UNL     1     -38.403  -2.824 -15.231  1.00  0.00    -0.504 OA
ATOM     15  H   UNL     1     -37.821  -2.056 -15.542  1.00  0.00     0.293 HD
ENDBRANCH   2  14
TORSDOF 2
ENDMDL
MODEL 8
REMARK VINA RESULT:    -5.290      2.794      6.531
REMARK INTER + INTRA:          -5.806
REMARK INTER:                  -5.747
REMARK INTRA:                  -0.059
REMARK UNBOUND:                -0.052
REMARK SMILES COc1cc2ccc(=O)oc2cc1O
REMARK SMILES IDX 3 1 13 2 12 3 11 4 5 5 4 6 6 7 7 8 8 9 9 10 10 11 2 12 1 13
REMARK SMILES IDX 14 14
REMARK H PARENT 14 15
REMARK Flexibility Score: inf
ROOT
ATOM      1  C   UNL     1     -38.354  -7.326 -14.662  1.00  0.00     0.161 A 
ATOM      2  C   UNL     1     -37.067  -7.892 -14.757  1.00  0.00     0.161 A 
ATOM      3  C   UNL     1     -36.175  -7.457 -15.744  1.00  0.00     0.098 A 
ATOM      4  C   UNL     1     -36.551  -6.457 -16.644  1.00  0.00     0.142 A 
ATOM      5  C   UNL     1     -37.836  -5.884 -16.558  1.00  0.00     0.022 A 
ATOM      6  C   UNL     1     -38.732  -6.317 -15.571  1.00  0.00     0.062 A 
ATOM      7  C   UNL     1     -38.183  -4.885 -17.474  1.00  0.00     0.019 A 
ATOM      8  C   UNL     1     -37.257  -4.489 -18.438  1.00  0.00     0.094 A 
ATOM      9  C   UNL     1     -36.000  -5.102 -18.462  1.00  0.00     0.336 A 
ATOM     10  O   UNL     1     -35.149  -4.758 -19.324  1.00  0.00    -0.246 OA
ATOM     11  O   UNL     1     -35.696  -6.050 -17.579  1.00  0.00    -0.423 OA
ENDROOT
BRANCH   1  12
ATOM     12  O   UNL     1     -39.223  -7.786 -13.660  1.00  0.00    -0.493 OA
ATOM     13  C   UNL     1     -40.176  -8.829 -13.832  1.00  0.00     0.278 C 
ENDBRANCH   1  12
BRANCH   2  14
ATOM     14  O   UNL     1     -36.656  -8.892 -13.875  1.00  0.00    -0.504 OA
ATOM     15  H   UNL     1     -37.197  -9.150 -13.060  1.00  0.00     0.293 HD
ENDBRANCH   2  14
TORSDOF 2
ENDMDL
