MODEL 1
REMARK VINA RESULT:    -3.175      0.000      0.000
REMARK INTER + INTRA:          -7.699
REMARK INTER:                  -5.588
REMARK INTRA:                  -2.111
REMARK UNBOUND:                -2.111
REMARK SMILES CCCCCCCCCCCCCCC(=O)[O-]
REMARK SMILES IDX 9 1 10 2 11 3 12 4 13 5 14 6 15 7 16 8 17 9 8 10 7 11 6 12
REMARK SMILES IDX 5 13 4 14 3 15 2 16 1 17
REMARK H PARENT
REMARK Flexibility Score: inf
ROOT
ATOM      1  C   UNL     1     -47.301 -50.007  70.095  1.00  0.00     0.000 C 
ENDROOT
BRANCH   1   2
ATOM      2  C   UNL     1     -47.559 -50.505  68.663  1.00  0.00     0.000 C 
BRANCH   2   3
ATOM      3  C   UNL     1     -46.612 -49.865  67.635  1.00  0.00     0.000 C 
BRANCH   3   4
ATOM      4  C   UNL     1     -47.193 -48.587  67.005  1.00  0.00     0.000 C 
BRANCH   4   5
ATOM      5  C   UNL     1     -48.735 -48.565  67.035  1.00  0.00     0.006 C 
BRANCH   5   6
ATOM      6  C   UNL     1     -49.323 -47.182  67.359  1.00  0.00     0.053 C 
BRANCH   6   7
ATOM      7  C   UNL     1     -50.343 -46.747  66.355  1.00  0.00     0.041 C 
ATOM      8  O   UNL     1     -49.991 -46.454  65.181  1.00  0.00    -0.550 OA
ATOM      9  O   UNL     1     -51.686 -46.690  66.706  1.00  0.00    -0.550 OA
ENDBRANCH   6   7
ENDBRANCH   5   6
ENDBRANCH   4   5
ENDBRANCH   3   4
ENDBRANCH   2   3
ENDBRANCH   1   2
BRANCH   1  10
ATOM     10  C   UNL     1     -48.523 -49.302  70.712  1.00  0.00     0.000 C 
BRANCH  10  11
ATOM     11  C   UNL     1     -48.312 -47.820  71.084  1.00  0.00    -0.000 C 
BRANCH  11  12
ATOM     12  C   UNL     1     -47.124 -47.130  70.389  1.00  0.00    -0.000 C 
BRANCH  12  13
ATOM     13  C   UNL     1     -45.908 -46.962  71.316  1.00  0.00    -0.000 C 
BRANCH  13  14
ATOM     14  C   UNL     1     -44.574 -47.022  70.555  1.00  0.00    -0.000 C 
BRANCH  14  15
ATOM     15  C   UNL     1     -43.890 -48.393  70.661  1.00  0.00    -0.000 C 
BRANCH  15  16
ATOM     16  C   UNL     1     -43.613 -48.976  69.270  1.00  0.00    -0.003 C 
ATOM     17  C   UNL     1     -43.533 -47.874  68.216  1.00  0.00     0.004 C 
ENDBRANCH  15  16
ENDBRANCH  14  15
ENDBRANCH  13  14
ENDBRANCH  12  13
ENDBRANCH  11  12
ENDBRANCH  10  11
ENDBRANCH   1  10
TORSDOF 13
ENDMDL
MODEL 2
REMARK VINA RESULT:    -3.089      5.606      7.974
REMARK INTER + INTRA:          -7.548
REMARK INTER:                  -6.667
REMARK INTRA:                  -0.881
REMARK UNBOUND:                -2.111
REMARK SMILES CCCCCCCCCCCCCCC(=O)[O-]
REMARK SMILES IDX 9 1 10 2 11 3 12 4 13 5 14 6 15 7 16 8 17 9 8 10 7 11 6 12
REMARK SMILES IDX 5 13 4 14 3 15 2 16 1 17
REMARK H PARENT
REMARK Flexibility Score: inf
ROOT
ATOM      1  C   UNL     1     -42.544 -43.766  68.549  1.00  0.00     0.000 C 
ENDROOT
BRANCH   1   2
ATOM      2  C   UNL     1     -43.216 -42.579  69.261  1.00  0.00     0.000 C 
BRANCH   2   3
ATOM      3  C   UNL     1     -42.309 -41.340  69.328  1.00  0.00     0.000 C 
BRANCH   3   4
ATOM      4  C   UNL     1     -42.771 -40.321  70.386  1.00  0.00     0.000 C 
BRANCH   4   5
ATOM      5  C   UNL     1     -44.073 -40.755  71.091  1.00  0.00     0.006 C 
BRANCH   5   6
ATOM      6  C   UNL     1     -44.167 -40.280  72.550  1.00  0.00     0.053 C 
BRANCH   6   7
ATOM      7  C   UNL     1     -45.562 -39.896  72.934  1.00  0.00     0.041 C 
ATOM      8  O   UNL     1     -46.071 -40.340  73.998  1.00  0.00    -0.550 OA
ATOM      9  O   UNL     1     -46.291 -39.028  72.131  1.00  0.00    -0.550 OA
ENDBRANCH   6   7
ENDBRANCH   5   6
ENDBRANCH   4   5
ENDBRANCH   3   4
ENDBRANCH   2   3
ENDBRANCH   1   2
BRANCH   1  10
ATOM     10  C   UNL     1     -42.542 -45.049  69.399  1.00  0.00     0.000 C 
BRANCH  10  11
ATOM     11  C   UNL     1     -42.695 -44.834  70.919  1.00  0.00    -0.000 C 
BRANCH  11  12
ATOM     12  C   UNL     1     -43.769 -45.700  71.601  1.00  0.00    -0.000 C 
BRANCH  12  13
ATOM     13  C   UNL     1     -44.614 -46.503  70.596  1.00  0.00    -0.000 C 
BRANCH  13  14
ATOM     14  C   UNL     1     -45.828 -47.180  71.253  1.00  0.00    -0.000 C 
BRANCH  14  15
ATOM     15  C   UNL     1     -47.120 -46.998  70.444  1.00  0.00    -0.000 C 
BRANCH  15  16
ATOM     16  C   UNL     1     -48.226 -47.926  70.962  1.00  0.00    -0.003 C 
ATOM     17  C   UNL     1     -47.908 -49.386  70.654  1.00  0.00     0.004 C 
ENDBRANCH  15  16
ENDBRANCH  14  15
ENDBRANCH  13  14
ENDBRANCH  12  13
ENDBRANCH  11  12
ENDBRANCH  10  11
ENDBRANCH   1  10
TORSDOF 13
ENDMDL
MODEL 3
REMARK VINA RESULT:    -3.075      1.297      3.241
REMARK INTER + INTRA:          -7.523
REMARK INTER:                  -5.649
REMARK INTRA:                  -1.873
REMARK UNBOUND:                -2.111
REMARK SMILES CCCCCCCCCCCCCCC(=O)[O-]
REMARK SMILES IDX 9 1 10 2 11 3 12 4 13 5 14 6 15 7 16 8 17 9 8 10 7 11 6 12
REMARK SMILES IDX 5 13 4 14 3 15 2 16 1 17
REMARK H PARENT
REMARK Flexibility Score: inf
ROOT
ATOM      1  C   UNL     1     -45.146 -48.720  67.890  1.00  0.00     0.000 C 
ENDROOT
BRANCH   1   2
ATOM      2  C   UNL     1     -46.157 -48.751  66.731  1.00  0.00     0.000 C 
BRANCH   2   3
ATOM      3  C   UNL     1     -47.559 -49.195  67.181  1.00  0.00     0.000 C 
BRANCH   3   4
ATOM      4  C   UNL     1     -48.679 -48.601  66.308  1.00  0.00     0.000 C 
BRANCH   4   5
ATOM      5  C   UNL     1     -49.298 -47.331  66.928  1.00  0.00     0.006 C 
BRANCH   5   6
ATOM      6  C   UNL     1     -50.283 -46.610  65.994  1.00  0.00     0.053 C 
BRANCH   6   7
ATOM      7  C   UNL     1     -51.680 -47.129  66.131  1.00  0.00     0.041 C 
ATOM      8  O   UNL     1     -52.415 -46.729  67.073  1.00  0.00    -0.550 OA
ATOM      9  O   UNL     1     -52.180 -48.035  65.204  1.00  0.00    -0.550 OA
ENDBRANCH   6   7
ENDBRANCH   5   6
ENDBRANCH   4   5
ENDBRANCH   3   4
ENDBRANCH   2   3
ENDBRANCH   1   2
BRANCH   1  10
ATOM     10  C   UNL     1     -45.407 -49.815  68.940  1.00  0.00     0.000 C 
BRANCH  10  11
ATOM     11  C   UNL     1     -45.326 -49.353  70.409  1.00  0.00    -0.000 C 
BRANCH  11  12
ATOM     12  C   UNL     1     -44.974 -47.868  70.613  1.00  0.00    -0.000 C 
BRANCH  12  13
ATOM     13  C   UNL     1     -46.121 -47.065  71.250  1.00  0.00    -0.000 C 
BRANCH  13  14
ATOM     14  C   UNL     1     -47.422 -47.147  70.434  1.00  0.00    -0.000 C 
BRANCH  14  15
ATOM     15  C   UNL     1     -48.550 -47.868  71.186  1.00  0.00    -0.000 C 
BRANCH  15  16
ATOM     16  C   UNL     1     -49.239 -48.897  70.282  1.00  0.00    -0.003 C 
ATOM     17  C   UNL     1     -48.858 -50.322  70.677  1.00  0.00     0.004 C 
ENDBRANCH  15  16
ENDBRANCH  14  15
ENDBRANCH  13  14
ENDBRANCH  12  13
ENDBRANCH  11  12
ENDBRANCH  10  11
ENDBRANCH   1  10
TORSDOF 13
ENDMDL
MODEL 4
REMARK VINA RESULT:    -3.073      4.292      6.490
REMARK INTER + INTRA:          -7.520
REMARK INTER:                  -5.972
REMARK INTRA:                  -1.548
REMARK UNBOUND:                -2.111
REMARK SMILES CCCCCCCCCCCCCCC(=O)[O-]
REMARK SMILES IDX 9 1 10 2 11 3 12 4 13 5 14 6 15 7 16 8 17 9 8 10 7 11 6 12
REMARK SMILES IDX 5 13 4 14 3 15 2 16 1 17
REMARK H PARENT
REMARK Flexibility Score: inf
ROOT
ATOM      1  C   UNL     1     -44.146 -48.394  70.670  1.00  0.00     0.000 C 
ENDROOT
BRANCH   1   2
ATOM      2  C   UNL     1     -43.665 -47.644  69.416  1.00  0.00     0.000 C 
BRANCH   2   3
ATOM      3  C   UNL     1     -42.785 -46.429  69.754  1.00  0.00     0.000 C 
BRANCH   3   4
ATOM      4  C   UNL     1     -43.552 -45.332  70.515  1.00  0.00     0.000 C 
BRANCH   4   5
ATOM      5  C   UNL     1     -42.992 -45.100  71.933  1.00  0.00     0.006 C 
BRANCH   5   6
ATOM      6  C   UNL     1     -43.926 -45.592  73.050  1.00  0.00     0.053 C 
BRANCH   6   7
ATOM      7  C   UNL     1     -43.999 -44.632  74.195  1.00  0.00     0.041 C 
ATOM      8  O   UNL     1     -44.305 -45.042  75.347  1.00  0.00    -0.550 OA
ATOM      9  O   UNL     1     -43.706 -43.289  73.998  1.00  0.00    -0.550 OA
ENDBRANCH   6   7
ENDBRANCH   5   6
ENDBRANCH   4   5
ENDBRANCH   3   4
ENDBRANCH   2   3
ENDBRANCH   1   2
BRANCH   1  10
ATOM     10  C   UNL     1     -45.664 -48.648  70.669  1.00  0.00     0.000 C 
BRANCH  10  11
ATOM     11  C   UNL     1     -46.541 -47.408  70.939  1.00  0.00    -0.000 C 
BRANCH  11  12
ATOM     12  C   UNL     1     -48.055 -47.677  71.010  1.00  0.00    -0.000 C 
BRANCH  12  13
ATOM     13  C   UNL     1     -48.601 -48.350  69.738  1.00  0.00    -0.000 C 
BRANCH  13  14
ATOM     14  C   UNL     1     -48.398 -47.488  68.482  1.00  0.00    -0.000 C 
BRANCH  14  15
ATOM     15  C   UNL     1     -48.539 -48.291  67.181  1.00  0.00    -0.000 C 
BRANCH  15  16
ATOM     16  C   UNL     1     -47.448 -49.364  67.078  1.00  0.00    -0.003 C 
ATOM     17  C   UNL     1     -46.076 -48.735  66.849  1.00  0.00     0.004 C 
ENDBRANCH  15  16
ENDBRANCH  14  15
ENDBRANCH  13  14
ENDBRANCH  12  13
ENDBRANCH  11  12
ENDBRANCH  10  11
ENDBRANCH   1  10
TORSDOF 13
ENDMDL
MODEL 5
REMARK VINA RESULT:    -3.034      2.599      4.194
REMARK INTER + INTRA:          -7.451
REMARK INTER:                  -6.007
REMARK INTRA:                  -1.443
REMARK UNBOUND:                -2.111
REMARK SMILES CCCCCCCCCCCCCCC(=O)[O-]
REMARK SMILES IDX 9 1 10 2 11 3 12 4 13 5 14 6 15 7 16 8 17 9 8 10 7 11 6 12
REMARK SMILES IDX 5 13 4 14 3 15 2 16 1 17
REMARK H PARENT
REMARK Flexibility Score: inf
ROOT
ATOM      1  C   UNL     1     -44.235 -48.736  70.380  1.00  0.00     0.000 C 
ENDROOT
BRANCH   1   2
ATOM      2  C   UNL     1     -45.732 -48.822  70.721  1.00  0.00     0.000 C 
BRANCH   2   3
ATOM      3  C   UNL     1     -46.340 -47.454  71.070  1.00  0.00     0.000 C 
BRANCH   3   4
ATOM      4  C   UNL     1     -47.878 -47.455  71.019  1.00  0.00     0.000 C 
BRANCH   4   5
ATOM      5  C   UNL     1     -48.450 -48.808  70.548  1.00  0.00     0.006 C 
BRANCH   5   6
ATOM      6  C   UNL     1     -49.293 -48.705  69.267  1.00  0.00     0.053 C 
BRANCH   6   7
ATOM      7  C   UNL     1     -48.574 -47.988  68.168  1.00  0.00     0.041 C 
ATOM      8  O   UNL     1     -49.009 -46.887  67.738  1.00  0.00    -0.550 OA
ATOM      9  O   UNL     1     -47.407 -48.523  67.635  1.00  0.00    -0.550 OA
ENDBRANCH   6   7
ENDBRANCH   5   6
ENDBRANCH   4   5
ENDBRANCH   3   4
ENDBRANCH   2   3
ENDBRANCH   1   2
BRANCH   1  10
ATOM     10  C   UNL     1     -43.694 -47.296  70.426  1.00  0.00     0.000 C 
BRANCH  10  11
ATOM     11  C   UNL     1     -42.277 -47.141  71.014  1.00  0.00    -0.000 C 
BRANCH  11  12
ATOM     12  C   UNL     1     -41.995 -45.794  71.705  1.00  0.00    -0.000 C 
BRANCH  12  13
ATOM     13  C   UNL     1     -43.071 -44.735  71.407  1.00  0.00    -0.000 C 
BRANCH  13  14
ATOM     14  C   UNL     1     -42.540 -43.586  70.535  1.00  0.00    -0.000 C 
BRANCH  14  15
ATOM     15  C   UNL     1     -43.009 -43.682  69.076  1.00  0.00    -0.000 C 
BRANCH  15  16
ATOM     16  C   UNL     1     -41.869 -44.150  68.163  1.00  0.00    -0.003 C 
ATOM     17  C   UNL     1     -42.333 -45.262  67.227  1.00  0.00     0.004 C 
ENDBRANCH  15  16
ENDBRANCH  14  15
ENDBRANCH  13  14
ENDBRANCH  12  13
ENDBRANCH  11  12
ENDBRANCH  10  11
ENDBRANCH   1  10
TORSDOF 13
ENDMDL
MODEL 6
REMARK VINA RESULT:    -2.970      3.527      4.959
REMARK INTER + INTRA:          -7.337
REMARK INTER:                  -5.976
REMARK INTRA:                  -1.361
REMARK UNBOUND:                -2.111
REMARK SMILES CCCCCCCCCCCCCCC(=O)[O-]
REMARK SMILES IDX 9 1 10 2 11 3 12 4 13 5 14 6 15 7 16 8 17 9 8 10 7 11 6 12
REMARK SMILES IDX 5 13 4 14 3 15 2 16 1 17
REMARK H PARENT
REMARK Flexibility Score: inf
ROOT
ATOM      1  C   UNL     1     -44.208 -47.727  70.421  1.00  0.00     0.000 C 
ENDROOT
BRANCH   1   2
ATOM      2  C   UNL     1     -45.574 -48.355  70.749  1.00  0.00     0.000 C 
BRANCH   2   3
ATOM      3  C   UNL     1     -46.620 -47.309  71.167  1.00  0.00     0.000 C 
BRANCH   3   4
ATOM      4  C   UNL     1     -47.659 -47.034  70.064  1.00  0.00     0.000 C 
BRANCH   4   5
ATOM      5  C   UNL     1     -47.840 -48.235  69.113  1.00  0.00     0.006 C 
BRANCH   5   6
ATOM      6  C   UNL     1     -49.182 -48.962  69.291  1.00  0.00     0.053 C 
BRANCH   6   7
ATOM      7  C   UNL     1     -49.308 -49.602  70.638  1.00  0.00     0.041 C 
ATOM      8  O   UNL     1     -50.196 -49.214  71.443  1.00  0.00    -0.550 OA
ATOM      9  O   UNL     1     -48.463 -50.645  70.995  1.00  0.00    -0.550 OA
ENDBRANCH   6   7
ENDBRANCH   5   6
ENDBRANCH   4   5
ENDBRANCH   3   4
ENDBRANCH   2   3
ENDBRANCH   1   2
BRANCH   1  10
ATOM     10  C   UNL     1     -44.137 -46.231  70.777  1.00  0.00     0.000 C 
BRANCH  10  11
ATOM     11  C   UNL     1     -43.007 -45.837  71.749  1.00  0.00    -0.000 C 
BRANCH  11  12
ATOM     12  C   UNL     1     -43.445 -44.987  72.956  1.00  0.00    -0.000 C 
BRANCH  12  13
ATOM     13  C   UNL     1     -42.913 -43.545  72.894  1.00  0.00    -0.000 C 
BRANCH  13  14
ATOM     14  C   UNL     1     -42.214 -43.231  71.561  1.00  0.00    -0.000 C 
BRANCH  14  15
ATOM     15  C   UNL     1     -42.962 -42.178  70.731  1.00  0.00    -0.000 C 
BRANCH  15  16
ATOM     16  C   UNL     1     -43.544 -42.798  69.455  1.00  0.00    -0.003 C 
ATOM     17  C   UNL     1     -42.459 -43.491  68.634  1.00  0.00     0.004 C 
ENDBRANCH  15  16
ENDBRANCH  14  15
ENDBRANCH  13  14
ENDBRANCH  12  13
ENDBRANCH  11  12
ENDBRANCH  10  11
ENDBRANCH   1  10
TORSDOF 13
ENDMDL
MODEL 7
REMARK VINA RESULT:    -2.961      1.556      2.175
REMARK INTER + INTRA:          -7.322
REMARK INTER:                  -5.504
REMARK INTRA:                  -1.819
REMARK UNBOUND:                -2.111
REMARK SMILES CCCCCCCCCCCCCCC(=O)[O-]
REMARK SMILES IDX 9 1 10 2 11 3 12 4 13 5 14 6 15 7 16 8 17 9 8 10 7 11 6 12
REMARK SMILES IDX 5 13 4 14 3 15 2 16 1 17
REMARK H PARENT
REMARK Flexibility Score: inf
ROOT
ATOM      1  C   UNL     1     -49.796 -49.542  68.600  1.00  0.00     0.000 C 
ENDROOT
BRANCH   1   2
ATOM      2  C   UNL     1     -48.368 -49.590  68.032  1.00  0.00     0.000 C 
BRANCH   2   3
ATOM      3  C   UNL     1     -47.965 -48.282  67.332  1.00  0.00     0.000 C 
BRANCH   3   4
ATOM      4  C   UNL     1     -49.131 -47.283  67.221  1.00  0.00     0.000 C 
BRANCH   4   5
ATOM      5  C   UNL     1     -49.583 -47.067  65.762  1.00  0.00     0.006 C 
BRANCH   5   6
ATOM      6  C   UNL     1     -51.059 -46.658  65.632  1.00  0.00     0.053 C 
BRANCH   6   7
ATOM      7  C   UNL     1     -51.329 -45.893  64.374  1.00  0.00     0.041 C 
ATOM      8  O   UNL     1     -50.373 -45.464  63.676  1.00  0.00    -0.550 OA
ATOM      9  O   UNL     1     -52.637 -45.677  63.959  1.00  0.00    -0.550 OA
ENDBRANCH   6   7
ENDBRANCH   5   6
ENDBRANCH   4   5
ENDBRANCH   3   4
ENDBRANCH   2   3
ENDBRANCH   1   2
BRANCH   1  10
ATOM     10  C   UNL     1     -49.828 -49.268  70.114  1.00  0.00     0.000 C 
BRANCH  10  11
ATOM     11  C   UNL     1     -48.452 -49.032  70.771  1.00  0.00    -0.000 C 
BRANCH  11  12
ATOM     12  C   UNL     1     -48.121 -47.563  71.095  1.00  0.00    -0.000 C 
BRANCH  12  13
ATOM     13  C   UNL     1     -46.683 -47.177  70.709  1.00  0.00    -0.000 C 
BRANCH  13  14
ATOM     14  C   UNL     1     -45.722 -48.377  70.741  1.00  0.00    -0.000 C 
BRANCH  14  15
ATOM     15  C   UNL     1     -44.906 -48.519  69.448  1.00  0.00    -0.000 C 
BRANCH  15  16
ATOM     16  C   UNL     1     -44.740 -49.994  69.064  1.00  0.00    -0.003 C 
ATOM     17  C   UNL     1     -45.367 -50.910  70.112  1.00  0.00     0.004 C 
ENDBRANCH  15  16
ENDBRANCH  14  15
ENDBRANCH  13  14
ENDBRANCH  12  13
ENDBRANCH  11  12
ENDBRANCH  10  11
ENDBRANCH   1  10
TORSDOF 13
ENDMDL
MODEL 8
REMARK VINA RESULT:    -2.938      5.176      7.602
REMARK INTER + INTRA:          -7.281
REMARK INTER:                  -5.879
REMARK INTRA:                  -1.403
REMARK UNBOUND:                -2.111
REMARK SMILES CCCCCCCCCCCCCCC(=O)[O-]
REMARK SMILES IDX 9 1 10 2 11 3 12 4 13 5 14 6 15 7 16 8 17 9 8 10 7 11 6 12
REMARK SMILES IDX 5 13 4 14 3 15 2 16 1 17
REMARK H PARENT
REMARK Flexibility Score: inf
ROOT
ATOM      1  C   UNL     1     -42.883 -48.397  70.755  1.00  0.00     0.000 C 
ENDROOT
BRANCH   1   2
ATOM      2  C   UNL     1     -42.402 -46.943  70.893  1.00  0.00     0.000 C 
BRANCH   2   3
ATOM      3  C   UNL     1     -42.462 -46.434  72.343  1.00  0.00     0.000 C 
BRANCH   3   4
ATOM      4  C   UNL     1     -43.486 -45.301  72.534  1.00  0.00     0.000 C 
BRANCH   4   5
ATOM      5  C   UNL     1     -44.205 -45.381  73.896  1.00  0.00     0.006 C 
BRANCH   5   6
ATOM      6  C   UNL     1     -43.468 -44.640  75.023  1.00  0.00     0.053 C 
BRANCH   6   7
ATOM      7  C   UNL     1     -43.084 -45.550  76.147  1.00  0.00     0.041 C 
ATOM      8  O   UNL     1     -43.455 -45.295  77.324  1.00  0.00    -0.550 OA
ATOM      9  O   UNL     1     -42.339 -46.695  75.893  1.00  0.00    -0.550 OA
ENDBRANCH   6   7
ENDBRANCH   5   6
ENDBRANCH   4   5
ENDBRANCH   3   4
ENDBRANCH   2   3
ENDBRANCH   1   2
BRANCH   1  10
ATOM     10  C   UNL     1     -44.171 -48.523  69.921  1.00  0.00     0.000 C 
BRANCH  10  11
ATOM     11  C   UNL     1     -45.477 -48.626  70.734  1.00  0.00    -0.000 C 
BRANCH  11  12
ATOM     12  C   UNL     1     -46.117 -47.280  71.122  1.00  0.00    -0.000 C 
BRANCH  12  13
ATOM     13  C   UNL     1     -47.612 -47.207  70.764  1.00  0.00    -0.000 C 
BRANCH  13  14
ATOM     14  C   UNL     1     -48.227 -48.593  70.512  1.00  0.00    -0.000 C 
BRANCH  14  15
ATOM     15  C   UNL     1     -49.016 -48.663  69.197  1.00  0.00    -0.000 C 
BRANCH  15  16
ATOM     16  C   UNL     1     -48.360 -47.793  68.118  1.00  0.00    -0.003 C 
ATOM     17  C   UNL     1     -47.296 -48.574  67.352  1.00  0.00     0.004 C 
ENDBRANCH  15  16
ENDBRANCH  14  15
ENDBRANCH  13  14
ENDBRANCH  12  13
ENDBRANCH  11  12
ENDBRANCH  10  11
ENDBRANCH   1  10
TORSDOF 13
ENDMDL
MODEL 9
REMARK VINA RESULT:    -2.861      2.976      5.111
REMARK INTER + INTRA:          -7.147
REMARK INTER:                  -5.245
REMARK INTRA:                  -1.902
REMARK UNBOUND:                -2.111
REMARK SMILES CCCCCCCCCCCCCCC(=O)[O-]
REMARK SMILES IDX 9 1 10 2 11 3 12 4 13 5 14 6 15 7 16 8 17 9 8 10 7 11 6 12
REMARK SMILES IDX 5 13 4 14 3 15 2 16 1 17
REMARK H PARENT
REMARK Flexibility Score: inf
ROOT
ATOM      1  C   UNL     1     -42.668 -47.667  68.120  1.00  0.00     0.000 C 
ENDROOT
BRANCH   1   2
ATOM      2  C   UNL     1     -43.897 -47.512  69.031  1.00  0.00     0.000 C 
BRANCH   2   3
ATOM      3  C   UNL     1     -43.993 -48.623  70.090  1.00  0.00     0.000 C 
BRANCH   3   4
ATOM      4  C   UNL     1     -45.412 -48.773  70.668  1.00  0.00     0.000 C 
BRANCH   4   5
ATOM      5  C   UNL     1     -46.158 -47.426  70.753  1.00  0.00     0.006 C 
BRANCH   5   6
ATOM      6  C   UNL     1     -47.644 -47.570  71.119  1.00  0.00     0.053 C 
BRANCH   6   7
ATOM      7  C   UNL     1     -48.299 -48.708  70.401  1.00  0.00     0.041 C 
ATOM      8  O   UNL     1     -48.498 -48.643  69.159  1.00  0.00    -0.550 OA
ATOM      9  O   UNL     1     -48.668 -49.851  71.099  1.00  0.00    -0.550 OA
ENDBRANCH   6   7
ENDBRANCH   5   6
ENDBRANCH   4   5
ENDBRANCH   3   4
ENDBRANCH   2   3
ENDBRANCH   1   2
BRANCH   1  10
ATOM     10  C   UNL     1     -41.757 -46.426  68.130  1.00  0.00     0.000 C 
BRANCH  10  11
ATOM     11  C   UNL     1     -42.406 -45.127  67.608  1.00  0.00    -0.000 C 
BRANCH  11  12
ATOM     12  C   UNL     1     -42.222 -43.893  68.509  1.00  0.00    -0.000 C 
BRANCH  12  13
ATOM     13  C   UNL     1     -43.198 -43.872  69.698  1.00  0.00    -0.000 C 
BRANCH  13  14
ATOM     14  C   UNL     1     -42.513 -44.225  71.029  1.00  0.00    -0.000 C 
BRANCH  14  15
ATOM     15  C   UNL     1     -43.286 -45.280  71.833  1.00  0.00    -0.000 C 
BRANCH  15  16
ATOM     16  C   UNL     1     -42.349 -46.389  72.326  1.00  0.00    -0.003 C 
ATOM     17  C   UNL     1     -40.962 -46.255  71.703  1.00  0.00     0.004 C 
ENDBRANCH  15  16
ENDBRANCH  14  15
ENDBRANCH  13  14
ENDBRANCH  12  13
ENDBRANCH  11  12
ENDBRANCH  10  11
ENDBRANCH   1  10
TORSDOF 13
ENDMDL
