MODEL 1
REMARK VINA RESULT:    -3.802      0.000      0.000
REMARK INTER + INTRA:          -9.304
REMARK INTER:                  -6.913
REMARK INTRA:                  -2.391
REMARK UNBOUND:                -2.391
REMARK SMILES CCCCCCCCCCCCCCCC(=O)[O-]
REMARK SMILES IDX 9 1 10 2 11 3 12 4 13 5 14 6 15 7 16 8 17 9 18 10 8 11 7 12
REMARK SMILES IDX 6 13 5 14 4 15 3 16 2 17 1 18
REMARK H PARENT
REMARK Flexibility Score: inf
ROOT
ATOM      1  C   UNL     1      -1.871  26.584  57.395  1.00  0.00     0.000 C 
ENDROOT
BRANCH   1   2
ATOM      2  C   UNL     1      -1.583  25.444  56.400  1.00  0.00     0.000 C 
BRANCH   2   3
ATOM      3  C   UNL     1      -2.535  25.367  55.192  1.00  0.00     0.000 C 
BRANCH   3   4
ATOM      4  C   UNL     1      -3.491  24.164  55.256  1.00  0.00     0.000 C 
BRANCH   4   5
ATOM      5  C   UNL     1      -4.836  24.502  55.926  1.00  0.00     0.000 C 
BRANCH   5   6
ATOM      6  C   UNL     1      -5.235  23.587  57.098  1.00  0.00     0.006 C 
BRANCH   6   7
ATOM      7  C   UNL     1      -6.321  24.197  57.993  1.00  0.00     0.053 C 
BRANCH   7   8
ATOM      8  C   UNL     1      -7.501  24.614  57.172  1.00  0.00     0.041 C 
ATOM      9  O   UNL     1      -7.915  25.802  57.217  1.00  0.00    -0.550 OA
ATOM     10  O   UNL     1      -8.174  23.678  56.398  1.00  0.00    -0.550 OA
ENDBRANCH   7   8
ENDBRANCH   6   7
ENDBRANCH   5   6
ENDBRANCH   4   5
ENDBRANCH   3   4
ENDBRANCH   2   3
ENDBRANCH   1   2
BRANCH   1  11
ATOM     11  C   UNL     1      -2.774  26.150  58.562  1.00  0.00     0.000 C 
BRANCH  11  12
ATOM     12  C   UNL     1      -4.075  26.964  58.636  1.00  0.00    -0.000 C 
BRANCH  12  13
ATOM     13  C   UNL     1      -4.067  28.185  57.702  1.00  0.00    -0.000 C 
BRANCH  13  14
ATOM     14  C   UNL     1      -5.283  28.164  56.763  1.00  0.00    -0.000 C 
BRANCH  14  15
ATOM     15  C   UNL     1      -4.886  28.189  55.279  1.00  0.00    -0.000 C 
BRANCH  15  16
ATOM     16  C   UNL     1      -4.052  29.424  54.909  1.00  0.00    -0.000 C 
BRANCH  16  17
ATOM     17  C   UNL     1      -4.926  30.683  54.867  1.00  0.00    -0.003 C 
ATOM     18  C   UNL     1      -4.454  31.717  55.885  1.00  0.00     0.004 C 
ENDBRANCH  16  17
ENDBRANCH  15  16
ENDBRANCH  14  15
ENDBRANCH  13  14
ENDBRANCH  12  13
ENDBRANCH  11  12
ENDBRANCH   1  11
TORSDOF 14
ENDMDL
MODEL 2
REMARK VINA RESULT:    -3.769      3.121      5.772
REMARK INTER + INTRA:          -9.244
REMARK INTER:                  -8.179
REMARK INTRA:                  -1.065
REMARK UNBOUND:                -2.391
REMARK SMILES CCCCCCCCCCCCCCCC(=O)[O-]
REMARK SMILES IDX 9 1 10 2 11 3 12 4 13 5 14 6 15 7 16 8 17 9 18 10 8 11 7 12
REMARK SMILES IDX 6 13 5 14 4 15 3 16 2 17 1 18
REMARK H PARENT
REMARK Flexibility Score: inf
ROOT
ATOM      1  C   UNL     1      -2.623  27.159  58.713  1.00  0.00     0.000 C 
ENDROOT
BRANCH   1   2
ATOM      2  C   UNL     1      -2.140  26.753  57.308  1.00  0.00     0.000 C 
BRANCH   2   3
ATOM      3  C   UNL     1      -2.872  27.433  56.136  1.00  0.00     0.000 C 
BRANCH   3   4
ATOM      4  C   UNL     1      -3.416  28.826  56.495  1.00  0.00     0.000 C 
BRANCH   4   5
ATOM      5  C   UNL     1      -4.925  28.970  56.221  1.00  0.00     0.000 C 
BRANCH   5   6
ATOM      6  C   UNL     1      -5.297  29.949  55.092  1.00  0.00     0.006 C 
BRANCH   6   7
ATOM      7  C   UNL     1      -5.778  31.309  55.614  1.00  0.00     0.053 C 
BRANCH   7   8
ATOM      8  C   UNL     1      -7.161  31.599  55.121  1.00  0.00     0.041 C 
ATOM      9  O   UNL     1      -7.338  32.041  53.956  1.00  0.00    -0.550 OA
ATOM     10  O   UNL     1      -8.249  31.430  55.967  1.00  0.00    -0.550 OA
ENDBRANCH   7   8
ENDBRANCH   6   7
ENDBRANCH   5   6
ENDBRANCH   4   5
ENDBRANCH   3   4
ENDBRANCH   2   3
ENDBRANCH   1   2
BRANCH   1  11
ATOM     11  C   UNL     1      -3.683  26.203  59.286  1.00  0.00     0.000 C 
BRANCH  11  12
ATOM     12  C   UNL     1      -5.093  26.497  58.751  1.00  0.00    -0.000 C 
BRANCH  12  13
ATOM     13  C   UNL     1      -5.805  25.240  58.227  1.00  0.00    -0.000 C 
BRANCH  13  14
ATOM     14  C   UNL     1      -7.330  25.421  58.257  1.00  0.00    -0.000 C 
BRANCH  14  15
ATOM     15  C   UNL     1      -7.789  26.402  59.348  1.00  0.00    -0.000 C 
BRANCH  15  16
ATOM     16  C   UNL     1      -7.907  25.739  60.729  1.00  0.00    -0.000 C 
BRANCH  16  17
ATOM     17  C   UNL     1      -6.936  26.378  61.729  1.00  0.00    -0.003 C 
ATOM     18  C   UNL     1      -7.398  26.155  63.166  1.00  0.00     0.004 C 
ENDBRANCH  16  17
ENDBRANCH  15  16
ENDBRANCH  14  15
ENDBRANCH  13  14
ENDBRANCH  12  13
ENDBRANCH  11  12
ENDBRANCH   1  11
TORSDOF 14
ENDMDL
MODEL 3
REMARK VINA RESULT:    -3.733      1.831      2.677
REMARK INTER + INTRA:          -9.179
REMARK INTER:                  -7.187
REMARK INTRA:                  -1.993
REMARK UNBOUND:                -2.391
REMARK SMILES CCCCCCCCCCCCCCCC(=O)[O-]
REMARK SMILES IDX 9 1 10 2 11 3 12 4 13 5 14 6 15 7 16 8 17 9 18 10 8 11 7 12
REMARK SMILES IDX 6 13 5 14 4 15 3 16 2 17 1 18
REMARK H PARENT
REMARK Flexibility Score: inf
ROOT
ATOM      1  C   UNL     1      -1.247  28.622  58.938  1.00  0.00     0.000 C 
ENDROOT
BRANCH   1   2
ATOM      2  C   UNL     1      -2.325  27.528  58.825  1.00  0.00     0.000 C 
BRANCH   2   3
ATOM      3  C   UNL     1      -2.347  26.757  57.493  1.00  0.00     0.000 C 
BRANCH   3   4
ATOM      4  C   UNL     1      -3.759  26.312  57.079  1.00  0.00     0.000 C 
BRANCH   4   5
ATOM      5  C   UNL     1      -4.872  27.089  57.807  1.00  0.00     0.000 C 
BRANCH   5   6
ATOM      6  C   UNL     1      -5.880  26.221  58.583  1.00  0.00     0.006 C 
BRANCH   6   7
ATOM      7  C   UNL     1      -7.090  25.806  57.736  1.00  0.00     0.053 C 
BRANCH   7   8
ATOM      8  C   UNL     1      -7.072  24.331  57.486  1.00  0.00     0.041 C 
ATOM      9  O   UNL     1      -7.785  23.835  56.576  1.00  0.00    -0.550 OA
ATOM     10  O   UNL     1      -6.305  23.499  58.292  1.00  0.00    -0.550 OA
ENDBRANCH   7   8
ENDBRANCH   6   7
ENDBRANCH   5   6
ENDBRANCH   4   5
ENDBRANCH   3   4
ENDBRANCH   2   3
ENDBRANCH   1   2
BRANCH   1  11
ATOM     11  C   UNL     1      -1.612  29.907  58.175  1.00  0.00     0.000 C 
BRANCH  11  12
ATOM     12  C   UNL     1      -3.013  30.428  58.532  1.00  0.00    -0.000 C 
BRANCH  12  13
ATOM     13  C   UNL     1      -3.892  30.665  57.294  1.00  0.00    -0.000 C 
BRANCH  13  14
ATOM     14  C   UNL     1      -3.224  30.099  56.032  1.00  0.00    -0.000 C 
BRANCH  14  15
ATOM     15  C   UNL     1      -4.235  29.777  54.920  1.00  0.00    -0.000 C 
BRANCH  15  16
ATOM     16  C   UNL     1      -5.691  29.981  55.366  1.00  0.00    -0.000 C 
BRANCH  16  17
ATOM     17  C   UNL     1      -6.402  31.003  54.472  1.00  0.00    -0.003 C 
ATOM     18  C   UNL     1      -7.367  31.866  55.279  1.00  0.00     0.004 C 
ENDBRANCH  16  17
ENDBRANCH  15  16
ENDBRANCH  14  15
ENDBRANCH  13  14
ENDBRANCH  12  13
ENDBRANCH  11  12
ENDBRANCH   1  11
TORSDOF 14
ENDMDL
MODEL 4
REMARK VINA RESULT:    -3.699      1.484      4.559
REMARK INTER + INTRA:          -9.117
REMARK INTER:                  -6.815
REMARK INTRA:                  -2.302
REMARK UNBOUND:                -2.391
REMARK SMILES CCCCCCCCCCCCCCCC(=O)[O-]
REMARK SMILES IDX 9 1 10 2 11 3 12 4 13 5 14 6 15 7 16 8 17 9 18 10 8 11 7 12
REMARK SMILES IDX 6 13 5 14 4 15 3 16 2 17 1 18
REMARK H PARENT
REMARK Flexibility Score: inf
ROOT
ATOM      1  C   UNL     1      -4.115  29.097  57.116  1.00  0.00     0.000 C 
ENDROOT
BRANCH   1   2
ATOM      2  C   UNL     1      -2.733  28.933  57.774  1.00  0.00     0.000 C 
BRANCH   2   3
ATOM      3  C   UNL     1      -2.711  28.097  59.066  1.00  0.00     0.000 C 
BRANCH   3   4
ATOM      4  C   UNL     1      -2.927  26.595  58.814  1.00  0.00     0.000 C 
BRANCH   4   5
ATOM      5  C   UNL     1      -4.239  26.066  59.423  1.00  0.00     0.000 C 
BRANCH   5   6
ATOM      6  C   UNL     1      -5.161  25.315  58.445  1.00  0.00     0.006 C 
BRANCH   6   7
ATOM      7  C   UNL     1      -6.506  26.019  58.228  1.00  0.00     0.053 C 
BRANCH   7   8
ATOM      8  C   UNL     1      -7.530  25.049  57.728  1.00  0.00     0.041 C 
ATOM      9  O   UNL     1      -8.756  25.282  57.892  1.00  0.00    -0.550 OA
ATOM     10  O   UNL     1      -7.128  23.864  57.126  1.00  0.00    -0.550 OA
ENDBRANCH   7   8
ENDBRANCH   6   7
ENDBRANCH   5   6
ENDBRANCH   4   5
ENDBRANCH   3   4
ENDBRANCH   2   3
ENDBRANCH   1   2
BRANCH   1  11
ATOM     11  C   UNL     1      -4.135  28.662  55.641  1.00  0.00     0.000 C 
BRANCH  11  12
ATOM     12  C   UNL     1      -5.236  27.632  55.343  1.00  0.00    -0.000 C 
BRANCH  12  13
ATOM     13  C   UNL     1      -4.674  26.282  54.869  1.00  0.00    -0.000 C 
BRANCH  13  14
ATOM     14  C   UNL     1      -3.180  26.162  55.207  1.00  0.00    -0.000 C 
BRANCH  14  15
ATOM     15  C   UNL     1      -2.784  24.742  55.641  1.00  0.00    -0.000 C 
BRANCH  15  16
ATOM     16  C   UNL     1      -3.681  23.661  55.020  1.00  0.00    -0.000 C 
BRANCH  16  17
ATOM     17  C   UNL     1      -4.001  22.561  56.040  1.00  0.00    -0.003 C 
ATOM     18  C   UNL     1      -3.054  21.374  55.887  1.00  0.00     0.004 C 
ENDBRANCH  16  17
ENDBRANCH  15  16
ENDBRANCH  14  15
ENDBRANCH  13  14
ENDBRANCH  12  13
ENDBRANCH  11  12
ENDBRANCH   1  11
TORSDOF 14
ENDMDL
MODEL 5
REMARK VINA RESULT:    -3.687      1.654      3.399
REMARK INTER + INTRA:          -9.095
REMARK INTER:                  -6.742
REMARK INTRA:                  -2.353
REMARK UNBOUND:                -2.391
REMARK SMILES CCCCCCCCCCCCCCCC(=O)[O-]
REMARK SMILES IDX 9 1 10 2 11 3 12 4 13 5 14 6 15 7 16 8 17 9 18 10 8 11 7 12
REMARK SMILES IDX 6 13 5 14 4 15 3 16 2 17 1 18
REMARK H PARENT
REMARK Flexibility Score: inf
ROOT
ATOM      1  C   UNL     1      -1.739  29.920  57.584  1.00  0.00     0.000 C 
ENDROOT
BRANCH   1   2
ATOM      2  C   UNL     1      -1.275  28.599  58.227  1.00  0.00     0.000 C 
BRANCH   2   3
ATOM      3  C   UNL     1      -2.311  27.907  59.133  1.00  0.00     0.000 C 
BRANCH   3   4
ATOM      4  C   UNL     1      -2.792  26.558  58.573  1.00  0.00     0.000 C 
BRANCH   4   5
ATOM      5  C   UNL     1      -3.988  25.977  59.351  1.00  0.00     0.000 C 
BRANCH   5   6
ATOM      6  C   UNL     1      -5.315  25.924  58.572  1.00  0.00     0.006 C 
BRANCH   6   7
ATOM      7  C   UNL     1      -5.297  24.908  57.424  1.00  0.00     0.053 C 
BRANCH   7   8
ATOM      8  C   UNL     1      -6.634  24.851  56.755  1.00  0.00     0.041 C 
ATOM      9  O   UNL     1      -7.045  25.830  56.078  1.00  0.00    -0.550 OA
ATOM     10  O   UNL     1      -7.448  23.738  56.919  1.00  0.00    -0.550 OA
ENDBRANCH   7   8
ENDBRANCH   6   7
ENDBRANCH   5   6
ENDBRANCH   4   5
ENDBRANCH   3   4
ENDBRANCH   2   3
ENDBRANCH   1   2
BRANCH   1  11
ATOM     11  C   UNL     1      -3.169  30.316  57.987  1.00  0.00     0.000 C 
BRANCH  11  12
ATOM     12  C   UNL     1      -4.032  30.720  56.781  1.00  0.00    -0.000 C 
BRANCH  12  13
ATOM     13  C   UNL     1      -5.184  29.738  56.518  1.00  0.00    -0.000 C 
BRANCH  13  14
ATOM     14  C   UNL     1      -4.959  28.970  55.206  1.00  0.00    -0.000 C 
BRANCH  14  15
ATOM     15  C   UNL     1      -4.118  27.698  55.400  1.00  0.00    -0.000 C 
BRANCH  15  16
ATOM     16  C   UNL     1      -2.739  27.793  54.729  1.00  0.00    -0.000 C 
BRANCH  16  17
ATOM     17  C   UNL     1      -1.949  26.492  54.914  1.00  0.00    -0.003 C 
ATOM     18  C   UNL     1      -0.468  26.774  55.150  1.00  0.00     0.004 C 
ENDBRANCH  16  17
ENDBRANCH  15  16
ENDBRANCH  14  15
ENDBRANCH  13  14
ENDBRANCH  12  13
ENDBRANCH  11  12
ENDBRANCH   1  11
TORSDOF 14
ENDMDL
MODEL 6
REMARK VINA RESULT:    -3.686      2.451      5.409
REMARK INTER + INTRA:          -9.094
REMARK INTER:                  -6.945
REMARK INTRA:                  -2.149
REMARK UNBOUND:                -2.391
REMARK SMILES CCCCCCCCCCCCCCCC(=O)[O-]
REMARK SMILES IDX 9 1 10 2 11 3 12 4 13 5 14 6 15 7 16 8 17 9 18 10 8 11 7 12
REMARK SMILES IDX 6 13 5 14 4 15 3 16 2 17 1 18
REMARK H PARENT
REMARK Flexibility Score: inf
ROOT
ATOM      1  C   UNL     1      -2.125  24.744  56.615  1.00  0.00     0.000 C 
ENDROOT
BRANCH   1   2
ATOM      2  C   UNL     1      -2.042  26.169  57.193  1.00  0.00     0.000 C 
BRANCH   2   3
ATOM      3  C   UNL     1      -2.856  26.410  58.477  1.00  0.00     0.000 C 
BRANCH   3   4
ATOM      4  C   UNL     1      -3.796  27.623  58.375  1.00  0.00     0.000 C 
BRANCH   4   5
ATOM      5  C   UNL     1      -4.695  27.582  57.125  1.00  0.00     0.000 C 
BRANCH   5   6
ATOM      6  C   UNL     1      -4.452  28.710  56.105  1.00  0.00     0.006 C 
BRANCH   6   7
ATOM      7  C   UNL     1      -4.296  30.088  56.760  1.00  0.00     0.053 C 
BRANCH   7   8
ATOM      8  C   UNL     1      -5.332  31.034  56.240  1.00  0.00     0.041 C 
ATOM      9  O   UNL     1      -6.554  30.752  56.339  1.00  0.00    -0.550 OA
ATOM     10  O   UNL     1      -4.945  32.205  55.601  1.00  0.00    -0.550 OA
ENDBRANCH   7   8
ENDBRANCH   6   7
ENDBRANCH   5   6
ENDBRANCH   4   5
ENDBRANCH   3   4
ENDBRANCH   2   3
ENDBRANCH   1   2
BRANCH   1  11
ATOM     11  C   UNL     1      -2.952  24.667  55.320  1.00  0.00     0.000 C 
BRANCH  11  12
ATOM     12  C   UNL     1      -4.439  24.385  55.585  1.00  0.00    -0.000 C 
BRANCH  12  13
ATOM     13  C   UNL     1      -4.659  23.335  56.685  1.00  0.00    -0.000 C 
BRANCH  13  14
ATOM     14  C   UNL     1      -5.616  23.864  57.764  1.00  0.00    -0.000 C 
BRANCH  14  15
ATOM     15  C   UNL     1      -6.897  24.473  57.173  1.00  0.00    -0.000 C 
BRANCH  15  16
ATOM     16  C   UNL     1      -7.644  25.368  58.174  1.00  0.00    -0.000 C 
BRANCH  16  17
ATOM     17  C   UNL     1      -6.776  25.657  59.405  1.00  0.00    -0.003 C 
ATOM     18  C   UNL     1      -7.636  25.906  60.640  1.00  0.00     0.004 C 
ENDBRANCH  16  17
ENDBRANCH  15  16
ENDBRANCH  14  15
ENDBRANCH  13  14
ENDBRANCH  12  13
ENDBRANCH  11  12
ENDBRANCH   1  11
TORSDOF 14
ENDMDL
MODEL 7
REMARK VINA RESULT:    -3.680      2.386      5.648
REMARK INTER + INTRA:          -9.083
REMARK INTER:                  -7.442
REMARK INTRA:                  -1.641
REMARK UNBOUND:                -2.391
REMARK SMILES CCCCCCCCCCCCCCCC(=O)[O-]
REMARK SMILES IDX 9 1 10 2 11 3 12 4 13 5 14 6 15 7 16 8 17 9 18 10 8 11 7 12
REMARK SMILES IDX 6 13 5 14 4 15 3 16 2 17 1 18
REMARK H PARENT
REMARK Flexibility Score: inf
ROOT
ATOM      1  C   UNL     1      -2.740  26.806  58.641  1.00  0.00     0.000 C 
ENDROOT
BRANCH   1   2
ATOM      2  C   UNL     1      -2.777  27.995  59.618  1.00  0.00     0.000 C 
BRANCH   2   3
ATOM      3  C   UNL     1      -1.585  28.965  59.524  1.00  0.00     0.000 C 
BRANCH   3   4
ATOM      4  C   UNL     1      -1.688  29.929  58.330  1.00  0.00     0.000 C 
BRANCH   4   5
ATOM      5  C   UNL     1      -3.124  30.431  58.085  1.00  0.00     0.000 C 
BRANCH   5   6
ATOM      6  C   UNL     1      -3.558  30.487  56.609  1.00  0.00     0.006 C 
BRANCH   6   7
ATOM      7  C   UNL     1      -4.728  31.447  56.364  1.00  0.00     0.053 C 
BRANCH   7   8
ATOM      8  C   UNL     1      -6.018  30.692  56.288  1.00  0.00     0.041 C 
ATOM      9  O   UNL     1      -6.012  29.436  56.204  1.00  0.00    -0.550 OA
ATOM     10  O   UNL     1      -7.225  31.378  56.259  1.00  0.00    -0.550 OA
ENDBRANCH   7   8
ENDBRANCH   6   7
ENDBRANCH   5   6
ENDBRANCH   4   5
ENDBRANCH   3   4
ENDBRANCH   2   3
ENDBRANCH   1   2
BRANCH   1  11
ATOM     11  C   UNL     1      -3.900  26.820  57.631  1.00  0.00     0.000 C 
BRANCH  11  12
ATOM     12  C   UNL     1      -3.745  25.752  56.537  1.00  0.00    -0.000 C 
BRANCH  12  13
ATOM     13  C   UNL     1      -5.073  25.065  56.184  1.00  0.00    -0.000 C 
BRANCH  13  14
ATOM     14  C   UNL     1      -5.293  23.818  57.054  1.00  0.00    -0.000 C 
BRANCH  14  15
ATOM     15  C   UNL     1      -6.349  24.038  58.148  1.00  0.00    -0.000 C 
BRANCH  15  16
ATOM     16  C   UNL     1      -7.526  24.902  57.671  1.00  0.00    -0.000 C 
BRANCH  16  17
ATOM     17  C   UNL     1      -7.799  26.048  58.652  1.00  0.00    -0.003 C 
ATOM     18  C   UNL     1      -6.810  26.026  59.814  1.00  0.00     0.004 C 
ENDBRANCH  16  17
ENDBRANCH  15  16
ENDBRANCH  14  15
ENDBRANCH  13  14
ENDBRANCH  12  13
ENDBRANCH  11  12
ENDBRANCH   1  11
TORSDOF 14
ENDMDL
MODEL 8
REMARK VINA RESULT:    -3.675      2.685      5.483
REMARK INTER + INTRA:          -9.073
REMARK INTER:                  -6.984
REMARK INTRA:                  -2.089
REMARK UNBOUND:                -2.391
REMARK SMILES CCCCCCCCCCCCCCCC(=O)[O-]
REMARK SMILES IDX 9 1 10 2 11 3 12 4 13 5 14 6 15 7 16 8 17 9 18 10 8 11 7 12
REMARK SMILES IDX 6 13 5 14 4 15 3 16 2 17 1 18
REMARK H PARENT
REMARK Flexibility Score: inf
ROOT
ATOM      1  C   UNL     1      -3.198  26.112  57.756  1.00  0.00     0.000 C 
ENDROOT
BRANCH   1   2
ATOM      2  C   UNL     1      -3.103  27.507  57.109  1.00  0.00     0.000 C 
BRANCH   2   3
ATOM      3  C   UNL     1      -3.556  27.585  55.639  1.00  0.00     0.000 C 
BRANCH   3   4
ATOM      4  C   UNL     1      -4.878  28.348  55.458  1.00  0.00     0.000 C 
BRANCH   4   5
ATOM      5  C   UNL     1      -5.167  29.332  56.606  1.00  0.00     0.000 C 
BRANCH   5   6
ATOM      6  C   UNL     1      -5.438  30.785  56.174  1.00  0.00     0.006 C 
BRANCH   6   7
ATOM      7  C   UNL     1      -6.032  30.890  54.764  1.00  0.00     0.053 C 
BRANCH   7   8
ATOM      8  C   UNL     1      -7.304  31.679  54.790  1.00  0.00     0.041 C 
ATOM      9  O   UNL     1      -7.584  32.459  53.842  1.00  0.00    -0.550 OA
ATOM     10  O   UNL     1      -8.154  31.592  55.885  1.00  0.00    -0.550 OA
ENDBRANCH   7   8
ENDBRANCH   6   7
ENDBRANCH   5   6
ENDBRANCH   4   5
ENDBRANCH   3   4
ENDBRANCH   2   3
ENDBRANCH   1   2
BRANCH   1  11
ATOM     11  C   UNL     1      -4.277  26.028  58.849  1.00  0.00     0.000 C 
BRANCH  11  12
ATOM     12  C   UNL     1      -5.345  24.967  58.543  1.00  0.00    -0.000 C 
BRANCH  12  13
ATOM     13  C   UNL     1      -6.754  25.565  58.399  1.00  0.00    -0.000 C 
BRANCH  13  14
ATOM     14  C   UNL     1      -7.434  25.060  57.117  1.00  0.00    -0.000 C 
BRANCH  14  15
ATOM     15  C   UNL     1      -6.668  25.456  55.844  1.00  0.00    -0.000 C 
BRANCH  15  16
ATOM     16  C   UNL     1      -6.231  24.239  55.014  1.00  0.00    -0.000 C 
BRANCH  16  17
ATOM     17  C   UNL     1      -4.702  24.130  54.965  1.00  0.00    -0.003 C 
ATOM     18  C   UNL     1      -4.210  22.922  55.758  1.00  0.00     0.004 C 
ENDBRANCH  16  17
ENDBRANCH  15  16
ENDBRANCH  14  15
ENDBRANCH  13  14
ENDBRANCH  12  13
ENDBRANCH  11  12
ENDBRANCH   1  11
TORSDOF 14
ENDMDL
MODEL 9
REMARK VINA RESULT:    -3.625      2.611      5.530
REMARK INTER + INTRA:          -8.983
REMARK INTER:                  -6.836
REMARK INTRA:                  -2.146
REMARK UNBOUND:                -2.391
REMARK SMILES CCCCCCCCCCCCCCCC(=O)[O-]
REMARK SMILES IDX 9 1 10 2 11 3 12 4 13 5 14 6 15 7 16 8 17 9 18 10 8 11 7 12
REMARK SMILES IDX 6 13 5 14 4 15 3 16 2 17 1 18
REMARK H PARENT
REMARK Flexibility Score: inf
ROOT
ATOM      1  C   UNL     1      -5.482  25.006  55.365  1.00  0.00     0.000 C 
ENDROOT
BRANCH   1   2
ATOM      2  C   UNL     1      -4.912  26.316  54.789  1.00  0.00     0.000 C 
BRANCH   2   3
ATOM      3  C   UNL     1      -5.755  27.577  55.055  1.00  0.00     0.000 C 
BRANCH   3   4
ATOM      4  C   UNL     1      -5.104  28.531  56.071  1.00  0.00     0.000 C 
BRANCH   4   5
ATOM      5  C   UNL     1      -4.201  29.588  55.408  1.00  0.00     0.000 C 
BRANCH   5   6
ATOM      6  C   UNL     1      -4.941  30.777  54.767  1.00  0.00     0.006 C 
BRANCH   6   7
ATOM      7  C   UNL     1      -5.776  31.576  55.775  1.00  0.00     0.053 C 
BRANCH   7   8
ATOM      8  C   UNL     1      -7.167  31.776  55.260  1.00  0.00     0.041 C 
ATOM      9  O   UNL     1      -8.156  31.524  55.996  1.00  0.00    -0.550 OA
ATOM     10  O   UNL     1      -7.370  32.192  53.951  1.00  0.00    -0.550 OA
ENDBRANCH   7   8
ENDBRANCH   6   7
ENDBRANCH   5   6
ENDBRANCH   4   5
ENDBRANCH   3   4
ENDBRANCH   2   3
ENDBRANCH   1   2
BRANCH   1  11
ATOM     11  C   UNL     1      -6.759  25.219  56.195  1.00  0.00     0.000 C 
BRANCH  11  12
ATOM     12  C   UNL     1      -6.549  24.922  57.688  1.00  0.00    -0.000 C 
BRANCH  12  13
ATOM     13  C   UNL     1      -6.582  26.189  58.557  1.00  0.00    -0.000 C 
BRANCH  13  14
ATOM     14  C   UNL     1      -5.344  26.263  59.464  1.00  0.00    -0.000 C 
BRANCH  14  15
ATOM     15  C   UNL     1      -4.122  25.556  58.858  1.00  0.00    -0.000 C 
BRANCH  15  16
ATOM     16  C   UNL     1      -3.080  26.542  58.307  1.00  0.00    -0.000 C 
BRANCH  16  17
ATOM     17  C   UNL     1      -2.253  25.898  57.188  1.00  0.00    -0.003 C 
ATOM     18  C   UNL     1      -1.200  26.864  56.654  1.00  0.00     0.004 C 
ENDBRANCH  16  17
ENDBRANCH  15  16
ENDBRANCH  14  15
ENDBRANCH  13  14
ENDBRANCH  12  13
ENDBRANCH  11  12
ENDBRANCH   1  11
TORSDOF 14
ENDMDL
