MODEL 1
REMARK VINA RESULT:    -4.330      0.000      0.000
REMARK INTER + INTRA:          -6.352
REMARK INTER:                  -6.609
REMARK INTRA:                   0.257
REMARK UNBOUND:                 0.257
REMARK SMILES CC1=CCC[C@@H](C)C(=O)C[C@@H](C(C)C)C(=O)C1
REMARK SMILES IDX 8 1 9 2 6 3 7 4 5 5 4 6 3 7 2 8 1 9 10 11 11 12 15 13 16 14
REMARK SMILES IDX 17 15 12 17 13 18 14 19
REMARK H PARENT
REMARK Flexibility Score: 70.00
ROOT
ATOM      1  C   UNL     1      -1.789 -25.552  13.873  1.00  0.00     0.136 C 
ATOM      2  O   UNL     1      -2.885 -25.153  13.505  1.00  0.00    -0.299 OA
ENDROOT
BRANCH   1   3
ATOM      3  C   UNL     1      -1.101 -24.869  15.042  1.00  0.00     0.053 C 
ATOM      4  C   UNL     1      -1.549 -23.404  15.151  1.00  0.00     0.016 C 
BRANCH   3   5
ATOM      5  C   UNL     1       0.434 -24.965  14.908  1.00  0.00     0.015 C 
BRANCH   5   6
ATOM      6  C   UNL     1       1.037 -25.940  15.941  1.00  0.00     0.028 C 
BRANCH   6   7
ATOM      7  C   UNL     1      -0.004 -26.600  16.807  1.00  0.00    -0.028 C 
ATOM      8  C   UNL     1      -0.391 -27.894  16.707  1.00  0.00    -0.070 CG0
ATOM      9  C   UNL     1      -1.517 -28.361  17.595  1.00  0.00     0.039 C 
ATOM     10  G   UNL     1       0.278 -28.899  15.778  1.00  0.00     0.000 G0
ENDBRANCH   6   7
ENDBRANCH   5   6
ENDBRANCH   3   5
ENDBRANCH   1   3
BRANCH   1  11
ATOM     11  C   UNL     1      -1.165 -26.750  13.191  1.00  0.00     0.087 C 
BRANCH  11  12
ATOM     12  C   UNL     1      -1.408 -28.117  13.893  1.00  0.00     0.066 C 
BRANCH  12  13
ATOM     13  C   UNL     1      -0.096 -28.768  14.319  1.00  0.00     0.140 C 
ATOM     14  O   UNL     1       0.693 -29.125  13.456  1.00  0.00    -0.299 OA
BRANCH  13  15
ATOM     15  C   UNL     1       0.289 -28.916  15.776  1.00  0.00     0.106 CG0
ATOM     16  G   UNL     1      -0.391 -27.910  16.695  1.00  0.00     0.000 G0
ENDBRANCH  13  15
ENDBRANCH  12  13
BRANCH  12  17
ATOM     17  C   UNL     1      -2.343 -29.111  13.126  1.00  0.00    -0.006 C 
ATOM     18  C   UNL     1      -3.822 -28.839  13.461  1.00  0.00     0.008 C 
ATOM     19  C   UNL     1      -2.162 -29.030  11.600  1.00  0.00     0.008 C 
ENDBRANCH  12  17
ENDBRANCH  11  12
ENDBRANCH   1  11
TORSDOF 1
ENDMDL
MODEL 2
REMARK VINA RESULT:    -4.215     17.538     19.672
REMARK INTER + INTRA:          -6.176
REMARK INTER:                  -6.426
REMARK INTRA:                   0.250
REMARK UNBOUND:                 0.257
REMARK SMILES CC1=CCC[C@@H](C)C(=O)C[C@@H](C(C)C)C(=O)C1
REMARK SMILES IDX 8 1 9 2 6 3 7 4 5 5 4 6 3 7 2 8 1 9 10 11 11 12 15 13 16 14
REMARK SMILES IDX 17 15 12 17 13 18 14 19
REMARK H PARENT
REMARK Flexibility Score: 70.00
ROOT
ATOM      1  C   UNL     1      10.269 -11.193  18.283  1.00  0.00     0.136 C 
ATOM      2  O   UNL     1       9.334 -10.437  18.059  1.00  0.00    -0.299 OA
ENDROOT
BRANCH   1   3
ATOM      3  C   UNL     1      11.673 -10.627  18.404  1.00  0.00     0.053 C 
ATOM      4  C   UNL     1      11.890 -10.013  19.795  1.00  0.00     0.016 C 
BRANCH   3   5
ATOM      5  C   UNL     1      11.941  -9.584  17.296  1.00  0.00     0.015 C 
BRANCH   5   6
ATOM      6  C   UNL     1      12.951 -10.107  16.253  1.00  0.00     0.028 C 
BRANCH   6   7
ATOM      7  C   UNL     1      12.322 -10.386  14.912  1.00  0.00    -0.028 C 
ATOM      8  C   UNL     1      11.951 -11.610  14.469  1.00  0.00    -0.070 CG0
ATOM      9  C   UNL     1      11.422 -11.716  13.059  1.00  0.00     0.039 C 
ATOM     10  G   UNL     1      12.003 -12.865  15.330  1.00  0.00     0.000 G0
ENDBRANCH   6   7
ENDBRANCH   5   6
ENDBRANCH   3   5
ENDBRANCH   1   3
BRANCH   1  11
ATOM     11  C   UNL     1      10.002 -12.668  18.487  1.00  0.00     0.087 C 
BRANCH  11  12
ATOM     12  C   UNL     1      10.818 -13.625  17.571  1.00  0.00     0.066 C 
BRANCH  12  13
ATOM     13  C   UNL     1      10.766 -13.181  16.113  1.00  0.00     0.140 C 
ATOM     14  O   UNL     1       9.676 -13.007  15.587  1.00  0.00    -0.299 OA
BRANCH  13  15
ATOM     15  C   UNL     1      12.023 -12.878  15.322  1.00  0.00     0.106 CG0
ATOM     16  G   UNL     1      11.932 -11.606  14.491  1.00  0.00     0.000 G0
ENDBRANCH  13  15
ENDBRANCH  12  13
BRANCH  12  17
ATOM     17  C   UNL     1      10.505 -15.149  17.740  1.00  0.00    -0.006 C 
ATOM     18  C   UNL     1       8.988 -15.407  17.668  1.00  0.00     0.008 C 
ATOM     19  C   UNL     1      11.201 -16.014  16.674  1.00  0.00     0.008 C 
ENDBRANCH  12  17
ENDBRANCH  11  12
ENDBRANCH   1  11
TORSDOF 1
ENDMDL
MODEL 3
REMARK VINA RESULT:    -4.209     16.895     19.021
REMARK INTER + INTRA:          -6.167
REMARK INTER:                  -5.782
REMARK INTRA:                  -0.385
REMARK UNBOUND:                 0.257
REMARK SMILES CC1=CCC[C@@H](C)C(=O)C[C@@H](C(C)C)C(=O)C1
REMARK SMILES IDX 8 1 9 2 6 3 7 4 5 5 4 6 3 7 2 8 1 9 10 11 11 12 15 13 16 14
REMARK SMILES IDX 17 15 12 17 13 18 14 19
REMARK H PARENT
REMARK Flexibility Score: 70.00
ROOT
ATOM      1  C   UNL     1      10.215 -11.878  16.688  1.00  0.00     0.136 C 
ATOM      2  O   UNL     1       9.383 -11.167  17.234  1.00  0.00    -0.299 OA
ENDROOT
BRANCH   1   3
ATOM      3  C   UNL     1      11.692 -11.583  16.885  1.00  0.00     0.053 C 
ATOM      4  C   UNL     1      11.965 -11.132  18.327  1.00  0.00     0.016 C 
BRANCH   3   5
ATOM      5  C   UNL     1      12.178 -10.520  15.876  1.00  0.00     0.015 C 
BRANCH   5   6
ATOM      6  C   UNL     1      13.083 -11.136  14.789  1.00  0.00     0.028 C 
BRANCH   6   7
ATOM      7  C   UNL     1      12.346 -11.440  13.510  1.00  0.00    -0.028 C 
ATOM      8  C   UNL     1      12.087 -12.682  13.040  1.00  0.00    -0.070 CG0
ATOM      9  C   UNL     1      11.418 -12.798  11.692  1.00  0.00     0.039 C 
ATOM     10  G   UNL     1      12.399 -13.955  13.816  1.00  0.00     0.000 G0
ENDBRANCH   6   7
ENDBRANCH   5   6
ENDBRANCH   3   5
ENDBRANCH   1   3
BRANCH   1  11
ATOM     11  C   UNL     1       9.758 -13.067  15.871  1.00  0.00     0.087 C 
BRANCH  11  12
ATOM     12  C   UNL     1      10.728 -14.283  15.866  1.00  0.00     0.066 C 
BRANCH  12  13
ATOM     13  C   UNL     1      11.188 -14.625  14.453  1.00  0.00     0.140 C 
ATOM     14  O   UNL     1      10.525 -15.411  13.791  1.00  0.00    -0.299 OA
BRANCH  13  15
ATOM     15  C   UNL     1      12.397 -13.966  13.821  1.00  0.00     0.106 CG0
ATOM     16  G   UNL     1      12.067 -12.697  13.046  1.00  0.00     0.000 G0
ENDBRANCH  13  15
ENDBRANCH  12  13
BRANCH  12  17
ATOM     17  C   UNL     1      10.234 -15.543  16.651  1.00  0.00    -0.006 C 
ATOM     18  C   UNL     1      11.392 -16.532  16.884  1.00  0.00     0.008 C 
ATOM     19  C   UNL     1       9.615 -15.182  18.013  1.00  0.00     0.008 C 
ENDBRANCH  12  17
ENDBRANCH  11  12
ENDBRANCH   1  11
TORSDOF 1
ENDMDL
MODEL 4
REMARK VINA RESULT:    -3.781     17.573     20.030
REMARK INTER + INTRA:          -5.513
REMARK INTER:                  -5.558
REMARK INTRA:                   0.045
REMARK UNBOUND:                 0.257
REMARK SMILES CC1=CCC[C@@H](C)C(=O)C[C@@H](C(C)C)C(=O)C1
REMARK SMILES IDX 8 1 9 2 6 3 7 4 5 5 4 6 3 7 2 8 1 9 10 11 11 12 15 13 16 14
REMARK SMILES IDX 17 15 12 17 13 18 14 19
REMARK H PARENT
REMARK Flexibility Score: 70.00
ROOT
ATOM      1  C   UNL     1      10.512 -13.581  17.441  1.00  0.00     0.136 C 
ATOM      2  O   UNL     1       9.893 -13.630  18.495  1.00  0.00    -0.299 OA
ENDROOT
BRANCH   1   3
ATOM      3  C   UNL     1      10.138 -14.526  16.313  1.00  0.00     0.053 C 
ATOM      4  C   UNL     1       9.795 -15.917  16.865  1.00  0.00     0.016 C 
BRANCH   3   5
ATOM      5  C   UNL     1      11.276 -14.614  15.272  1.00  0.00     0.015 C 
BRANCH   5   6
ATOM      6  C   UNL     1      10.781 -14.256  13.855  1.00  0.00     0.028 C 
BRANCH   6   7
ATOM      7  C   UNL     1      11.731 -13.354  13.109  1.00  0.00    -0.028 C 
ATOM      8  C   UNL     1      11.750 -12.003  13.200  1.00  0.00    -0.070 CG0
ATOM      9  C   UNL     1      12.709 -11.253  12.308  1.00  0.00     0.039 C 
ATOM     10  G   UNL     1      10.888 -11.216  14.177  1.00  0.00     0.000 G0
ENDBRANCH   6   7
ENDBRANCH   5   6
ENDBRANCH   3   5
ENDBRANCH   1   3
BRANCH   1  11
ATOM     11  C   UNL     1      11.601 -12.546  17.265  1.00  0.00     0.087 C 
BRANCH  11  12
ATOM     12  C   UNL     1      11.113 -11.133  16.835  1.00  0.00     0.066 C 
BRANCH  12  13
ATOM     13  C   UNL     1      11.615 -10.767  15.442  1.00  0.00     0.140 C 
ATOM     14  O   UNL     1      12.672 -10.161  15.336  1.00  0.00    -0.299 OA
BRANCH  13  15
ATOM     15  C   UNL     1      10.883 -11.197  14.188  1.00  0.00     0.106 CG0
ATOM     16  G   UNL     1      11.749 -11.981  13.211  1.00  0.00     0.000 G0
ENDBRANCH  13  15
ENDBRANCH  12  13
BRANCH  12  17
ATOM     17  C   UNL     1      11.360  -9.989  17.875  1.00  0.00    -0.006 C 
ATOM     18  C   UNL     1      10.039  -9.285  18.238  1.00  0.00     0.008 C 
ATOM     19  C   UNL     1      12.015 -10.503  19.169  1.00  0.00     0.008 C 
ENDBRANCH  12  17
ENDBRANCH  11  12
ENDBRANCH   1  11
TORSDOF 1
ENDMDL
MODEL 5
REMARK VINA RESULT:    -3.570     17.170     19.331
REMARK INTER + INTRA:          -5.192
REMARK INTER:                  -5.254
REMARK INTRA:                   0.062
REMARK UNBOUND:                 0.257
REMARK SMILES CC1=CCC[C@@H](C)C(=O)C[C@@H](C(C)C)C(=O)C1
REMARK SMILES IDX 8 1 9 2 6 3 7 4 5 5 4 6 3 7 2 8 1 9 10 11 11 12 15 13 16 14
REMARK SMILES IDX 17 15 12 17 13 18 14 19
REMARK H PARENT
REMARK Flexibility Score: 70.00
ROOT
ATOM      1  C   UNL     1      11.005 -13.648  13.486  1.00  0.00     0.136 C 
ATOM      2  O   UNL     1      10.107 -14.369  13.071  1.00  0.00    -0.299 OA
ENDROOT
BRANCH   1   3
ATOM      3  C   UNL     1      11.415 -12.429  12.678  1.00  0.00     0.053 C 
ATOM      4  C   UNL     1      12.453 -12.811  11.613  1.00  0.00     0.016 C 
BRANCH   3   5
ATOM      5  C   UNL     1      11.960 -11.318  13.602  1.00  0.00     0.015 C 
BRANCH   5   6
ATOM      6  C   UNL     1      10.852 -10.327  14.017  1.00  0.00     0.028 C 
BRANCH   6   7
ATOM      7  C   UNL     1      11.126  -9.655  15.337  1.00  0.00    -0.028 C 
ATOM      8  C   UNL     1      10.697 -10.103  16.540  1.00  0.00    -0.070 CG0
ATOM      9  C   UNL     1      10.985  -9.250  17.751  1.00  0.00     0.039 C 
ATOM     10  G   UNL     1       9.979 -11.433  16.732  1.00  0.00     0.000 G0
ENDBRANCH   6   7
ENDBRANCH   5   6
ENDBRANCH   3   5
ENDBRANCH   1   3
BRANCH   1  11
ATOM     11  C   UNL     1      11.652 -13.957  14.818  1.00  0.00     0.087 C 
BRANCH  11  12
ATOM     12  C   UNL     1      10.700 -13.909  16.047  1.00  0.00     0.066 C 
BRANCH  12  13
ATOM     13  C   UNL     1      10.896 -12.633  16.858  1.00  0.00     0.140 C 
ATOM     14  O   UNL     1      11.870 -12.545  17.593  1.00  0.00    -0.299 OA
BRANCH  13  15
ATOM     15  C   UNL     1       9.966 -11.445  16.722  1.00  0.00     0.106 CG0
ATOM     16  G   UNL     1      10.688 -10.116  16.549  1.00  0.00     0.000 G0
ENDBRANCH  13  15
ENDBRANCH  12  13
BRANCH  12  17
ATOM     17  C   UNL     1      10.696 -15.190  16.947  1.00  0.00    -0.006 C 
ATOM     18  C   UNL     1       9.255 -15.619  17.281  1.00  0.00     0.008 C 
ATOM     19  C   UNL     1      11.420 -16.375  16.285  1.00  0.00     0.008 C 
ENDBRANCH  12  17
ENDBRANCH  11  12
ENDBRANCH   1  11
TORSDOF 1
ENDMDL
MODEL 6
REMARK VINA RESULT:    -3.563      1.623      3.857
REMARK INTER + INTRA:          -5.181
REMARK INTER:                  -5.147
REMARK INTRA:                  -0.034
REMARK UNBOUND:                 0.257
REMARK SMILES CC1=CCC[C@@H](C)C(=O)C[C@@H](C(C)C)C(=O)C1
REMARK SMILES IDX 8 1 9 2 6 3 7 4 5 5 4 6 3 7 2 8 1 9 10 11 11 12 15 13 16 14
REMARK SMILES IDX 17 15 12 17 13 18 14 19
REMARK H PARENT
REMARK Flexibility Score: 70.00
ROOT
ATOM      1  C   UNL     1      -1.133 -27.476  12.909  1.00  0.00     0.136 C 
ATOM      2  O   UNL     1      -2.016 -28.322  12.885  1.00  0.00    -0.299 OA
ENDROOT
BRANCH   1   3
ATOM      3  C   UNL     1       0.300 -27.887  12.619  1.00  0.00     0.053 C 
ATOM      4  C   UNL     1       0.460 -28.282  11.143  1.00  0.00     0.016 C 
BRANCH   3   5
ATOM      5  C   UNL     1       0.739 -29.041  13.546  1.00  0.00     0.015 C 
BRANCH   5   6
ATOM      6  C   UNL     1       1.049 -28.541  14.973  1.00  0.00     0.028 C 
BRANCH   6   7
ATOM      7  C   UNL     1       0.092 -29.077  16.007  1.00  0.00    -0.028 C 
ATOM      8  C   UNL     1      -0.630 -28.318  16.863  1.00  0.00    -0.070 CG0
ATOM      9  C   UNL     1      -1.468 -29.029  17.897  1.00  0.00     0.039 C 
ATOM     10  G   UNL     1      -0.669 -26.796  16.807  1.00  0.00     0.000 G0
ENDBRANCH   6   7
ENDBRANCH   5   6
ENDBRANCH   3   5
ENDBRANCH   1   3
BRANCH   1  11
ATOM     11  C   UNL     1      -1.492 -26.031  13.176  1.00  0.00     0.087 C 
BRANCH  11  12
ATOM     12  C   UNL     1      -0.979 -25.457  14.528  1.00  0.00     0.066 C 
BRANCH  12  13
ATOM     13  C   UNL     1      -1.549 -26.227  15.715  1.00  0.00     0.140 C 
ATOM     14  O   UNL     1      -2.749 -26.457  15.748  1.00  0.00    -0.299 OA
BRANCH  13  15
ATOM     15  C   UNL     1      -0.662 -26.778  16.812  1.00  0.00     0.106 CG0
ATOM     16  G   UNL     1      -0.639 -28.300  16.875  1.00  0.00     0.000 G0
ENDBRANCH  13  15
ENDBRANCH  12  13
BRANCH  12  17
ATOM     17  C   UNL     1      -1.124 -23.908  14.700  1.00  0.00    -0.006 C 
ATOM     18  C   UNL     1      -2.342 -23.382  13.918  1.00  0.00     0.008 C 
ATOM     19  C   UNL     1      -1.269 -23.492  16.175  1.00  0.00     0.008 C 
ENDBRANCH  12  17
ENDBRANCH  11  12
ENDBRANCH   1  11
TORSDOF 1
ENDMDL
MODEL 7
REMARK VINA RESULT:    -3.307      2.194      3.273
REMARK INTER + INTRA:          -4.790
REMARK INTER:                  -5.030
REMARK INTRA:                   0.239
REMARK UNBOUND:                 0.257
REMARK SMILES CC1=CCC[C@@H](C)C(=O)C[C@@H](C(C)C)C(=O)C1
REMARK SMILES IDX 8 1 9 2 6 3 7 4 5 5 4 6 3 7 2 8 1 9 10 11 11 12 15 13 16 14
REMARK SMILES IDX 17 15 12 17 13 18 14 19
REMARK H PARENT
REMARK Flexibility Score: 70.00
ROOT
ATOM      1  C   UNL     1       0.364 -25.461  13.968  1.00  0.00     0.136 C 
ATOM      2  O   UNL     1       1.301 -24.846  13.477  1.00  0.00    -0.299 OA
ENDROOT
BRANCH   1   3
ATOM      3  C   UNL     1       0.296 -25.636  15.475  1.00  0.00     0.053 C 
ATOM      4  C   UNL     1       0.905 -26.984  15.889  1.00  0.00     0.016 C 
BRANCH   3   5
ATOM      5  C   UNL     1      -1.159 -25.514  15.976  1.00  0.00     0.015 C 
BRANCH   5   6
ATOM      6  C   UNL     1      -1.725 -26.878  16.424  1.00  0.00     0.028 C 
BRANCH   6   7
ATOM      7  C   UNL     1      -2.934 -27.305  15.632  1.00  0.00    -0.028 C 
ATOM      8  C   UNL     1      -2.903 -28.102  14.539  1.00  0.00    -0.070 CG0
ATOM      9  C   UNL     1      -4.204 -28.349  13.813  1.00  0.00     0.039 C 
ATOM     10  G   UNL     1      -1.640 -28.786  14.035  1.00  0.00     0.000 G0
ENDBRANCH   6   7
ENDBRANCH   5   6
ENDBRANCH   3   5
ENDBRANCH   1   3
BRANCH   1  11
ATOM     11  C   UNL     1      -0.734 -25.988  13.070  1.00  0.00     0.087 C 
BRANCH  11  12
ATOM     12  C   UNL     1      -0.368 -27.257  12.248  1.00  0.00     0.066 C 
BRANCH  12  13
ATOM     13  C   UNL     1      -1.291 -28.425  12.581  1.00  0.00     0.140 C 
ATOM     14  O   UNL     1      -1.711 -29.123  11.669  1.00  0.00    -0.299 OA
BRANCH  13  15
ATOM     15  C   UNL     1      -1.639 -28.789  14.010  1.00  0.00     0.106 CG0
ATOM     16  G   UNL     1      -2.887 -28.090  14.533  1.00  0.00     0.000 G0
ENDBRANCH  13  15
ENDBRANCH  12  13
BRANCH  12  17
ATOM     17  C   UNL     1       1.142 -27.667  12.278  1.00  0.00    -0.006 C 
ATOM     18  C   UNL     1       1.310 -29.098  12.822  1.00  0.00     0.008 C 
ATOM     19  C   UNL     1       1.800 -27.590  10.888  1.00  0.00     0.008 C 
ENDBRANCH  12  17
ENDBRANCH  11  12
ENDBRANCH   1  11
TORSDOF 1
ENDMDL
MODEL 8
REMARK VINA RESULT:    -3.143      1.952      4.421
REMARK INTER + INTRA:          -4.540
REMARK INTER:                  -4.799
REMARK INTRA:                   0.258
REMARK UNBOUND:                 0.257
REMARK SMILES CC1=CCC[C@@H](C)C(=O)C[C@@H](C(C)C)C(=O)C1
REMARK SMILES IDX 8 1 9 2 6 3 7 4 5 5 4 6 3 7 2 8 1 9 10 11 11 12 15 13 16 14
REMARK SMILES IDX 17 15 12 17 13 18 14 19
REMARK H PARENT
REMARK Flexibility Score: 70.00
ROOT
ATOM      1  C   UNL     1       0.199 -28.115  16.232  1.00  0.00     0.136 C 
ATOM      2  O   UNL     1       0.862 -29.124  16.423  1.00  0.00    -0.299 OA
ENDROOT
BRANCH   1   3
ATOM      3  C   UNL     1      -1.085 -27.907  17.016  1.00  0.00     0.053 C 
ATOM      4  C   UNL     1      -1.296 -29.050  18.019  1.00  0.00     0.016 C 
BRANCH   3   5
ATOM      5  C   UNL     1      -2.295 -27.781  16.064  1.00  0.00     0.015 C 
BRANCH   5   6
ATOM      6  C   UNL     1      -2.596 -29.113  15.346  1.00  0.00     0.028 C 
BRANCH   6   7
ATOM      7  C   UNL     1      -3.147 -28.923  13.956  1.00  0.00    -0.028 C 
ATOM      8  C   UNL     1      -2.398 -28.794  12.835  1.00  0.00    -0.070 CG0
ATOM      9  C   UNL     1      -3.117 -28.515  11.538  1.00  0.00     0.039 C 
ATOM     10  G   UNL     1      -0.884 -28.956  12.816  1.00  0.00     0.000 G0
ENDBRANCH   6   7
ENDBRANCH   5   6
ENDBRANCH   3   5
ENDBRANCH   1   3
BRANCH   1  11
ATOM     11  C   UNL     1       0.697 -27.070  15.257  1.00  0.00     0.087 C 
BRANCH  11  12
ATOM     12  C   UNL     1      -0.283 -26.719  14.100  1.00  0.00     0.066 C 
BRANCH  12  13
ATOM     13  C   UNL     1      -0.116 -27.669  12.919  1.00  0.00     0.140 C 
ATOM     14  O   UNL     1       0.708 -27.398  12.057  1.00  0.00    -0.299 OA
BRANCH  13  15
ATOM     15  C   UNL     1      -0.886 -28.970  12.821  1.00  0.00     0.106 CG0
ATOM     16  G   UNL     1      -2.398 -28.788  12.808  1.00  0.00     0.000 G0
ENDBRANCH  13  15
ENDBRANCH  12  13
BRANCH  12  17
ATOM     17  C   UNL     1      -0.295 -25.218  13.659  1.00  0.00    -0.006 C 
ATOM     18  C   UNL     1      -1.515 -24.484  14.248  1.00  0.00     0.008 C 
ATOM     19  C   UNL     1       0.981 -24.470  14.085  1.00  0.00     0.008 C 
ENDBRANCH  12  17
ENDBRANCH  11  12
ENDBRANCH   1  11
TORSDOF 1
ENDMDL
MODEL 9
REMARK VINA RESULT:    -3.092      1.485      4.018
REMARK INTER + INTRA:          -4.462
REMARK INTER:                  -4.634
REMARK INTRA:                   0.171
REMARK UNBOUND:                 0.257
REMARK SMILES CC1=CCC[C@@H](C)C(=O)C[C@@H](C(C)C)C(=O)C1
REMARK SMILES IDX 8 1 9 2 6 3 7 4 5 5 4 6 3 7 2 8 1 9 10 11 11 12 15 13 16 14
REMARK SMILES IDX 17 15 12 17 13 18 14 19
REMARK H PARENT
REMARK Flexibility Score: 70.00
ROOT
ATOM      1  C   UNL     1      -2.592 -26.919  13.664  1.00  0.00     0.136 C 
ATOM      2  O   UNL     1      -3.352 -26.641  12.746  1.00  0.00    -0.299 OA
ENDROOT
BRANCH   1   3
ATOM      3  C   UNL     1      -1.974 -28.305  13.726  1.00  0.00     0.053 C 
ATOM      4  C   UNL     1      -2.155 -29.037  12.388  1.00  0.00     0.016 C 
BRANCH   3   5
ATOM      5  C   UNL     1      -2.580 -29.124  14.886  1.00  0.00     0.015 C 
BRANCH   5   6
ATOM      6  C   UNL     1      -1.903 -28.793  16.233  1.00  0.00     0.028 C 
BRANCH   6   7
ATOM      7  C   UNL     1      -0.407 -28.973  16.201  1.00  0.00    -0.028 C 
ATOM      8  C   UNL     1       0.497 -27.965  16.203  1.00  0.00    -0.070 CG0
ATOM      9  C   UNL     1       1.955 -28.329  16.072  1.00  0.00     0.039 C 
ATOM     10  G   UNL     1       0.118 -26.500  16.370  1.00  0.00     0.000 G0
ENDBRANCH   6   7
ENDBRANCH   5   6
ENDBRANCH   3   5
ENDBRANCH   1   3
BRANCH   1  11
ATOM     11  C   UNL     1      -2.243 -25.861  14.688  1.00  0.00     0.087 C 
BRANCH  11  12
ATOM     12  C   UNL     1      -0.941 -25.060  14.400  1.00  0.00     0.066 C 
BRANCH  12  13
ATOM     13  C   UNL     1       0.260 -25.667  15.118  1.00  0.00     0.140 C 
ATOM     14  O   UNL     1       1.383 -25.425  14.697  1.00  0.00    -0.299 OA
BRANCH  13  15
ATOM     15  C   UNL     1       0.107 -26.495  16.377  1.00  0.00     0.106 CG0
ATOM     16  G   UNL     1       0.497 -27.956  16.201  1.00  0.00     0.000 G0
ENDBRANCH  13  15
ENDBRANCH  12  13
BRANCH  12  17
ATOM     17  C   UNL     1      -1.041 -23.513  14.613  1.00  0.00    -0.006 C 
ATOM     18  C   UNL     1      -2.302 -22.947  13.933  1.00  0.00     0.008 C 
ATOM     19  C   UNL     1      -1.070 -23.125  16.102  1.00  0.00     0.008 C 
ENDBRANCH  12  17
ENDBRANCH  11  12
ENDBRANCH   1  11
TORSDOF 1
ENDMDL
