MODEL 1
REMARK VINA RESULT:    -6.757      0.000      0.000
REMARK INTER + INTRA:          -7.596
REMARK INTER:                  -7.350
REMARK INTRA:                  -0.246
REMARK UNBOUND:                -0.246
REMARK SMILES CC(C)c1cc2c(cc1O)[C@@]1(C)CCCC(C)(C)[C@@H]1CC2=O
REMARK SMILES IDX 4 1 9 2 8 3 7 4 6 5 5 6 21 7 22 8 20 9 19 10 11 11 13 12
REMARK SMILES IDX 14 13 15 14 16 15 17 16 18 17 12 18 2 19 1 20 3 21 10 22
REMARK H PARENT 10 23
REMARK Flexibility Score: inf
ROOT
ATOM      1  C   UNL     1      10.716 -10.382 -44.061  1.00  0.00    -0.003 A 
ATOM      2  C   UNL     1      11.173 -11.552 -43.423  1.00  0.00     0.119 A 
ATOM      3  C   UNL     1      10.607 -12.791 -43.743  1.00  0.00     0.051 A 
ATOM      4  C   UNL     1       9.557 -12.905 -44.679  1.00  0.00    -0.027 A 
ATOM      5  C   UNL     1       9.143 -11.738 -45.364  1.00  0.00     0.022 A 
ATOM      6  C   UNL     1       9.709 -10.494 -45.034  1.00  0.00     0.020 A 
ATOM      7  C   UNL     1       8.128 -11.815 -46.439  1.00  0.00     0.163 C 
ATOM      8  O   UNL     1       7.748 -10.773 -47.039  1.00  0.00    -0.294 OA
ATOM      9  C   UNL     1       7.583 -13.136 -46.877  1.00  0.00     0.086 C 
ATOM     10  C   UNL     1       7.564 -14.137 -45.702  1.00  0.00     0.013 C 
ATOM     11  C   UNL     1       8.981 -14.294 -45.028  1.00  0.00    -0.003 C 
ATOM     12  C   UNL     1       8.826 -15.152 -43.719  1.00  0.00     0.012 C 
ATOM     13  C   UNL     1       7.607 -16.092 -43.675  1.00  0.00     0.001 C 
ATOM     14  C   UNL     1       7.241 -16.631 -45.055  1.00  0.00     0.007 C 
ATOM     15  C   UNL     1       6.814 -15.496 -46.034  1.00  0.00    -0.031 C 
ATOM     16  C   UNL     1       5.284 -15.277 -45.884  1.00  0.00     0.011 C 
ATOM     17  C   UNL     1       7.060 -15.984 -47.486  1.00  0.00     0.011 C 
ATOM     18  C   UNL     1      10.014 -14.963 -45.971  1.00  0.00     0.017 C 
ENDROOT
BRANCH   1  19
ATOM     19  C   UNL     1      11.289  -9.005 -43.748  1.00  0.00     0.017 C 
ATOM     20  C   UNL     1      12.317  -8.563 -44.798  1.00  0.00     0.012 C 
ATOM     21  C   UNL     1      10.185  -7.956 -43.563  1.00  0.00     0.012 C 
ENDBRANCH   1  19
BRANCH   2  22
ATOM     22  O   UNL     1      12.191 -11.493 -42.473  1.00  0.00    -0.508 OA
ATOM     23  H   UNL     1      12.957 -12.156 -42.468  1.00  0.00     0.293 HD
ENDBRANCH   2  22
TORSDOF 2
ENDMDL
MODEL 2
REMARK VINA RESULT:    -6.162      2.640      4.932
REMARK INTER + INTRA:          -6.948
REMARK INTER:                  -6.706
REMARK INTRA:                  -0.242
REMARK UNBOUND:                -0.246
REMARK SMILES CC(C)c1cc2c(cc1O)[C@@]1(C)CCCC(C)(C)[C@@H]1CC2=O
REMARK SMILES IDX 4 1 9 2 8 3 7 4 6 5 5 6 21 7 22 8 20 9 19 10 11 11 13 12
REMARK SMILES IDX 14 13 15 14 16 15 17 16 18 17 12 18 2 19 1 20 3 21 10 22
REMARK H PARENT 10 23
REMARK Flexibility Score: inf
ROOT
ATOM      1  C   UNL     1      10.693 -10.150 -44.369  1.00  0.00    -0.003 A 
ATOM      2  C   UNL     1       9.764 -10.998 -45.005  1.00  0.00     0.119 A 
ATOM      3  C   UNL     1      10.093 -12.336 -45.251  1.00  0.00     0.051 A 
ATOM      4  C   UNL     1      11.354 -12.864 -44.903  1.00  0.00    -0.027 A 
ATOM      5  C   UNL     1      12.261 -12.027 -44.209  1.00  0.00     0.022 A 
ATOM      6  C   UNL     1      11.930 -10.682 -43.970  1.00  0.00     0.020 A 
ATOM      7  C   UNL     1      13.552 -12.560 -43.717  1.00  0.00     0.163 C 
ATOM      8  O   UNL     1      14.366 -11.810 -43.112  1.00  0.00    -0.294 OA
ATOM      9  C   UNL     1      13.886 -14.009 -43.870  1.00  0.00     0.086 C 
ATOM     10  C   UNL     1      13.226 -14.591 -45.138  1.00  0.00     0.013 C 
ATOM     11  C   UNL     1      11.667 -14.354 -45.164  1.00  0.00    -0.003 C 
ATOM     12  C   UNL     1      11.113 -14.776 -46.574  1.00  0.00     0.012 C 
ATOM     13  C   UNL     1      11.964 -15.800 -47.347  1.00  0.00     0.001 C 
ATOM     14  C   UNL     1      12.676 -16.782 -46.419  1.00  0.00     0.007 C 
ATOM     15  C   UNL     1      13.695 -16.068 -45.481  1.00  0.00    -0.031 C 
ATOM     16  C   UNL     1      15.064 -16.006 -46.211  1.00  0.00     0.011 C 
ATOM     17  C   UNL     1      13.896 -16.946 -44.218  1.00  0.00     0.011 C 
ATOM     18  C   UNL     1      10.929 -15.147 -44.054  1.00  0.00     0.017 C 
ENDROOT
BRANCH   1  19
ATOM     19  C   UNL     1      10.394  -8.684 -44.081  1.00  0.00     0.017 C 
ATOM     20  C   UNL     1      10.495  -8.365 -42.584  1.00  0.00     0.012 C 
ATOM     21  C   UNL     1      11.274  -7.747 -44.918  1.00  0.00     0.012 C 
ENDBRANCH   1  19
BRANCH   2  22
ATOM     22  O   UNL     1       8.513 -10.522 -45.390  1.00  0.00    -0.508 OA
ATOM     23  H   UNL     1       8.106 -10.754 -46.289  1.00  0.00     0.293 HD
ENDBRANCH   2  22
TORSDOF 2
ENDMDL
MODEL 3
REMARK VINA RESULT:    -5.979     10.177     12.198
REMARK INTER + INTRA:          -6.749
REMARK INTER:                  -6.532
REMARK INTRA:                  -0.217
REMARK UNBOUND:                -0.246
REMARK SMILES CC(C)c1cc2c(cc1O)[C@@]1(C)CCCC(C)(C)[C@@H]1CC2=O
REMARK SMILES IDX 4 1 9 2 8 3 7 4 6 5 5 6 21 7 22 8 20 9 19 10 11 11 13 12
REMARK SMILES IDX 14 13 15 14 16 15 17 16 18 17 12 18 2 19 1 20 3 21 10 22
REMARK H PARENT 10 23
REMARK Flexibility Score: inf
ROOT
ATOM      1  C   UNL     1      13.753 -22.190 -39.502  1.00  0.00    -0.003 A 
ATOM      2  C   UNL     1      13.590 -23.256 -38.595  1.00  0.00     0.119 A 
ATOM      3  C   UNL     1      12.383 -23.406 -37.901  1.00  0.00     0.051 A 
ATOM      4  C   UNL     1      11.319 -22.494 -38.063  1.00  0.00    -0.027 A 
ATOM      5  C   UNL     1      11.462 -21.462 -39.020  1.00  0.00     0.022 A 
ATOM      6  C   UNL     1      12.678 -21.310 -39.709  1.00  0.00     0.020 A 
ATOM      7  C   UNL     1      10.336 -20.547 -39.316  1.00  0.00     0.163 C 
ATOM      8  O   UNL     1      10.470 -19.618 -40.158  1.00  0.00    -0.294 OA
ATOM      9  C   UNL     1       9.003 -20.747 -38.671  1.00  0.00     0.086 C 
ATOM     10  C   UNL     1       9.162 -21.373 -37.269  1.00  0.00     0.013 C 
ATOM     11  C   UNL     1       9.992 -22.713 -37.303  1.00  0.00    -0.003 C 
ATOM     12  C   UNL     1      10.292 -23.161 -35.825  1.00  0.00     0.012 C 
ATOM     13  C   UNL     1       9.315 -22.636 -34.756  1.00  0.00     0.001 C 
ATOM     14  C   UNL     1       7.895 -22.484 -35.294  1.00  0.00     0.007 C 
ATOM     15  C   UNL     1       7.810 -21.430 -36.439  1.00  0.00    -0.031 C 
ATOM     16  C   UNL     1       7.552 -20.039 -35.799  1.00  0.00     0.011 C 
ATOM     17  C   UNL     1       6.576 -21.760 -37.318  1.00  0.00     0.011 C 
ATOM     18  C   UNL     1       9.251 -23.850 -38.053  1.00  0.00     0.017 C 
ENDROOT
BRANCH   1  19
ATOM     19  C   UNL     1      15.045 -21.972 -40.279  1.00  0.00     0.017 C 
ATOM     20  C   UNL     1      14.798 -21.228 -41.599  1.00  0.00     0.012 C 
ATOM     21  C   UNL     1      16.112 -21.271 -39.429  1.00  0.00     0.012 C 
ENDBRANCH   1  19
BRANCH   2  22
ATOM     22  O   UNL     1      14.618 -24.172 -38.380  1.00  0.00    -0.508 OA
ATOM     23  H   UNL     1      14.718 -25.006 -38.946  1.00  0.00     0.293 HD
ENDBRANCH   2  22
TORSDOF 2
ENDMDL
MODEL 4
REMARK VINA RESULT:    -5.906      8.485     11.984
REMARK INTER + INTRA:          -6.670
REMARK INTER:                  -6.428
REMARK INTRA:                  -0.242
REMARK UNBOUND:                -0.246
REMARK SMILES CC(C)c1cc2c(cc1O)[C@@]1(C)CCCC(C)(C)[C@@H]1CC2=O
REMARK SMILES IDX 4 1 9 2 8 3 7 4 6 5 5 6 21 7 22 8 20 9 19 10 11 11 13 12
REMARK SMILES IDX 14 13 15 14 16 15 17 16 18 17 12 18 2 19 1 20 3 21 10 22
REMARK H PARENT 10 23
REMARK Flexibility Score: inf
ROOT
ATOM      1  C   UNL     1       0.244 -20.945 -47.083  1.00  0.00    -0.003 A 
ATOM      2  C   UNL     1       0.198 -20.667 -48.464  1.00  0.00     0.119 A 
ATOM      3  C   UNL     1       1.386 -20.561 -49.196  1.00  0.00     0.051 A 
ATOM      4  C   UNL     1       2.648 -20.698 -48.581  1.00  0.00    -0.027 A 
ATOM      5  C   UNL     1       2.690 -21.039 -47.208  1.00  0.00     0.022 A 
ATOM      6  C   UNL     1       1.494 -21.137 -46.475  1.00  0.00     0.020 A 
ATOM      7  C   UNL     1       3.982 -21.309 -46.537  1.00  0.00     0.163 C 
ATOM      8  O   UNL     1       4.019 -21.598 -45.310  1.00  0.00    -0.294 OA
ATOM      9  C   UNL     1       5.258 -21.309 -47.315  1.00  0.00     0.086 C 
ATOM     10  C   UNL     1       5.176 -20.322 -48.499  1.00  0.00     0.013 C 
ATOM     11  C   UNL     1       3.936 -20.606 -49.430  1.00  0.00    -0.003 C 
ATOM     12  C   UNL     1       3.805 -19.433 -50.471  1.00  0.00     0.012 C 
ATOM     13  C   UNL     1       5.100 -18.657 -50.770  1.00  0.00     0.001 C 
ATOM     14  C   UNL     1       6.340 -19.544 -50.686  1.00  0.00     0.007 C 
ATOM     15  C   UNL     1       6.559 -20.114 -49.252  1.00  0.00    -0.031 C 
ATOM     16  C   UNL     1       7.420 -19.099 -48.454  1.00  0.00     0.011 C 
ATOM     17  C   UNL     1       7.387 -21.420 -49.366  1.00  0.00     0.011 C 
ATOM     18  C   UNL     1       4.054 -21.958 -50.178  1.00  0.00     0.017 C 
ENDROOT
BRANCH   1  19
ATOM     19  C   UNL     1      -1.016 -21.064 -46.234  1.00  0.00     0.017 C 
ATOM     20  C   UNL     1      -1.125 -22.441 -45.566  1.00  0.00     0.012 C 
ATOM     21  C   UNL     1      -1.122 -19.930 -45.207  1.00  0.00     0.012 C 
ENDBRANCH   1  19
BRANCH   2  22
ATOM     22  O   UNL     1      -1.022 -20.499 -49.116  1.00  0.00    -0.508 OA
ATOM     23  H   UNL     1      -1.080 -20.109 -50.050  1.00  0.00     0.293 HD
ENDBRANCH   2  22
TORSDOF 2
ENDMDL
MODEL 5
REMARK VINA RESULT:    -5.892     10.050     11.426
REMARK INTER + INTRA:          -6.654
REMARK INTER:                  -6.499
REMARK INTRA:                  -0.155
REMARK UNBOUND:                -0.246
REMARK SMILES CC(C)c1cc2c(cc1O)[C@@]1(C)CCCC(C)(C)[C@@H]1CC2=O
REMARK SMILES IDX 4 1 9 2 8 3 7 4 6 5 5 6 21 7 22 8 20 9 19 10 11 11 13 12
REMARK SMILES IDX 14 13 15 14 16 15 17 16 18 17 12 18 2 19 1 20 3 21 10 22
REMARK H PARENT 10 23
REMARK Flexibility Score: inf
ROOT
ATOM      1  C   UNL     1      17.469 -20.509 -42.330  1.00  0.00    -0.003 A 
ATOM      2  C   UNL     1      17.796 -20.849 -41.002  1.00  0.00     0.119 A 
ATOM      3  C   UNL     1      16.782 -21.170 -40.093  1.00  0.00     0.051 A 
ATOM      4  C   UNL     1      15.421 -21.137 -40.460  1.00  0.00    -0.027 A 
ATOM      5  C   UNL     1      15.099 -20.858 -41.810  1.00  0.00     0.022 A 
ATOM      6  C   UNL     1      16.120 -20.528 -42.719  1.00  0.00     0.020 A 
ATOM      7  C   UNL     1      13.696 -20.924 -42.280  1.00  0.00     0.163 C 
ATOM      8  O   UNL     1      13.409 -20.660 -43.479  1.00  0.00    -0.294 OA
ATOM      9  C   UNL     1      12.606 -21.368 -41.359  1.00  0.00     0.086 C 
ATOM     10  C   UNL     1      12.930 -20.982 -39.900  1.00  0.00     0.013 C 
ATOM     11  C   UNL     1      14.334 -21.530 -39.435  1.00  0.00    -0.003 C 
ATOM     12  C   UNL     1      14.678 -20.912 -38.030  1.00  0.00     0.012 C 
ATOM     13  C   UNL     1      13.474 -20.454 -37.188  1.00  0.00     0.001 C 
ATOM     14  C   UNL     1      12.240 -21.322 -37.420  1.00  0.00     0.007 C 
ATOM     15  C   UNL     1      11.731 -21.237 -38.892  1.00  0.00    -0.031 C 
ATOM     16  C   UNL     1      10.729 -20.056 -38.990  1.00  0.00     0.011 C 
ATOM     17  C   UNL     1      10.938 -22.531 -39.210  1.00  0.00     0.011 C 
ATOM     18  C   UNL     1      14.366 -23.078 -39.347  1.00  0.00     0.017 C 
ENDROOT
BRANCH   1  19
ATOM     19  C   UNL     1      18.528 -20.143 -43.363  1.00  0.00     0.017 C 
ATOM     20  C   UNL     1      17.994 -20.266 -44.796  1.00  0.00     0.012 C 
ATOM     21  C   UNL     1      19.125 -18.755 -43.101  1.00  0.00     0.012 C 
ENDBRANCH   1  19
BRANCH   2  22
ATOM     22  O   UNL     1      19.124 -20.873 -40.580  1.00  0.00    -0.508 OA
ATOM     23  H   UNL     1      19.379 -20.729 -39.610  1.00  0.00     0.293 HD
ENDBRANCH   2  22
TORSDOF 2
ENDMDL
MODEL 6
REMARK VINA RESULT:    -5.769     10.787     12.390
REMARK INTER + INTRA:          -6.521
REMARK INTER:                  -6.289
REMARK INTRA:                  -0.232
REMARK UNBOUND:                -0.246
REMARK SMILES CC(C)c1cc2c(cc1O)[C@@]1(C)CCCC(C)(C)[C@@H]1CC2=O
REMARK SMILES IDX 4 1 9 2 8 3 7 4 6 5 5 6 21 7 22 8 20 9 19 10 11 11 13 12
REMARK SMILES IDX 14 13 15 14 16 15 17 16 18 17 12 18 2 19 1 20 3 21 10 22
REMARK H PARENT 10 23
REMARK Flexibility Score: inf
ROOT
ATOM      1  C   UNL     1      14.471 -21.832 -40.444  1.00  0.00    -0.003 A 
ATOM      2  C   UNL     1      13.524 -22.708 -41.010  1.00  0.00     0.119 A 
ATOM      3  C   UNL     1      12.304 -22.934 -40.361  1.00  0.00     0.051 A 
ATOM      4  C   UNL     1      12.000 -22.326 -39.125  1.00  0.00    -0.027 A 
ATOM      5  C   UNL     1      12.927 -21.398 -38.590  1.00  0.00     0.022 A 
ATOM      6  C   UNL     1      14.153 -21.180 -39.242  1.00  0.00     0.020 A 
ATOM      7  C   UNL     1      12.609 -20.643 -37.357  1.00  0.00     0.163 C 
ATOM      8  O   UNL     1      13.441 -19.828 -36.873  1.00  0.00    -0.294 OA
ATOM      9  C   UNL     1      11.274 -20.783 -36.701  1.00  0.00     0.086 C 
ATOM     10  C   UNL     1      10.699 -22.197 -36.928  1.00  0.00     0.013 C 
ATOM     11  C   UNL     1      10.631 -22.576 -38.457  1.00  0.00    -0.003 C 
ATOM     12  C   UNL     1      10.245 -24.096 -38.585  1.00  0.00     0.012 C 
ATOM     13  C   UNL     1       9.484 -24.696 -37.389  1.00  0.00     0.001 C 
ATOM     14  C   UNL     1       8.575 -23.675 -36.709  1.00  0.00     0.007 C 
ATOM     15  C   UNL     1       9.380 -22.490 -36.095  1.00  0.00    -0.031 C 
ATOM     16  C   UNL     1       9.775 -22.874 -34.643  1.00  0.00     0.011 C 
ATOM     17  C   UNL     1       8.441 -21.259 -35.997  1.00  0.00     0.011 C 
ATOM     18  C   UNL     1       9.608 -21.711 -39.237  1.00  0.00     0.017 C 
ENDROOT
BRANCH   1  19
ATOM     19  C   UNL     1      15.818 -21.552 -41.100  1.00  0.00     0.017 C 
ATOM     20  C   UNL     1      15.714 -20.459 -42.172  1.00  0.00     0.012 C 
ATOM     21  C   UNL     1      16.901 -21.226 -40.065  1.00  0.00     0.012 C 
ENDBRANCH   1  19
BRANCH   2  22
ATOM     22  O   UNL     1      13.784 -23.353 -42.217  1.00  0.00    -0.508 OA
ATOM     23  H   UNL     1      14.726 -23.590 -42.505  1.00  0.00     0.293 HD
ENDBRANCH   2  22
TORSDOF 2
ENDMDL
MODEL 7
REMARK VINA RESULT:    -5.702      9.599     12.114
REMARK INTER + INTRA:          -6.448
REMARK INTER:                  -6.200
REMARK INTRA:                  -0.247
REMARK UNBOUND:                -0.246
REMARK SMILES CC(C)c1cc2c(cc1O)[C@@]1(C)CCCC(C)(C)[C@@H]1CC2=O
REMARK SMILES IDX 4 1 9 2 8 3 7 4 6 5 5 6 21 7 22 8 20 9 19 10 11 11 13 12
REMARK SMILES IDX 14 13 15 14 16 15 17 16 18 17 12 18 2 19 1 20 3 21 10 22
REMARK H PARENT 10 23
REMARK Flexibility Score: inf
ROOT
ATOM      1  C   UNL     1       8.668 -21.049 -36.595  1.00  0.00    -0.003 A 
ATOM      2  C   UNL     1       9.571 -21.910 -35.940  1.00  0.00     0.119 A 
ATOM      3  C   UNL     1      10.860 -22.094 -36.452  1.00  0.00     0.051 A 
ATOM      4  C   UNL     1      11.282 -21.457 -37.638  1.00  0.00    -0.027 A 
ATOM      5  C   UNL     1      10.396 -20.544 -38.259  1.00  0.00     0.022 A 
ATOM      6  C   UNL     1       9.099 -20.368 -37.744  1.00  0.00     0.020 A 
ATOM      7  C   UNL     1      10.827 -19.759 -39.437  1.00  0.00     0.163 C 
ATOM      8  O   UNL     1      10.032 -18.958 -39.999  1.00  0.00    -0.294 OA
ATOM      9  C   UNL     1      12.230 -19.854 -39.944  1.00  0.00     0.086 C 
ATOM     10  C   UNL     1      12.815 -21.257 -39.675  1.00  0.00     0.013 C 
ATOM     11  C   UNL     1      12.723 -21.661 -38.154  1.00  0.00    -0.003 C 
ATOM     12  C   UNL     1      13.133 -23.173 -38.006  1.00  0.00     0.012 C 
ATOM     13  C   UNL     1      14.039 -23.732 -39.119  1.00  0.00     0.001 C 
ATOM     14  C   UNL     1      14.989 -22.677 -39.678  1.00  0.00     0.007 C 
ATOM     15  C   UNL     1      14.226 -21.502 -40.361  1.00  0.00    -0.031 C 
ATOM     16  C   UNL     1      14.004 -21.870 -41.853  1.00  0.00     0.011 C 
ATOM     17  C   UNL     1      15.136 -20.247 -40.336  1.00  0.00     0.011 C 
ATOM     18  C   UNL     1      13.630 -20.784 -37.252  1.00  0.00     0.017 C 
ENDROOT
BRANCH   1  19
ATOM     19  C   UNL     1       7.250 -20.815 -36.088  1.00  0.00     0.017 C 
ATOM     20  C   UNL     1       6.813 -19.356 -36.271  1.00  0.00     0.012 C 
ATOM     21  C   UNL     1       6.249 -21.788 -36.723  1.00  0.00     0.012 C 
ENDBRANCH   1  19
BRANCH   2  22
ATOM     22  O   UNL     1       9.196 -22.583 -34.778  1.00  0.00    -0.508 OA
ATOM     23  H   UNL     1       9.434 -22.233 -33.857  1.00  0.00     0.293 HD
ENDBRANCH   2  22
TORSDOF 2
ENDMDL
MODEL 8
REMARK VINA RESULT:    -5.607      8.793     11.966
REMARK INTER + INTRA:          -6.345
REMARK INTER:                  -6.193
REMARK INTRA:                  -0.152
REMARK UNBOUND:                -0.246
REMARK SMILES CC(C)c1cc2c(cc1O)[C@@]1(C)CCCC(C)(C)[C@@H]1CC2=O
REMARK SMILES IDX 4 1 9 2 8 3 7 4 6 5 5 6 21 7 22 8 20 9 19 10 11 11 13 12
REMARK SMILES IDX 14 13 15 14 16 15 17 16 18 17 12 18 2 19 1 20 3 21 10 22
REMARK H PARENT 10 23
REMARK Flexibility Score: inf
ROOT
ATOM      1  C   UNL     1       8.526 -22.077 -36.596  1.00  0.00    -0.003 A 
ATOM      2  C   UNL     1       9.123 -20.855 -36.231  1.00  0.00     0.119 A 
ATOM      3  C   UNL     1       8.415 -19.657 -36.380  1.00  0.00     0.051 A 
ATOM      4  C   UNL     1       7.112 -19.632 -36.919  1.00  0.00    -0.027 A 
ATOM      5  C   UNL     1       6.490 -20.866 -37.227  1.00  0.00     0.022 A 
ATOM      6  C   UNL     1       7.208 -22.066 -37.082  1.00  0.00     0.020 A 
ATOM      7  C   UNL     1       5.083 -20.908 -37.685  1.00  0.00     0.163 C 
ATOM      8  O   UNL     1       4.535 -22.006 -37.973  1.00  0.00    -0.294 OA
ATOM      9  C   UNL     1       4.267 -19.657 -37.753  1.00  0.00     0.086 C 
ATOM     10  C   UNL     1       5.161 -18.437 -38.062  1.00  0.00     0.013 C 
ATOM     11  C   UNL     1       6.351 -18.293 -37.039  1.00  0.00    -0.003 C 
ATOM     12  C   UNL     1       7.326 -17.169 -37.550  1.00  0.00     0.012 C 
ATOM     13  C   UNL     1       6.702 -16.118 -38.487  1.00  0.00     0.001 C 
ATOM     14  C   UNL     1       5.238 -15.843 -38.156  1.00  0.00     0.007 C 
ATOM     15  C   UNL     1       4.344 -17.106 -38.350  1.00  0.00    -0.031 C 
ATOM     16  C   UNL     1       3.848 -17.127 -39.821  1.00  0.00     0.011 C 
ATOM     17  C   UNL     1       3.089 -16.961 -37.451  1.00  0.00     0.011 C 
ATOM     18  C   UNL     1       5.863 -17.948 -35.608  1.00  0.00     0.017 C 
ENDROOT
BRANCH   1  19
ATOM     19  C   UNL     1       9.251 -23.411 -36.463  1.00  0.00     0.017 C 
ATOM     20  C   UNL     1       9.371 -23.852 -34.998  1.00  0.00     0.012 C 
ATOM     21  C   UNL     1       8.605 -24.501 -37.328  1.00  0.00     0.012 C 
ENDBRANCH   1  19
BRANCH   2  22
ATOM     22  O   UNL     1      10.418 -20.822 -35.715  1.00  0.00    -0.508 OA
ATOM     23  H   UNL     1      11.233 -20.913 -36.310  1.00  0.00     0.293 HD
ENDBRANCH   2  22
TORSDOF 2
ENDMDL
MODEL 9
REMARK VINA RESULT:    -5.559      9.966     12.184
REMARK INTER + INTRA:          -6.292
REMARK INTER:                  -6.048
REMARK INTRA:                  -0.245
REMARK UNBOUND:                -0.246
REMARK SMILES CC(C)c1cc2c(cc1O)[C@@]1(C)CCCC(C)(C)[C@@H]1CC2=O
REMARK SMILES IDX 4 1 9 2 8 3 7 4 6 5 5 6 21 7 22 8 20 9 19 10 11 11 13 12
REMARK SMILES IDX 14 13 15 14 16 15 17 16 18 17 12 18 2 19 1 20 3 21 10 22
REMARK H PARENT 10 23
REMARK Flexibility Score: inf
ROOT
ATOM      1  C   UNL     1       5.110 -18.769 -37.115  1.00  0.00    -0.003 A 
ATOM      2  C   UNL     1       6.064 -18.608 -36.090  1.00  0.00     0.119 A 
ATOM      3  C   UNL     1       7.127 -19.512 -35.975  1.00  0.00     0.051 A 
ATOM      4  C   UNL     1       7.260 -20.612 -36.849  1.00  0.00    -0.027 A 
ATOM      5  C   UNL     1       6.337 -20.735 -37.915  1.00  0.00     0.022 A 
ATOM      6  C   UNL     1       5.267 -19.829 -38.022  1.00  0.00     0.020 A 
ATOM      7  C   UNL     1       6.496 -21.801 -38.930  1.00  0.00     0.163 C 
ATOM      8  O   UNL     1       5.665 -21.919 -39.870  1.00  0.00    -0.294 OA
ATOM      9  C   UNL     1       7.679 -22.714 -38.896  1.00  0.00     0.086 C 
ATOM     10  C   UNL     1       8.162 -22.929 -37.445  1.00  0.00     0.013 C 
ATOM     11  C   UNL     1       8.464 -21.568 -36.709  1.00  0.00    -0.003 C 
ATOM     12  C   UNL     1       8.735 -21.865 -35.187  1.00  0.00     0.012 C 
ATOM     13  C   UNL     1       9.221 -23.289 -34.861  1.00  0.00     0.001 C 
ATOM     14  C   UNL     1      10.081 -23.879 -35.976  1.00  0.00     0.007 C 
ATOM     15  C   UNL     1       9.285 -24.043 -37.306  1.00  0.00    -0.031 C 
ATOM     16  C   UNL     1       8.609 -25.441 -37.297  1.00  0.00     0.011 C 
ATOM     17  C   UNL     1      10.293 -24.035 -38.484  1.00  0.00     0.011 C 
ATOM     18  C   UNL     1       9.679 -20.821 -37.319  1.00  0.00     0.017 C 
ENDROOT
BRANCH   1  19
ATOM     19  C   UNL     1       3.928 -17.822 -37.285  1.00  0.00     0.017 C 
ATOM     20  C   UNL     1       4.282 -16.623 -38.175  1.00  0.00     0.012 C 
ATOM     21  C   UNL     1       2.679 -18.552 -37.793  1.00  0.00     0.012 C 
ENDBRANCH   1  19
BRANCH   2  22
ATOM     22  O   UNL     1       5.966 -17.553 -35.186  1.00  0.00    -0.508 OA
ATOM     23  H   UNL     1       6.339 -16.634 -35.394  1.00  0.00     0.293 HD
ENDBRANCH   2  22
TORSDOF 2
ENDMDL
