MODEL 1
REMARK VINA RESULT:    -7.636      0.000      0.000
REMARK INTER + INTRA:         -12.262
REMARK INTER:                 -11.430
REMARK INTRA:                  -0.833
REMARK UNBOUND:                -0.833
REMARK SMILES C=C(CC[C@H](C(=O)[O-])[C@@H]1[C@H](O)C[C@]2(C)C3=C(CC[C@]12C)[C@@]1(C)CC[C@H](OC(C)=O)C(C)(C)[C@H]1CC3)C(C)C
REMARK SMILES IDX 4 1 5 2 6 3 7 4 8 5 9 6 10 7 19 8 12 9 13 10 18 11 20 12
REMARK SMILES IDX 14 13 15 14 17 15 16 16 35 17 21 18 34 19 33 20 23 21 22 22
REMARK SMILES IDX 30 23 24 24 25 25 31 26 32 27 11 28 26 30 27 31 29 32 28 33
REMARK SMILES IDX 3 34 2 35 1 36 36 37 37 38 38 39
REMARK H PARENT 11 29
REMARK Flexibility Score: inf
ROOT
ATOM      1  C   UNL     1      14.421 -32.773  21.826  1.00  0.00     0.014 C 
ENDROOT
BRANCH   1   2
ATOM      2  C   UNL     1      15.821 -33.071  21.208  1.00  0.00     0.042 C 
BRANCH   2   3
ATOM      3  C   UNL     1      15.664 -34.069  20.090  1.00  0.00     0.045 C 
ATOM      4  O   UNL     1      15.020 -35.135  20.276  1.00  0.00    -0.550 OA
ATOM      5  O   UNL     1      16.200 -33.807  18.835  1.00  0.00    -0.550 OA
ENDBRANCH   2   3
BRANCH   2   6
ATOM      6  C   UNL     1      16.839 -33.589  22.291  1.00  0.00     0.033 C 
ATOM      7  C   UNL     1      16.702 -32.880  23.657  1.00  0.00     0.119 C 
ATOM      8  C   UNL     1      18.380 -33.585  21.966  1.00  0.00    -0.017 C 
ATOM      9  C   UNL     1      18.057 -32.983  24.362  1.00  0.00     0.043 C 
ATOM     10  C   UNL     1      19.049 -33.694  23.401  1.00  0.00    -0.003 C 
ATOM     11  C   UNL     1      18.851 -32.294  21.199  1.00  0.00     0.012 C 
ATOM     12  C   UNL     1      18.760 -34.798  21.065  1.00  0.00     0.013 C 
ATOM     13  C   UNL     1      19.145 -35.174  23.887  1.00  0.00     0.017 C 
ATOM     14  C   UNL     1      20.419 -32.965  23.469  1.00  0.00    -0.064 C 
ATOM     15  C   UNL     1      19.401 -31.187  22.092  1.00  0.00     0.032 C 
ATOM     16  C   UNL     1      20.560 -31.724  22.917  1.00  0.00    -0.064 C 
ATOM     17  C   UNL     1      21.616 -33.549  24.195  1.00  0.00     0.032 C 
ATOM     18  C   UNL     1      21.773 -30.832  23.322  1.00  0.00    -0.008 C 
ATOM     19  C   UNL     1      22.871 -33.218  23.401  1.00  0.00     0.009 C 
ATOM     20  C   UNL     1      23.136 -31.677  23.346  1.00  0.00     0.009 C 
ATOM     21  C   UNL     1      21.388 -30.197  24.711  1.00  0.00     0.015 C 
ATOM     22  C   UNL     1      21.959 -29.688  22.279  1.00  0.00     0.016 C 
ATOM     23  C   UNL     1      24.312 -31.118  24.299  1.00  0.00     0.005 C 
ATOM     24  C   UNL     1      22.454 -30.273  25.801  1.00  0.00     0.047 C 
ATOM     25  C   UNL     1      23.836 -29.963  25.243  1.00  0.00     0.182 C 
ATOM     26  C   UNL     1      24.942 -32.217  25.209  1.00  0.00     0.015 C 
ATOM     27  C   UNL     1      25.481 -30.586  23.424  1.00  0.00     0.015 C 
BRANCH   7  28
ATOM     28  O   UNL     1      16.338 -31.531  23.496  1.00  0.00    -0.393 OA
ATOM     29  H   UNL     1      15.389 -31.523  23.205  1.00  0.00     0.210 HD
ENDBRANCH   7  28
BRANCH  25  30
ATOM     30  O   UNL     1      23.829 -28.697  24.575  1.00  0.00    -0.462 OA
BRANCH  30  31
ATOM     31  C   UNL     1      23.646 -27.472  25.226  1.00  0.00     0.302 C 
ATOM     32  O   UNL     1      24.377 -27.140  26.198  1.00  0.00    -0.253 OA
ATOM     33  C   UNL     1      22.580 -26.542  24.758  1.00  0.00     0.139 C 
ENDBRANCH  30  31
ENDBRANCH  25  30
ENDBRANCH   2   6
ENDBRANCH   1   2
BRANCH   1  34
ATOM     34  C   UNL     1      13.558 -31.820  20.975  1.00  0.00     0.031 C 
BRANCH  34  35
ATOM     35  C   UNL     1      12.835 -30.779  21.802  1.00  0.00    -0.075 C 
ATOM     36  C   UNL     1      11.527 -30.557  21.594  1.00  0.00     0.008 C 
BRANCH  35  37
ATOM     37  C   UNL     1      13.625 -29.957  22.814  1.00  0.00     0.008 C 
ATOM     38  C   UNL     1      14.622 -29.030  22.108  1.00  0.00     0.012 C 
ATOM     39  C   UNL     1      12.704 -29.165  23.748  1.00  0.00     0.012 C 
ENDBRANCH  35  37
ENDBRANCH  34  35
ENDBRANCH   1  34
TORSDOF 9
ENDMDL
MODEL 2
REMARK VINA RESULT:    -7.529      1.310      1.713
REMARK INTER + INTRA:         -12.102
REMARK INTER:                 -11.084
REMARK INTRA:                  -1.018
REMARK UNBOUND:                -0.833
REMARK SMILES C=C(CC[C@H](C(=O)[O-])[C@@H]1[C@H](O)C[C@]2(C)C3=C(CC[C@]12C)[C@@]1(C)CC[C@H](OC(C)=O)C(C)(C)[C@H]1CC3)C(C)C
REMARK SMILES IDX 4 1 5 2 6 3 7 4 8 5 9 6 10 7 19 8 12 9 13 10 18 11 20 12
REMARK SMILES IDX 14 13 15 14 17 15 16 16 35 17 21 18 34 19 33 20 23 21 22 22
REMARK SMILES IDX 30 23 24 24 25 25 31 26 32 27 11 28 26 30 27 31 29 32 28 33
REMARK SMILES IDX 3 34 2 35 1 36 36 37 37 38 38 39
REMARK H PARENT 11 29
REMARK Flexibility Score: inf
ROOT
ATOM      1  C   UNL     1      14.304 -32.856  21.846  1.00  0.00     0.014 C 
ENDROOT
BRANCH   1   2
ATOM      2  C   UNL     1      15.761 -33.263  21.469  1.00  0.00     0.042 C 
BRANCH   2   3
ATOM      3  C   UNL     1      15.725 -34.158  20.258  1.00  0.00     0.045 C 
ATOM      4  O   UNL     1      14.981 -35.173  20.240  1.00  0.00    -0.550 OA
ATOM      5  O   UNL     1      16.488 -33.854  19.137  1.00  0.00    -0.550 OA
ENDBRANCH   2   3
BRANCH   2   6
ATOM      6  C   UNL     1      16.500 -33.962  22.669  1.00  0.00     0.033 C 
ATOM      7  C   UNL     1      16.505 -33.122  23.965  1.00  0.00     0.119 C 
ATOM      8  C   UNL     1      17.984 -34.454  22.479  1.00  0.00    -0.017 C 
ATOM      9  C   UNL     1      17.717 -33.564  24.790  1.00  0.00     0.043 C 
ATOM     10  C   UNL     1      18.498 -34.627  23.971  1.00  0.00    -0.003 C 
ATOM     11  C   UNL     1      18.877 -33.441  21.669  1.00  0.00     0.012 C 
ATOM     12  C   UNL     1      18.026 -35.802  21.699  1.00  0.00     0.013 C 
ATOM     13  C   UNL     1      18.104 -36.016  24.563  1.00  0.00     0.017 C 
ATOM     14  C   UNL     1      20.019 -34.344  24.106  1.00  0.00    -0.064 C 
ATOM     15  C   UNL     1      19.686 -32.475  22.527  1.00  0.00     0.032 C 
ATOM     16  C   UNL     1      20.570 -33.259  23.484  1.00  0.00    -0.064 C 
ATOM     17  C   UNL     1      20.931 -35.192  24.972  1.00  0.00     0.032 C 
ATOM     18  C   UNL     1      21.972 -32.742  23.931  1.00  0.00    -0.008 C 
ATOM     19  C   UNL     1      22.274 -35.331  24.268  1.00  0.00     0.009 C 
ATOM     20  C   UNL     1      23.003 -33.954  24.130  1.00  0.00     0.009 C 
ATOM     21  C   UNL     1      21.717 -31.895  25.233  1.00  0.00     0.015 C 
ATOM     22  C   UNL     1      22.564 -31.809  22.831  1.00  0.00     0.016 C 
ATOM     23  C   UNL     1      24.233 -33.691  25.141  1.00  0.00     0.005 C 
ATOM     24  C   UNL     1      22.638 -32.189  26.415  1.00  0.00     0.047 C 
ATOM     25  C   UNL     1      24.080 -32.364  25.958  1.00  0.00     0.182 C 
ATOM     26  C   UNL     1      24.437 -34.840  26.175  1.00  0.00     0.015 C 
ATOM     27  C   UNL     1      25.561 -33.620  24.335  1.00  0.00     0.015 C 
BRANCH   7  28
ATOM     28  O   UNL     1      16.586 -31.747  23.682  1.00  0.00    -0.393 OA
ATOM     29  H   UNL     1      17.493 -31.451  23.958  1.00  0.00     0.210 HD
ENDBRANCH   7  28
BRANCH  25  30
ATOM     30  O   UNL     1      24.505 -31.222  25.206  1.00  0.00    -0.462 OA
BRANCH  30  31
ATOM     31  C   UNL     1      24.697 -29.951  25.759  1.00  0.00     0.302 C 
ATOM     32  O   UNL     1      25.419 -29.792  26.781  1.00  0.00    -0.253 OA
ATOM     33  C   UNL     1      24.049 -28.768  25.126  1.00  0.00     0.139 C 
ENDBRANCH  30  31
ENDBRANCH  25  30
ENDBRANCH   2   6
ENDBRANCH   1   2
BRANCH   1  34
ATOM     34  C   UNL     1      13.744 -31.698  20.997  1.00  0.00     0.031 C 
BRANCH  34  35
ATOM     35  C   UNL     1      12.855 -30.761  21.787  1.00  0.00    -0.075 C 
ATOM     36  C   UNL     1      11.569 -30.607  21.430  1.00  0.00     0.008 C 
BRANCH  35  37
ATOM     37  C   UNL     1      13.457 -29.962  22.937  1.00  0.00     0.008 C 
ATOM     38  C   UNL     1      14.648 -29.123  22.457  1.00  0.00     0.012 C 
ATOM     39  C   UNL     1      12.410 -29.084  23.631  1.00  0.00     0.012 C 
ENDBRANCH  35  37
ENDBRANCH  34  35
ENDBRANCH   1  34
TORSDOF 9
ENDMDL
MODEL 3
REMARK VINA RESULT:    -7.406      1.600      2.071
REMARK INTER + INTRA:         -11.918
REMARK INTER:                 -10.961
REMARK INTRA:                  -0.957
REMARK UNBOUND:                -0.833
REMARK SMILES C=C(CC[C@H](C(=O)[O-])[C@@H]1[C@H](O)C[C@]2(C)C3=C(CC[C@]12C)[C@@]1(C)CC[C@H](OC(C)=O)C(C)(C)[C@H]1CC3)C(C)C
REMARK SMILES IDX 4 1 5 2 6 3 7 4 8 5 9 6 10 7 19 8 12 9 13 10 18 11 20 12
REMARK SMILES IDX 14 13 15 14 17 15 16 16 35 17 21 18 34 19 33 20 23 21 22 22
REMARK SMILES IDX 30 23 24 24 25 25 31 26 32 27 11 28 26 30 27 31 29 32 28 33
REMARK SMILES IDX 3 34 2 35 1 36 36 37 37 38 38 39
REMARK H PARENT 11 29
REMARK Flexibility Score: inf
ROOT
ATOM      1  C   UNL     1      14.577 -32.956  22.086  1.00  0.00     0.014 C 
ENDROOT
BRANCH   1   2
ATOM      2  C   UNL     1      16.004 -33.359  21.606  1.00  0.00     0.042 C 
BRANCH   2   3
ATOM      3  C   UNL     1      15.888 -34.169  20.340  1.00  0.00     0.045 C 
ATOM      4  O   UNL     1      15.130 -35.174  20.297  1.00  0.00    -0.550 OA
ATOM      5  O   UNL     1      16.589 -33.796  19.201  1.00  0.00    -0.550 OA
ENDBRANCH   2   3
BRANCH   2   6
ATOM      6  C   UNL     1      16.791 -34.151  22.715  1.00  0.00     0.033 C 
ATOM      7  C   UNL     1      16.816 -33.436  24.084  1.00  0.00     0.119 C 
ATOM      8  C   UNL     1      18.279 -34.588  22.440  1.00  0.00    -0.017 C 
ATOM      9  C   UNL     1      18.059 -33.925  24.831  1.00  0.00     0.043 C 
ATOM     10  C   UNL     1      18.839 -34.889  23.895  1.00  0.00    -0.003 C 
ATOM     11  C   UNL     1      19.128 -33.484  21.706  1.00  0.00     0.012 C 
ATOM     12  C   UNL     1      18.327 -35.857  21.536  1.00  0.00     0.013 C 
ATOM     13  C   UNL     1      18.489 -36.335  24.364  1.00  0.00     0.017 C 
ATOM     14  C   UNL     1      20.357 -34.584  24.017  1.00  0.00    -0.064 C 
ATOM     15  C   UNL     1      19.941 -32.585  22.630  1.00  0.00     0.032 C 
ATOM     16  C   UNL     1      20.868 -33.434  23.485  1.00  0.00    -0.064 C 
ATOM     17  C   UNL     1      21.310 -35.489  24.774  1.00  0.00     0.032 C 
ATOM     18  C   UNL     1      22.270 -32.929  23.941  1.00  0.00    -0.008 C 
ATOM     19  C   UNL     1      22.635 -35.530  24.025  1.00  0.00     0.009 C 
ATOM     20  C   UNL     1      23.331 -34.130  23.998  1.00  0.00     0.009 C 
ATOM     21  C   UNL     1      22.035 -32.214  25.324  1.00  0.00     0.015 C 
ATOM     22  C   UNL     1      22.812 -31.884  22.919  1.00  0.00     0.016 C 
ATOM     23  C   UNL     1      24.584 -33.935  24.997  1.00  0.00     0.005 C 
ATOM     24  C   UNL     1      22.996 -32.596  26.448  1.00  0.00     0.047 C 
ATOM     25  C   UNL     1      24.427 -32.694  25.939  1.00  0.00     0.182 C 
ATOM     26  C   UNL     1      24.841 -35.171  25.912  1.00  0.00     0.015 C 
ATOM     27  C   UNL     1      25.887 -33.758  24.167  1.00  0.00     0.015 C 
BRANCH   7  28
ATOM     28  O   UNL     1      16.861 -32.039  23.929  1.00  0.00    -0.393 OA
ATOM     29  H   UNL     1      17.685 -31.835  23.414  1.00  0.00     0.210 HD
ENDBRANCH   7  28
BRANCH  25  30
ATOM     30  O   UNL     1      24.807 -31.478  25.287  1.00  0.00    -0.462 OA
BRANCH  30  31
ATOM     31  C   UNL     1      25.548 -30.461  25.902  1.00  0.00     0.302 C 
ATOM     32  O   UNL     1      25.012 -29.360  26.201  1.00  0.00    -0.253 OA
ATOM     33  C   UNL     1      26.986 -30.688  26.219  1.00  0.00     0.139 C 
ENDBRANCH  30  31
ENDBRANCH  25  30
ENDBRANCH   2   6
ENDBRANCH   1   2
BRANCH   1  34
ATOM     34  C   UNL     1      13.868 -31.954  21.154  1.00  0.00     0.031 C 
BRANCH  34  35
ATOM     35  C   UNL     1      13.069 -30.910  21.905  1.00  0.00    -0.075 C 
ATOM     36  C   UNL     1      11.808 -30.643  21.530  1.00  0.00     0.008 C 
BRANCH  35  37
ATOM     37  C   UNL     1      13.738 -30.137  23.035  1.00  0.00     0.008 C 
ATOM     38  C   UNL     1      14.930 -29.325  22.514  1.00  0.00     0.012 C 
ATOM     39  C   UNL     1      12.743 -29.238  23.777  1.00  0.00     0.012 C 
ENDBRANCH  35  37
ENDBRANCH  34  35
ENDBRANCH   1  34
TORSDOF 9
ENDMDL
MODEL 4
REMARK VINA RESULT:    -7.202      3.242     10.351
REMARK INTER + INTRA:         -11.613
REMARK INTER:                 -10.762
REMARK INTRA:                  -0.852
REMARK UNBOUND:                -0.833
REMARK SMILES C=C(CC[C@H](C(=O)[O-])[C@@H]1[C@H](O)C[C@]2(C)C3=C(CC[C@]12C)[C@@]1(C)CC[C@H](OC(C)=O)C(C)(C)[C@H]1CC3)C(C)C
REMARK SMILES IDX 4 1 5 2 6 3 7 4 8 5 9 6 10 7 19 8 12 9 13 10 18 11 20 12
REMARK SMILES IDX 14 13 15 14 17 15 16 16 35 17 21 18 34 19 33 20 23 21 22 22
REMARK SMILES IDX 30 23 24 24 25 25 31 26 32 27 11 28 26 30 27 31 29 32 28 33
REMARK SMILES IDX 3 34 2 35 1 36 36 37 37 38 38 39
REMARK H PARENT 11 29
REMARK Flexibility Score: inf
ROOT
ATOM      1  C   UNL     1      26.605 -30.883  28.084  1.00  0.00     0.014 C 
ENDROOT
BRANCH   1   2
ATOM      2  C   UNL     1      26.164 -31.407  26.684  1.00  0.00     0.042 C 
BRANCH   2   3
ATOM      3  C   UNL     1      27.389 -31.665  25.846  1.00  0.00     0.045 C 
ATOM      4  O   UNL     1      27.592 -32.806  25.353  1.00  0.00    -0.550 OA
ATOM      5  O   UNL     1      28.288 -30.640  25.582  1.00  0.00    -0.550 OA
ENDBRANCH   2   3
BRANCH   2   6
ATOM      6  C   UNL     1      25.188 -30.403  25.966  1.00  0.00     0.033 C 
ATOM      7  C   UNL     1      24.013 -29.940  26.856  1.00  0.00     0.119 C 
ATOM      8  C   UNL     1      24.539 -30.808  24.589  1.00  0.00    -0.017 C 
ATOM      9  C   UNL     1      22.868 -29.532  25.926  1.00  0.00     0.043 C 
ATOM     10  C   UNL     1      23.312 -29.810  24.463  1.00  0.00    -0.003 C 
ATOM     11  C   UNL     1      24.075 -32.312  24.539  1.00  0.00     0.012 C 
ATOM     12  C   UNL     1      25.554 -30.619  23.421  1.00  0.00     0.013 C 
ATOM     13  C   UNL     1      23.742 -28.433  23.866  1.00  0.00     0.017 C 
ATOM     14  C   UNL     1      22.120 -30.436  23.690  1.00  0.00    -0.064 C 
ATOM     15  C   UNL     1      22.609 -32.538  24.888  1.00  0.00     0.032 C 
ATOM     16  C   UNL     1      21.729 -31.717  23.959  1.00  0.00    -0.064 C 
ATOM     17  C   UNL     1      21.307 -29.655  22.675  1.00  0.00     0.032 C 
ATOM     18  C   UNL     1      20.321 -32.207  23.502  1.00  0.00    -0.008 C 
ATOM     19  C   UNL     1      20.941 -30.586  21.529  1.00  0.00     0.009 C 
ATOM     20  C   UNL     1      20.004 -31.747  21.998  1.00  0.00     0.009 C 
ATOM     21  C   UNL     1      19.309 -31.647  24.570  1.00  0.00     0.015 C 
ATOM     22  C   UNL     1      20.271 -33.765  23.527  1.00  0.00     0.016 C 
ATOM     23  C   UNL     1      18.446 -31.615  21.600  1.00  0.00     0.005 C 
ATOM     24  C   UNL     1      18.064 -30.957  24.018  1.00  0.00     0.047 C 
ATOM     25  C   UNL     1      17.489 -31.724  22.835  1.00  0.00     0.182 C 
ATOM     26  C   UNL     1      18.106 -30.276  20.878  1.00  0.00     0.015 C 
ATOM     27  C   UNL     1      18.071 -32.736  20.590  1.00  0.00     0.015 C 
BRANCH   7  28
ATOM     28  O   UNL     1      23.594 -30.967  27.721  1.00  0.00    -0.393 OA
ATOM     29  H   UNL     1      24.407 -31.479  27.972  1.00  0.00     0.210 HD
ENDBRANCH   7  28
BRANCH  25  30
ATOM     30  O   UNL     1      17.240 -33.086  23.199  1.00  0.00    -0.462 OA
BRANCH  30  31
ATOM     31  C   UNL     1      16.248 -33.483  24.104  1.00  0.00     0.302 C 
ATOM     32  O   UNL     1      16.544 -34.122  25.150  1.00  0.00    -0.253 OA
ATOM     33  C   UNL     1      14.824 -33.135  23.832  1.00  0.00     0.139 C 
ENDBRANCH  30  31
ENDBRANCH  25  30
ENDBRANCH   2   6
ENDBRANCH   1   2
BRANCH   1  34
ATOM     34  C   UNL     1      27.634 -31.788  28.789  1.00  0.00     0.031 C 
BRANCH  34  35
ATOM     35  C   UNL     1      28.385 -31.080  29.897  1.00  0.00    -0.075 C 
ATOM     36  C   UNL     1      27.710 -30.597  30.953  1.00  0.00     0.008 C 
BRANCH  35  37
ATOM     37  C   UNL     1      29.888 -30.873  29.759  1.00  0.00     0.008 C 
ATOM     38  C   UNL     1      30.650 -31.652  30.839  1.00  0.00     0.012 C 
ATOM     39  C   UNL     1      30.389 -31.242  28.359  1.00  0.00     0.012 C 
ENDBRANCH  35  37
ENDBRANCH  34  35
ENDBRANCH   1  34
TORSDOF 9
ENDMDL
MODEL 5
REMARK VINA RESULT:    -7.072      3.081     10.043
REMARK INTER + INTRA:         -11.419
REMARK INTER:                 -10.762
REMARK INTRA:                  -0.658
REMARK UNBOUND:                -0.833
REMARK SMILES C=C(CC[C@H](C(=O)[O-])[C@@H]1[C@H](O)C[C@]2(C)C3=C(CC[C@]12C)[C@@]1(C)CC[C@H](OC(C)=O)C(C)(C)[C@H]1CC3)C(C)C
REMARK SMILES IDX 4 1 5 2 6 3 7 4 8 5 9 6 10 7 19 8 12 9 13 10 18 11 20 12
REMARK SMILES IDX 14 13 15 14 17 15 16 16 35 17 21 18 34 19 33 20 23 21 22 22
REMARK SMILES IDX 30 23 24 24 25 25 31 26 32 27 11 28 26 30 27 31 29 32 28 33
REMARK SMILES IDX 3 34 2 35 1 36 36 37 37 38 38 39
REMARK H PARENT 11 29
REMARK Flexibility Score: inf
ROOT
ATOM      1  C   UNL     1      24.981 -29.469  28.672  1.00  0.00     0.014 C 
ENDROOT
BRANCH   1   2
ATOM      2  C   UNL     1      24.214 -29.264  27.330  1.00  0.00     0.042 C 
BRANCH   2   3
ATOM      3  C   UNL     1      24.452 -27.860  26.836  1.00  0.00     0.045 C 
ATOM      4  O   UNL     1      24.674 -27.647  25.615  1.00  0.00    -0.550 OA
ATOM      5  O   UNL     1      24.395 -26.787  27.715  1.00  0.00    -0.550 OA
ENDBRANCH   2   3
BRANCH   2   6
ATOM      6  C   UNL     1      22.676 -29.557  27.487  1.00  0.00     0.033 C 
ATOM      7  C   UNL     1      22.370 -30.904  28.177  1.00  0.00     0.119 C 
ATOM      8  C   UNL     1      21.749 -29.514  26.214  1.00  0.00    -0.017 C 
ATOM      9  C   UNL     1      20.981 -31.349  27.713  1.00  0.00     0.043 C 
ATOM     10  C   UNL     1      20.459 -30.310  26.683  1.00  0.00    -0.003 C 
ATOM     11  C   UNL     1      22.408 -30.169  24.943  1.00  0.00     0.012 C 
ATOM     12  C   UNL     1      21.405 -28.045  25.826  1.00  0.00     0.013 C 
ATOM     13  C   UNL     1      19.459 -29.393  27.454  1.00  0.00     0.017 C 
ATOM     14  C   UNL     1      19.775 -31.068  25.512  1.00  0.00    -0.064 C 
ATOM     15  C   UNL     1      22.043 -31.633  24.718  1.00  0.00     0.032 C 
ATOM     16  C   UNL     1      20.533 -31.774  24.621  1.00  0.00    -0.064 C 
ATOM     17  C   UNL     1      18.269 -31.119  25.345  1.00  0.00     0.032 C 
ATOM     18  C   UNL     1      19.856 -32.844  23.711  1.00  0.00    -0.008 C 
ATOM     19  C   UNL     1      17.944 -31.048  23.860  1.00  0.00     0.009 C 
ATOM     20  C   UNL     1      18.486 -32.294  23.086  1.00  0.00     0.009 C 
ATOM     21  C   UNL     1      19.682 -34.122  24.614  1.00  0.00     0.015 C 
ATOM     22  C   UNL     1      20.799 -33.194  22.519  1.00  0.00     0.016 C 
ATOM     23  C   UNL     1      17.393 -33.404  22.662  1.00  0.00     0.005 C 
ATOM     24  C   UNL     1      18.307 -34.784  24.582  1.00  0.00     0.047 C 
ATOM     25  C   UNL     1      17.757 -34.842  23.163  1.00  0.00     0.182 C 
ATOM     26  C   UNL     1      15.960 -33.089  23.189  1.00  0.00     0.015 C 
ATOM     27  C   UNL     1      17.265 -33.442  21.114  1.00  0.00     0.015 C 
BRANCH   7  28
ATOM     28  O   UNL     1      23.329 -31.877  27.842  1.00  0.00    -0.393 OA
ATOM     29  H   UNL     1      23.083 -32.702  28.337  1.00  0.00     0.210 HD
ENDBRANCH   7  28
BRANCH  25  30
ATOM     30  O   UNL     1      18.693 -35.489  22.294  1.00  0.00    -0.462 OA
BRANCH  30  31
ATOM     31  C   UNL     1      18.617 -36.839  21.932  1.00  0.00     0.302 C 
ATOM     32  O   UNL     1      19.112 -37.736  22.667  1.00  0.00    -0.253 OA
ATOM     33  C   UNL     1      17.932 -37.223  20.665  1.00  0.00     0.139 C 
ENDBRANCH  30  31
ENDBRANCH  25  30
ENDBRANCH   2   6
ENDBRANCH   1   2
BRANCH   1  34
ATOM     34  C   UNL     1      26.512 -29.532  28.508  1.00  0.00     0.031 C 
BRANCH  34  35
ATOM     35  C   UNL     1      27.114 -30.807  29.060  1.00  0.00    -0.075 C 
ATOM     36  C   UNL     1      27.088 -31.928  28.320  1.00  0.00     0.008 C 
BRANCH  35  37
ATOM     37  C   UNL     1      27.681 -30.808  30.474  1.00  0.00     0.008 C 
ATOM     38  C   UNL     1      29.164 -31.200  30.470  1.00  0.00     0.012 C 
ATOM     39  C   UNL     1      27.470 -29.461  31.174  1.00  0.00     0.012 C 
ENDBRANCH  35  37
ENDBRANCH  34  35
ENDBRANCH   1  34
TORSDOF 9
ENDMDL
MODEL 6
REMARK VINA RESULT:    -6.810      3.125     10.100
REMARK INTER + INTRA:         -11.027
REMARK INTER:                 -10.163
REMARK INTRA:                  -0.864
REMARK UNBOUND:                -0.833
REMARK SMILES C=C(CC[C@H](C(=O)[O-])[C@@H]1[C@H](O)C[C@]2(C)C3=C(CC[C@]12C)[C@@]1(C)CC[C@H](OC(C)=O)C(C)(C)[C@H]1CC3)C(C)C
REMARK SMILES IDX 4 1 5 2 6 3 7 4 8 5 9 6 10 7 19 8 12 9 13 10 18 11 20 12
REMARK SMILES IDX 14 13 15 14 17 15 16 16 35 17 21 18 34 19 33 20 23 21 22 22
REMARK SMILES IDX 30 23 24 24 25 25 31 26 32 27 11 28 26 30 27 31 29 32 28 33
REMARK SMILES IDX 3 34 2 35 1 36 36 37 37 38 38 39
REMARK H PARENT 11 29
REMARK Flexibility Score: inf
ROOT
ATOM      1  C   UNL     1      25.173 -28.864  28.550  1.00  0.00     0.014 C 
ENDROOT
BRANCH   1   2
ATOM      2  C   UNL     1      24.747 -30.003  27.574  1.00  0.00     0.042 C 
BRANCH   2   3
ATOM      3  C   UNL     1      25.955 -30.834  27.230  1.00  0.00     0.045 C 
ATOM      4  O   UNL     1      26.954 -30.304  26.675  1.00  0.00    -0.550 OA
ATOM      5  O   UNL     1      25.993 -32.185  27.550  1.00  0.00    -0.550 OA
ENDBRANCH   2   3
BRANCH   2   6
ATOM      6  C   UNL     1      24.063 -29.433  26.277  1.00  0.00     0.033 C 
ATOM      7  C   UNL     1      22.891 -28.470  26.568  1.00  0.00     0.119 C 
ATOM      8  C   UNL     1      23.525 -30.434  25.186  1.00  0.00    -0.017 C 
ATOM      9  C   UNL     1      21.961 -28.503  25.353  1.00  0.00     0.043 C 
ATOM     10  C   UNL     1      22.522 -29.539  24.341  1.00  0.00    -0.003 C 
ATOM     11  C   UNL     1      22.807 -31.695  25.797  1.00  0.00     0.012 C 
ATOM     12  C   UNL     1      24.691 -30.974  24.304  1.00  0.00     0.013 C 
ATOM     13  C   UNL     1      23.263 -28.720  23.239  1.00  0.00     0.017 C 
ATOM     14  C   UNL     1      21.340 -30.364  23.763  1.00  0.00    -0.064 C 
ATOM     15  C   UNL     1      21.293 -31.572  25.916  1.00  0.00     0.032 C 
ATOM     16  C   UNL     1      20.695 -31.277  24.549  1.00  0.00    -0.064 C 
ATOM     17  C   UNL     1      20.811 -30.153  22.357  1.00  0.00     0.032 C 
ATOM     18  C   UNL     1      19.288 -31.801  24.128  1.00  0.00    -0.008 C 
ATOM     19  C   UNL     1      20.426 -31.507  21.778  1.00  0.00     0.009 C 
ATOM     20  C   UNL     1      19.246 -32.163  22.566  1.00  0.00     0.009 C 
ATOM     21  C   UNL     1      18.271 -30.678  24.554  1.00  0.00     0.015 C 
ATOM     22  C   UNL     1      18.956 -33.107  24.913  1.00  0.00     0.016 C 
ATOM     23  C   UNL     1      17.797 -32.115  21.857  1.00  0.00     0.005 C 
ATOM     24  C   UNL     1      17.248 -30.264  23.499  1.00  0.00     0.047 C 
ATOM     25  C   UNL     1      16.692 -31.478  22.766  1.00  0.00     0.182 C 
ATOM     26  C   UNL     1      17.794 -31.322  20.515  1.00  0.00     0.015 C 
ATOM     27  C   UNL     1      17.353 -33.558  21.485  1.00  0.00     0.015 C 
BRANCH   7  28
ATOM     28  O   UNL     1      22.191 -28.854  27.726  1.00  0.00    -0.393 OA
ATOM     29  H   UNL     1      21.370 -29.322  27.422  1.00  0.00     0.210 HD
ENDBRANCH   7  28
BRANCH  25  30
ATOM     30  O   UNL     1      16.160 -32.423  23.701  1.00  0.00    -0.462 OA
BRANCH  30  31
ATOM     31  C   UNL     1      14.791 -32.625  23.912  1.00  0.00     0.302 C 
ATOM     32  O   UNL     1      14.375 -33.642  24.529  1.00  0.00    -0.253 OA
ATOM     33  C   UNL     1      13.813 -31.619  23.408  1.00  0.00     0.139 C 
ENDBRANCH  30  31
ENDBRANCH  25  30
ENDBRANCH   2   6
ENDBRANCH   1   2
BRANCH   1  34
ATOM     34  C   UNL     1      25.952 -29.363  29.783  1.00  0.00     0.031 C 
BRANCH  34  35
ATOM     35  C   UNL     1      27.391 -28.894  29.804  1.00  0.00    -0.075 C 
ATOM     36  C   UNL     1      27.710 -27.708  29.259  1.00  0.00     0.008 C 
BRANCH  35  37
ATOM     37  C   UNL     1      28.461 -29.808  30.388  1.00  0.00     0.008 C 
ATOM     38  C   UNL     1      27.928 -31.237  30.558  1.00  0.00     0.012 C 
ATOM     39  C   UNL     1      29.742 -29.796  29.548  1.00  0.00     0.012 C 
ENDBRANCH  35  37
ENDBRANCH  34  35
ENDBRANCH   1  34
TORSDOF 9
ENDMDL
MODEL 7
REMARK VINA RESULT:    -6.713      2.752      8.293
REMARK INTER + INTRA:         -10.882
REMARK INTER:                  -9.728
REMARK INTRA:                  -1.153
REMARK UNBOUND:                -0.833
REMARK SMILES C=C(CC[C@H](C(=O)[O-])[C@@H]1[C@H](O)C[C@]2(C)C3=C(CC[C@]12C)[C@@]1(C)CC[C@H](OC(C)=O)C(C)(C)[C@H]1CC3)C(C)C
REMARK SMILES IDX 4 1 5 2 6 3 7 4 8 5 9 6 10 7 19 8 12 9 13 10 18 11 20 12
REMARK SMILES IDX 14 13 15 14 17 15 16 16 35 17 21 18 34 19 33 20 23 21 22 22
REMARK SMILES IDX 30 23 24 24 25 25 31 26 32 27 11 28 26 30 27 31 29 32 28 33
REMARK SMILES IDX 3 34 2 35 1 36 36 37 37 38 38 39
REMARK H PARENT 11 29
REMARK Flexibility Score: inf
ROOT
ATOM      1  C   UNL     1      22.679 -26.333  23.920  1.00  0.00     0.014 C 
ENDROOT
BRANCH   1   2
ATOM      2  C   UNL     1      22.009 -27.459  24.766  1.00  0.00     0.042 C 
BRANCH   2   3
ATOM      3  C   UNL     1      22.105 -27.100  26.227  1.00  0.00     0.045 C 
ATOM      4  O   UNL     1      23.213 -26.777  26.730  1.00  0.00    -0.550 OA
ATOM      5  O   UNL     1      20.967 -27.091  27.023  1.00  0.00    -0.550 OA
ENDBRANCH   2   3
BRANCH   2   6
ATOM      6  C   UNL     1      22.657 -28.865  24.485  1.00  0.00     0.033 C 
ATOM      7  C   UNL     1      22.683 -29.244  22.988  1.00  0.00     0.119 C 
ATOM      8  C   UNL     1      22.101 -30.134  25.233  1.00  0.00    -0.017 C 
ATOM      9  C   UNL     1      22.719 -30.772  22.905  1.00  0.00     0.043 C 
ATOM     10  C   UNL     1      22.644 -31.337  24.351  1.00  0.00    -0.003 C 
ATOM     11  C   UNL     1      20.530 -30.154  25.342  1.00  0.00     0.012 C 
ATOM     12  C   UNL     1      22.646 -30.202  26.691  1.00  0.00     0.013 C 
ATOM     13  C   UNL     1      24.102 -31.732  24.743  1.00  0.00     0.017 C 
ATOM     14  C   UNL     1      21.683 -32.557  24.362  1.00  0.00    -0.064 C 
ATOM     15  C   UNL     1      19.825 -30.936  24.240  1.00  0.00     0.032 C 
ATOM     16  C   UNL     1      20.337 -32.368  24.220  1.00  0.00    -0.064 C 
ATOM     17  C   UNL     1      22.183 -33.986  24.457  1.00  0.00     0.032 C 
ATOM     18  C   UNL     1      19.426 -33.570  23.828  1.00  0.00    -0.008 C 
ATOM     19  C   UNL     1      21.216 -34.779  25.324  1.00  0.00     0.009 C 
ATOM     20  C   UNL     1      19.799 -34.882  24.671  1.00  0.00     0.009 C 
ATOM     21  C   UNL     1      19.591 -33.739  22.271  1.00  0.00     0.015 C 
ATOM     22  C   UNL     1      17.938 -33.228  24.142  1.00  0.00     0.016 C 
ATOM     23  C   UNL     1      19.423 -36.300  23.997  1.00  0.00     0.005 C 
ATOM     24  C   UNL     1      19.850 -35.159  21.774  1.00  0.00     0.047 C 
ATOM     25  C   UNL     1      18.971 -36.166  22.504  1.00  0.00     0.182 C 
ATOM     26  C   UNL     1      20.597 -37.326  24.026  1.00  0.00     0.015 C 
ATOM     27  C   UNL     1      18.271 -36.967  24.799  1.00  0.00     0.015 C 
BRANCH   7  28
ATOM     28  O   UNL     1      21.551 -28.748  22.317  1.00  0.00    -0.393 OA
ATOM     29  H   UNL     1      20.827 -28.678  22.992  1.00  0.00     0.210 HD
ENDBRANCH   7  28
BRANCH  25  30
ATOM     30  O   UNL     1      17.593 -35.793  22.395  1.00  0.00    -0.462 OA
BRANCH  30  31
ATOM     31  C   UNL     1      16.879 -35.789  21.191  1.00  0.00     0.302 C 
ATOM     32  O   UNL     1      16.989 -36.739  20.369  1.00  0.00    -0.253 OA
ATOM     33  C   UNL     1      15.968 -34.651  20.881  1.00  0.00     0.139 C 
ENDBRANCH  30  31
ENDBRANCH  25  30
ENDBRANCH   2   6
ENDBRANCH   1   2
BRANCH   1  34
ATOM     34  C   UNL     1      21.673 -25.352  23.286  1.00  0.00     0.031 C 
BRANCH  34  35
ATOM     35  C   UNL     1      21.661 -25.412  21.774  1.00  0.00    -0.075 C 
ATOM     36  C   UNL     1      20.488 -25.455  21.121  1.00  0.00     0.008 C 
BRANCH  35  37
ATOM     37  C   UNL     1      22.985 -25.488  21.024  1.00  0.00     0.008 C 
ATOM     38  C   UNL     1      22.957 -26.605  19.973  1.00  0.00     0.012 C 
ATOM     39  C   UNL     1      23.359 -24.145  20.389  1.00  0.00     0.012 C 
ENDBRANCH  35  37
ENDBRANCH  34  35
ENDBRANCH   1  34
TORSDOF 9
ENDMDL
MODEL 8
REMARK VINA RESULT:    -6.475      1.955      8.309
REMARK INTER + INTRA:         -10.525
REMARK INTER:                  -9.719
REMARK INTRA:                  -0.806
REMARK UNBOUND:                -0.833
REMARK SMILES C=C(CC[C@H](C(=O)[O-])[C@@H]1[C@H](O)C[C@]2(C)C3=C(CC[C@]12C)[C@@]1(C)CC[C@H](OC(C)=O)C(C)(C)[C@H]1CC3)C(C)C
REMARK SMILES IDX 4 1 5 2 6 3 7 4 8 5 9 6 10 7 19 8 12 9 13 10 18 11 20 12
REMARK SMILES IDX 14 13 15 14 17 15 16 16 35 17 21 18 34 19 33 20 23 21 22 22
REMARK SMILES IDX 30 23 24 24 25 25 31 26 32 27 11 28 26 30 27 31 29 32 28 33
REMARK SMILES IDX 3 34 2 35 1 36 36 37 37 38 38 39
REMARK H PARENT 11 29
REMARK Flexibility Score: inf
ROOT
ATOM      1  C   UNL     1      24.445 -30.417  25.579  1.00  0.00     0.014 C 
ENDROOT
BRANCH   1   2
ATOM      2  C   UNL     1      24.799 -31.931  25.691  1.00  0.00     0.042 C 
BRANCH   2   3
ATOM      3  C   UNL     1      26.298 -32.089  25.675  1.00  0.00     0.045 C 
ATOM      4  O   UNL     1      26.842 -33.049  26.281  1.00  0.00    -0.550 OA
ATOM      5  O   UNL     1      27.090 -31.196  24.964  1.00  0.00    -0.550 OA
ENDBRANCH   2   3
BRANCH   2   6
ATOM      6  C   UNL     1      24.128 -32.774  24.545  1.00  0.00     0.033 C 
ATOM      7  C   UNL     1      24.031 -32.022  23.200  1.00  0.00     0.119 C 
ATOM      8  C   UNL     1      22.702 -33.400  24.782  1.00  0.00    -0.017 C 
ATOM      9  C   UNL     1      22.866 -32.634  22.418  1.00  0.00     0.043 C 
ATOM     10  C   UNL     1      22.200 -33.716  23.310  1.00  0.00    -0.003 C 
ATOM     11  C   UNL     1      21.716 -32.433  25.539  1.00  0.00     0.012 C 
ATOM     12  C   UNL     1      22.800 -34.694  25.644  1.00  0.00     0.013 C 
ATOM     13  C   UNL     1      22.730 -35.093  22.800  1.00  0.00     0.017 C 
ATOM     14  C   UNL     1      20.658 -33.596  23.175  1.00  0.00    -0.064 C 
ATOM     15  C   UNL     1      20.809 -31.609  24.632  1.00  0.00     0.032 C 
ATOM     16  C   UNL     1      20.003 -32.536  23.736  1.00  0.00    -0.064 C 
ATOM     17  C   UNL     1      19.831 -34.584  22.374  1.00  0.00     0.032 C 
ATOM     18  C   UNL     1      18.555 -32.191  23.275  1.00  0.00    -0.008 C 
ATOM     19  C   UNL     1      18.513 -34.812  23.101  1.00  0.00     0.009 C 
ATOM     20  C   UNL     1      17.650 -33.510  23.162  1.00  0.00     0.009 C 
ATOM     21  C   UNL     1      18.715 -31.406  21.919  1.00  0.00     0.015 C 
ATOM     22  C   UNL     1      17.877 -31.255  24.322  1.00  0.00     0.016 C 
ATOM     23  C   UNL     1      16.393 -33.435  22.152  1.00  0.00     0.005 C 
ATOM     24  C   UNL     1      17.822 -31.863  20.769  1.00  0.00     0.047 C 
ATOM     25  C   UNL     1      16.408 -32.154  21.253  1.00  0.00     0.182 C 
ATOM     26  C   UNL     1      16.301 -34.661  21.193  1.00  0.00     0.015 C 
ATOM     27  C   UNL     1      15.070 -33.448  22.966  1.00  0.00     0.015 C 
BRANCH   7  28
ATOM     28  O   UNL     1      23.813 -30.647  23.399  1.00  0.00    -0.393 OA
ATOM     29  H   UNL     1      24.111 -30.441  24.324  1.00  0.00     0.210 HD
ENDBRANCH   7  28
BRANCH  25  30
ATOM     30  O   UNL     1      15.874 -31.015  21.938  1.00  0.00    -0.462 OA
BRANCH  30  31
ATOM     31  C   UNL     1      14.841 -30.216  21.435  1.00  0.00     0.302 C 
ATOM     32  O   UNL     1      14.957 -28.961  21.389  1.00  0.00    -0.253 OA
ATOM     33  C   UNL     1      13.591 -30.857  20.936  1.00  0.00     0.139 C 
ENDBRANCH  30  31
ENDBRANCH  25  30
ENDBRANCH   2   6
ENDBRANCH   1   2
BRANCH   1  34
ATOM     34  C   UNL     1      23.927 -29.801  26.894  1.00  0.00     0.031 C 
BRANCH  34  35
ATOM     35  C   UNL     1      22.552 -29.185  26.758  1.00  0.00    -0.075 C 
ATOM     36  C   UNL     1      22.285 -28.379  25.717  1.00  0.00     0.008 C 
BRANCH  35  37
ATOM     37  C   UNL     1      21.513 -29.441  27.844  1.00  0.00     0.008 C 
ATOM     38  C   UNL     1      20.091 -29.293  27.288  1.00  0.00     0.012 C 
ATOM     39  C   UNL     1      21.706 -30.809  28.505  1.00  0.00     0.012 C 
ENDBRANCH  35  37
ENDBRANCH  34  35
ENDBRANCH   1  34
TORSDOF 9
ENDMDL
MODEL 9
REMARK VINA RESULT:    -6.472      2.960      5.248
REMARK INTER + INTRA:         -10.521
REMARK INTER:                  -9.808
REMARK INTRA:                  -0.712
REMARK UNBOUND:                -0.833
REMARK SMILES C=C(CC[C@H](C(=O)[O-])[C@@H]1[C@H](O)C[C@]2(C)C3=C(CC[C@]12C)[C@@]1(C)CC[C@H](OC(C)=O)C(C)(C)[C@H]1CC3)C(C)C
REMARK SMILES IDX 4 1 5 2 6 3 7 4 8 5 9 6 10 7 19 8 12 9 13 10 18 11 20 12
REMARK SMILES IDX 14 13 15 14 17 15 16 16 35 17 21 18 34 19 33 20 23 21 22 22
REMARK SMILES IDX 30 23 24 24 25 25 31 26 32 27 11 28 26 30 27 31 29 32 28 33
REMARK SMILES IDX 3 34 2 35 1 36 36 37 37 38 38 39
REMARK H PARENT 11 29
REMARK Flexibility Score: inf
ROOT
ATOM      1  C   UNL     1      16.541 -32.248  21.170  1.00  0.00     0.014 C 
ENDROOT
BRANCH   1   2
ATOM      2  C   UNL     1      16.802 -32.568  22.673  1.00  0.00     0.042 C 
BRANCH   2   3
ATOM      3  C   UNL     1      15.544 -32.305  23.458  1.00  0.00     0.045 C 
ATOM      4  O   UNL     1      15.134 -31.126  23.625  1.00  0.00    -0.550 OA
ATOM      5  O   UNL     1      14.806 -33.362  23.977  1.00  0.00    -0.550 OA
ENDBRANCH   2   3
BRANCH   2   6
ATOM      6  C   UNL     1      18.011 -31.738  23.245  1.00  0.00     0.033 C 
ATOM      7  C   UNL     1      18.881 -31.080  22.152  1.00  0.00     0.119 C 
ATOM      8  C   UNL     1      19.025 -32.431  24.231  1.00  0.00    -0.017 C 
ATOM      9  C   UNL     1      20.279 -30.877  22.742  1.00  0.00     0.043 C 
ATOM     10  C   UNL     1      20.290 -31.474  24.176  1.00  0.00    -0.003 C 
ATOM     11  C   UNL     1      19.390 -33.905  23.813  1.00  0.00     0.012 C 
ATOM     12  C   UNL     1      18.431 -32.514  25.669  1.00  0.00     0.013 C 
ATOM     13  C   UNL     1      20.148 -30.268  25.155  1.00  0.00     0.017 C 
ATOM     14  C   UNL     1      21.621 -32.245  24.386  1.00  0.00    -0.064 C 
ATOM     15  C   UNL     1      20.662 -34.036  22.983  1.00  0.00     0.032 C 
ATOM     16  C   UNL     1      21.832 -33.432  23.742  1.00  0.00    -0.064 C 
ATOM     17  C   UNL     1      22.752 -31.699  25.236  1.00  0.00     0.032 C 
ATOM     18  C   UNL     1      23.280 -33.997  23.621  1.00  0.00    -0.008 C 
ATOM     19  C   UNL     1      23.396 -32.857  25.986  1.00  0.00     0.009 C 
ATOM     20  C   UNL     1      24.070 -33.878  25.011  1.00  0.00     0.009 C 
ATOM     21  C   UNL     1      23.947 -33.207  22.434  1.00  0.00     0.015 C 
ATOM     22  C   UNL     1      23.226 -35.511  23.251  1.00  0.00     0.016 C 
ATOM     23  C   UNL     1      25.681 -33.823  24.920  1.00  0.00     0.005 C 
ATOM     24  C   UNL     1      25.341 -32.644  22.702  1.00  0.00     0.047 C 
ATOM     25  C   UNL     1      26.204 -33.648  23.455  1.00  0.00     0.182 C 
ATOM     26  C   UNL     1      26.307 -32.673  25.766  1.00  0.00     0.015 C 
ATOM     27  C   UNL     1      26.279 -35.135  25.500  1.00  0.00     0.015 C 
BRANCH   7  28
ATOM     28  O   UNL     1      18.951 -31.886  21.002  1.00  0.00    -0.393 OA
ATOM     29  H   UNL     1      18.626 -32.787  21.265  1.00  0.00     0.210 HD
ENDBRANCH   7  28
BRANCH  25  30
ATOM     30  O   UNL     1      26.246 -34.893  22.750  1.00  0.00    -0.462 OA
BRANCH  30  31
ATOM     31  C   UNL     1      27.337 -35.322  21.986  1.00  0.00     0.302 C 
ATOM     32  O   UNL     1      27.167 -35.971  20.919  1.00  0.00    -0.253 OA
ATOM     33  C   UNL     1      28.721 -34.996  22.435  1.00  0.00     0.139 C 
ENDBRANCH  30  31
ENDBRANCH  25  30
ENDBRANCH   2   6
ENDBRANCH   1   2
BRANCH   1  34
ATOM     34  C   UNL     1      15.784 -33.362  20.421  1.00  0.00     0.031 C 
BRANCH  34  35
ATOM     35  C   UNL     1      16.706 -34.339  19.723  1.00  0.00    -0.075 C 
ATOM     36  C   UNL     1      17.430 -33.931  18.668  1.00  0.00     0.008 C 
BRANCH  35  37
ATOM     37  C   UNL     1      16.746 -35.787  20.196  1.00  0.00     0.008 C 
ATOM     38  C   UNL     1      17.264 -36.712  19.087  1.00  0.00     0.012 C 
ATOM     39  C   UNL     1      17.573 -35.947  21.476  1.00  0.00     0.012 C 
ENDBRANCH  35  37
ENDBRANCH  34  35
ENDBRANCH   1  34
TORSDOF 9
ENDMDL
