MODEL 1
REMARK VINA RESULT:    -6.073      0.000      0.000
REMARK INTER + INTRA:          -7.851
REMARK INTER:                  -7.494
REMARK INTRA:                  -0.357
REMARK UNBOUND:                -0.357
REMARK SMILES O=c1c(O)c(-c2cc(O)c(O)c(O)c2)oc2cc(O)cc(O)c12
REMARK SMILES IDX 5 1 3 2 2 3 1 4 23 5 21 6 20 7 18 8 17 9 16 10 15 11 6 12
REMARK SMILES IDX 7 13 8 14 14 15 10 16 12 17 9 18 11 20 13 22 4 24 22 26
REMARK SMILES IDX 19 28
REMARK H PARENT 9 19 11 21 13 23 4 25 22 27 19 29
REMARK Flexibility Score: inf
ROOT
ATOM      1  C   UNL     1    -108.106 -25.117 -11.878  1.00  0.00     0.180 A 
ATOM      2  C   UNL     1    -109.049 -24.342 -11.176  1.00  0.00     0.208 A 
ATOM      3  C   UNL     1    -109.029 -24.355  -9.773  1.00  0.00     0.238 A 
ATOM      4  O   UNL     1    -109.862 -23.656  -9.134  1.00  0.00    -0.285 OA
ATOM      5  C   UNL     1    -108.084 -25.154  -9.097  1.00  0.00     0.111 A 
ATOM      6  C   UNL     1    -108.000 -25.226  -7.685  1.00  0.00     0.134 A 
ATOM      7  C   UNL     1    -107.037 -26.053  -7.088  1.00  0.00     0.093 A 
ATOM      8  C   UNL     1    -106.160 -26.807  -7.870  1.00  0.00     0.123 A 
ATOM      9  C   UNL     1    -106.238 -26.739  -9.265  1.00  0.00     0.094 A 
ATOM     10  C   UNL     1    -107.190 -25.920  -9.881  1.00  0.00     0.146 A 
ATOM     11  O   UNL     1    -107.239 -25.870 -11.206  1.00  0.00    -0.452 OA
ENDROOT
BRANCH   1  12
ATOM     12  C   UNL     1    -108.051 -25.141 -13.357  1.00  0.00     0.029 A 
ATOM     13  C   UNL     1    -107.379 -24.145 -14.080  1.00  0.00     0.062 A 
ATOM     14  C   UNL     1    -107.317 -24.194 -15.476  1.00  0.00     0.162 A 
ATOM     15  C   UNL     1    -108.633 -26.212 -14.052  1.00  0.00     0.062 A 
ATOM     16  C   UNL     1    -107.922 -25.256 -16.174  1.00  0.00     0.200 A 
ATOM     17  C   UNL     1    -108.581 -26.278 -15.448  1.00  0.00     0.162 A 
BRANCH  14  18
ATOM     18  O   UNL     1    -106.644 -23.177 -16.152  1.00  0.00    -0.504 OA
ATOM     19  H   UNL     1    -106.103 -22.471 -15.668  1.00  0.00     0.293 HD
ENDBRANCH  14  18
BRANCH  16  20
ATOM     20  O   UNL     1    -107.844 -25.264 -17.570  1.00  0.00    -0.502 OA
ATOM     21  H   UNL     1    -108.612 -25.503 -18.179  1.00  0.00     0.293 HD
ENDBRANCH  16  20
BRANCH  17  22
ATOM     22  O   UNL     1    -109.193 -27.370 -16.069  1.00  0.00    -0.504 OA
ATOM     23  H   UNL     1    -109.380 -28.250 -15.613  1.00  0.00     0.293 HD
ENDBRANCH  17  22
ENDBRANCH   1  12
BRANCH   2  24
ATOM     24  O   UNL     1    -110.006 -23.597 -11.870  1.00  0.00    -0.502 OA
ATOM     25  H   UNL     1    -110.850 -23.252 -11.429  1.00  0.00     0.293 HD
ENDBRANCH   2  24
BRANCH   6  26
ATOM     26  O   UNL     1    -108.862 -24.486  -6.876  1.00  0.00    -0.507 OA
ATOM     27  H   UNL     1    -108.753 -24.455  -5.868  1.00  0.00     0.293 HD
ENDBRANCH   6  26
BRANCH   8  28
ATOM     28  O   UNL     1    -105.213 -27.621  -7.251  1.00  0.00    -0.508 OA
ATOM     29  H   UNL     1    -104.220 -27.448  -7.351  1.00  0.00     0.293 HD
ENDBRANCH   8  28
TORSDOF 7
ENDMDL
MODEL 2
REMARK VINA RESULT:    -5.816      3.287      5.348
REMARK INTER + INTRA:          -7.533
REMARK INTER:                  -7.313
REMARK INTRA:                  -0.220
REMARK UNBOUND:                -0.357
REMARK SMILES O=c1c(O)c(-c2cc(O)c(O)c(O)c2)oc2cc(O)cc(O)c12
REMARK SMILES IDX 5 1 3 2 2 3 1 4 23 5 21 6 20 7 18 8 17 9 16 10 15 11 6 12
REMARK SMILES IDX 7 13 8 14 14 15 10 16 12 17 9 18 11 20 13 22 4 24 22 26
REMARK SMILES IDX 19 28
REMARK H PARENT 9 19 11 21 13 23 4 25 22 27 19 29
REMARK Flexibility Score: inf
ROOT
ATOM      1  C   UNL     1    -107.801 -24.591 -16.456  1.00  0.00     0.180 A 
ATOM      2  C   UNL     1    -107.298 -23.820 -15.389  1.00  0.00     0.208 A 
ATOM      3  C   UNL     1    -107.122 -24.428 -14.138  1.00  0.00     0.238 A 
ATOM      4  O   UNL     1    -106.662 -23.750 -13.178  1.00  0.00    -0.285 OA
ATOM      5  C   UNL     1    -107.468 -25.784 -13.966  1.00  0.00     0.111 A 
ATOM      6  C   UNL     1    -107.324 -26.470 -12.735  1.00  0.00     0.134 A 
ATOM      7  C   UNL     1    -107.700 -27.818 -12.643  1.00  0.00     0.093 A 
ATOM      8  C   UNL     1    -108.216 -28.493 -13.752  1.00  0.00     0.123 A 
ATOM      9  C   UNL     1    -108.359 -27.820 -14.970  1.00  0.00     0.094 A 
ATOM     10  C   UNL     1    -107.989 -26.476 -15.084  1.00  0.00     0.146 A 
ATOM     11  O   UNL     1    -108.130 -25.863 -16.253  1.00  0.00    -0.452 OA
ENDROOT
BRANCH   1  12
ATOM     12  C   UNL     1    -107.998 -24.026 -17.810  1.00  0.00     0.029 A 
ATOM     13  C   UNL     1    -108.956 -23.031 -18.055  1.00  0.00     0.062 A 
ATOM     14  C   UNL     1    -109.113 -22.492 -19.335  1.00  0.00     0.162 A 
ATOM     15  C   UNL     1    -107.172 -24.450 -18.861  1.00  0.00     0.062 A 
ATOM     16  C   UNL     1    -108.300 -22.935 -20.395  1.00  0.00     0.200 A 
ATOM     17  C   UNL     1    -107.315 -23.922 -20.148  1.00  0.00     0.162 A 
BRANCH  14  18
ATOM     18  O   UNL     1    -110.083 -21.510 -19.533  1.00  0.00    -0.504 OA
ATOM     19  H   UNL     1    -110.506 -21.005 -18.764  1.00  0.00     0.293 HD
ENDBRANCH  14  18
BRANCH  16  20
ATOM     20  O   UNL     1    -108.495 -22.377 -21.662  1.00  0.00    -0.502 OA
ATOM     21  H   UNL     1    -108.904 -22.869 -22.441  1.00  0.00     0.293 HD
ENDBRANCH  16  20
BRANCH  17  22
ATOM     22  O   UNL     1    -106.462 -24.403 -21.145  1.00  0.00    -0.504 OA
ATOM     23  H   UNL     1    -105.749 -25.100 -20.993  1.00  0.00     0.293 HD
ENDBRANCH  17  22
ENDBRANCH   1  12
BRANCH   2  24
ATOM     24  O   UNL     1    -107.010 -22.465 -15.573  1.00  0.00    -0.502 OA
ATOM     25  H   UNL     1    -107.222 -21.977 -16.435  1.00  0.00     0.293 HD
ENDBRANCH   2  24
BRANCH   6  26
ATOM     26  O   UNL     1    -106.813 -25.825 -11.608  1.00  0.00    -0.507 OA
ATOM     27  H   UNL     1    -106.175 -25.040 -11.687  1.00  0.00     0.293 HD
ENDBRANCH   6  26
BRANCH   8  28
ATOM     28  O   UNL     1    -108.582 -29.832 -13.633  1.00  0.00    -0.508 OA
ATOM     29  H   UNL     1    -109.320 -30.125 -13.005  1.00  0.00     0.293 HD
ENDBRANCH   8  28
TORSDOF 7
ENDMDL
MODEL 3
REMARK VINA RESULT:    -5.564      4.238      9.814
REMARK INTER + INTRA:          -7.222
REMARK INTER:                  -6.897
REMARK INTRA:                  -0.325
REMARK UNBOUND:                -0.357
REMARK SMILES O=c1c(O)c(-c2cc(O)c(O)c(O)c2)oc2cc(O)cc(O)c12
REMARK SMILES IDX 5 1 3 2 2 3 1 4 23 5 21 6 20 7 18 8 17 9 16 10 15 11 6 12
REMARK SMILES IDX 7 13 8 14 14 15 10 16 12 17 9 18 11 20 13 22 4 24 22 26
REMARK SMILES IDX 19 28
REMARK H PARENT 9 19 11 21 13 23 4 25 22 27 19 29
REMARK Flexibility Score: inf
ROOT
ATOM      1  C   UNL     1    -108.145 -23.581 -18.032  1.00  0.00     0.180 A 
ATOM      2  C   UNL     1    -107.433 -24.109 -19.126  1.00  0.00     0.208 A 
ATOM      3  C   UNL     1    -107.627 -23.548 -20.397  1.00  0.00     0.238 A 
ATOM      4  O   UNL     1    -106.987 -24.006 -21.383  1.00  0.00    -0.285 OA
ATOM      5  C   UNL     1    -108.541 -22.486 -20.558  1.00  0.00     0.111 A 
ATOM      6  C   UNL     1    -108.797 -21.867 -21.806  1.00  0.00     0.134 A 
ATOM      7  C   UNL     1    -109.728 -20.821 -21.885  1.00  0.00     0.093 A 
ATOM      8  C   UNL     1    -110.406 -20.382 -20.745  1.00  0.00     0.123 A 
ATOM      9  C   UNL     1    -110.156 -20.990 -19.510  1.00  0.00     0.094 A 
ATOM     10  C   UNL     1    -109.231 -22.033 -19.410  1.00  0.00     0.146 A 
ATOM     11  O   UNL     1    -109.009 -22.588 -18.224  1.00  0.00    -0.452 OA
ENDROOT
BRANCH   1  12
ATOM     12  C   UNL     1    -107.981 -24.107 -16.658  1.00  0.00     0.029 A 
ATOM     13  C   UNL     1    -107.209 -23.428 -15.704  1.00  0.00     0.062 A 
ATOM     14  C   UNL     1    -107.083 -23.925 -14.403  1.00  0.00     0.162 A 
ATOM     15  C   UNL     1    -108.656 -25.277 -16.282  1.00  0.00     0.062 A 
ATOM     16  C   UNL     1    -107.741 -25.113 -14.032  1.00  0.00     0.200 A 
ATOM     17  C   UNL     1    -108.540 -25.790 -14.985  1.00  0.00     0.162 A 
BRANCH  14  18
ATOM     18  O   UNL     1    -106.299 -23.220 -13.490  1.00  0.00    -0.504 OA
ATOM     19  H   UNL     1    -105.315 -23.419 -13.355  1.00  0.00     0.293 HD
ENDBRANCH  14  18
BRANCH  16  20
ATOM     20  O   UNL     1    -107.581 -25.581 -12.725  1.00  0.00    -0.502 OA
ATOM     21  H   UNL     1    -106.982 -25.150 -12.038  1.00  0.00     0.293 HD
ENDBRANCH  16  20
BRANCH  17  22
ATOM     22  O   UNL     1    -109.234 -26.966 -14.689  1.00  0.00    -0.504 OA
ATOM     23  H   UNL     1    -110.238 -27.059 -14.734  1.00  0.00     0.293 HD
ENDBRANCH  17  22
ENDBRANCH   1  12
BRANCH   2  24
ATOM     24  O   UNL     1    -106.572 -25.195 -18.949  1.00  0.00    -0.502 OA
ATOM     25  H   UNL     1    -106.025 -25.322 -18.105  1.00  0.00     0.293 HD
ENDBRANCH   2  24
BRANCH   6  26
ATOM     26  O   UNL     1    -108.136 -22.283 -22.963  1.00  0.00    -0.507 OA
ATOM     27  H   UNL     1    -108.643 -22.546 -23.801  1.00  0.00     0.293 HD
ENDBRANCH   6  26
BRANCH   8  28
ATOM     28  O   UNL     1    -111.327 -19.342 -20.852  1.00  0.00    -0.508 OA
ATOM     29  H   UNL     1    -112.207 -19.360 -20.350  1.00  0.00     0.293 HD
ENDBRANCH   8  28
TORSDOF 7
ENDMDL
MODEL 4
REMARK VINA RESULT:    -5.562      4.244      9.968
REMARK INTER + INTRA:          -7.220
REMARK INTER:                  -6.925
REMARK INTRA:                  -0.295
REMARK UNBOUND:                -0.357
REMARK SMILES O=c1c(O)c(-c2cc(O)c(O)c(O)c2)oc2cc(O)cc(O)c12
REMARK SMILES IDX 5 1 3 2 2 3 1 4 23 5 21 6 20 7 18 8 17 9 16 10 15 11 6 12
REMARK SMILES IDX 7 13 8 14 14 15 10 16 12 17 9 18 11 20 13 22 4 24 22 26
REMARK SMILES IDX 19 28
REMARK H PARENT 9 19 11 21 13 23 4 25 22 27 19 29
REMARK Flexibility Score: inf
ROOT
ATOM      1  C   UNL     1    -108.165 -23.592 -18.043  1.00  0.00     0.180 A 
ATOM      2  C   UNL     1    -107.444 -24.115 -19.134  1.00  0.00     0.208 A 
ATOM      3  C   UNL     1    -107.615 -23.537 -20.400  1.00  0.00     0.238 A 
ATOM      4  O   UNL     1    -106.967 -23.991 -21.383  1.00  0.00    -0.285 OA
ATOM      5  C   UNL     1    -108.515 -22.463 -20.561  1.00  0.00     0.111 A 
ATOM      6  C   UNL     1    -108.748 -21.827 -21.805  1.00  0.00     0.134 A 
ATOM      7  C   UNL     1    -109.667 -20.771 -21.884  1.00  0.00     0.093 A 
ATOM      8  C   UNL     1    -110.356 -20.338 -20.748  1.00  0.00     0.123 A 
ATOM      9  C   UNL     1    -110.128 -20.962 -19.517  1.00  0.00     0.094 A 
ATOM     10  C   UNL     1    -109.216 -22.016 -19.417  1.00  0.00     0.146 A 
ATOM     11  O   UNL     1    -109.015 -22.587 -18.235  1.00  0.00    -0.452 OA
ENDROOT
BRANCH   1  12
ATOM     12  C   UNL     1    -108.024 -24.135 -16.673  1.00  0.00     0.029 A 
ATOM     13  C   UNL     1    -108.599 -25.362 -16.311  1.00  0.00     0.062 A 
ATOM     14  C   UNL     1    -108.437 -25.873 -15.020  1.00  0.00     0.162 A 
ATOM     15  C   UNL     1    -107.252 -23.440 -15.732  1.00  0.00     0.062 A 
ATOM     16  C   UNL     1    -107.682 -25.163 -14.067  1.00  0.00     0.200 A 
ATOM     17  C   UNL     1    -107.080 -23.935 -14.434  1.00  0.00     0.162 A 
BRANCH  14  18
ATOM     18  O   UNL     1    -109.033 -27.093 -14.703  1.00  0.00    -0.504 OA
ATOM     19  H   UNL     1    -108.662 -27.978 -15.030  1.00  0.00     0.293 HD
ENDBRANCH  14  18
BRANCH  16  20
ATOM     20  O   UNL     1    -107.552 -25.704 -12.785  1.00  0.00    -0.502 OA
ATOM     21  H   UNL     1    -107.496 -26.692 -12.590  1.00  0.00     0.293 HD
ENDBRANCH  16  20
BRANCH  17  22
ATOM     22  O   UNL     1    -106.306 -23.181 -13.549  1.00  0.00    -0.504 OA
ATOM     23  H   UNL     1    -105.300 -23.109 -13.594  1.00  0.00     0.293 HD
ENDBRANCH  17  22
ENDBRANCH   1  12
BRANCH   2  24
ATOM     24  O   UNL     1    -106.596 -25.212 -18.958  1.00  0.00    -0.502 OA
ATOM     25  H   UNL     1    -106.792 -25.948 -18.290  1.00  0.00     0.293 HD
ENDBRANCH   2  24
BRANCH   6  26
ATOM     26  O   UNL     1    -108.077 -22.237 -22.958  1.00  0.00    -0.507 OA
ATOM     27  H   UNL     1    -107.867 -21.591 -23.711  1.00  0.00     0.293 HD
ENDBRANCH   6  26
BRANCH   8  28
ATOM     28  O   UNL     1    -111.263 -19.286 -20.855  1.00  0.00    -0.508 OA
ATOM     29  H   UNL     1    -111.441 -18.828 -21.741  1.00  0.00     0.293 HD
ENDBRANCH   8  28
TORSDOF 7
ENDMDL
MODEL 5
REMARK VINA RESULT:    -5.495      1.435      7.165
REMARK INTER + INTRA:          -7.137
REMARK INTER:                  -6.892
REMARK INTRA:                  -0.245
REMARK UNBOUND:                -0.357
REMARK SMILES O=c1c(O)c(-c2cc(O)c(O)c(O)c2)oc2cc(O)cc(O)c12
REMARK SMILES IDX 5 1 3 2 2 3 1 4 23 5 21 6 20 7 18 8 17 9 16 10 15 11 6 12
REMARK SMILES IDX 7 13 8 14 14 15 10 16 12 17 9 18 11 20 13 22 4 24 22 26
REMARK SMILES IDX 19 28
REMARK H PARENT 9 19 11 21 13 23 4 25 22 27 19 29
REMARK Flexibility Score: inf
ROOT
ATOM      1  C   UNL     1    -107.904 -25.775 -12.436  1.00  0.00     0.180 A 
ATOM      2  C   UNL     1    -108.733 -26.774 -12.980  1.00  0.00     0.208 A 
ATOM      3  C   UNL     1    -109.050 -26.723 -14.345  1.00  0.00     0.238 A 
ATOM      4  O   UNL     1    -109.784 -27.619 -14.847  1.00  0.00    -0.285 OA
ATOM      5  C   UNL     1    -108.553 -25.668 -15.138  1.00  0.00     0.111 A 
ATOM      6  C   UNL     1    -108.829 -25.542 -16.521  1.00  0.00     0.134 A 
ATOM      7  C   UNL     1    -108.304 -24.457 -17.239  1.00  0.00     0.093 A 
ATOM      8  C   UNL     1    -107.512 -23.498 -16.604  1.00  0.00     0.123 A 
ATOM      9  C   UNL     1    -107.235 -23.619 -15.238  1.00  0.00     0.094 A 
ATOM     10  C   UNL     1    -107.748 -24.694 -14.504  1.00  0.00     0.146 A 
ATOM     11  O   UNL     1    -107.465 -24.787 -13.210  1.00  0.00    -0.452 OA
ENDROOT
BRANCH   1  12
ATOM     12  C   UNL     1    -107.510 -25.770 -11.009  1.00  0.00     0.029 A 
ATOM     13  C   UNL     1    -108.029 -24.827 -10.110  1.00  0.00     0.062 A 
ATOM     14  C   UNL     1    -107.665 -24.851  -8.760  1.00  0.00     0.162 A 
ATOM     15  C   UNL     1    -106.644 -26.763 -10.529  1.00  0.00     0.062 A 
ATOM     16  C   UNL     1    -106.777 -25.834  -8.284  1.00  0.00     0.200 A 
ATOM     17  C   UNL     1    -106.267 -26.803  -9.182  1.00  0.00     0.162 A 
BRANCH  14  18
ATOM     18  O   UNL     1    -108.201 -23.889  -7.905  1.00  0.00    -0.504 OA
ATOM     19  H   UNL     1    -108.141 -22.897  -8.101  1.00  0.00     0.293 HD
ENDBRANCH  14  18
BRANCH  16  20
ATOM     20  O   UNL     1    -106.431 -25.817  -6.930  1.00  0.00    -0.502 OA
ATOM     21  H   UNL     1    -105.485 -25.737  -6.587  1.00  0.00     0.293 HD
ENDBRANCH  16  20
BRANCH  17  22
ATOM     22  O   UNL     1    -105.392 -27.816  -8.782  1.00  0.00    -0.504 OA
ATOM     23  H   UNL     1    -105.628 -28.797  -8.773  1.00  0.00     0.293 HD
ENDBRANCH  17  22
ENDBRANCH   1  12
BRANCH   2  24
ATOM     24  O   UNL     1    -109.253 -27.781 -12.163  1.00  0.00    -0.502 OA
ATOM     25  H   UNL     1    -109.638 -28.640 -12.538  1.00  0.00     0.293 HD
ENDBRANCH   2  24
BRANCH   6  26
ATOM     26  O   UNL     1    -109.619 -26.482 -17.185  1.00  0.00    -0.507 OA
ATOM     27  H   UNL     1    -109.922 -27.337 -16.733  1.00  0.00     0.293 HD
ENDBRANCH   6  26
BRANCH   8  28
ATOM     28  O   UNL     1    -107.003 -22.430 -17.339  1.00  0.00    -0.508 OA
ATOM     29  H   UNL     1    -107.594 -21.663 -17.637  1.00  0.00     0.293 HD
ENDBRANCH   8  28
TORSDOF 7
ENDMDL
MODEL 6
REMARK VINA RESULT:    -5.401      2.023      3.210
REMARK INTER + INTRA:          -7.020
REMARK INTER:                  -6.675
REMARK INTRA:                  -0.346
REMARK UNBOUND:                -0.357
REMARK SMILES O=c1c(O)c(-c2cc(O)c(O)c(O)c2)oc2cc(O)cc(O)c12
REMARK SMILES IDX 5 1 3 2 2 3 1 4 23 5 21 6 20 7 18 8 17 9 16 10 15 11 6 12
REMARK SMILES IDX 7 13 8 14 14 15 10 16 12 17 9 18 11 20 13 22 4 24 22 26
REMARK SMILES IDX 19 28
REMARK H PARENT 9 19 11 21 13 23 4 25 22 27 19 29
REMARK Flexibility Score: inf
ROOT
ATOM      1  C   UNL     1    -107.926 -26.189 -12.364  1.00  0.00     0.180 A 
ATOM      2  C   UNL     1    -108.190 -27.560 -12.547  1.00  0.00     0.208 A 
ATOM      3  C   UNL     1    -107.873 -28.456 -11.515  1.00  0.00     0.238 A 
ATOM      4  O   UNL     1    -108.114 -29.685 -11.664  1.00  0.00    -0.285 OA
ATOM      5  C   UNL     1    -107.282 -27.973 -10.329  1.00  0.00     0.111 A 
ATOM      6  C   UNL     1    -106.929 -28.810  -9.243  1.00  0.00     0.134 A 
ATOM      7  C   UNL     1    -106.336 -28.253  -8.100  1.00  0.00     0.093 A 
ATOM      8  C   UNL     1    -106.089 -26.881  -8.021  1.00  0.00     0.123 A 
ATOM      9  C   UNL     1    -106.437 -26.050  -9.091  1.00  0.00     0.094 A 
ATOM     10  C   UNL     1    -107.030 -26.584 -10.239  1.00  0.00     0.146 A 
ATOM     11  O   UNL     1    -107.355 -25.772 -11.238  1.00  0.00    -0.452 OA
ENDROOT
BRANCH   1  12
ATOM     12  C   UNL     1    -108.249 -25.181 -13.398  1.00  0.00     0.029 A 
ATOM     13  C   UNL     1    -107.289 -24.754 -14.327  1.00  0.00     0.062 A 
ATOM     14  C   UNL     1    -107.616 -23.818 -15.313  1.00  0.00     0.162 A 
ATOM     15  C   UNL     1    -109.556 -24.682 -13.491  1.00  0.00     0.062 A 
ATOM     16  C   UNL     1    -108.922 -23.299 -15.391  1.00  0.00     0.200 A 
ATOM     17  C   UNL     1    -109.902 -23.744 -14.471  1.00  0.00     0.162 A 
BRANCH  14  18
ATOM     18  O   UNL     1    -106.627 -23.417 -16.210  1.00  0.00    -0.504 OA
ATOM     19  H   UNL     1    -106.273 -24.031 -16.935  1.00  0.00     0.293 HD
ENDBRANCH  14  18
BRANCH  16  20
ATOM     20  O   UNL     1    -109.206 -22.359 -16.385  1.00  0.00    -0.502 OA
ATOM     21  H   UNL     1    -108.756 -22.335 -17.288  1.00  0.00     0.293 HD
ENDBRANCH  16  20
BRANCH  17  22
ATOM     22  O   UNL     1    -111.222 -23.286 -14.493  1.00  0.00    -0.504 OA
ATOM     23  H   UNL     1    -112.016 -23.829 -14.188  1.00  0.00     0.293 HD
ENDBRANCH  17  22
ENDBRANCH   1  12
BRANCH   2  24
ATOM     24  O   UNL     1    -108.730 -28.020 -13.751  1.00  0.00    -0.502 OA
ATOM     25  H   UNL     1    -108.755 -29.003 -13.995  1.00  0.00     0.293 HD
ENDBRANCH   2  24
BRANCH   6  26
ATOM     26  O   UNL     1    -107.162 -30.185  -9.291  1.00  0.00    -0.507 OA
ATOM     27  H   UNL     1    -107.925 -30.578  -9.830  1.00  0.00     0.293 HD
ENDBRANCH   6  26
BRANCH   8  28
ATOM     28  O   UNL     1    -105.499 -26.353  -6.875  1.00  0.00    -0.508 OA
ATOM     29  H   UNL     1    -105.311 -25.362  -6.785  1.00  0.00     0.293 HD
ENDBRANCH   8  28
TORSDOF 7
ENDMDL
MODEL 7
REMARK VINA RESULT:    -5.368      1.601      7.198
REMARK INTER + INTRA:          -6.980
REMARK INTER:                  -6.615
REMARK INTRA:                  -0.366
REMARK UNBOUND:                -0.357
REMARK SMILES O=c1c(O)c(-c2cc(O)c(O)c(O)c2)oc2cc(O)cc(O)c12
REMARK SMILES IDX 5 1 3 2 2 3 1 4 23 5 21 6 20 7 18 8 17 9 16 10 15 11 6 12
REMARK SMILES IDX 7 13 8 14 14 15 10 16 12 17 9 18 11 20 13 22 4 24 22 26
REMARK SMILES IDX 19 28
REMARK H PARENT 9 19 11 21 13 23 4 25 22 27 19 29
REMARK Flexibility Score: inf
ROOT
ATOM      1  C   UNL     1    -107.892 -25.202 -12.959  1.00  0.00     0.180 A 
ATOM      2  C   UNL     1    -107.229 -24.258 -13.767  1.00  0.00     0.208 A 
ATOM      3  C   UNL     1    -107.552 -24.185 -15.130  1.00  0.00     0.238 A 
ATOM      4  O   UNL     1    -106.971 -23.337 -15.861  1.00  0.00    -0.285 OA
ATOM      5  C   UNL     1    -108.514 -25.066 -15.666  1.00  0.00     0.111 A 
ATOM      6  C   UNL     1    -108.894 -25.059 -17.031  1.00  0.00     0.134 A 
ATOM      7  C   UNL     1    -109.853 -25.974 -17.489  1.00  0.00     0.093 A 
ATOM      8  C   UNL     1    -110.438 -26.893 -16.615  1.00  0.00     0.123 A 
ATOM      9  C   UNL     1    -110.067 -26.902 -15.266  1.00  0.00     0.094 A 
ATOM     10  C   UNL     1    -109.114 -25.998 -14.788  1.00  0.00     0.146 A 
ATOM     11  O   UNL     1    -108.784 -26.025 -13.502  1.00  0.00    -0.452 OA
ENDROOT
BRANCH   1  12
ATOM     12  C   UNL     1    -107.620 -25.327 -11.509  1.00  0.00     0.029 A 
ATOM     13  C   UNL     1    -108.284 -24.524 -10.569  1.00  0.00     0.062 A 
ATOM     14  C   UNL     1    -108.032 -24.671  -9.202  1.00  0.00     0.162 A 
ATOM     15  C   UNL     1    -106.723 -26.306 -11.057  1.00  0.00     0.062 A 
ATOM     16  C   UNL     1    -107.114 -25.637  -8.750  1.00  0.00     0.200 A 
ATOM     17  C   UNL     1    -106.459 -26.466  -9.693  1.00  0.00     0.162 A 
BRANCH  14  18
ATOM     18  O   UNL     1    -108.710 -23.846  -8.304  1.00  0.00    -0.504 OA
ATOM     19  H   UNL     1    -108.881 -22.866  -8.493  1.00  0.00     0.293 HD
ENDBRANCH  14  18
BRANCH  16  20
ATOM     20  O   UNL     1    -106.885 -25.745  -7.375  1.00  0.00    -0.502 OA
ATOM     21  H   UNL     1    -105.976 -25.669  -6.945  1.00  0.00     0.293 HD
ENDBRANCH  16  20
BRANCH  17  22
ATOM     22  O   UNL     1    -105.545 -27.456  -9.321  1.00  0.00    -0.504 OA
ATOM     23  H   UNL     1    -104.876 -27.874  -9.950  1.00  0.00     0.293 HD
ENDBRANCH  17  22
ENDBRANCH   1  12
BRANCH   2  24
ATOM     24  O   UNL     1    -106.243 -23.431 -13.221  1.00  0.00    -0.502 OA
ATOM     25  H   UNL     1    -105.847 -22.650 -13.729  1.00  0.00     0.293 HD
ENDBRANCH   2  24
BRANCH   6  26
ATOM     26  O   UNL     1    -108.327 -24.155 -17.930  1.00  0.00    -0.507 OA
ATOM     27  H   UNL     1    -108.863 -23.753 -18.691  1.00  0.00     0.293 HD
ENDBRANCH   6  26
BRANCH   8  28
ATOM     28  O   UNL     1    -111.388 -27.791 -17.096  1.00  0.00    -0.508 OA
ATOM     29  H   UNL     1    -111.778 -27.701 -18.027  1.00  0.00     0.293 HD
ENDBRANCH   8  28
TORSDOF 7
ENDMDL
MODEL 8
REMARK VINA RESULT:    -5.275      1.825      6.571
REMARK INTER + INTRA:          -6.865
REMARK INTER:                  -6.540
REMARK INTRA:                  -0.325
REMARK UNBOUND:                -0.357
REMARK SMILES O=c1c(O)c(-c2cc(O)c(O)c(O)c2)oc2cc(O)cc(O)c12
REMARK SMILES IDX 5 1 3 2 2 3 1 4 23 5 21 6 20 7 18 8 17 9 16 10 15 11 6 12
REMARK SMILES IDX 7 13 8 14 14 15 10 16 12 17 9 18 11 20 13 22 4 24 22 26
REMARK SMILES IDX 19 28
REMARK H PARENT 9 19 11 21 13 23 4 25 22 27 19 29
REMARK Flexibility Score: inf
ROOT
ATOM      1  C   UNL     1    -108.042 -25.591 -11.272  1.00  0.00     0.180 A 
ATOM      2  C   UNL     1    -109.383 -25.170 -11.184  1.00  0.00     0.208 A 
ATOM      3  C   UNL     1    -109.938 -24.445 -12.249  1.00  0.00     0.238 A 
ATOM      4  O   UNL     1    -111.141 -24.072 -12.186  1.00  0.00    -0.285 OA
ATOM      5  C   UNL     1    -109.142 -24.137 -13.372  1.00  0.00     0.111 A 
ATOM      6  C   UNL     1    -109.625 -23.407 -14.486  1.00  0.00     0.134 A 
ATOM      7  C   UNL     1    -108.767 -23.133 -15.561  1.00  0.00     0.093 A 
ATOM      8  C   UNL     1    -107.441 -23.570 -15.545  1.00  0.00     0.123 A 
ATOM      9  C   UNL     1    -106.960 -24.292 -14.448  1.00  0.00     0.094 A 
ATOM     10  C   UNL     1    -107.799 -24.577 -13.366  1.00  0.00     0.146 A 
ATOM     11  O   UNL     1    -107.318 -25.269 -12.340  1.00  0.00    -0.452 OA
ENDROOT
BRANCH   1  12
ATOM     12  C   UNL     1    -107.391 -26.374 -10.198  1.00  0.00     0.029 A 
ATOM     13  C   UNL     1    -106.915 -25.759  -9.030  1.00  0.00     0.062 A 
ATOM     14  C   UNL     1    -106.324 -26.516  -8.015  1.00  0.00     0.162 A 
ATOM     15  C   UNL     1    -107.298 -27.768 -10.320  1.00  0.00     0.062 A 
ATOM     16  C   UNL     1    -106.209 -27.913  -8.148  1.00  0.00     0.200 A 
ATOM     17  C   UNL     1    -106.709 -28.542  -9.315  1.00  0.00     0.162 A 
BRANCH  14  18
ATOM     18  O   UNL     1    -105.859 -25.861  -6.875  1.00  0.00    -0.504 OA
ATOM     19  H   UNL     1    -106.477 -25.578  -6.124  1.00  0.00     0.293 HD
ENDBRANCH  14  18
BRANCH  16  20
ATOM     20  O   UNL     1    -105.603 -28.632  -7.114  1.00  0.00    -0.502 OA
ATOM     21  H   UNL     1    -105.732 -29.621  -6.960  1.00  0.00     0.293 HD
ENDBRANCH  16  20
BRANCH  17  22
ATOM     22  O   UNL     1    -106.643 -29.924  -9.514  1.00  0.00    -0.504 OA
ATOM     23  H   UNL     1    -107.112 -30.411 -10.263  1.00  0.00     0.293 HD
ENDBRANCH  17  22
ENDBRANCH   1  12
BRANCH   2  24
ATOM     24  O   UNL     1    -110.135 -25.446 -10.039  1.00  0.00    -0.502 OA
ATOM     25  H   UNL     1    -110.722 -26.268  -9.960  1.00  0.00     0.293 HD
ENDBRANCH   2  24
BRANCH   6  26
ATOM     26  O   UNL     1    -110.944 -22.955 -14.531  1.00  0.00    -0.507 OA
ATOM     27  H   UNL     1    -111.418 -22.608 -13.705  1.00  0.00     0.293 HD
ENDBRANCH   6  26
BRANCH   8  28
ATOM     28  O   UNL     1    -106.610 -23.283 -16.626  1.00  0.00    -0.508 OA
ATOM     29  H   UNL     1    -106.453 -22.331 -16.935  1.00  0.00     0.293 HD
ENDBRANCH   8  28
TORSDOF 7
ENDMDL
MODEL 9
REMARK VINA RESULT:    -5.219      1.705      7.014
REMARK INTER + INTRA:          -6.796
REMARK INTER:                  -6.637
REMARK INTRA:                  -0.159
REMARK UNBOUND:                -0.357
REMARK SMILES O=c1c(O)c(-c2cc(O)c(O)c(O)c2)oc2cc(O)cc(O)c12
REMARK SMILES IDX 5 1 3 2 2 3 1 4 23 5 21 6 20 7 18 8 17 9 16 10 15 11 6 12
REMARK SMILES IDX 7 13 8 14 14 15 10 16 12 17 9 18 11 20 13 22 4 24 22 26
REMARK SMILES IDX 19 28
REMARK H PARENT 9 19 11 21 13 23 4 25 22 27 19 29
REMARK Flexibility Score: inf
ROOT
ATOM      1  C   UNL     1    -108.481 -24.958 -12.102  1.00  0.00     0.180 A 
ATOM      2  C   UNL     1    -109.837 -25.131 -12.441  1.00  0.00     0.208 A 
ATOM      3  C   UNL     1    -110.249 -24.856 -13.753  1.00  0.00     0.238 A 
ATOM      4  O   UNL     1    -111.459 -25.017 -14.071  1.00  0.00    -0.285 OA
ATOM      5  C   UNL     1    -109.309 -24.394 -14.697  1.00  0.00     0.111 A 
ATOM      6  C   UNL     1    -109.643 -24.090 -16.039  1.00  0.00     0.134 A 
ATOM      7  C   UNL     1    -108.651 -23.627 -16.915  1.00  0.00     0.093 A 
ATOM      8  C   UNL     1    -107.335 -23.462 -16.478  1.00  0.00     0.123 A 
ATOM      9  C   UNL     1    -106.999 -23.761 -15.154  1.00  0.00     0.094 A 
ATOM     10  C   UNL     1    -107.973 -24.225 -14.265  1.00  0.00     0.146 A 
ATOM     11  O   UNL     1    -107.626 -24.507 -13.015  1.00  0.00    -0.452 OA
ENDROOT
BRANCH   1  12
ATOM     12  C   UNL     1    -107.967 -25.245 -10.744  1.00  0.00     0.029 A 
ATOM     13  C   UNL     1    -106.974 -26.213 -10.529  1.00  0.00     0.062 A 
ATOM     14  C   UNL     1    -106.482 -26.456  -9.243  1.00  0.00     0.162 A 
ATOM     15  C   UNL     1    -108.436 -24.496  -9.655  1.00  0.00     0.062 A 
ATOM     16  C   UNL     1    -106.971 -25.720  -8.147  1.00  0.00     0.200 A 
ATOM     17  C   UNL     1    -107.956 -24.726  -8.362  1.00  0.00     0.162 A 
BRANCH  14  18
ATOM     18  O   UNL     1    -105.500 -27.432  -9.076  1.00  0.00    -0.504 OA
ATOM     19  H   UNL     1    -105.267 -28.095  -9.805  1.00  0.00     0.293 HD
ENDBRANCH  14  18
BRANCH  16  20
ATOM     20  O   UNL     1    -106.458 -26.001  -6.877  1.00  0.00    -0.502 OA
ATOM     21  H   UNL     1    -106.720 -26.803  -6.324  1.00  0.00     0.293 HD
ENDBRANCH  16  20
BRANCH  17  22
ATOM     22  O   UNL     1    -108.480 -23.947  -7.327  1.00  0.00    -0.504 OA
ATOM     23  H   UNL     1    -107.963 -23.676  -6.504  1.00  0.00     0.293 HD
ENDBRANCH  17  22
ENDBRANCH   1  12
BRANCH   2  24
ATOM     24  O   UNL     1    -110.759 -25.542 -11.474  1.00  0.00    -0.502 OA
ATOM     25  H   UNL     1    -111.700 -25.833 -11.710  1.00  0.00     0.293 HD
ENDBRANCH   2  24
BRANCH   6  26
ATOM     26  O   UNL     1    -110.949 -24.245 -16.506  1.00  0.00    -0.507 OA
ATOM     27  H   UNL     1    -111.261 -23.814 -17.370  1.00  0.00     0.293 HD
ENDBRANCH   6  26
BRANCH   8  28
ATOM     28  O   UNL     1    -106.368 -22.999 -17.369  1.00  0.00    -0.508 OA
ATOM     29  H   UNL     1    -106.606 -22.734 -18.318  1.00  0.00     0.293 HD
ENDBRANCH   8  28
TORSDOF 7
ENDMDL
