MODEL 1
REMARK VINA RESULT:    -3.388      0.000      0.000
REMARK INTER + INTRA:          -4.151
REMARK INTER:                  -4.081
REMARK INTRA:                  -0.070
REMARK UNBOUND:                -0.070
REMARK SMILES CC[C@@H](C)[C@@H]([NH3+])C(=O)[O-]
REMARK SMILES IDX 3 1 4 2 5 3 6 4 7 8 8 9 9 10 2 11 1 12
REMARK H PARENT 6 5 6 6 6 7
REMARK Flexibility Score: inf
ROOT
ATOM      1  C   UNL     1     206.833 189.289  -3.091  1.00  0.00     0.050 C 
ATOM      2  C   UNL     1     207.837 189.978  -2.148  1.00  0.00     0.014 C 
ENDROOT
BRANCH   1   3
ATOM      3  C   UNL     1     206.961 187.730  -3.081  1.00  0.00     0.230 C 
BRANCH   3   4
ATOM      4  N   UNL     1     205.646 187.074  -3.060  1.00  0.00    -0.350 N 
ATOM      5  H   UNL     1     205.763 186.036  -3.003  1.00  0.00     0.345 HD
ATOM      6  H   UNL     1     205.065 187.401  -2.256  1.00  0.00     0.345 HD
ATOM      7  H   UNL     1     205.134 187.293  -3.946  1.00  0.00     0.345 HD
ENDBRANCH   3   4
BRANCH   3   8
ATOM      8  C   UNL     1     207.798 187.207  -4.224  1.00  0.00     0.099 C 
ATOM      9  O   UNL     1     207.262 186.966  -5.338  1.00  0.00    -0.544 OA
ATOM     10  O   UNL     1     209.156 186.962  -4.055  1.00  0.00    -0.544 OA
ENDBRANCH   3   8
ENDBRANCH   1   3
BRANCH   1  11
ATOM     11  C   UNL     1     205.400 189.781  -2.763  1.00  0.00     0.006 C 
ATOM     12  C   UNL     1     205.166 191.250  -3.117  1.00  0.00     0.004 C 
ENDBRANCH   1  11
TORSDOF 4
ENDMDL
MODEL 2
REMARK VINA RESULT:    -3.364      2.595      3.365
REMARK INTER + INTRA:          -4.122
REMARK INTER:                  -4.040
REMARK INTRA:                  -0.082
REMARK UNBOUND:                -0.070
REMARK SMILES CC[C@@H](C)[C@@H]([NH3+])C(=O)[O-]
REMARK SMILES IDX 3 1 4 2 5 3 6 4 7 8 8 9 9 10 2 11 1 12
REMARK H PARENT 6 5 6 6 6 7
REMARK Flexibility Score: inf
ROOT
ATOM      1  C   UNL     1     207.883 187.492  -3.897  1.00  0.00     0.050 C 
ATOM      2  C   UNL     1     207.400 186.968  -5.262  1.00  0.00     0.014 C 
ENDROOT
BRANCH   1   3
ATOM      3  C   UNL     1     209.027 188.551  -4.024  1.00  0.00     0.230 C 
BRANCH   3   4
ATOM      4  N   UNL     1     208.714 189.784  -3.287  1.00  0.00    -0.350 N 
ATOM      5  H   UNL     1     208.567 189.570  -2.274  1.00  0.00     0.345 HD
ATOM      6  H   UNL     1     209.474 190.494  -3.384  1.00  0.00     0.345 HD
ATOM      7  H   UNL     1     207.828 190.198  -3.662  1.00  0.00     0.345 HD
ENDBRANCH   3   4
BRANCH   3   8
ATOM      8  C   UNL     1     210.372 188.009  -3.603  1.00  0.00     0.099 C 
ATOM      9  O   UNL     1     210.452 186.876  -3.059  1.00  0.00    -0.544 OA
ATOM     10  O   UNL     1     211.528 188.758  -3.788  1.00  0.00    -0.544 OA
ENDBRANCH   3   8
ENDBRANCH   1   3
BRANCH   1  11
ATOM     11  C   UNL     1     206.667 188.009  -3.086  1.00  0.00     0.006 C 
ATOM     12  C   UNL     1     205.557 186.968  -2.927  1.00  0.00     0.004 C 
ENDBRANCH   1  11
TORSDOF 4
ENDMDL
MODEL 3
REMARK VINA RESULT:    -3.303     20.593     21.252
REMARK INTER + INTRA:          -4.049
REMARK INTER:                  -3.912
REMARK INTRA:                  -0.136
REMARK UNBOUND:                -0.070
REMARK SMILES CC[C@@H](C)[C@@H]([NH3+])C(=O)[O-]
REMARK SMILES IDX 3 1 4 2 5 3 6 4 7 8 8 9 9 10 2 11 1 12
REMARK H PARENT 6 5 6 6 6 7
REMARK Flexibility Score: inf
ROOT
ATOM      1  C   UNL     1     219.422 205.459  -6.756  1.00  0.00     0.050 C 
ATOM      2  C   UNL     1     219.155 206.491  -7.867  1.00  0.00     0.014 C 
ENDROOT
BRANCH   1   3
ATOM      3  C   UNL     1     220.786 204.716  -6.933  1.00  0.00     0.230 C 
BRANCH   3   4
ATOM      4  N   UNL     1     221.902 205.474  -6.347  1.00  0.00    -0.350 N 
ATOM      5  H   UNL     1     222.404 204.887  -5.641  1.00  0.00     0.345 HD
ATOM      6  H   UNL     1     222.578 205.791  -7.077  1.00  0.00     0.345 HD
ATOM      7  H   UNL     1     221.528 206.319  -5.856  1.00  0.00     0.345 HD
ENDBRANCH   3   4
BRANCH   3   8
ATOM      8  C   UNL     1     220.758 203.307  -6.388  1.00  0.00     0.099 C 
ATOM      9  O   UNL     1     220.478 202.344  -7.149  1.00  0.00    -0.544 OA
ATOM     10  O   UNL     1     221.015 203.062  -5.044  1.00  0.00    -0.544 OA
ENDBRANCH   3   8
ENDBRANCH   1   3
BRANCH   1  11
ATOM     11  C   UNL     1     219.282 206.147  -5.373  1.00  0.00     0.006 C 
ATOM     12  C   UNL     1     218.239 205.487  -4.470  1.00  0.00     0.004 C 
ENDBRANCH   1  11
TORSDOF 4
ENDMDL
MODEL 4
REMARK VINA RESULT:    -3.257     20.462     21.278
REMARK INTER + INTRA:          -3.993
REMARK INTER:                  -3.908
REMARK INTRA:                  -0.085
REMARK UNBOUND:                -0.070
REMARK SMILES CC[C@@H](C)[C@@H]([NH3+])C(=O)[O-]
REMARK SMILES IDX 3 1 4 2 5 3 6 4 7 8 8 9 9 10 2 11 1 12
REMARK H PARENT 6 5 6 6 6 7
REMARK Flexibility Score: inf
ROOT
ATOM      1  C   UNL     1     220.290 203.358  -6.346  1.00  0.00     0.050 C 
ATOM      2  C   UNL     1     220.680 202.571  -5.081  1.00  0.00     0.014 C 
ENDROOT
BRANCH   1   3
ATOM      3  C   UNL     1     220.648 204.877  -6.250  1.00  0.00     0.230 C 
BRANCH   3   4
ATOM      4  N   UNL     1     221.744 205.239  -7.162  1.00  0.00    -0.350 N 
ATOM      5  H   UNL     1     221.722 204.628  -8.010  1.00  0.00     0.345 HD
ATOM      6  H   UNL     1     221.687 206.240  -7.455  1.00  0.00     0.345 HD
ATOM      7  H   UNL     1     222.661 205.089  -6.679  1.00  0.00     0.345 HD
ENDBRANCH   3   4
BRANCH   3   8
ATOM      8  C   UNL     1     219.453 205.773  -6.475  1.00  0.00     0.099 C 
ATOM      9  O   UNL     1     218.695 206.065  -5.513  1.00  0.00    -0.544 OA
ATOM     10  O   UNL     1     219.164 206.264  -7.743  1.00  0.00    -0.544 OA
ENDBRANCH   3   8
ENDBRANCH   1   3
BRANCH   1  11
ATOM     11  C   UNL     1     220.905 202.668  -7.590  1.00  0.00     0.006 C 
ATOM     12  C   UNL     1     219.879 201.911  -8.435  1.00  0.00     0.004 C 
ENDBRANCH   1  11
TORSDOF 4
ENDMDL
MODEL 5
REMARK VINA RESULT:    -3.256     20.572     21.559
REMARK INTER + INTRA:          -3.992
REMARK INTER:                  -3.914
REMARK INTRA:                  -0.078
REMARK UNBOUND:                -0.070
REMARK SMILES CC[C@@H](C)[C@@H]([NH3+])C(=O)[O-]
REMARK SMILES IDX 3 1 4 2 5 3 6 4 7 8 8 9 9 10 2 11 1 12
REMARK H PARENT 6 5 6 6 6 7
REMARK Flexibility Score: inf
ROOT
ATOM      1  C   UNL     1     219.612 205.961  -6.015  1.00  0.00     0.050 C 
ATOM      2  C   UNL     1     219.234 206.143  -7.497  1.00  0.00     0.014 C 
ENDROOT
BRANCH   1   3
ATOM      3  C   UNL     1     218.472 205.299  -5.175  1.00  0.00     0.230 C 
BRANCH   3   4
ATOM      4  N   UNL     1     218.891 204.010  -4.605  1.00  0.00    -0.350 N 
ATOM      5  H   UNL     1     219.809 204.116  -4.113  1.00  0.00     0.345 HD
ATOM      6  H   UNL     1     218.182 203.635  -3.936  1.00  0.00     0.345 HD
ATOM      7  H   UNL     1     219.017 203.313  -5.376  1.00  0.00     0.345 HD
ENDBRANCH   3   4
BRANCH   3   8
ATOM      8  C   UNL     1     217.939 206.209  -4.094  1.00  0.00     0.099 C 
ATOM      9  O   UNL     1     218.738 206.839  -3.351  1.00  0.00    -0.544 OA
ATOM     10  O   UNL     1     216.571 206.345  -3.892  1.00  0.00    -0.544 OA
ENDBRANCH   3   8
ENDBRANCH   1   3
BRANCH   1  11
ATOM     11  C   UNL     1     220.957 205.198  -5.919  1.00  0.00     0.006 C 
ATOM     12  C   UNL     1     221.777 205.246  -7.209  1.00  0.00     0.004 C 
ENDBRANCH   1  11
TORSDOF 4
ENDMDL
MODEL 6
REMARK VINA RESULT:    -3.157      2.953      4.019
REMARK INTER + INTRA:          -3.873
REMARK INTER:                  -3.787
REMARK INTRA:                  -0.086
REMARK UNBOUND:                -0.070
REMARK SMILES CC[C@@H](C)[C@@H]([NH3+])C(=O)[O-]
REMARK SMILES IDX 3 1 4 2 5 3 6 4 7 8 8 9 9 10 2 11 1 12
REMARK H PARENT 6 5 6 6 6 7
REMARK Flexibility Score: inf
ROOT
ATOM      1  C   UNL     1     207.740 188.681  -2.977  1.00  0.00     0.050 C 
ATOM      2  C   UNL     1     209.000 188.836  -3.849  1.00  0.00     0.014 C 
ENDROOT
BRANCH   1   3
ATOM      3  C   UNL     1     206.985 190.033  -2.757  1.00  0.00     0.230 C 
BRANCH   3   4
ATOM      4  N   UNL     1     205.540 189.896  -2.990  1.00  0.00    -0.350 N 
ATOM      5  H   UNL     1     205.359 189.140  -3.690  1.00  0.00     0.345 HD
ATOM      6  H   UNL     1     205.025 189.681  -2.107  1.00  0.00     0.345 HD
ATOM      7  H   UNL     1     205.164 190.793  -3.379  1.00  0.00     0.345 HD
ENDBRANCH   3   4
BRANCH   3   8
ATOM      8  C   UNL     1     207.248 190.633  -1.396  1.00  0.00     0.099 C 
ATOM      9  O   UNL     1     208.277 190.302  -0.750  1.00  0.00    -0.544 OA
ATOM     10  O   UNL     1     206.351 191.533  -0.832  1.00  0.00    -0.544 OA
ENDBRANCH   3   8
ENDBRANCH   1   3
BRANCH   1  11
ATOM     11  C   UNL     1     206.835 187.573  -3.574  1.00  0.00     0.006 C 
ATOM     12  C   UNL     1     207.302 187.081  -4.945  1.00  0.00     0.004 C 
ENDBRANCH   1  11
TORSDOF 4
ENDMDL
MODEL 7
REMARK VINA RESULT:    -3.041     19.855     20.413
REMARK INTER + INTRA:          -3.732
REMARK INTER:                  -3.657
REMARK INTRA:                  -0.075
REMARK UNBOUND:                -0.070
REMARK SMILES CC[C@@H](C)[C@@H]([NH3+])C(=O)[O-]
REMARK SMILES IDX 3 1 4 2 5 3 6 4 7 8 8 9 9 10 2 11 1 12
REMARK H PARENT 6 5 6 6 6 7
REMARK Flexibility Score: inf
ROOT
ATOM      1  C   UNL     1     220.313 204.232  -6.699  1.00  0.00     0.050 C 
ATOM      2  C   UNL     1     221.490 205.182  -6.986  1.00  0.00     0.014 C 
ENDROOT
BRANCH   1   3
ATOM      3  C   UNL     1     220.725 202.724  -6.743  1.00  0.00     0.230 C 
BRANCH   3   4
ATOM      4  N   UNL     1     219.931 201.912  -5.810  1.00  0.00    -0.350 N 
ATOM      5  H   UNL     1     220.537 201.559  -5.035  1.00  0.00     0.345 HD
ATOM      6  H   UNL     1     219.136 202.457  -5.407  1.00  0.00     0.345 HD
ATOM      7  H   UNL     1     219.538 201.084  -6.317  1.00  0.00     0.345 HD
ENDBRANCH   3   4
BRANCH   3   8
ATOM      8  C   UNL     1     220.664 202.143  -8.136  1.00  0.00     0.099 C 
ATOM      9  O   UNL     1     219.603 202.229  -8.808  1.00  0.00    -0.544 OA
ATOM     10  O   UNL     1     221.764 201.491  -8.681  1.00  0.00    -0.544 OA
ENDBRANCH   3   8
ENDBRANCH   1   3
BRANCH   1  11
ATOM     11  C   UNL     1     219.640 204.637  -5.363  1.00  0.00     0.006 C 
ATOM     12  C   UNL     1     218.858 205.948  -5.450  1.00  0.00     0.004 C 
ENDBRANCH   1  11
TORSDOF 4
ENDMDL
MODEL 8
REMARK VINA RESULT:    -0.827      1.698      2.275
REMARK INTER + INTRA:          -1.066
REMARK INTER:                  -0.997
REMARK INTRA:                  -0.069
REMARK UNBOUND:                -0.070
REMARK SMILES CC[C@@H](C)[C@@H]([NH3+])C(=O)[O-]
REMARK SMILES IDX 3 1 4 2 5 3 6 4 7 8 8 9 9 10 2 11 1 12
REMARK H PARENT 6 5 6 6 6 7
REMARK Flexibility Score: inf
ROOT
ATOM      1  C   UNL     1     206.678 187.732  -3.039  1.00  0.00     0.050 C 
ATOM      2  C   UNL     1     205.409 186.875  -2.872  1.00  0.00     0.014 C 
ENDROOT
BRANCH   1   3
ATOM      3  C   UNL     1     207.688 187.126  -4.067  1.00  0.00     0.230 C 
BRANCH   3   4
ATOM      4  N   UNL     1     207.230 187.301  -5.453  1.00  0.00    -0.350 N 
ATOM      5  H   UNL     1     206.495 188.044  -5.497  1.00  0.00     0.345 HD
ATOM      6  H   UNL     1     208.018 187.556  -6.090  1.00  0.00     0.345 HD
ATOM      7  H   UNL     1     206.807 186.407  -5.795  1.00  0.00     0.345 HD
ENDBRANCH   3   4
BRANCH   3   8
ATOM      8  C   UNL     1     209.088 187.668  -3.898  1.00  0.00     0.099 C 
ATOM      9  O   UNL     1     209.416 188.748  -4.456  1.00  0.00    -0.544 OA
ATOM     10  O   UNL     1     210.031 186.974  -3.149  1.00  0.00    -0.544 OA
ENDBRANCH   3   8
ENDBRANCH   1   3
BRANCH   1  11
ATOM     11  C   UNL     1     206.272 189.189  -3.377  1.00  0.00     0.006 C 
ATOM     12  C   UNL     1     206.799 190.215  -2.372  1.00  0.00     0.004 C 
ENDBRANCH   1  11
TORSDOF 4
ENDMDL
