MODEL 1
REMARK VINA RESULT:     4.089      0.000      0.000
REMARK INTER + INTRA:           5.354
REMARK INTER:                   5.523
REMARK INTRA:                  -0.170
REMARK UNBOUND:                -0.170
REMARK SMILES CCCCCCCC(=O)[O-]
REMARK SMILES IDX 5 1 6 2 7 3 8 4 9 5 10 6 4 7 3 8 2 9 1 10
REMARK H PARENT
REMARK Flexibility Score: inf
ROOT
ATOM      1  C   UNL     1      16.498  17.475  15.790  1.00  0.00     0.000 C 
ENDROOT
BRANCH   1   2
ATOM      2  C   UNL     1      17.329  17.360  17.078  1.00  0.00     0.006 C 
BRANCH   2   3
ATOM      3  C   UNL     1      16.534  17.784  18.321  1.00  0.00     0.053 C 
BRANCH   3   4
ATOM      4  C   UNL     1      16.992  17.060  19.549  1.00  0.00     0.041 C 
ATOM      5  O   UNL     1      16.327  16.092  20.001  1.00  0.00    -0.550 OA
ATOM      6  O   UNL     1      18.140  17.475  20.212  1.00  0.00    -0.550 OA
ENDBRANCH   3   4
ENDBRANCH   2   3
ENDBRANCH   1   2
BRANCH   1   7
ATOM      7  C   UNL     1      17.233  16.919  14.560  1.00  0.00     0.000 C 
BRANCH   7   8
ATOM      8  C   UNL     1      18.121  17.968  13.875  1.00  0.00    -0.000 C 
BRANCH   8   9
ATOM      9  C   UNL     1      17.724  19.385  14.305  1.00  0.00    -0.003 C 
ATOM     10  C   UNL     1      18.844  20.383  14.020  1.00  0.00     0.004 C 
ENDBRANCH   8   9
ENDBRANCH   7   8
ENDBRANCH   1   7
TORSDOF 6
ENDMDL
MODEL 2
REMARK VINA RESULT:     4.116      3.101      5.182
REMARK INTER + INTRA:           5.390
REMARK INTER:                   5.606
REMARK INTRA:                  -0.216
REMARK UNBOUND:                -0.170
REMARK SMILES CCCCCCCC(=O)[O-]
REMARK SMILES IDX 5 1 6 2 7 3 8 4 9 5 10 6 4 7 3 8 2 9 1 10
REMARK H PARENT
REMARK Flexibility Score: inf
ROOT
ATOM      1  C   UNL     1      15.968  17.680  17.982  1.00  0.00     0.000 C 
ENDROOT
BRANCH   1   2
ATOM      2  C   UNL     1      17.035  17.449  16.900  1.00  0.00     0.006 C 
BRANCH   2   3
ATOM      3  C   UNL     1      16.431  17.411  15.489  1.00  0.00     0.053 C 
BRANCH   3   4
ATOM      4  C   UNL     1      17.488  17.297  14.434  1.00  0.00     0.041 C 
ATOM      5  O   UNL     1      17.900  16.165  14.066  1.00  0.00    -0.550 OA
ATOM      6  O   UNL     1      18.040  18.444  13.877  1.00  0.00    -0.550 OA
ENDBRANCH   3   4
ENDBRANCH   2   3
ENDBRANCH   1   2
BRANCH   1   7
ATOM      7  C   UNL     1      16.415  17.189  19.368  1.00  0.00     0.000 C 
BRANCH   7   8
ATOM      8  C   UNL     1      17.944  17.124  19.510  1.00  0.00    -0.000 C 
BRANCH   8   9
ATOM      9  C   UNL     1      18.413  17.906  20.742  1.00  0.00    -0.003 C 
ATOM     10  C   UNL     1      19.894  18.261  20.640  1.00  0.00     0.004 C 
ENDBRANCH   8   9
ENDBRANCH   7   8
ENDBRANCH   1   7
TORSDOF 6
ENDMDL
MODEL 3
REMARK VINA RESULT:     4.124      0.114      1.028
REMARK INTER + INTRA:           5.400
REMARK INTER:                   5.508
REMARK INTRA:                  -0.108
REMARK UNBOUND:                -0.170
REMARK SMILES CCCCCCCC(=O)[O-]
REMARK SMILES IDX 5 1 6 2 7 3 8 4 9 5 10 6 4 7 3 8 2 9 1 10
REMARK H PARENT
REMARK Flexibility Score: inf
ROOT
ATOM      1  C   UNL     1      16.439  17.456  15.751  1.00  0.00     0.000 C 
ENDROOT
BRANCH   1   2
ATOM      2  C   UNL     1      17.301  17.413  17.024  1.00  0.00     0.006 C 
BRANCH   2   3
ATOM      3  C   UNL     1      16.507  17.810  18.275  1.00  0.00     0.053 C 
BRANCH   3   4
ATOM      4  C   UNL     1      16.953  17.046  19.484  1.00  0.00     0.041 C 
ATOM      5  O   UNL     1      18.060  17.305  20.026  1.00  0.00    -0.550 OA
ATOM      6  O   UNL     1      16.159  16.027  19.994  1.00  0.00    -0.550 OA
ENDBRANCH   3   4
ENDBRANCH   2   3
ENDBRANCH   1   2
BRANCH   1   7
ATOM      7  C   UNL     1      17.178  16.915  14.517  1.00  0.00     0.000 C 
BRANCH   7   8
ATOM      8  C   UNL     1      18.106  17.960  13.877  1.00  0.00    -0.000 C 
BRANCH   8   9
ATOM      9  C   UNL     1      17.728  19.376  14.327  1.00  0.00    -0.003 C 
ATOM     10  C   UNL     1      18.843  20.370  14.017  1.00  0.00     0.004 C 
ENDBRANCH   8   9
ENDBRANCH   7   8
ENDBRANCH   1   7
TORSDOF 6
ENDMDL
MODEL 4
REMARK VINA RESULT:     4.687      1.905      2.863
REMARK INTER + INTRA:           6.161
REMARK INTER:                   6.345
REMARK INTRA:                  -0.184
REMARK UNBOUND:                -0.170
REMARK SMILES CCCCCCCC(=O)[O-]
REMARK SMILES IDX 5 1 6 2 7 3 8 4 9 5 10 6 4 7 3 8 2 9 1 10
REMARK H PARENT
REMARK Flexibility Score: inf
ROOT
ATOM      1  C   UNL     1      16.281  17.439  18.198  1.00  0.00     0.000 C 
ENDROOT
BRANCH   1   2
ATOM      2  C   UNL     1      16.887  17.901  19.534  1.00  0.00     0.006 C 
BRANCH   2   3
ATOM      3  C   UNL     1      18.082  17.036  19.958  1.00  0.00     0.053 C 
BRANCH   3   4
ATOM      4  C   UNL     1      19.287  17.868  20.275  1.00  0.00     0.041 C 
ATOM      5  O   UNL     1      19.255  18.697  21.222  1.00  0.00    -0.550 OA
ATOM      6  O   UNL     1      20.436  17.746  19.505  1.00  0.00    -0.550 OA
ENDBRANCH   3   4
ENDBRANCH   2   3
ENDBRANCH   1   2
BRANCH   1   7
ATOM      7  C   UNL     1      17.300  17.464  17.047  1.00  0.00     0.000 C 
BRANCH   7   8
ATOM      8  C   UNL     1      16.634  17.591  15.669  1.00  0.00    -0.000 C 
BRANCH   8   9
ATOM      9  C   UNL     1      17.679  17.530  14.549  1.00  0.00    -0.003 C 
ATOM     10  C   UNL     1      17.716  16.147  13.903  1.00  0.00     0.004 C 
ENDBRANCH   8   9
ENDBRANCH   7   8
ENDBRANCH   1   7
TORSDOF 6
ENDMDL
MODEL 5
REMARK VINA RESULT:     5.840      2.970      5.160
REMARK INTER + INTRA:           7.718
REMARK INTER:                   7.553
REMARK INTRA:                   0.166
REMARK UNBOUND:                -0.170
REMARK SMILES CCCCCCCC(=O)[O-]
REMARK SMILES IDX 5 1 6 2 7 3 8 4 9 5 10 6 4 7 3 8 2 9 1 10
REMARK H PARENT
REMARK Flexibility Score: inf
ROOT
ATOM      1  C   UNL     1      17.512  17.498  16.330  1.00  0.00     0.000 C 
ENDROOT
BRANCH   1   2
ATOM      2  C   UNL     1      17.226  17.110  14.870  1.00  0.00     0.006 C 
BRANCH   2   3
ATOM      3  C   UNL     1      18.014  17.974  13.875  1.00  0.00     0.053 C 
BRANCH   3   4
ATOM      4  C   UNL     1      18.012  19.419  14.270  1.00  0.00     0.041 C 
ATOM      5  O   UNL     1      17.002  19.924  14.827  1.00  0.00    -0.550 OA
ATOM      6  O   UNL     1      19.117  20.215  13.995  1.00  0.00    -0.550 OA
ENDBRANCH   3   4
ENDBRANCH   2   3
ENDBRANCH   1   2
BRANCH   1   7
ATOM      7  C   UNL     1      16.250  17.476  17.206  1.00  0.00     0.000 C 
BRANCH   7   8
ATOM      8  C   UNL     1      16.504  18.002  18.627  1.00  0.00    -0.000 C 
BRANCH   8   9
ATOM      9  C   UNL     1      17.157  16.925  19.500  1.00  0.00    -0.003 C 
ATOM     10  C   UNL     1      18.351  17.485  20.268  1.00  0.00     0.004 C 
ENDBRANCH   8   9
ENDBRANCH   7   8
ENDBRANCH   1   7
TORSDOF 6
ENDMDL
MODEL 6
REMARK VINA RESULT:     6.055      3.120      5.478
REMARK INTER + INTRA:           8.010
REMARK INTER:                   7.913
REMARK INTRA:                   0.096
REMARK UNBOUND:                -0.170
REMARK SMILES CCCCCCCC(=O)[O-]
REMARK SMILES IDX 5 1 6 2 7 3 8 4 9 5 10 6 4 7 3 8 2 9 1 10
REMARK H PARENT
REMARK Flexibility Score: inf
ROOT
ATOM      1  C   UNL     1      15.887  17.876  17.905  1.00  0.00     0.000 C 
ENDROOT
BRANCH   1   2
ATOM      2  C   UNL     1      16.957  17.491  16.869  1.00  0.00     0.006 C 
BRANCH   2   3
ATOM      3  C   UNL     1      16.394  17.452  15.442  1.00  0.00     0.053 C 
BRANCH   3   4
ATOM      4  C   UNL     1      17.481  17.328  14.418  1.00  0.00     0.041 C 
ATOM      5  O   UNL     1      18.078  18.354  13.998  1.00  0.00    -0.550 OA
ATOM      6  O   UNL     1      17.814  16.080  13.907  1.00  0.00    -0.550 OA
ENDBRANCH   3   4
ENDBRANCH   2   3
ENDBRANCH   1   2
BRANCH   1   7
ATOM      7  C   UNL     1      16.487  18.207  19.281  1.00  0.00     0.000 C 
BRANCH   7   8
ATOM      8  C   UNL     1      17.734  17.369  19.601  1.00  0.00    -0.000 C 
BRANCH   8   9
ATOM      9  C   UNL     1      17.354  16.085  20.346  1.00  0.00    -0.003 C 
ATOM     10  C   UNL     1      15.860  15.798  20.225  1.00  0.00     0.004 C 
ENDBRANCH   8   9
ENDBRANCH   7   8
ENDBRANCH   1   7
TORSDOF 6
ENDMDL
