MODEL 1
REMARK VINA RESULT:    -6.160      0.000      0.000
REMARK INTER + INTRA:         -10.370
REMARK INTER:                  -9.040
REMARK INTRA:                  -1.330
REMARK UNBOUND:                -1.330
REMARK SMILES O=c1c(O[C@H]2O[C@@H](CO)[C@@H](O)[C@H](O)[C@@H]2O)c(-c2ccc(O)c(O)c2)oc2cc(O)cc(O)c12
REMARK SMILES IDX 4 1 3 2 16 3 25 4 2 5 26 6 1 7 33 8 27 9 31 10 28 11 30 12
REMARK SMILES IDX 17 13 18 14 19 15 20 16 24 17 22 18 21 19 23 21 32 23 29 25
REMARK SMILES IDX 5 27 14 28 6 29 12 30 7 31 10 32 15 33 13 35 8 37 9 38 11 40
REMARK H PARENT 21 20 23 22 32 24 29 26 15 34 13 36 9 39 11 41
REMARK Flexibility Score: inf
ROOT
ATOM      1  O   UNL     1      -0.607  13.640   3.252  1.00  0.00    -0.454 OA
ENDROOT
BRANCH   1   2
ATOM      2  C   UNL     1       0.043  14.408   2.266  1.00  0.00     0.214 A 
ATOM      3  C   UNL     1      -0.653  14.693   1.077  1.00  0.00     0.180 A 
ATOM      4  O   UNL     1      -0.055  15.359   0.098  1.00  0.00    -0.452 OA
ATOM      5  C   UNL     1       1.365  14.891   2.403  1.00  0.00     0.239 A 
ATOM      6  C   UNL     1       1.194  15.796   0.168  1.00  0.00     0.146 A 
ATOM      7  O   UNL     1       1.962  14.761   3.502  1.00  0.00    -0.285 OA
ATOM      8  C   UNL     1       1.986  15.560   1.322  1.00  0.00     0.111 A 
ATOM      9  C   UNL     1       1.711  16.507  -0.917  1.00  0.00     0.094 A 
ATOM     10  C   UNL     1       3.336  16.032   1.330  1.00  0.00     0.134 A 
ATOM     11  C   UNL     1       3.017  17.002  -0.880  1.00  0.00     0.123 A 
ATOM     12  C   UNL     1       3.819  16.768   0.240  1.00  0.00     0.093 A 
BRANCH   3  13
ATOM     13  C   UNL     1      -2.047  14.248   0.858  1.00  0.00     0.025 A 
ATOM     14  C   UNL     1      -3.135  14.988   1.349  1.00  0.00     0.016 A 
ATOM     15  C   UNL     1      -4.446  14.562   1.109  1.00  0.00     0.051 A 
ATOM     16  C   UNL     1      -4.688  13.397   0.375  1.00  0.00     0.157 A 
ATOM     17  C   UNL     1      -2.293  13.090   0.100  1.00  0.00     0.062 A 
ATOM     18  C   UNL     1      -3.607  12.660  -0.137  1.00  0.00     0.158 A 
BRANCH  16  19
ATOM     19  O   UNL     1      -6.004  12.989   0.161  1.00  0.00    -0.504 OA
ATOM     20  H   UNL     1      -6.493  12.390   0.813  1.00  0.00     0.293 HD
ENDBRANCH  16  19
BRANCH  18  21
ATOM     21  O   UNL     1      -3.841  11.504  -0.881  1.00  0.00    -0.504 OA
ATOM     22  H   UNL     1      -3.252  11.248  -1.662  1.00  0.00     0.293 HD
ENDBRANCH  18  21
ENDBRANCH   3  13
BRANCH  10  23
ATOM     23  O   UNL     1       4.245  15.783   2.360  1.00  0.00    -0.507 OA
ATOM     24  H   UNL     1       4.952  16.425   2.679  1.00  0.00     0.293 HD
ENDBRANCH  10  23
BRANCH  11  25
ATOM     25  O   UNL     1       3.512  17.720  -1.968  1.00  0.00    -0.508 OA
ATOM     26  H   UNL     1       4.126  18.515  -1.844  1.00  0.00     0.293 HD
ENDBRANCH  11  25
ENDBRANCH   1   2
BRANCH   1  27
ATOM     27  C   UNL     1      -0.881  14.036   4.597  1.00  0.00     0.339 C 
ATOM     28  C   UNL     1      -0.440  12.883   5.551  1.00  0.00     0.214 C 
ATOM     29  O   UNL     1      -2.267  14.339   4.715  1.00  0.00    -0.332 OA
ATOM     30  C   UNL     1      -1.674  12.159   6.124  1.00  0.00     0.180 C 
ATOM     31  C   UNL     1      -2.615  14.527   6.075  1.00  0.00     0.179 C 
ATOM     32  C   UNL     1      -2.656  13.152   6.801  1.00  0.00     0.177 C 
BRANCH  28  33
ATOM     33  O   UNL     1       0.337  13.400   6.601  1.00  0.00    -0.384 OA
ATOM     34  H   UNL     1       1.154  13.785   6.190  1.00  0.00     0.211 HD
ENDBRANCH  28  33
BRANCH  30  35
ATOM     35  O   UNL     1      -1.302  11.124   7.001  1.00  0.00    -0.387 OA
ATOM     36  H   UNL     1      -0.595  11.472   7.604  1.00  0.00     0.211 HD
ENDBRANCH  30  35
BRANCH  31  37
ATOM     37  C   UNL     1      -3.948  15.285   6.160  1.00  0.00     0.191 C 
BRANCH  37  38
ATOM     38  O   UNL     1      -4.801  14.894   5.116  1.00  0.00    -0.394 OA
ATOM     39  H   UNL     1      -5.272  15.713   4.808  1.00  0.00     0.210 HD
ENDBRANCH  37  38
ENDBRANCH  31  37
BRANCH  32  40
ATOM     40  O   UNL     1      -3.951  12.605   6.770  1.00  0.00    -0.387 OA
ATOM     41  H   UNL     1      -4.579  13.360   6.631  1.00  0.00     0.211 HD
ENDBRANCH  32  40
ENDBRANCH   1  27
TORSDOF 12
ENDMDL
MODEL 2
REMARK VINA RESULT:    -6.133      1.654      6.983
REMARK INTER + INTRA:         -10.331
REMARK INTER:                  -8.955
REMARK INTRA:                  -1.376
REMARK UNBOUND:                -1.330
REMARK SMILES O=c1c(O[C@H]2O[C@@H](CO)[C@@H](O)[C@H](O)[C@@H]2O)c(-c2ccc(O)c(O)c2)oc2cc(O)cc(O)c12
REMARK SMILES IDX 4 1 3 2 16 3 25 4 2 5 26 6 1 7 33 8 27 9 31 10 28 11 30 12
REMARK SMILES IDX 17 13 18 14 19 15 20 16 24 17 22 18 21 19 23 21 32 23 29 25
REMARK SMILES IDX 5 27 14 28 6 29 12 30 7 31 10 32 15 33 13 35 8 37 9 38 11 40
REMARK H PARENT 21 20 23 22 32 24 29 26 15 34 13 36 9 39 11 41
REMARK Flexibility Score: inf
ROOT
ATOM      1  O   UNL     1      -1.411  15.816   0.987  1.00  0.00    -0.454 OA
ENDROOT
BRANCH   1   2
ATOM      2  C   UNL     1      -0.942  15.156   2.141  1.00  0.00     0.214 A 
ATOM      3  C   UNL     1       0.404  14.746   2.172  1.00  0.00     0.180 A 
ATOM      4  O   UNL     1       0.870  14.068   3.212  1.00  0.00    -0.452 OA
ATOM      5  C   UNL     1      -1.757  14.870   3.259  1.00  0.00     0.239 A 
ATOM      6  C   UNL     1       0.131  13.743   4.264  1.00  0.00     0.146 A 
ATOM      7  O   UNL     1      -2.924  15.335   3.311  1.00  0.00    -0.285 OA
ATOM      8  C   UNL     1      -1.239  14.106   4.332  1.00  0.00     0.111 A 
ATOM      9  C   UNL     1       0.736  13.046   5.311  1.00  0.00     0.094 A 
ATOM     10  C   UNL     1      -1.994  13.706   5.479  1.00  0.00     0.134 A 
ATOM     11  C   UNL     1       0.000  12.698   6.447  1.00  0.00     0.123 A 
ATOM     12  C   UNL     1      -1.354  13.033   6.529  1.00  0.00     0.093 A 
BRANCH   3  13
ATOM     13  C   UNL     1       1.336  15.025   1.057  1.00  0.00     0.025 A 
ATOM     14  C   UNL     1       1.311  14.262  -0.123  1.00  0.00     0.016 A 
ATOM     15  C   UNL     1       2.184  14.559  -1.175  1.00  0.00     0.051 A 
ATOM     16  C   UNL     1       3.089  15.619  -1.066  1.00  0.00     0.157 A 
ATOM     17  C   UNL     1       2.230  16.104   1.155  1.00  0.00     0.062 A 
ATOM     18  C   UNL     1       3.109  16.400   0.101  1.00  0.00     0.158 A 
BRANCH  16  19
ATOM     19  O   UNL     1       3.955  15.884  -2.125  1.00  0.00    -0.504 OA
ATOM     20  H   UNL     1       3.879  16.724  -2.685  1.00  0.00     0.293 HD
ENDBRANCH  16  19
BRANCH  18  21
ATOM     21  O   UNL     1       4.000  17.466   0.213  1.00  0.00    -0.504 OA
ATOM     22  H   UNL     1       4.572  17.762  -0.567  1.00  0.00     0.293 HD
ENDBRANCH  18  21
ENDBRANCH   3  13
BRANCH  10  23
ATOM     23  O   UNL     1      -3.367  13.916   5.624  1.00  0.00    -0.507 OA
ATOM     24  H   UNL     1      -3.900  13.718   6.455  1.00  0.00     0.293 HD
ENDBRANCH  10  23
BRANCH  11  25
ATOM     25  O   UNL     1       0.624  12.013   7.488  1.00  0.00    -0.508 OA
ATOM     26  H   UNL     1       1.541  11.597   7.376  1.00  0.00     0.293 HD
ENDBRANCH  11  25
ENDBRANCH   1   2
BRANCH   1  27
ATOM     27  C   UNL     1      -2.240  15.260  -0.034  1.00  0.00     0.339 C 
ATOM     28  C   UNL     1      -3.504  16.160  -0.189  1.00  0.00     0.214 C 
ATOM     29  O   UNL     1      -2.566  13.919   0.316  1.00  0.00    -0.332 OA
ATOM     30  C   UNL     1      -4.742  15.451   0.396  1.00  0.00     0.180 C 
ATOM     31  C   UNL     1      -3.555  13.409  -0.559  1.00  0.00     0.179 C 
ATOM     32  C   UNL     1      -4.935  14.039  -0.217  1.00  0.00     0.177 C 
BRANCH  28  33
ATOM     33  O   UNL     1      -3.722  16.452  -1.546  1.00  0.00    -0.384 OA
ATOM     34  H   UNL     1      -4.667  16.223  -1.740  1.00  0.00     0.211 HD
ENDBRANCH  28  33
BRANCH  30  35
ATOM     35  O   UNL     1      -5.900  16.237   0.254  1.00  0.00    -0.387 OA
ATOM     36  H   UNL     1      -5.930  16.878   1.012  1.00  0.00     0.211 HD
ENDBRANCH  30  35
BRANCH  31  37
ATOM     37  C   UNL     1      -3.564  11.875  -0.480  1.00  0.00     0.191 C 
BRANCH  37  38
ATOM     38  O   UNL     1      -4.641  11.354  -1.215  1.00  0.00    -0.394 OA
ATOM     39  H   UNL     1      -4.251  10.810  -1.950  1.00  0.00     0.210 HD
ENDBRANCH  37  38
ENDBRANCH  31  37
BRANCH  32  40
ATOM     40  O   UNL     1      -5.641  13.237   0.697  1.00  0.00    -0.387 OA
ATOM     41  H   UNL     1      -5.337  12.303   0.556  1.00  0.00     0.211 HD
ENDBRANCH  32  40
ENDBRANCH   1  27
TORSDOF 12
ENDMDL
MODEL 3
REMARK VINA RESULT:    -6.050      1.396      5.478
REMARK INTER + INTRA:         -10.209
REMARK INTER:                  -9.475
REMARK INTRA:                  -0.735
REMARK UNBOUND:                -1.330
REMARK SMILES O=c1c(O[C@H]2O[C@@H](CO)[C@@H](O)[C@H](O)[C@@H]2O)c(-c2ccc(O)c(O)c2)oc2cc(O)cc(O)c12
REMARK SMILES IDX 4 1 3 2 16 3 25 4 2 5 26 6 1 7 33 8 27 9 31 10 28 11 30 12
REMARK SMILES IDX 17 13 18 14 19 15 20 16 24 17 22 18 21 19 23 21 32 23 29 25
REMARK SMILES IDX 5 27 14 28 6 29 12 30 7 31 10 32 15 33 13 35 8 37 9 38 11 40
REMARK H PARENT 21 20 23 22 32 24 29 26 15 34 13 36 9 39 11 41
REMARK Flexibility Score: inf
ROOT
ATOM      1  O   UNL     1      -1.066  13.631   1.238  1.00  0.00    -0.454 OA
ENDROOT
BRANCH   1   2
ATOM      2  C   UNL     1       0.140  14.350   1.361  1.00  0.00     0.214 A 
ATOM      3  C   UNL     1       0.769  14.386   2.619  1.00  0.00     0.180 A 
ATOM      4  O   UNL     1       1.872  15.102   2.793  1.00  0.00    -0.452 OA
ATOM      5  C   UNL     1       0.739  15.053   0.290  1.00  0.00     0.239 A 
ATOM      6  C   UNL     1       2.445  15.807   1.827  1.00  0.00     0.146 A 
ATOM      7  O   UNL     1       0.269  14.934  -0.870  1.00  0.00    -0.285 OA
ATOM      8  C   UNL     1       1.890  15.842   0.522  1.00  0.00     0.111 A 
ATOM      9  C   UNL     1       3.618  16.505   2.122  1.00  0.00     0.094 A 
ATOM     10  C   UNL     1       2.537  16.641  -0.472  1.00  0.00     0.134 A 
ATOM     11  C   UNL     1       4.266  17.247   1.132  1.00  0.00     0.123 A 
ATOM     12  C   UNL     1       3.729  17.308  -0.157  1.00  0.00     0.093 A 
BRANCH   3  13
ATOM     13  C   UNL     1       0.225  13.660   3.789  1.00  0.00     0.025 A 
ATOM     14  C   UNL     1       0.878  12.534   4.317  1.00  0.00     0.016 A 
ATOM     15  C   UNL     1       0.360  11.878   5.439  1.00  0.00     0.051 A 
ATOM     16  C   UNL     1      -0.810  12.339   6.049  1.00  0.00     0.157 A 
ATOM     17  C   UNL     1      -0.937  14.135   4.418  1.00  0.00     0.062 A 
ATOM     18  C   UNL     1      -1.460  13.476   5.542  1.00  0.00     0.158 A 
BRANCH  16  19
ATOM     19  O   UNL     1      -1.311  11.659   7.159  1.00  0.00    -0.504 OA
ATOM     20  H   UNL     1      -2.001  12.070   7.775  1.00  0.00     0.293 HD
ENDBRANCH  16  19
BRANCH  18  21
ATOM     21  O   UNL     1      -2.621  13.948   6.153  1.00  0.00    -0.504 OA
ATOM     22  H   UNL     1      -2.589  14.656   6.875  1.00  0.00     0.293 HD
ENDBRANCH  18  21
ENDBRANCH   3  13
BRANCH  10  23
ATOM     23  O   UNL     1       2.042  16.836  -1.763  1.00  0.00    -0.507 OA
ATOM     24  H   UNL     1       2.571  17.197  -2.540  1.00  0.00     0.293 HD
ENDBRANCH  10  23
BRANCH  11  25
ATOM     25  O   UNL     1       5.443  17.928   1.441  1.00  0.00    -0.508 OA
ATOM     26  H   UNL     1       5.887  18.549   0.776  1.00  0.00     0.293 HD
ENDBRANCH  11  25
ENDBRANCH   1   2
BRANCH   1  27
ATOM     27  C   UNL     1      -1.966  13.660   0.129  1.00  0.00     0.339 C 
ATOM     28  C   UNL     1      -2.854  14.938   0.248  1.00  0.00     0.214 C 
ATOM     29  O   UNL     1      -2.734  12.463   0.127  1.00  0.00    -0.332 OA
ATOM     30  C   UNL     1      -4.289  14.557   0.660  1.00  0.00     0.180 C 
ATOM     31  C   UNL     1      -3.780  12.550  -0.824  1.00  0.00     0.179 C 
ATOM     32  C   UNL     1      -4.895  13.494  -0.293  1.00  0.00     0.177 C 
BRANCH  28  33
ATOM     33  O   UNL     1      -2.878  15.620  -0.981  1.00  0.00    -0.384 OA
ATOM     34  H   UNL     1      -2.456  15.021  -1.649  1.00  0.00     0.211 HD
ENDBRANCH  28  33
BRANCH  30  35
ATOM     35  O   UNL     1      -5.114  15.692   0.759  1.00  0.00    -0.387 OA
ATOM     36  H   UNL     1      -6.038  15.421   0.518  1.00  0.00     0.211 HD
ENDBRANCH  30  35
BRANCH  31  37
ATOM     37  C   UNL     1      -4.296  11.140  -1.146  1.00  0.00     0.191 C 
BRANCH  37  38
ATOM     38  O   UNL     1      -4.173  10.306  -0.024  1.00  0.00    -0.394 OA
ATOM     39  H   UNL     1      -3.615   9.532  -0.301  1.00  0.00     0.210 HD
ENDBRANCH  37  38
ENDBRANCH  31  37
BRANCH  32  40
ATOM     40  O   UNL     1      -5.880  12.769   0.400  1.00  0.00    -0.387 OA
ATOM     41  H   UNL     1      -6.081  11.963  -0.143  1.00  0.00     0.211 HD
ENDBRANCH  32  40
ENDBRANCH   1  27
TORSDOF 12
ENDMDL
MODEL 4
REMARK VINA RESULT:    -5.943      2.352      6.394
REMARK INTER + INTRA:         -10.051
REMARK INTER:                  -9.428
REMARK INTRA:                  -0.623
REMARK UNBOUND:                -1.330
REMARK SMILES O=c1c(O[C@H]2O[C@@H](CO)[C@@H](O)[C@H](O)[C@@H]2O)c(-c2ccc(O)c(O)c2)oc2cc(O)cc(O)c12
REMARK SMILES IDX 4 1 3 2 16 3 25 4 2 5 26 6 1 7 33 8 27 9 31 10 28 11 30 12
REMARK SMILES IDX 17 13 18 14 19 15 20 16 24 17 22 18 21 19 23 21 32 23 29 25
REMARK SMILES IDX 5 27 14 28 6 29 12 30 7 31 10 32 15 33 13 35 8 37 9 38 11 40
REMARK H PARENT 21 20 23 22 32 24 29 26 15 34 13 36 9 39 11 41
REMARK Flexibility Score: inf
ROOT
ATOM      1  O   UNL     1       0.358  14.983   2.301  1.00  0.00    -0.454 OA
ENDROOT
BRANCH   1   2
ATOM      2  C   UNL     1      -0.756  15.158   1.455  1.00  0.00     0.214 A 
ATOM      3  C   UNL     1      -0.523  15.424   0.093  1.00  0.00     0.180 A 
ATOM      4  O   UNL     1      -1.542  15.657  -0.724  1.00  0.00    -0.452 OA
ATOM      5  C   UNL     1      -2.094  15.098   1.909  1.00  0.00     0.239 A 
ATOM      6  C   UNL     1      -2.808  15.650  -0.333  1.00  0.00     0.146 A 
ATOM      7  O   UNL     1      -2.333  14.738   3.090  1.00  0.00    -0.285 OA
ATOM      8  C   UNL     1      -3.153  15.395   1.020  1.00  0.00     0.111 A 
ATOM      9  C   UNL     1      -3.799  15.887  -1.288  1.00  0.00     0.094 A 
ATOM     10  C   UNL     1      -4.534  15.427   1.388  1.00  0.00     0.134 A 
ATOM     11  C   UNL     1      -5.148  15.872  -0.926  1.00  0.00     0.123 A 
ATOM     12  C   UNL     1      -5.510  15.638   0.404  1.00  0.00     0.093 A 
BRANCH   3  13
ATOM     13  C   UNL     1       0.843  15.481  -0.473  1.00  0.00     0.025 A 
ATOM     14  C   UNL     1       1.215  14.677  -1.563  1.00  0.00     0.016 A 
ATOM     15  C   UNL     1       2.505  14.764  -2.098  1.00  0.00     0.051 A 
ATOM     16  C   UNL     1       3.436  15.656  -1.558  1.00  0.00     0.157 A 
ATOM     17  C   UNL     1       1.773  16.393   0.053  1.00  0.00     0.062 A 
ATOM     18  C   UNL     1       3.068  16.479  -0.481  1.00  0.00     0.158 A 
BRANCH  16  19
ATOM     19  O   UNL     1       4.717  15.714  -2.104  1.00  0.00    -0.504 OA
ATOM     20  H   UNL     1       5.428  15.030  -1.880  1.00  0.00     0.293 HD
ENDBRANCH  16  19
BRANCH  18  21
ATOM     21  O   UNL     1       3.987  17.379   0.056  1.00  0.00    -0.504 OA
ATOM     22  H   UNL     1       4.176  17.415   1.049  1.00  0.00     0.293 HD
ENDBRANCH  18  21
ENDBRANCH   3  13
BRANCH  10  23
ATOM     23  O   UNL     1      -4.998  15.288   2.699  1.00  0.00    -0.507 OA
ATOM     24  H   UNL     1      -4.605  14.671   3.391  1.00  0.00     0.293 HD
ENDBRANCH  10  23
BRANCH  11  25
ATOM     25  O   UNL     1      -6.124  16.098  -1.895  1.00  0.00    -0.508 OA
ATOM     26  H   UNL     1      -5.888  16.459  -2.812  1.00  0.00     0.293 HD
ENDBRANCH  11  25
ENDBRANCH   1   2
BRANCH   1  27
ATOM     27  C   UNL     1       0.748  13.775   2.956  1.00  0.00     0.339 C 
ATOM     28  C   UNL     1       0.046  13.721   4.348  1.00  0.00     0.214 C 
ATOM     29  O   UNL     1       2.167  13.745   3.061  1.00  0.00    -0.332 OA
ATOM     30  C   UNL     1       1.067  13.979   5.474  1.00  0.00     0.180 C 
ATOM     31  C   UNL     1       2.576  12.673   3.891  1.00  0.00     0.179 C 
ATOM     32  C   UNL     1       2.280  13.018   5.378  1.00  0.00     0.177 C 
BRANCH  28  33
ATOM     33  O   UNL     1      -0.555  12.464   4.533  1.00  0.00    -0.384 OA
ATOM     34  H   UNL     1      -0.649  12.333   5.512  1.00  0.00     0.211 HD
ENDBRANCH  28  33
BRANCH  30  35
ATOM     35  O   UNL     1       0.460  13.920   6.742  1.00  0.00    -0.387 OA
ATOM     36  H   UNL     1       0.804  14.679   7.282  1.00  0.00     0.211 HD
ENDBRANCH  30  35
BRANCH  31  37
ATOM     37  C   UNL     1       4.059  12.367   3.634  1.00  0.00     0.191 C 
BRANCH  37  38
ATOM     38  O   UNL     1       4.797  13.558   3.548  1.00  0.00    -0.394 OA
ATOM     39  H   UNL     1       5.680  13.321   3.157  1.00  0.00     0.210 HD
ENDBRANCH  37  38
ENDBRANCH  31  37
BRANCH  32  40
ATOM     40  O   UNL     1       3.393  13.626   5.984  1.00  0.00    -0.387 OA
ATOM     41  H   UNL     1       4.175  13.043   5.803  1.00  0.00     0.211 HD
ENDBRANCH  32  40
ENDBRANCH   1  27
TORSDOF 12
ENDMDL
MODEL 5
REMARK VINA RESULT:    -5.703      2.306      8.167
REMARK INTER + INTRA:          -9.700
REMARK INTER:                  -8.349
REMARK INTRA:                  -1.351
REMARK UNBOUND:                -1.330
REMARK SMILES O=c1c(O[C@H]2O[C@@H](CO)[C@@H](O)[C@H](O)[C@@H]2O)c(-c2ccc(O)c(O)c2)oc2cc(O)cc(O)c12
REMARK SMILES IDX 4 1 3 2 16 3 25 4 2 5 26 6 1 7 33 8 27 9 31 10 28 11 30 12
REMARK SMILES IDX 17 13 18 14 19 15 20 16 24 17 22 18 21 19 23 21 32 23 29 25
REMARK SMILES IDX 5 27 14 28 6 29 12 30 7 31 10 32 15 33 13 35 8 37 9 38 11 40
REMARK H PARENT 21 20 23 22 32 24 29 26 15 34 13 36 9 39 11 41
REMARK Flexibility Score: inf
ROOT
ATOM      1  O   UNL     1      -1.204  14.932   3.655  1.00  0.00    -0.454 OA
ENDROOT
BRANCH   1   2
ATOM      2  C   UNL     1      -1.849  14.307   4.741  1.00  0.00     0.214 A 
ATOM      3  C   UNL     1      -1.113  13.393   5.517  1.00  0.00     0.180 A 
ATOM      4  O   UNL     1      -1.700  12.737   6.509  1.00  0.00    -0.452 OA
ATOM      5  C   UNL     1      -3.202  14.538   5.079  1.00  0.00     0.239 A 
ATOM      6  C   UNL     1      -2.975  12.893   6.835  1.00  0.00     0.146 A 
ATOM      7  O   UNL     1      -3.845  15.441   4.485  1.00  0.00    -0.285 OA
ATOM      8  C   UNL     1      -3.808  13.788   6.115  1.00  0.00     0.111 A 
ATOM      9  C   UNL     1      -3.478  12.164   7.915  1.00  0.00     0.094 A 
ATOM     10  C   UNL     1      -5.182  13.896   6.496  1.00  0.00     0.134 A 
ATOM     11  C   UNL     1      -4.812  12.310   8.306  1.00  0.00     0.123 A 
ATOM     12  C   UNL     1      -5.653  13.175   7.602  1.00  0.00     0.093 A 
BRANCH   3  13
ATOM     13  C   UNL     1       0.315  13.107   5.249  1.00  0.00     0.025 A 
ATOM     14  C   UNL     1       0.704  12.244   4.212  1.00  0.00     0.016 A 
ATOM     15  C   UNL     1       2.060  12.008   3.961  1.00  0.00     0.051 A 
ATOM     16  C   UNL     1       3.042  12.631   4.737  1.00  0.00     0.157 A 
ATOM     17  C   UNL     1       1.303  13.751   6.012  1.00  0.00     0.062 A 
ATOM     18  C   UNL     1       2.663  13.511   5.764  1.00  0.00     0.158 A 
BRANCH  16  19
ATOM     19  O   UNL     1       4.385  12.368   4.472  1.00  0.00    -0.504 OA
ATOM     20  H   UNL     1       4.802  12.554   3.569  1.00  0.00     0.293 HD
ENDBRANCH  16  19
BRANCH  18  21
ATOM     21  O   UNL     1       3.637  14.146   6.534  1.00  0.00    -0.504 OA
ATOM     22  H   UNL     1       3.962  15.079   6.315  1.00  0.00     0.293 HD
ENDBRANCH  18  21
ENDBRANCH   3  13
BRANCH  10  23
ATOM     23  O   UNL     1      -6.125  14.666   5.811  1.00  0.00    -0.507 OA
ATOM     24  H   UNL     1      -6.582  15.485   6.177  1.00  0.00     0.293 HD
ENDBRANCH  10  23
BRANCH  11  25
ATOM     25  O   UNL     1      -5.293  11.583   9.394  1.00  0.00    -0.508 OA
ATOM     26  H   UNL     1      -6.265  11.304   9.457  1.00  0.00     0.293 HD
ENDBRANCH  11  25
ENDBRANCH   1   2
BRANCH   1  27
ATOM     27  C   UNL     1      -1.218  14.500   2.294  1.00  0.00     0.339 C 
ATOM     28  C   UNL     1       0.178  14.804   1.666  1.00  0.00     0.214 C 
ATOM     29  O   UNL     1      -2.277  15.161   1.610  1.00  0.00    -0.332 OA
ATOM     30  C   UNL     1       0.078  15.990   0.686  1.00  0.00     0.180 C 
ATOM     31  C   UNL     1      -2.188  14.924   0.217  1.00  0.00     0.179 C 
ATOM     32  C   UNL     1      -1.021  15.757  -0.384  1.00  0.00     0.177 C 
BRANCH  28  33
ATOM     33  O   UNL     1       0.657  13.669   0.989  1.00  0.00    -0.384 OA
ATOM     34  H   UNL     1       0.323  13.729   0.057  1.00  0.00     0.211 HD
ENDBRANCH  28  33
BRANCH  30  35
ATOM     35  O   UNL     1       1.323  16.274   0.094  1.00  0.00    -0.387 OA
ATOM     36  H   UNL     1       1.319  15.897  -0.825  1.00  0.00     0.211 HD
ENDBRANCH  30  35
BRANCH  31  37
ATOM     37  C   UNL     1      -3.541  15.233  -0.441  1.00  0.00     0.191 C 
BRANCH  37  38
ATOM     38  O   UNL     1      -4.123  16.367   0.147  1.00  0.00    -0.394 OA
ATOM     39  H   UNL     1      -4.315  17.005  -0.591  1.00  0.00     0.210 HD
ENDBRANCH  37  38
ENDBRANCH  31  37
BRANCH  32  40
ATOM     40  O   UNL     1      -1.479  17.003  -0.846  1.00  0.00    -0.387 OA
ATOM     41  H   UNL     1      -2.427  17.084  -0.565  1.00  0.00     0.211 HD
ENDBRANCH  32  40
ENDBRANCH   1  27
TORSDOF 12
ENDMDL
MODEL 6
REMARK VINA RESULT:    -5.582      2.290      8.074
REMARK INTER + INTRA:          -9.522
REMARK INTER:                  -9.058
REMARK INTRA:                  -0.464
REMARK UNBOUND:                -1.330
REMARK SMILES O=c1c(O[C@H]2O[C@@H](CO)[C@@H](O)[C@H](O)[C@@H]2O)c(-c2ccc(O)c(O)c2)oc2cc(O)cc(O)c12
REMARK SMILES IDX 4 1 3 2 16 3 25 4 2 5 26 6 1 7 33 8 27 9 31 10 28 11 30 12
REMARK SMILES IDX 17 13 18 14 19 15 20 16 24 17 22 18 21 19 23 21 32 23 29 25
REMARK SMILES IDX 5 27 14 28 6 29 12 30 7 31 10 32 15 33 13 35 8 37 9 38 11 40
REMARK H PARENT 21 20 23 22 32 24 29 26 15 34 13 36 9 39 11 41
REMARK Flexibility Score: inf
ROOT
ATOM      1  O   UNL     1      -0.969  15.274   2.517  1.00  0.00    -0.454 OA
ENDROOT
BRANCH   1   2
ATOM      2  C   UNL     1      -1.792  14.916   3.603  1.00  0.00     0.214 A 
ATOM      3  C   UNL     1      -1.234  14.138   4.634  1.00  0.00     0.180 A 
ATOM      4  O   UNL     1      -1.990  13.728   5.644  1.00  0.00    -0.452 OA
ATOM      5  C   UNL     1      -3.154  15.283   3.702  1.00  0.00     0.239 A 
ATOM      6  C   UNL     1      -3.279  14.015   5.756  1.00  0.00     0.146 A 
ATOM      7  O   UNL     1      -3.643  16.082   2.862  1.00  0.00    -0.285 OA
ATOM      8  C   UNL     1      -3.941  14.791   4.770  1.00  0.00     0.111 A 
ATOM      9  C   UNL     1      -3.969  13.547   6.875  1.00  0.00     0.094 A 
ATOM     10  C   UNL     1      -5.339  15.047   4.930  1.00  0.00     0.134 A 
ATOM     11  C   UNL     1      -5.325  13.840   7.044  1.00  0.00     0.123 A 
ATOM     12  C   UNL     1      -6.000  14.590   6.078  1.00  0.00     0.093 A 
BRANCH   3  13
ATOM     13  C   UNL     1       0.189  13.728   4.626  1.00  0.00     0.025 A 
ATOM     14  C   UNL     1       0.836  13.366   3.433  1.00  0.00     0.016 A 
ATOM     15  C   UNL     1       2.188  13.005   3.444  1.00  0.00     0.051 A 
ATOM     16  C   UNL     1       2.910  13.005   4.641  1.00  0.00     0.157 A 
ATOM     17  C   UNL     1       0.922  13.750   5.824  1.00  0.00     0.062 A 
ATOM     18  C   UNL     1       2.277  13.385   5.836  1.00  0.00     0.158 A 
BRANCH  16  19
ATOM     19  O   UNL     1       4.252  12.630   4.625  1.00  0.00    -0.504 OA
ATOM     20  H   UNL     1       4.848  12.798   3.824  1.00  0.00     0.293 HD
ENDBRANCH  16  19
BRANCH  18  21
ATOM     21  O   UNL     1       2.994  13.399   7.032  1.00  0.00    -0.504 OA
ATOM     22  H   UNL     1       3.993  13.240   7.053  1.00  0.00     0.293 HD
ENDBRANCH  18  21
ENDBRANCH   3  13
BRANCH  10  23
ATOM     23  O   UNL     1      -6.125  15.714   3.987  1.00  0.00    -0.507 OA
ATOM     24  H   UNL     1      -5.929  15.767   3.001  1.00  0.00     0.293 HD
ENDBRANCH  10  23
BRANCH  11  25
ATOM     25  O   UNL     1      -5.994  13.374   8.175  1.00  0.00    -0.508 OA
ATOM     26  H   UNL     1      -6.603  12.566   8.135  1.00  0.00     0.293 HD
ENDBRANCH  11  25
ENDBRANCH   1   2
BRANCH   1  27
ATOM     27  C   UNL     1      -1.372  15.413   1.154  1.00  0.00     0.339 C 
ATOM     28  C   UNL     1      -2.087  14.099   0.713  1.00  0.00     0.214 C 
ATOM     29  O   UNL     1      -0.225  15.701   0.361  1.00  0.00    -0.332 OA
ATOM     30  C   UNL     1      -1.184  13.291  -0.241  1.00  0.00     0.180 C 
ATOM     31  C   UNL     1      -0.548  15.634  -1.016  1.00  0.00     0.179 C 
ATOM     32  C   UNL     1      -0.712  14.148  -1.445  1.00  0.00     0.177 C 
BRANCH  28  33
ATOM     33  O   UNL     1      -3.300  14.405   0.072  1.00  0.00    -0.384 OA
ATOM     34  H   UNL     1      -3.076  14.646  -0.864  1.00  0.00     0.211 HD
ENDBRANCH  28  33
BRANCH  30  35
ATOM     35  O   UNL     1      -1.814  12.107  -0.665  1.00  0.00    -0.387 OA
ATOM     36  H   UNL     1      -2.794  12.227  -0.561  1.00  0.00     0.211 HD
ENDBRANCH  30  35
BRANCH  31  37
ATOM     37  C   UNL     1       0.524  16.374  -1.829  1.00  0.00     0.191 C 
BRANCH  37  38
ATOM     38  O   UNL     1       1.773  16.272  -1.197  1.00  0.00    -0.394 OA
ATOM     39  H   UNL     1       2.304  17.063  -1.480  1.00  0.00     0.210 HD
ENDBRANCH  37  38
ENDBRANCH  31  37
BRANCH  32  40
ATOM     40  O   UNL     1       0.501  13.627  -1.927  1.00  0.00    -0.387 OA
ATOM     41  H   UNL     1       0.784  14.207  -2.681  1.00  0.00     0.211 HD
ENDBRANCH  32  40
ENDBRANCH   1  27
TORSDOF 12
ENDMDL
MODEL 7
REMARK VINA RESULT:    -5.566      2.374      7.657
REMARK INTER + INTRA:          -9.499
REMARK INTER:                  -8.641
REMARK INTRA:                  -0.858
REMARK UNBOUND:                -1.330
REMARK SMILES O=c1c(O[C@H]2O[C@@H](CO)[C@@H](O)[C@H](O)[C@@H]2O)c(-c2ccc(O)c(O)c2)oc2cc(O)cc(O)c12
REMARK SMILES IDX 4 1 3 2 16 3 25 4 2 5 26 6 1 7 33 8 27 9 31 10 28 11 30 12
REMARK SMILES IDX 17 13 18 14 19 15 20 16 24 17 22 18 21 19 23 21 32 23 29 25
REMARK SMILES IDX 5 27 14 28 6 29 12 30 7 31 10 32 15 33 13 35 8 37 9 38 11 40
REMARK H PARENT 21 20 23 22 32 24 29 26 15 34 13 36 9 39 11 41
REMARK Flexibility Score: inf
ROOT
ATOM      1  O   UNL     1      -1.574  13.865   1.406  1.00  0.00    -0.454 OA
ENDROOT
BRANCH   1   2
ATOM      2  C   UNL     1      -2.205  14.682   2.365  1.00  0.00     0.214 A 
ATOM      3  C   UNL     1      -1.604  14.808   3.632  1.00  0.00     0.180 A 
ATOM      4  O   UNL     1      -2.197  15.517   4.583  1.00  0.00    -0.452 OA
ATOM      5  C   UNL     1      -3.418  15.367   2.127  1.00  0.00     0.239 A 
ATOM      6  C   UNL     1      -3.354  16.142   4.416  1.00  0.00     0.146 A 
ATOM      7  O   UNL     1      -3.909  15.375   0.969  1.00  0.00    -0.285 OA
ATOM      8  C   UNL     1      -4.045  16.077   3.178  1.00  0.00     0.111 A 
ATOM      9  C   UNL     1      -3.872  16.877   5.483  1.00  0.00     0.094 A 
ATOM     10  C   UNL     1      -5.302  16.749   3.064  1.00  0.00     0.134 A 
ATOM     11  C   UNL     1      -5.080  17.567   5.347  1.00  0.00     0.123 A 
ATOM     12  C   UNL     1      -5.784  17.505   4.142  1.00  0.00     0.093 A 
BRANCH   3  13
ATOM     13  C   UNL     1      -0.321  14.147   3.962  1.00  0.00     0.025 A 
ATOM     14  C   UNL     1      -0.229  13.217   5.010  1.00  0.00     0.016 A 
ATOM     15  C   UNL     1       0.988  12.585   5.289  1.00  0.00     0.051 A 
ATOM     16  C   UNL     1       2.124  12.869   4.525  1.00  0.00     0.157 A 
ATOM     17  C   UNL     1       0.815  14.413   3.180  1.00  0.00     0.062 A 
ATOM     18  C   UNL     1       2.037  13.783   3.462  1.00  0.00     0.158 A 
BRANCH  16  19
ATOM     19  O   UNL     1       3.326  12.234   4.832  1.00  0.00    -0.504 OA
ATOM     20  H   UNL     1       3.653  11.425   4.319  1.00  0.00     0.293 HD
ENDBRANCH  16  19
BRANCH  18  21
ATOM     21  O   UNL     1       3.163  14.062   2.688  1.00  0.00    -0.504 OA
ATOM     22  H   UNL     1       3.135  14.021   1.677  1.00  0.00     0.293 HD
ENDBRANCH  18  21
ENDBRANCH   3  13
BRANCH  10  23
ATOM     23  O   UNL     1      -6.124  16.684   1.937  1.00  0.00    -0.507 OA
ATOM     24  H   UNL     1      -6.844  17.348   1.704  1.00  0.00     0.293 HD
ENDBRANCH  10  23
BRANCH  11  25
ATOM     25  O   UNL     1      -5.575  18.306   6.419  1.00  0.00    -0.508 OA
ATOM     26  H   UNL     1      -6.242  19.056   6.284  1.00  0.00     0.293 HD
ENDBRANCH  11  25
ENDBRANCH   1   2
BRANCH   1  27
ATOM     27  C   UNL     1      -1.240  14.228   0.066  1.00  0.00     0.339 C 
ATOM     28  C   UNL     1      -1.084  12.923  -0.774  1.00  0.00     0.214 C 
ATOM     29  O   UNL     1      -0.051  15.010   0.082  1.00  0.00    -0.332 OA
ATOM     30  C   UNL     1       0.402  12.662  -1.089  1.00  0.00     0.180 C 
ATOM     31  C   UNL     1       0.427  15.206  -1.236  1.00  0.00     0.179 C 
ATOM     32  C   UNL     1       1.068  13.890  -1.764  1.00  0.00     0.177 C 
BRANCH  28  33
ATOM     33  O   UNL     1      -1.810  13.034  -1.972  1.00  0.00    -0.384 OA
ATOM     34  H   UNL     1      -2.202  12.142  -2.154  1.00  0.00     0.211 HD
ENDBRANCH  28  33
BRANCH  30  35
ATOM     35  O   UNL     1       0.568  11.497  -1.860  1.00  0.00    -0.387 OA
ATOM     36  H   UNL     1      -0.124  11.500  -2.573  1.00  0.00     0.211 HD
ENDBRANCH  30  35
BRANCH  31  37
ATOM     37  C   UNL     1       1.402  16.393  -1.255  1.00  0.00     0.191 C 
BRANCH  37  38
ATOM     38  O   UNL     1       2.072  16.494  -0.026  1.00  0.00    -0.394 OA
ATOM     39  H   UNL     1       2.480  15.605   0.152  1.00  0.00     0.210 HD
ENDBRANCH  37  38
ENDBRANCH  31  37
BRANCH  32  40
ATOM     40  O   UNL     1       2.448  13.863  -1.500  1.00  0.00    -0.387 OA
ATOM     41  H   UNL     1       2.623  13.049  -0.960  1.00  0.00     0.211 HD
ENDBRANCH  32  40
ENDBRANCH   1  27
TORSDOF 12
ENDMDL
MODEL 8
REMARK VINA RESULT:    -5.485      2.484      7.976
REMARK INTER + INTRA:          -9.380
REMARK INTER:                  -8.910
REMARK INTRA:                  -0.470
REMARK UNBOUND:                -1.330
REMARK SMILES O=c1c(O[C@H]2O[C@@H](CO)[C@@H](O)[C@H](O)[C@@H]2O)c(-c2ccc(O)c(O)c2)oc2cc(O)cc(O)c12
REMARK SMILES IDX 4 1 3 2 16 3 25 4 2 5 26 6 1 7 33 8 27 9 31 10 28 11 30 12
REMARK SMILES IDX 17 13 18 14 19 15 20 16 24 17 22 18 21 19 23 21 32 23 29 25
REMARK SMILES IDX 5 27 14 28 6 29 12 30 7 31 10 32 15 33 13 35 8 37 9 38 11 40
REMARK H PARENT 21 20 23 22 32 24 29 26 15 34 13 36 9 39 11 41
REMARK Flexibility Score: inf
ROOT
ATOM      1  O   UNL     1      -0.964  15.253   2.503  1.00  0.00    -0.454 OA
ENDROOT
BRANCH   1   2
ATOM      2  C   UNL     1      -1.782  14.910   3.598  1.00  0.00     0.214 A 
ATOM      3  C   UNL     1      -1.214  14.163   4.646  1.00  0.00     0.180 A 
ATOM      4  O   UNL     1      -1.965  13.765   5.665  1.00  0.00    -0.452 OA
ATOM      5  C   UNL     1      -3.149  15.262   3.689  1.00  0.00     0.239 A 
ATOM      6  C   UNL     1      -3.257  14.039   5.771  1.00  0.00     0.146 A 
ATOM      7  O   UNL     1      -3.648  16.035   2.832  1.00  0.00    -0.285 OA
ATOM      8  C   UNL     1      -3.930  14.784   4.768  1.00  0.00     0.111 A 
ATOM      9  C   UNL     1      -3.942  13.587   6.901  1.00  0.00     0.094 A 
ATOM     10  C   UNL     1      -5.330  15.026   4.922  1.00  0.00     0.134 A 
ATOM     11  C   UNL     1      -5.301  13.867   7.063  1.00  0.00     0.123 A 
ATOM     12  C   UNL     1      -5.986  14.587   6.081  1.00  0.00     0.093 A 
BRANCH   3  13
ATOM     13  C   UNL     1       0.213  13.770   4.646  1.00  0.00     0.025 A 
ATOM     14  C   UNL     1       0.866  13.392   3.462  1.00  0.00     0.016 A 
ATOM     15  C   UNL     1       2.222  13.049   3.480  1.00  0.00     0.051 A 
ATOM     16  C   UNL     1       2.943  13.082   4.677  1.00  0.00     0.157 A 
ATOM     17  C   UNL     1       0.945  13.826   5.844  1.00  0.00     0.062 A 
ATOM     18  C   UNL     1       2.305  13.478   5.865  1.00  0.00     0.158 A 
BRANCH  16  19
ATOM     19  O   UNL     1       4.291  12.724   4.669  1.00  0.00    -0.504 OA
ATOM     20  H   UNL     1       5.031  13.414   4.694  1.00  0.00     0.293 HD
ENDBRANCH  16  19
BRANCH  18  21
ATOM     21  O   UNL     1       3.021  13.525   7.060  1.00  0.00    -0.504 OA
ATOM     22  H   UNL     1       3.882  13.009   7.182  1.00  0.00     0.293 HD
ENDBRANCH  18  21
ENDBRANCH   3  13
BRANCH  10  23
ATOM     23  O   UNL     1      -6.125  15.661   3.965  1.00  0.00    -0.507 OA
ATOM     24  H   UNL     1      -5.879  15.786   2.997  1.00  0.00     0.293 HD
ENDBRANCH  10  23
BRANCH  11  25
ATOM     25  O   UNL     1      -5.964  13.419   8.205  1.00  0.00    -0.508 OA
ATOM     26  H   UNL     1      -5.531  13.454   9.119  1.00  0.00     0.293 HD
ENDBRANCH  11  25
ENDBRANCH   1   2
BRANCH   1  27
ATOM     27  C   UNL     1      -1.039  14.715   1.183  1.00  0.00     0.339 C 
ATOM     28  C   UNL     1      -1.169  15.898   0.174  1.00  0.00     0.214 C 
ATOM     29  O   UNL     1      -2.140  13.816   1.112  1.00  0.00    -0.332 OA
ATOM     30  C   UNL     1      -2.600  15.962  -0.395  1.00  0.00     0.180 C 
ATOM     31  C   UNL     1      -2.374  13.429  -0.229  1.00  0.00     0.179 C 
ATOM     32  C   UNL     1      -3.034  14.604  -1.007  1.00  0.00     0.177 C 
BRANCH  28  33
ATOM     33  O   UNL     1      -0.248  15.737  -0.875  1.00  0.00    -0.384 OA
ATOM     34  H   UNL     1       0.656  15.775  -0.471  1.00  0.00     0.211 HD
ENDBRANCH  28  33
BRANCH  30  35
ATOM     35  O   UNL     1      -2.739  17.012  -1.320  1.00  0.00    -0.387 OA
ATOM     36  H   UNL     1      -1.837  17.389  -1.495  1.00  0.00     0.211 HD
ENDBRANCH  30  35
BRANCH  31  37
ATOM     37  C   UNL     1      -3.223  12.149  -0.251  1.00  0.00     0.191 C 
BRANCH  37  38
ATOM     38  O   UNL     1      -3.544  11.798  -1.571  1.00  0.00    -0.394 OA
ATOM     39  H   UNL     1      -4.475  12.107  -1.732  1.00  0.00     0.210 HD
ENDBRANCH  37  38
ENDBRANCH  31  37
BRANCH  32  40
ATOM     40  O   UNL     1      -4.436  14.511  -0.964  1.00  0.00    -0.387 OA
ATOM     41  H   UNL     1      -4.664  13.549  -1.051  1.00  0.00     0.211 HD
ENDBRANCH  32  40
ENDBRANCH   1  27
TORSDOF 12
ENDMDL
MODEL 9
REMARK VINA RESULT:    -5.422      1.597      5.604
REMARK INTER + INTRA:          -9.288
REMARK INTER:                  -8.828
REMARK INTRA:                  -0.460
REMARK UNBOUND:                -1.330
REMARK SMILES O=c1c(O[C@H]2O[C@@H](CO)[C@@H](O)[C@H](O)[C@@H]2O)c(-c2ccc(O)c(O)c2)oc2cc(O)cc(O)c12
REMARK SMILES IDX 4 1 3 2 16 3 25 4 2 5 26 6 1 7 33 8 27 9 31 10 28 11 30 12
REMARK SMILES IDX 17 13 18 14 19 15 20 16 24 17 22 18 21 19 23 21 32 23 29 25
REMARK SMILES IDX 5 27 14 28 6 29 12 30 7 31 10 32 15 33 13 35 8 37 9 38 11 40
REMARK H PARENT 21 20 23 22 32 24 29 26 15 34 13 36 9 39 11 41
REMARK Flexibility Score: inf
ROOT
ATOM      1  O   UNL     1      -1.733  14.170   2.522  1.00  0.00    -0.454 OA
ENDROOT
BRANCH   1   2
ATOM      2  C   UNL     1      -0.368  14.301   2.846  1.00  0.00     0.214 A 
ATOM      3  C   UNL     1       0.060  13.870   4.115  1.00  0.00     0.180 A 
ATOM      4  O   UNL     1       1.324  14.032   4.482  1.00  0.00    -0.452 OA
ATOM      5  C   UNL     1       0.589  14.860   1.968  1.00  0.00     0.239 A 
ATOM      6  C   UNL     1       2.245  14.587   3.707  1.00  0.00     0.146 A 
ATOM      7  O   UNL     1       0.260  15.135   0.786  1.00  0.00    -0.285 OA
ATOM      8  C   UNL     1       1.918  15.059   2.409  1.00  0.00     0.111 A 
ATOM      9  C   UNL     1       3.551  14.686   4.192  1.00  0.00     0.094 A 
ATOM     10  C   UNL     1       2.947  15.672   1.628  1.00  0.00     0.134 A 
ATOM     11  C   UNL     1       4.558  15.247   3.403  1.00  0.00     0.123 A 
ATOM     12  C   UNL     1       4.255  15.731   2.128  1.00  0.00     0.093 A 
BRANCH   3  13
ATOM     13  C   UNL     1      -0.867  13.251   5.088  1.00  0.00     0.025 A 
ATOM     14  C   UNL     1      -0.618  11.978   5.626  1.00  0.00     0.016 A 
ATOM     15  C   UNL     1      -1.495  11.423   6.564  1.00  0.00     0.051 A 
ATOM     16  C   UNL     1      -2.627  12.129   6.978  1.00  0.00     0.157 A 
ATOM     17  C   UNL     1      -1.993  13.970   5.524  1.00  0.00     0.062 A 
ATOM     18  C   UNL     1      -2.876  13.411   6.461  1.00  0.00     0.158 A 
BRANCH  16  19
ATOM     19  O   UNL     1      -3.491  11.547   7.905  1.00  0.00    -0.504 OA
ATOM     20  H   UNL     1      -3.325  10.625   8.289  1.00  0.00     0.293 HD
ENDBRANCH  16  19
BRANCH  18  21
ATOM     21  O   UNL     1      -3.997  14.127   6.879  1.00  0.00    -0.504 OA
ATOM     22  H   UNL     1      -4.199  15.051   6.521  1.00  0.00     0.293 HD
ENDBRANCH  18  21
ENDBRANCH   3  13
BRANCH  10  23
ATOM     23  O   UNL     1       2.735  16.261   0.379  1.00  0.00    -0.507 OA
ATOM     24  H   UNL     1       2.356  17.181   0.228  1.00  0.00     0.293 HD
ENDBRANCH  10  23
BRANCH  11  25
ATOM     25  O   UNL     1       5.858  15.325   3.900  1.00  0.00    -0.508 OA
ATOM     26  H   UNL     1       6.648  15.508   3.293  1.00  0.00     0.293 HD
ENDBRANCH  11  25
ENDBRANCH   1   2
BRANCH   1  27
ATOM     27  C   UNL     1      -2.340  14.449   1.260  1.00  0.00     0.339 C 
ATOM     28  C   UNL     1      -3.537  15.423   1.492  1.00  0.00     0.214 C 
ATOM     29  O   UNL     1      -2.746  13.222   0.662  1.00  0.00    -0.332 OA
ATOM     30  C   UNL     1      -4.875  14.679   1.319  1.00  0.00     0.180 C 
ATOM     31  C   UNL     1      -3.539  13.472  -0.484  1.00  0.00     0.179 C 
ATOM     32  C   UNL     1      -4.953  13.951  -0.049  1.00  0.00     0.177 C 
BRANCH  28  33
ATOM     33  O   UNL     1      -3.468  16.492   0.582  1.00  0.00    -0.384 OA
ATOM     34  H   UNL     1      -4.396  16.813   0.447  1.00  0.00     0.211 HD
ENDBRANCH  28  33
BRANCH  30  35
ATOM     35  O   UNL     1      -5.971  15.540   1.508  1.00  0.00    -0.387 OA
ATOM     36  H   UNL     1      -5.887  16.290   0.863  1.00  0.00     0.211 HD
ENDBRANCH  30  35
BRANCH  31  37
ATOM     37  C   UNL     1      -3.581  12.211  -1.360  1.00  0.00     0.191 C 
BRANCH  37  38
ATOM     38  O   UNL     1      -3.441  11.061  -0.569  1.00  0.00    -0.394 OA
ATOM     39  H   UNL     1      -3.499  10.281  -1.182  1.00  0.00     0.210 HD
ENDBRANCH  37  38
ENDBRANCH  31  37
BRANCH  32  40
ATOM     40  O   UNL     1      -5.840  12.866   0.061  1.00  0.00    -0.387 OA
ATOM     41  H   UNL     1      -5.566  12.350   0.863  1.00  0.00     0.211 HD
ENDBRANCH  32  40
ENDBRANCH   1  27
TORSDOF 12
ENDMDL
