MODEL 1
REMARK VINA RESULT:    -2.930      0.000      0.000
REMARK INTER + INTRA:          -3.513
REMARK INTER:                  -3.443
REMARK INTRA:                  -0.070
REMARK UNBOUND:                -0.070
REMARK SMILES CCCCC(=O)[O-]
REMARK SMILES IDX 4 1 5 2 6 3 7 4 3 5 2 6 1 7
REMARK H PARENT
REMARK Flexibility Score: inf
ROOT
ATOM      1  C   UNL     1      19.743  12.818 -15.970  1.00  0.00     0.053 C 
ENDROOT
BRANCH   1   2
ATOM      2  C   UNL     1      18.472  12.594 -16.731  1.00  0.00     0.041 C 
ATOM      3  O   UNL     1      18.204  13.300 -17.737  1.00  0.00    -0.550 OA
ATOM      4  O   UNL     1      17.602  11.581 -16.348  1.00  0.00    -0.550 OA
ENDBRANCH   1   2
BRANCH   1   5
ATOM      5  C   UNL     1      19.908  14.286 -15.543  1.00  0.00     0.006 C 
BRANCH   5   6
ATOM      6  C   UNL     1      21.008  15.043 -16.308  1.00  0.00    -0.003 C 
ATOM      7  C   UNL     1      20.573  16.440 -16.749  1.00  0.00     0.004 C 
ENDBRANCH   5   6
ENDBRANCH   1   5
TORSDOF 3
ENDMDL
MODEL 2
REMARK VINA RESULT:    -2.923      0.988      1.747
REMARK INTER + INTRA:          -3.505
REMARK INTER:                  -3.402
REMARK INTRA:                  -0.103
REMARK UNBOUND:                -0.070
REMARK SMILES CCCCC(=O)[O-]
REMARK SMILES IDX 4 1 5 2 6 3 7 4 3 5 2 6 1 7
REMARK H PARENT
REMARK Flexibility Score: inf
ROOT
ATOM      1  C   UNL     1      19.923  14.219 -15.475  1.00  0.00     0.053 C 
ENDROOT
BRANCH   1   2
ATOM      2  C   UNL     1      19.320  13.113 -16.287  1.00  0.00     0.041 C 
ATOM      3  O   UNL     1      19.614  11.915 -16.040  1.00  0.00    -0.550 OA
ATOM      4  O   UNL     1      18.409  13.406 -17.293  1.00  0.00    -0.550 OA
ENDBRANCH   1   2
BRANCH   1   5
ATOM      5  C   UNL     1      21.007  14.981 -16.255  1.00  0.00     0.006 C 
BRANCH   5   6
ATOM      6  C   UNL     1      20.623  16.427 -16.617  1.00  0.00    -0.003 C 
ATOM      7  C   UNL     1      19.901  16.532 -17.960  1.00  0.00     0.004 C 
ENDBRANCH   5   6
ENDBRANCH   1   5
TORSDOF 3
ENDMDL
MODEL 3
REMARK VINA RESULT:    -2.856      2.832      4.100
REMARK INTER + INTRA:          -3.427
REMARK INTER:                  -3.411
REMARK INTRA:                  -0.016
REMARK UNBOUND:                -0.070
REMARK SMILES CCCCC(=O)[O-]
REMARK SMILES IDX 4 1 5 2 6 3 7 4 3 5 2 6 1 7
REMARK H PARENT
REMARK Flexibility Score: inf
ROOT
ATOM      1  C   UNL     1      20.200  14.686 -15.641  1.00  0.00     0.053 C 
ENDROOT
BRANCH   1   2
ATOM      2  C   UNL     1      21.017  15.682 -16.405  1.00  0.00     0.041 C 
ATOM      3  O   UNL     1      20.488  16.740 -16.833  1.00  0.00    -0.550 OA
ATOM      4  O   UNL     1      22.372  15.456 -16.615  1.00  0.00    -0.550 OA
ENDBRANCH   1   2
BRANCH   1   5
ATOM      5  C   UNL     1      19.348  13.805 -16.570  1.00  0.00     0.006 C 
BRANCH   5   6
ATOM      6  C   UNL     1      19.035  12.410 -16.001  1.00  0.00    -0.003 C 
ATOM      7  C   UNL     1      17.822  11.756 -16.662  1.00  0.00     0.004 C 
ENDBRANCH   5   6
ENDBRANCH   1   5
TORSDOF 3
ENDMDL
MODEL 4
REMARK VINA RESULT:    -2.842      2.889      4.156
REMARK INTER + INTRA:          -3.410
REMARK INTER:                  -3.393
REMARK INTRA:                  -0.017
REMARK UNBOUND:                -0.070
REMARK SMILES CCCCC(=O)[O-]
REMARK SMILES IDX 4 1 5 2 6 3 7 4 3 5 2 6 1 7
REMARK H PARENT
REMARK Flexibility Score: inf
ROOT
ATOM      1  C   UNL     1      20.216  14.701 -15.646  1.00  0.00     0.053 C 
ENDROOT
BRANCH   1   2
ATOM      2  C   UNL     1      21.105  15.641 -16.401  1.00  0.00     0.041 C 
ATOM      3  O   UNL     1      22.317  15.356 -16.585  1.00  0.00    -0.550 OA
ATOM      4  O   UNL     1      20.586  16.816 -16.929  1.00  0.00    -0.550 OA
ENDBRANCH   1   2
BRANCH   1   5
ATOM      5  C   UNL     1      19.382  13.816 -16.587  1.00  0.00     0.006 C 
BRANCH   5   6
ATOM      6  C   UNL     1      19.030  12.435 -16.004  1.00  0.00    -0.003 C 
ATOM      7  C   UNL     1      17.829  11.788 -16.694  1.00  0.00     0.004 C 
ENDBRANCH   5   6
ENDBRANCH   1   5
TORSDOF 3
ENDMDL
MODEL 5
REMARK VINA RESULT:    -2.799      2.591      4.024
REMARK INTER + INTRA:          -3.360
REMARK INTER:                  -3.313
REMARK INTRA:                  -0.047
REMARK UNBOUND:                -0.070
REMARK SMILES CCCCC(=O)[O-]
REMARK SMILES IDX 4 1 5 2 6 3 7 4 3 5 2 6 1 7
REMARK H PARENT
REMARK Flexibility Score: inf
ROOT
ATOM      1  C   UNL     1      21.377  15.816 -16.333  1.00  0.00     0.053 C 
ENDROOT
BRANCH   1   2
ATOM      2  C   UNL     1      20.889  16.504 -17.571  1.00  0.00     0.041 C 
ATOM      3  O   UNL     1      21.711  16.964 -18.406  1.00  0.00    -0.550 OA
ATOM      4  O   UNL     1      19.527  16.608 -17.818  1.00  0.00    -0.550 OA
ENDBRANCH   1   2
BRANCH   1   5
ATOM      5  C   UNL     1      20.997  14.326 -16.314  1.00  0.00     0.006 C 
BRANCH   5   6
ATOM      6  C   UNL     1      19.772  14.002 -15.441  1.00  0.00    -0.003 C 
ATOM      7  C   UNL     1      19.132  12.658 -15.790  1.00  0.00     0.004 C 
ENDBRANCH   5   6
ENDBRANCH   1   5
TORSDOF 3
ENDMDL
MODEL 6
REMARK VINA RESULT:    -2.679      2.339      4.170
REMARK INTER + INTRA:          -3.219
REMARK INTER:                  -3.198
REMARK INTRA:                  -0.021
REMARK UNBOUND:                -0.070
REMARK SMILES CCCCC(=O)[O-]
REMARK SMILES IDX 4 1 5 2 6 3 7 4 3 5 2 6 1 7
REMARK H PARENT
REMARK Flexibility Score: inf
ROOT
ATOM      1  C   UNL     1      20.103  12.353 -16.265  1.00  0.00     0.053 C 
ENDROOT
BRANCH   1   2
ATOM      2  C   UNL     1      19.555  13.746 -16.209  1.00  0.00     0.041 C 
ATOM      3  O   UNL     1      19.834  14.498 -15.239  1.00  0.00    -0.550 OA
ATOM      4  O   UNL     1      18.763  14.224 -17.245  1.00  0.00    -0.550 OA
ENDBRANCH   1   2
BRANCH   1   5
ATOM      5  C   UNL     1      18.995  11.306 -16.470  1.00  0.00     0.006 C 
BRANCH   5   6
ATOM      6  C   UNL     1      19.460  10.036 -17.205  1.00  0.00    -0.003 C 
ATOM      7  C   UNL     1      19.391   8.784 -16.330  1.00  0.00     0.004 C 
ENDBRANCH   5   6
ENDBRANCH   1   5
TORSDOF 3
ENDMDL
MODEL 7
REMARK VINA RESULT:    -2.629      1.898      2.552
REMARK INTER + INTRA:          -3.160
REMARK INTER:                  -3.057
REMARK INTRA:                  -0.103
REMARK UNBOUND:                -0.070
REMARK SMILES CCCCC(=O)[O-]
REMARK SMILES IDX 4 1 5 2 6 3 7 4 3 5 2 6 1 7
REMARK H PARENT
REMARK Flexibility Score: inf
ROOT
ATOM      1  C   UNL     1      18.549  11.826 -16.508  1.00  0.00     0.053 C 
ENDROOT
BRANCH   1   2
ATOM      2  C   UNL     1      19.467  10.713 -16.913  1.00  0.00     0.041 C 
ATOM      3  O   UNL     1      19.367   9.582 -16.372  1.00  0.00    -0.550 OA
ATOM      4  O   UNL     1      20.410  10.918 -17.912  1.00  0.00    -0.550 OA
ENDBRANCH   1   2
BRANCH   1   5
ATOM      5  C   UNL     1      19.231  12.816 -15.549  1.00  0.00     0.006 C 
BRANCH   5   6
ATOM      6  C   UNL     1      19.673  14.132 -16.214  1.00  0.00    -0.003 C 
ATOM      7  C   UNL     1      21.192  14.266 -16.316  1.00  0.00     0.004 C 
ENDBRANCH   5   6
ENDBRANCH   1   5
TORSDOF 3
ENDMDL
MODEL 8
REMARK VINA RESULT:    -2.624      1.960      2.295
REMARK INTER + INTRA:          -3.154
REMARK INTER:                  -3.067
REMARK INTRA:                  -0.087
REMARK UNBOUND:                -0.070
REMARK SMILES CCCCC(=O)[O-]
REMARK SMILES IDX 4 1 5 2 6 3 7 4 3 5 2 6 1 7
REMARK H PARENT
REMARK Flexibility Score: inf
ROOT
ATOM      1  C   UNL     1      18.942  14.046 -17.378  1.00  0.00     0.053 C 
ENDROOT
BRANCH   1   2
ATOM      2  C   UNL     1      19.522  13.553 -16.088  1.00  0.00     0.041 C 
ATOM      3  O   UNL     1      19.839  14.369 -15.184  1.00  0.00    -0.550 OA
ATOM      4  O   UNL     1      19.680  12.190 -15.872  1.00  0.00    -0.550 OA
ENDBRANCH   1   2
BRANCH   1   5
ATOM      5  C   UNL     1      19.947  14.892 -18.176  1.00  0.00     0.006 C 
BRANCH   5   6
ATOM      6  C   UNL     1      19.742  16.411 -18.036  1.00  0.00    -0.003 C 
ATOM      7  C   UNL     1      20.993  17.137 -17.544  1.00  0.00     0.004 C 
ENDBRANCH   5   6
ENDBRANCH   1   5
TORSDOF 3
ENDMDL
MODEL 9
REMARK VINA RESULT:    -2.505      3.626      5.489
REMARK INTER + INTRA:          -3.014
REMARK INTER:                  -2.997
REMARK INTRA:                  -0.016
REMARK UNBOUND:                -0.070
REMARK SMILES CCCCC(=O)[O-]
REMARK SMILES IDX 4 1 5 2 6 3 7 4 3 5 2 6 1 7
REMARK H PARENT
REMARK Flexibility Score: inf
ROOT
ATOM      1  C   UNL     1      19.071   9.960 -17.321  1.00  0.00     0.053 C 
ENDROOT
BRANCH   1   2
ATOM      2  C   UNL     1      18.733  11.236 -16.612  1.00  0.00     0.041 C 
ATOM      3  O   UNL     1      17.532  11.583 -16.473  1.00  0.00    -0.550 OA
ATOM      4  O   UNL     1      19.745  12.022 -16.077  1.00  0.00    -0.550 OA
ENDBRANCH   1   2
BRANCH   1   5
ATOM      5  C   UNL     1      19.391   8.821 -16.338  1.00  0.00     0.006 C 
BRANCH   5   6
ATOM      6  C   UNL     1      19.711   7.477 -17.017  1.00  0.00    -0.003 C 
ATOM      7  C   UNL     1      18.467   6.775 -17.561  1.00  0.00     0.004 C 
ENDBRANCH   5   6
ENDBRANCH   1   5
TORSDOF 3
ENDMDL
