MODEL 1
REMARK VINA RESULT:    -3.004      0.000      0.000
REMARK INTER + INTRA:          -3.362
REMARK INTER:                  -3.355
REMARK INTRA:                  -0.007
REMARK UNBOUND:                -0.007
REMARK SMILES CCCC(=O)[O-]
REMARK SMILES IDX 3 1 4 2 5 3 6 4 2 5 1 6
REMARK H PARENT
REMARK Flexibility Score: inf
ROOT
ATOM      1  C   UNL     1     -42.464 -35.373  37.077  1.00  0.00     0.052 C 
ENDROOT
BRANCH   1   2
ATOM      2  C   UNL     1     -43.824 -35.736  36.564  1.00  0.00     0.041 C 
ATOM      3  O   UNL     1     -44.156 -36.945  36.451  1.00  0.00    -0.550 OA
ATOM      4  O   UNL     1     -44.737 -34.738  36.245  1.00  0.00    -0.550 OA
ENDBRANCH   1   2
BRANCH   1   5
ATOM      5  C   UNL     1     -41.362 -35.732  36.071  1.00  0.00     0.003 C 
ATOM      6  C   UNL     1     -39.970 -35.713  36.703  1.00  0.00     0.004 C 
ENDBRANCH   1   5
TORSDOF 2
ENDMDL
MODEL 2
REMARK VINA RESULT:    -2.867      2.217      3.400
REMARK INTER + INTRA:          -3.210
REMARK INTER:                  -3.141
REMARK INTRA:                  -0.069
REMARK UNBOUND:                -0.007
REMARK SMILES CCCC(=O)[O-]
REMARK SMILES IDX 3 1 4 2 5 3 6 4 2 5 1 6
REMARK H PARENT
REMARK Flexibility Score: inf
ROOT
ATOM      1  C   UNL     1     -44.488 -35.356  36.420  1.00  0.00     0.052 C 
ENDROOT
BRANCH   1   2
ATOM      2  C   UNL     1     -43.154 -35.370  37.102  1.00  0.00     0.041 C 
ATOM      3  O   UNL     1     -43.073 -35.142  38.338  1.00  0.00    -0.550 OA
ATOM      4  O   UNL     1     -42.006 -35.670  36.380  1.00  0.00    -0.550 OA
ENDBRANCH   1   2
BRANCH   1   5
ATOM      5  C   UNL     1     -45.431 -36.423  36.990  1.00  0.00     0.003 C 
ATOM      6  C   UNL     1     -44.990 -37.842  36.627  1.00  0.00     0.004 C 
ENDBRANCH   1   5
TORSDOF 2
ENDMDL
MODEL 3
REMARK VINA RESULT:    -2.837      4.074      4.748
REMARK INTER + INTRA:          -3.176
REMARK INTER:                  -3.158
REMARK INTRA:                  -0.019
REMARK UNBOUND:                -0.007
REMARK SMILES CCCC(=O)[O-]
REMARK SMILES IDX 3 1 4 2 5 3 6 4 2 5 1 6
REMARK H PARENT
REMARK Flexibility Score: inf
ROOT
ATOM      1  C   UNL     1     -40.158 -34.961  38.416  1.00  0.00     0.052 C 
ENDROOT
BRANCH   1   2
ATOM      2  C   UNL     1     -39.445 -35.514  39.612  1.00  0.00     0.041 C 
ATOM      3  O   UNL     1     -39.504 -34.915  40.718  1.00  0.00    -0.550 OA
ATOM      4  O   UNL     1     -38.745 -36.711  39.514  1.00  0.00    -0.550 OA
ENDBRANCH   1   2
BRANCH   1   5
ATOM      5  C   UNL     1     -39.687 -35.623  37.116  1.00  0.00     0.003 C 
ATOM      6  C   UNL     1     -40.837 -35.869  36.139  1.00  0.00     0.004 C 
ENDBRANCH   1   5
TORSDOF 2
ENDMDL
MODEL 4
REMARK VINA RESULT:    -2.833     16.589     17.080
REMARK INTER + INTRA:          -3.172
REMARK INTER:                  -3.165
REMARK INTRA:                  -0.007
REMARK UNBOUND:                -0.007
REMARK SMILES CCCC(=O)[O-]
REMARK SMILES IDX 3 1 4 2 5 3 6 4 2 5 1 6
REMARK H PARENT
REMARK Flexibility Score: inf
ROOT
ATOM      1  C   UNL     1     -49.105 -22.275  45.759  1.00  0.00     0.052 C 
ENDROOT
BRANCH   1   2
ATOM      2  C   UNL     1     -50.056 -23.408  45.522  1.00  0.00     0.041 C 
ATOM      3  O   UNL     1     -49.731 -24.358  44.761  1.00  0.00    -0.550 OA
ATOM      4  O   UNL     1     -51.285 -23.433  46.168  1.00  0.00    -0.550 OA
ENDBRANCH   1   2
BRANCH   1   5
ATOM      5  C   UNL     1     -47.860 -22.728  46.531  1.00  0.00     0.003 C 
ATOM      6  C   UNL     1     -46.757 -21.669  46.531  1.00  0.00     0.004 C 
ENDBRANCH   1   5
TORSDOF 2
ENDMDL
MODEL 5
REMARK VINA RESULT:    -2.818      3.055      3.684
REMARK INTER + INTRA:          -3.155
REMARK INTER:                  -3.091
REMARK INTRA:                  -0.064
REMARK UNBOUND:                -0.007
REMARK SMILES CCCC(=O)[O-]
REMARK SMILES IDX 3 1 4 2 5 3 6 4 2 5 1 6
REMARK H PARENT
REMARK Flexibility Score: inf
ROOT
ATOM      1  C   UNL     1     -40.002 -35.115  38.306  1.00  0.00     0.052 C 
ENDROOT
BRANCH   1   2
ATOM      2  C   UNL     1     -40.633 -33.756  38.278  1.00  0.00     0.041 C 
ATOM      3  O   UNL     1     -41.816 -33.600  38.680  1.00  0.00    -0.550 OA
ATOM      4  O   UNL     1     -39.903 -32.658  37.842  1.00  0.00    -0.550 OA
ENDBRANCH   1   2
BRANCH   1   5
ATOM      5  C   UNL     1     -39.692 -35.628  36.894  1.00  0.00     0.003 C 
ATOM      6  C   UNL     1     -40.960 -35.932  36.095  1.00  0.00     0.004 C 
ENDBRANCH   1   5
TORSDOF 2
ENDMDL
MODEL 6
REMARK VINA RESULT:    -2.789      2.865      3.725
REMARK INTER + INTRA:          -3.123
REMARK INTER:                  -3.112
REMARK INTRA:                  -0.010
REMARK UNBOUND:                -0.007
REMARK SMILES CCCC(=O)[O-]
REMARK SMILES IDX 3 1 4 2 5 3 6 4 2 5 1 6
REMARK H PARENT
REMARK Flexibility Score: inf
ROOT
ATOM      1  C   UNL     1     -41.504 -35.671  36.227  1.00  0.00     0.052 C 
ENDROOT
BRANCH   1   2
ATOM      2  C   UNL     1     -40.249 -35.205  36.901  1.00  0.00     0.041 C 
ATOM      3  O   UNL     1     -39.193 -35.886  36.814  1.00  0.00    -0.550 OA
ATOM      4  O   UNL     1     -40.237 -34.002  37.595  1.00  0.00    -0.550 OA
ENDBRANCH   1   2
BRANCH   1   5
ATOM      5  C   UNL     1     -42.742 -35.426  37.098  1.00  0.00     0.003 C 
ATOM      6  C   UNL     1     -44.032 -35.382  36.277  1.00  0.00     0.004 C 
ENDBRANCH   1   5
TORSDOF 2
ENDMDL
MODEL 7
REMARK VINA RESULT:    -2.779      2.367      3.816
REMARK INTER + INTRA:          -3.111
REMARK INTER:                  -3.071
REMARK INTRA:                  -0.040
REMARK UNBOUND:                -0.007
REMARK SMILES CCCC(=O)[O-]
REMARK SMILES IDX 3 1 4 2 5 3 6 4 2 5 1 6
REMARK H PARENT
REMARK Flexibility Score: inf
ROOT
ATOM      1  C   UNL     1     -44.822 -37.302  36.678  1.00  0.00     0.052 C 
ENDROOT
BRANCH   1   2
ATOM      2  C   UNL     1     -44.236 -35.931  36.528  1.00  0.00     0.041 C 
ATOM      3  O   UNL     1     -42.987 -35.778  36.479  1.00  0.00    -0.550 OA
ATOM      4  O   UNL     1     -45.070 -34.826  36.408  1.00  0.00    -0.550 OA
ENDBRANCH   1   2
BRANCH   1   5
ATOM      5  C   UNL     1     -46.255 -37.252  37.223  1.00  0.00     0.003 C 
ATOM      6  C   UNL     1     -46.307 -37.429  38.741  1.00  0.00     0.004 C 
ENDBRANCH   1   5
TORSDOF 2
ENDMDL
MODEL 8
REMARK VINA RESULT:    -2.764      2.766      3.381
REMARK INTER + INTRA:          -3.095
REMARK INTER:                  -3.090
REMARK INTRA:                  -0.005
REMARK UNBOUND:                -0.007
REMARK SMILES CCCC(=O)[O-]
REMARK SMILES IDX 3 1 4 2 5 3 6 4 2 5 1 6
REMARK H PARENT
REMARK Flexibility Score: inf
ROOT
ATOM      1  C   UNL     1     -44.310 -35.667  36.506  1.00  0.00     0.052 C 
ENDROOT
BRANCH   1   2
ATOM      2  C   UNL     1     -44.518 -34.382  37.248  1.00  0.00     0.041 C 
ATOM      3  O   UNL     1     -43.726 -34.047  38.168  1.00  0.00    -0.550 OA
ATOM      4  O   UNL     1     -45.565 -33.537  36.899  1.00  0.00    -0.550 OA
ENDBRANCH   1   2
BRANCH   1   5
ATOM      5  C   UNL     1     -45.341 -36.729  36.908  1.00  0.00     0.003 C 
ATOM      6  C   UNL     1     -44.913 -38.139  36.498  1.00  0.00     0.004 C 
ENDBRANCH   1   5
TORSDOF 2
ENDMDL
MODEL 9
REMARK VINA RESULT:    -2.760      2.193      2.912
REMARK INTER + INTRA:          -3.090
REMARK INTER:                  -3.053
REMARK INTRA:                  -0.037
REMARK UNBOUND:                -0.007
REMARK SMILES CCCC(=O)[O-]
REMARK SMILES IDX 3 1 4 2 5 3 6 4 2 5 1 6
REMARK H PARENT
REMARK Flexibility Score: inf
ROOT
ATOM      1  C   UNL     1     -45.352 -35.642  36.869  1.00  0.00     0.052 C 
ENDROOT
BRANCH   1   2
ATOM      2  C   UNL     1     -45.770 -37.072  37.026  1.00  0.00     0.041 C 
ATOM      3  O   UNL     1     -46.860 -37.355  37.591  1.00  0.00    -0.550 OA
ATOM      4  O   UNL     1     -44.973 -38.090  36.518  1.00  0.00    -0.550 OA
ENDBRANCH   1   2
BRANCH   1   5
ATOM      5  C   UNL     1     -43.898 -35.522  36.396  1.00  0.00     0.003 C 
ATOM      6  C   UNL     1     -42.950 -35.121  37.527  1.00  0.00     0.004 C 
ENDBRANCH   1   5
TORSDOF 2
ENDMDL
