MODEL 1
REMARK VINA RESULT:    -2.806      0.000      0.000
REMARK INTER + INTRA:          -5.886
REMARK INTER:                  -4.447
REMARK INTRA:                  -1.438
REMARK UNBOUND:                -1.438
REMARK SMILES CCCCCCCCCCCC(=O)[O-]
REMARK SMILES IDX 7 1 8 2 9 3 10 4 11 5 12 6 13 7 14 8 6 9 5 10 4 11 3 12 2 13
REMARK SMILES IDX 1 14
REMARK H PARENT
REMARK Flexibility Score: inf
ROOT
ATOM      1  C   UNL     1     -25.420   2.514   3.354  1.00  0.00     0.000 C 
ENDROOT
BRANCH   1   2
ATOM      2  C   UNL     1     -25.584   2.012   1.903  1.00  0.00     0.000 C 
BRANCH   2   3
ATOM      3  C   UNL     1     -24.365   1.235   1.380  1.00  0.00     0.000 C 
BRANCH   3   4
ATOM      4  C   UNL     1     -23.085   1.519   2.179  1.00  0.00     0.006 C 
BRANCH   4   5
ATOM      5  C   UNL     1     -22.455   0.219   2.687  1.00  0.00     0.053 C 
BRANCH   5   6
ATOM      6  C   UNL     1     -21.470  -0.308   1.691  1.00  0.00     0.041 C 
ATOM      7  O   UNL     1     -20.390   0.305   1.484  1.00  0.00    -0.550 OA
ATOM      8  O   UNL     1     -21.766  -1.449   0.956  1.00  0.00    -0.550 OA
ENDBRANCH   5   6
ENDBRANCH   4   5
ENDBRANCH   3   4
ENDBRANCH   2   3
ENDBRANCH   1   2
BRANCH   1   9
ATOM      9  C   UNL     1     -25.486   4.048   3.448  1.00  0.00     0.000 C 
BRANCH   9  10
ATOM     10  C   UNL     1     -24.121   4.686   3.761  1.00  0.00    -0.000 C 
BRANCH  10  11
ATOM     11  C   UNL     1     -23.453   5.406   2.573  1.00  0.00    -0.000 C 
BRANCH  11  12
ATOM     12  C   UNL     1     -24.262   5.393   1.260  1.00  0.00    -0.000 C 
BRANCH  12  13
ATOM     13  C   UNL     1     -23.554   4.719   0.071  1.00  0.00    -0.003 C 
ATOM     14  C   UNL     1     -22.055   4.529   0.302  1.00  0.00     0.004 C 
ENDBRANCH  12  13
ENDBRANCH  11  12
ENDBRANCH  10  11
ENDBRANCH   9  10
ENDBRANCH   1   9
TORSDOF 10
ENDMDL
MODEL 2
REMARK VINA RESULT:    -2.705      2.099      4.533
REMARK INTER + INTRA:          -5.724
REMARK INTER:                  -4.572
REMARK INTRA:                  -1.152
REMARK UNBOUND:                -1.438
REMARK SMILES CCCCCCCCCCCC(=O)[O-]
REMARK SMILES IDX 7 1 8 2 9 3 10 4 11 5 12 6 13 7 14 8 6 9 5 10 4 11 3 12 2 13
REMARK SMILES IDX 1 14
REMARK H PARENT
REMARK Flexibility Score: inf
ROOT
ATOM      1  C   UNL     1     -25.434   2.391   3.191  1.00  0.00     0.000 C 
ENDROOT
BRANCH   1   2
ATOM      2  C   UNL     1     -25.953   3.843   3.268  1.00  0.00     0.000 C 
BRANCH   2   3
ATOM      3  C   UNL     1     -25.001   4.797   4.009  1.00  0.00     0.000 C 
BRANCH   3   4
ATOM      4  C   UNL     1     -23.578   4.790   3.432  1.00  0.00     0.006 C 
BRANCH   4   5
ATOM      5  C   UNL     1     -23.486   5.673   2.185  1.00  0.00     0.053 C 
BRANCH   5   6
ATOM      6  C   UNL     1     -23.210   4.839   0.973  1.00  0.00     0.041 C 
ATOM      7  O   UNL     1     -22.043   4.429   0.740  1.00  0.00    -0.550 OA
ATOM      8  O   UNL     1     -24.232   4.557   0.076  1.00  0.00    -0.550 OA
ENDBRANCH   5   6
ENDBRANCH   4   5
ENDBRANCH   3   4
ENDBRANCH   2   3
ENDBRANCH   1   2
BRANCH   1   9
ATOM      9  C   UNL     1     -25.555   1.806   1.773  1.00  0.00     0.000 C 
BRANCH   9  10
ATOM     10  C   UNL     1     -24.255   1.135   1.292  1.00  0.00    -0.000 C 
BRANCH  10  11
ATOM     11  C   UNL     1     -23.036   1.349   2.211  1.00  0.00    -0.000 C 
BRANCH  11  12
ATOM     12  C   UNL     1     -22.260   0.068   2.580  1.00  0.00    -0.000 C 
BRANCH  12  13
ATOM     13  C   UNL     1     -20.931  -0.122   1.828  1.00  0.00    -0.003 C 
ATOM     14  C   UNL     1     -20.571   1.073   0.945  1.00  0.00     0.004 C 
ENDBRANCH  12  13
ENDBRANCH  11  12
ENDBRANCH  10  11
ENDBRANCH   9  10
ENDBRANCH   1   9
TORSDOF 10
ENDMDL
MODEL 3
REMARK VINA RESULT:    -2.584      3.124      4.994
REMARK INTER + INTRA:          -5.533
REMARK INTER:                  -4.656
REMARK INTRA:                  -0.877
REMARK UNBOUND:                -1.438
REMARK SMILES CCCCCCCCCCCC(=O)[O-]
REMARK SMILES IDX 7 1 8 2 9 3 10 4 11 5 12 6 13 7 14 8 6 9 5 10 4 11 3 12 2 13
REMARK SMILES IDX 1 14
REMARK H PARENT
REMARK Flexibility Score: inf
ROOT
ATOM      1  C   UNL     1     -21.284   0.572   2.423  1.00  0.00     0.000 C 
ENDROOT
BRANCH   1   2
ATOM      2  C   UNL     1     -22.798   0.275   2.485  1.00  0.00     0.000 C 
BRANCH   2   3
ATOM      3  C   UNL     1     -23.656   1.286   1.707  1.00  0.00     0.000 C 
BRANCH   3   4
ATOM      4  C   UNL     1     -23.806   2.629   2.435  1.00  0.00     0.006 C 
BRANCH   4   5
ATOM      5  C   UNL     1     -23.496   3.799   1.497  1.00  0.00     0.053 C 
BRANCH   5   6
ATOM      6  C   UNL     1     -23.285   5.056   2.282  1.00  0.00     0.041 C 
ATOM      7  O   UNL     1     -23.787   5.177   3.430  1.00  0.00    -0.550 OA
ATOM      8  O   UNL     1     -22.575   6.112   1.726  1.00  0.00    -0.550 OA
ENDBRANCH   5   6
ENDBRANCH   4   5
ENDBRANCH   3   4
ENDBRANCH   2   3
ENDBRANCH   1   2
BRANCH   1   9
ATOM      9  C   UNL     1     -20.816   0.900   0.994  1.00  0.00     0.000 C 
BRANCH   9  10
ATOM     10  C   UNL     1     -19.379   1.451   0.949  1.00  0.00    -0.000 C 
BRANCH  10  11
ATOM     11  C   UNL     1     -19.130   2.528  -0.125  1.00  0.00    -0.000 C 
BRANCH  11  12
ATOM     12  C   UNL     1     -20.125   3.706  -0.115  1.00  0.00    -0.000 C 
BRANCH  12  13
ATOM     13  C   UNL     1     -19.477   5.099  -0.020  1.00  0.00    -0.003 C 
ATOM     14  C   UNL     1     -17.949   5.044   0.001  1.00  0.00     0.004 C 
ENDBRANCH  12  13
ENDBRANCH  11  12
ENDBRANCH  10  11
ENDBRANCH   9  10
ENDBRANCH   1   9
TORSDOF 10
ENDMDL
MODEL 4
REMARK VINA RESULT:    -2.583      3.093      5.049
REMARK INTER + INTRA:          -5.532
REMARK INTER:                  -4.631
REMARK INTRA:                  -0.901
REMARK UNBOUND:                -1.438
REMARK SMILES CCCCCCCCCCCC(=O)[O-]
REMARK SMILES IDX 7 1 8 2 9 3 10 4 11 5 12 6 13 7 14 8 6 9 5 10 4 11 3 12 2 13
REMARK SMILES IDX 1 14
REMARK H PARENT
REMARK Flexibility Score: inf
ROOT
ATOM      1  C   UNL     1     -23.702   1.900   2.392  1.00  0.00     0.000 C 
ENDROOT
BRANCH   1   2
ATOM      2  C   UNL     1     -24.739   2.371   1.350  1.00  0.00     0.000 C 
BRANCH   2   3
ATOM      3  C   UNL     1     -24.260   3.561   0.501  1.00  0.00     0.000 C 
BRANCH   3   4
ATOM      4  C   UNL     1     -23.247   4.451   1.235  1.00  0.00     0.006 C 
BRANCH   4   5
ATOM      5  C   UNL     1     -21.962   4.607   0.418  1.00  0.00     0.053 C 
BRANCH   5   6
ATOM      6  C   UNL     1     -21.401   5.985   0.585  1.00  0.00     0.041 C 
ATOM      7  O   UNL     1     -20.432   6.364  -0.124  1.00  0.00    -0.550 OA
ATOM      8  O   UNL     1     -21.918   6.834   1.555  1.00  0.00    -0.550 OA
ENDBRANCH   5   6
ENDBRANCH   4   5
ENDBRANCH   3   4
ENDBRANCH   2   3
ENDBRANCH   1   2
BRANCH   1   9
ATOM      9  C   UNL     1     -23.015   0.588   1.975  1.00  0.00     0.000 C 
BRANCH   9  10
ATOM     10  C   UNL     1     -21.622   0.417   2.608  1.00  0.00    -0.000 C 
BRANCH  10  11
ATOM     11  C   UNL     1     -20.470   0.232   1.601  1.00  0.00    -0.000 C 
BRANCH  11  12
ATOM     12  C   UNL     1     -20.195   1.445   0.688  1.00  0.00    -0.000 C 
BRANCH  12  13
ATOM     13  C   UNL     1     -18.706   1.779   0.489  1.00  0.00    -0.003 C 
ATOM     14  C   UNL     1     -18.467   3.249   0.141  1.00  0.00     0.004 C 
ENDBRANCH  12  13
ENDBRANCH  11  12
ENDBRANCH  10  11
ENDBRANCH   9  10
ENDBRANCH   1   9
TORSDOF 10
ENDMDL
MODEL 5
REMARK VINA RESULT:    -2.530      2.118      4.519
REMARK INTER + INTRA:          -5.447
REMARK INTER:                  -4.334
REMARK INTRA:                  -1.113
REMARK UNBOUND:                -1.438
REMARK SMILES CCCCCCCCCCCC(=O)[O-]
REMARK SMILES IDX 7 1 8 2 9 3 10 4 11 5 12 6 13 7 14 8 6 9 5 10 4 11 3 12 2 13
REMARK SMILES IDX 1 14
REMARK H PARENT
REMARK Flexibility Score: inf
ROOT
ATOM      1  C   UNL     1     -25.202   3.963   3.591  1.00  0.00     0.000 C 
ENDROOT
BRANCH   1   2
ATOM      2  C   UNL     1     -23.731   4.401   3.428  1.00  0.00     0.000 C 
BRANCH   2   3
ATOM      3  C   UNL     1     -23.561   5.689   2.605  1.00  0.00     0.000 C 
BRANCH   3   4
ATOM      4  C   UNL     1     -23.474   5.426   1.094  1.00  0.00     0.006 C 
BRANCH   4   5
ATOM      5  C   UNL     1     -22.394   4.388   0.779  1.00  0.00     0.053 C 
BRANCH   5   6
ATOM      6  C   UNL     1     -21.198   5.048   0.168  1.00  0.00     0.041 C 
ATOM      7  O   UNL     1     -21.231   6.272  -0.124  1.00  0.00    -0.550 OA
ATOM      8  O   UNL     1     -20.064   4.301  -0.123  1.00  0.00    -0.550 OA
ENDBRANCH   5   6
ENDBRANCH   4   5
ENDBRANCH   3   4
ENDBRANCH   2   3
ENDBRANCH   1   2
BRANCH   1   9
ATOM      9  C   UNL     1     -25.403   2.473   3.262  1.00  0.00     0.000 C 
BRANCH   9  10
ATOM     10  C   UNL     1     -25.138   2.149   1.780  1.00  0.00    -0.000 C 
BRANCH  10  11
ATOM     11  C   UNL     1     -24.099   1.037   1.535  1.00  0.00    -0.000 C 
BRANCH  11  12
ATOM     12  C   UNL     1     -22.878   1.061   2.477  1.00  0.00    -0.000 C 
BRANCH  12  13
ATOM     13  C   UNL     1     -21.809  -0.004   2.177  1.00  0.00    -0.003 C 
ATOM     14  C   UNL     1     -20.633   0.544   1.367  1.00  0.00     0.004 C 
ENDBRANCH  12  13
ENDBRANCH  11  12
ENDBRANCH  10  11
ENDBRANCH   9  10
ENDBRANCH   1   9
TORSDOF 10
ENDMDL
MODEL 6
REMARK VINA RESULT:    -2.514     15.544     17.215
REMARK INTER + INTRA:          -5.422
REMARK INTER:                  -4.564
REMARK INTRA:                  -0.858
REMARK UNBOUND:                -1.438
REMARK SMILES CCCCCCCCCCCC(=O)[O-]
REMARK SMILES IDX 7 1 8 2 9 3 10 4 11 5 12 6 13 7 14 8 6 9 5 10 4 11 3 12 2 13
REMARK SMILES IDX 1 14
REMARK H PARENT
REMARK Flexibility Score: inf
ROOT
ATOM      1  C   UNL     1     -15.338 -10.490   3.277  1.00  0.00     0.000 C 
ENDROOT
BRANCH   1   2
ATOM      2  C   UNL     1     -16.101 -11.828   3.161  1.00  0.00     0.000 C 
BRANCH   2   3
ATOM      3  C   UNL     1     -17.083 -11.875   1.979  1.00  0.00     0.000 C 
BRANCH   3   4
ATOM      4  C   UNL     1     -17.980 -13.122   1.996  1.00  0.00     0.006 C 
BRANCH   4   5
ATOM      5  C   UNL     1     -19.021 -13.033   3.115  1.00  0.00     0.053 C 
BRANCH   5   6
ATOM      6  C   UNL     1     -20.377 -12.754   2.546  1.00  0.00     0.041 C 
ATOM      7  O   UNL     1     -21.390 -12.759   3.293  1.00  0.00    -0.550 OA
ATOM      8  O   UNL     1     -20.528 -12.536   1.183  1.00  0.00    -0.550 OA
ENDBRANCH   5   6
ENDBRANCH   4   5
ENDBRANCH   3   4
ENDBRANCH   2   3
ENDBRANCH   1   2
BRANCH   1   9
ATOM      9  C   UNL     1     -14.308 -10.310   2.147  1.00  0.00     0.000 C 
BRANCH   9  10
ATOM     10  C   UNL     1     -13.426 -11.555   1.940  1.00  0.00    -0.000 C 
BRANCH  10  11
ATOM     11  C   UNL     1     -12.335 -11.761   3.008  1.00  0.00    -0.000 C 
BRANCH  11  12
ATOM     12  C   UNL     1     -12.496 -13.028   3.874  1.00  0.00    -0.000 C 
BRANCH  12  13
ATOM     13  C   UNL     1     -12.514 -12.774   5.392  1.00  0.00    -0.003 C 
ATOM     14  C   UNL     1     -13.855 -13.125   6.037  1.00  0.00     0.004 C 
ENDBRANCH  12  13
ENDBRANCH  11  12
ENDBRANCH  10  11
ENDBRANCH   9  10
ENDBRANCH   1   9
TORSDOF 10
ENDMDL
MODEL 7
REMARK VINA RESULT:    -2.494     15.017     16.589
REMARK INTER + INTRA:          -5.391
REMARK INTER:                  -4.690
REMARK INTRA:                  -0.701
REMARK UNBOUND:                -1.438
REMARK SMILES CCCCCCCCCCCC(=O)[O-]
REMARK SMILES IDX 7 1 8 2 9 3 10 4 11 5 12 6 13 7 14 8 6 9 5 10 4 11 3 12 2 13
REMARK SMILES IDX 1 14
REMARK H PARENT
REMARK Flexibility Score: inf
ROOT
ATOM      1  C   UNL     1     -16.176 -12.376   2.276  1.00  0.00     0.000 C 
ENDROOT
BRANCH   1   2
ATOM      2  C   UNL     1     -17.579 -12.826   1.816  1.00  0.00     0.000 C 
BRANCH   2   3
ATOM      3  C   UNL     1     -18.643 -12.750   2.923  1.00  0.00     0.000 C 
BRANCH   3   4
ATOM      4  C   UNL     1     -20.077 -12.731   2.375  1.00  0.00     0.006 C 
BRANCH   4   5
ATOM      5  C   UNL     1     -21.092 -12.509   3.500  1.00  0.00     0.053 C 
BRANCH   5   6
ATOM      6  C   UNL     1     -22.471 -12.362   2.938  1.00  0.00     0.041 C 
ATOM      7  O   UNL     1     -23.441 -12.954   3.480  1.00  0.00    -0.550 OA
ATOM      8  O   UNL     1     -22.678 -11.612   1.787  1.00  0.00    -0.550 OA
ENDBRANCH   5   6
ENDBRANCH   4   5
ENDBRANCH   3   4
ENDBRANCH   2   3
ENDBRANCH   1   2
BRANCH   1   9
ATOM      9  C   UNL     1     -16.221 -11.062   3.077  1.00  0.00     0.000 C 
BRANCH   9  10
ATOM     10  C   UNL     1     -15.043 -10.125   2.752  1.00  0.00    -0.000 C 
BRANCH  10  11
ATOM     11  C   UNL     1     -13.882 -10.785   1.983  1.00  0.00    -0.000 C 
BRANCH  11  12
ATOM     12  C   UNL     1     -12.646 -11.136   2.837  1.00  0.00    -0.000 C 
BRANCH  12  13
ATOM     13  C   UNL     1     -12.568 -12.605   3.289  1.00  0.00    -0.003 C 
ATOM     14  C   UNL     1     -13.290 -12.860   4.612  1.00  0.00     0.004 C 
ENDBRANCH  12  13
ENDBRANCH  11  12
ENDBRANCH  10  11
ENDBRANCH   9  10
ENDBRANCH   1   9
TORSDOF 10
ENDMDL
MODEL 8
REMARK VINA RESULT:    -2.483      2.555      4.406
REMARK INTER + INTRA:          -5.374
REMARK INTER:                  -4.591
REMARK INTRA:                  -0.782
REMARK UNBOUND:                -1.438
REMARK SMILES CCCCCCCCCCCC(=O)[O-]
REMARK SMILES IDX 7 1 8 2 9 3 10 4 11 5 12 6 13 7 14 8 6 9 5 10 4 11 3 12 2 13
REMARK SMILES IDX 1 14
REMARK H PARENT
REMARK Flexibility Score: inf
ROOT
ATOM      1  C   UNL     1     -22.692   0.404   2.419  1.00  0.00     0.000 C 
ENDROOT
BRANCH   1   2
ATOM      2  C   UNL     1     -21.239   0.724   2.007  1.00  0.00     0.000 C 
BRANCH   2   3
ATOM      3  C   UNL     1     -21.073   1.002   0.504  1.00  0.00     0.000 C 
BRANCH   3   4
ATOM      4  C   UNL     1     -19.876   1.912   0.192  1.00  0.00     0.006 C 
BRANCH   4   5
ATOM      5  C   UNL     1     -20.338   3.337  -0.124  1.00  0.00     0.053 C 
BRANCH   5   6
ATOM      6  C   UNL     1     -19.212   4.305   0.061  1.00  0.00     0.041 C 
ATOM      7  O   UNL     1     -19.427   5.544   0.004  1.00  0.00    -0.550 OA
ATOM      8  O   UNL     1     -17.918   3.839   0.249  1.00  0.00    -0.550 OA
ENDBRANCH   5   6
ENDBRANCH   4   5
ENDBRANCH   3   4
ENDBRANCH   2   3
ENDBRANCH   1   2
BRANCH   1   9
ATOM      9  C   UNL     1     -23.687   0.643   1.269  1.00  0.00     0.000 C 
BRANCH   9  10
ATOM     10  C   UNL     1     -24.498   1.940   1.443  1.00  0.00    -0.000 C 
BRANCH  10  11
ATOM     11  C   UNL     1     -24.377   2.600   2.830  1.00  0.00    -0.000 C 
BRANCH  11  12
ATOM     12  C   UNL     1     -23.475   3.851   2.884  1.00  0.00    -0.000 C 
BRANCH  12  13
ATOM     13  C   UNL     1     -24.027   5.009   3.733  1.00  0.00    -0.003 C 
ATOM     14  C   UNL     1     -25.482   4.798   4.155  1.00  0.00     0.004 C 
ENDBRANCH  12  13
ENDBRANCH  11  12
ENDBRANCH  10  11
ENDBRANCH   9  10
ENDBRANCH   1   9
TORSDOF 10
ENDMDL
MODEL 9
REMARK VINA RESULT:    -2.470     15.698     17.487
REMARK INTER + INTRA:          -5.352
REMARK INTER:                  -4.797
REMARK INTRA:                  -0.555
REMARK UNBOUND:                -1.438
REMARK SMILES CCCCCCCCCCCC(=O)[O-]
REMARK SMILES IDX 7 1 8 2 9 3 10 4 11 5 12 6 13 7 14 8 6 9 5 10 4 11 3 12 2 13
REMARK SMILES IDX 1 14
REMARK H PARENT
REMARK Flexibility Score: inf
ROOT
ATOM      1  C   UNL     1     -14.698 -10.858   3.067  1.00  0.00     0.000 C 
ENDROOT
BRANCH   1   2
ATOM      2  C   UNL     1     -13.424 -10.939   2.198  1.00  0.00     0.000 C 
BRANCH   2   3
ATOM      3  C   UNL     1     -12.191 -11.452   2.961  1.00  0.00     0.000 C 
BRANCH   3   4
ATOM      4  C   UNL     1     -12.476 -12.724   3.772  1.00  0.00     0.006 C 
BRANCH   4   5
ATOM      5  C   UNL     1     -11.688 -12.726   5.084  1.00  0.00     0.053 C 
BRANCH   5   6
ATOM      6  C   UNL     1     -12.607 -12.941   6.246  1.00  0.00     0.041 C 
ATOM      7  O   UNL     1     -12.140 -13.055   7.410  1.00  0.00    -0.550 OA
ATOM      8  O   UNL     1     -13.974 -13.064   6.037  1.00  0.00    -0.550 OA
ENDBRANCH   5   6
ENDBRANCH   4   5
ENDBRANCH   3   4
ENDBRANCH   2   3
ENDBRANCH   1   2
BRANCH   1   9
ATOM      9  C   UNL     1     -15.961 -10.612   2.223  1.00  0.00     0.000 C 
BRANCH   9  10
ATOM     10  C   UNL     1     -16.623 -11.918   1.746  1.00  0.00    -0.000 C 
BRANCH  10  11
ATOM     11  C   UNL     1     -17.274 -12.760   2.861  1.00  0.00    -0.000 C 
BRANCH  11  12
ATOM     12  C   UNL     1     -18.815 -12.719   2.898  1.00  0.00    -0.000 C 
BRANCH  12  13
ATOM     13  C   UNL     1     -19.497 -12.768   1.519  1.00  0.00    -0.003 C 
ATOM     14  C   UNL     1     -21.009 -12.560   1.594  1.00  0.00     0.004 C 
ENDBRANCH  12  13
ENDBRANCH  11  12
ENDBRANCH  10  11
ENDBRANCH   9  10
ENDBRANCH   1   9
TORSDOF 10
ENDMDL
