MODEL 1
REMARK VINA RESULT:    -3.374      0.000      0.000
REMARK INTER + INTRA:          -7.377
REMARK INTER:                  -5.939
REMARK INTRA:                  -1.438
REMARK UNBOUND:                -1.438
REMARK SMILES CCCCCCC=CCCCCCCCC(=O)[O-]
REMARK SMILES IDX 10 1 11 2 12 3 13 4 14 5 15 6 16 7 17 8 18 9 9 10 8 11 7 12
REMARK SMILES IDX 6 13 5 14 4 15 3 16 2 17 1 18
REMARK H PARENT
REMARK Flexibility Score: inf
ROOT
ATOM      1  C   UNL     1       7.676  -3.202  -2.509  1.00  0.00     0.004 C 
ENDROOT
BRANCH   1   2
ATOM      2  C   UNL     1       8.222  -4.328  -3.405  1.00  0.00     0.000 C 
BRANCH   2   3
ATOM      3  C   UNL     1       9.576  -4.876  -2.921  1.00  0.00     0.000 C 
BRANCH   3   4
ATOM      4  C   UNL     1      10.079  -4.180  -1.644  1.00  0.00     0.000 C 
BRANCH   4   5
ATOM      5  C   UNL     1      11.471  -4.635  -1.161  1.00  0.00     0.006 C 
BRANCH   5   6
ATOM      6  C   UNL     1      12.624  -3.698  -1.558  1.00  0.00     0.053 C 
BRANCH   6   7
ATOM      7  C   UNL     1      13.197  -4.051  -2.895  1.00  0.00     0.041 C 
ATOM      8  O   UNL     1      13.011  -3.295  -3.885  1.00  0.00    -0.550 OA
ATOM      9  O   UNL     1      13.911  -5.232  -3.056  1.00  0.00    -0.550 OA
ENDBRANCH   6   7
ENDBRANCH   5   6
ENDBRANCH   4   5
ENDBRANCH   3   4
ENDBRANCH   2   3
ENDBRANCH   1   2
BRANCH   1  10
ATOM     10  C   UNL     1       6.481  -3.604  -1.626  1.00  0.00     0.027 C 
BRANCH  10  11
ATOM     11  C   UNL     1       6.332  -5.105  -1.520  1.00  0.00    -0.031 C 
ATOM     12  C   UNL     1       6.598  -5.841  -0.424  1.00  0.00    -0.031 C 
BRANCH  12  13
ATOM     13  C   UNL     1       7.121  -5.304   0.887  1.00  0.00     0.027 C 
BRANCH  13  14
ATOM     14  C   UNL     1       6.337  -5.818   2.104  1.00  0.00     0.004 C 
BRANCH  14  15
ATOM     15  C   UNL     1       5.573  -4.693   2.824  1.00  0.00     0.000 C 
BRANCH  15  16
ATOM     16  C   UNL     1       5.658  -3.351   2.079  1.00  0.00    -0.000 C 
BRANCH  16  17
ATOM     17  C   UNL     1       5.930  -2.169   3.020  1.00  0.00    -0.003 C 
ATOM     18  C   UNL     1       5.754  -2.576   4.480  1.00  0.00     0.004 C 
ENDBRANCH  16  17
ENDBRANCH  15  16
ENDBRANCH  14  15
ENDBRANCH  13  14
ENDBRANCH  12  13
ENDBRANCH  10  11
ENDBRANCH   1  10
TORSDOF 13
ENDMDL
MODEL 2
REMARK VINA RESULT:    -3.353     11.690     14.246
REMARK INTER + INTRA:          -7.340
REMARK INTER:                  -5.053
REMARK INTRA:                  -2.287
REMARK UNBOUND:                -1.438
REMARK SMILES CCCCCCC=CCCCCCCCC(=O)[O-]
REMARK SMILES IDX 10 1 11 2 12 3 13 4 14 5 15 6 16 7 17 8 18 9 9 10 8 11 7 12
REMARK SMILES IDX 6 13 5 14 4 15 3 16 2 17 1 18
REMARK H PARENT
REMARK Flexibility Score: inf
ROOT
ATOM      1  C   UNL     1       7.058   5.897  -6.804  1.00  0.00     0.004 C 
ENDROOT
BRANCH   1   2
ATOM      2  C   UNL     1       6.374   6.467  -8.059  1.00  0.00     0.000 C 
BRANCH   2   3
ATOM      3  C   UNL     1       5.874   7.909  -7.867  1.00  0.00     0.000 C 
BRANCH   3   4
ATOM      4  C   UNL     1       5.356   8.176  -6.443  1.00  0.00     0.000 C 
BRANCH   4   5
ATOM      5  C   UNL     1       6.090   9.300  -5.683  1.00  0.00     0.006 C 
BRANCH   5   6
ATOM      6  C   UNL     1       6.674   8.878  -4.325  1.00  0.00     0.053 C 
BRANCH   6   7
ATOM      7  C   UNL     1       5.663   8.173  -3.476  1.00  0.00     0.041 C 
ATOM      8  O   UNL     1       5.675   6.917  -3.384  1.00  0.00    -0.550 OA
ATOM      9  O   UNL     1       4.685   8.902  -2.809  1.00  0.00    -0.550 OA
ENDBRANCH   6   7
ENDBRANCH   5   6
ENDBRANCH   4   5
ENDBRANCH   3   4
ENDBRANCH   2   3
ENDBRANCH   1   2
BRANCH   1  10
ATOM     10  C   UNL     1       7.374   4.391  -6.870  1.00  0.00     0.027 C 
BRANCH  10  11
ATOM     11  C   UNL     1       8.860   4.123  -6.903  1.00  0.00    -0.031 C 
ATOM     12  C   UNL     1       9.588   3.883  -8.010  1.00  0.00    -0.031 C 
BRANCH  12  13
ATOM     13  C   UNL     1       9.043   3.809  -9.417  1.00  0.00     0.027 C 
BRANCH  13  14
ATOM     14  C   UNL     1       9.034   5.168 -10.132  1.00  0.00     0.004 C 
BRANCH  14  15
ATOM     15  C   UNL     1      10.242   6.039  -9.746  1.00  0.00     0.000 C 
BRANCH  15  16
ATOM     16  C   UNL     1       9.832   7.440  -9.267  1.00  0.00    -0.000 C 
BRANCH  16  17
ATOM     17  C   UNL     1      10.350   7.760  -7.857  1.00  0.00    -0.003 C 
ATOM     18  C   UNL     1       9.435   8.754  -7.147  1.00  0.00     0.004 C 
ENDBRANCH  16  17
ENDBRANCH  15  16
ENDBRANCH  14  15
ENDBRANCH  13  14
ENDBRANCH  12  13
ENDBRANCH  10  11
ENDBRANCH   1  10
TORSDOF 13
ENDMDL
MODEL 3
REMARK VINA RESULT:    -3.230     11.527     14.248
REMARK INTER + INTRA:          -7.123
REMARK INTER:                  -4.785
REMARK INTRA:                  -2.339
REMARK UNBOUND:                -1.438
REMARK SMILES CCCCCCC=CCCCCCCCC(=O)[O-]
REMARK SMILES IDX 10 1 11 2 12 3 13 4 14 5 15 6 16 7 17 8 18 9 9 10 8 11 7 12
REMARK SMILES IDX 6 13 5 14 4 15 3 16 2 17 1 18
REMARK H PARENT
REMARK Flexibility Score: inf
ROOT
ATOM      1  C   UNL     1      16.749   1.659   8.064  1.00  0.00     0.004 C 
ENDROOT
BRANCH   1   2
ATOM      2  C   UNL     1      16.492   0.535   9.084  1.00  0.00     0.000 C 
BRANCH   2   3
ATOM      3  C   UNL     1      15.925  -0.741   8.438  1.00  0.00     0.000 C 
BRANCH   3   4
ATOM      4  C   UNL     1      15.945  -0.693   6.901  1.00  0.00     0.000 C 
BRANCH   4   5
ATOM      5  C   UNL     1      16.122  -2.060   6.209  1.00  0.00     0.006 C 
BRANCH   5   6
ATOM      6  C   UNL     1      15.686  -3.266   7.057  1.00  0.00     0.053 C 
BRANCH   6   7
ATOM      7  C   UNL     1      14.222  -3.546   6.920  1.00  0.00     0.041 C 
ATOM      8  O   UNL     1      13.512  -3.733   7.944  1.00  0.00    -0.550 OA
ATOM      9  O   UNL     1      13.645  -3.632   5.659  1.00  0.00    -0.550 OA
ENDBRANCH   6   7
ENDBRANCH   5   6
ENDBRANCH   4   5
ENDBRANCH   3   4
ENDBRANCH   2   3
ENDBRANCH   1   2
BRANCH   1  10
ATOM     10  C   UNL     1      17.442   2.907   8.642  1.00  0.00     0.027 C 
BRANCH  10  11
ATOM     11  C   UNL     1      18.329   3.587   7.625  1.00  0.00    -0.031 C 
ATOM     12  C   UNL     1      19.674   3.525   7.596  1.00  0.00    -0.031 C 
BRANCH  12  13
ATOM     13  C   UNL     1      20.540   2.789   8.592  1.00  0.00     0.027 C 
BRANCH  13  14
ATOM     14  C   UNL     1      21.026   1.426   8.076  1.00  0.00     0.004 C 
BRANCH  14  15
ATOM     15  C   UNL     1      20.189   0.261   8.632  1.00  0.00     0.000 C 
BRANCH  15  16
ATOM     16  C   UNL     1      19.702  -0.695   7.531  1.00  0.00    -0.000 C 
BRANCH  16  17
ATOM     17  C   UNL     1      19.523   0.004   6.176  1.00  0.00    -0.003 C 
ATOM     18  C   UNL     1      19.471  -1.009   5.037  1.00  0.00     0.004 C 
ENDBRANCH  16  17
ENDBRANCH  15  16
ENDBRANCH  14  15
ENDBRANCH  13  14
ENDBRANCH  12  13
ENDBRANCH  10  11
ENDBRANCH   1  10
TORSDOF 13
ENDMDL
MODEL 4
REMARK VINA RESULT:    -3.183     12.314     15.234
REMARK INTER + INTRA:          -7.041
REMARK INTER:                  -4.407
REMARK INTRA:                  -2.634
REMARK UNBOUND:                -1.438
REMARK SMILES CCCCCCC=CCCCCCCCC(=O)[O-]
REMARK SMILES IDX 10 1 11 2 12 3 13 4 14 5 15 6 16 7 17 8 18 9 9 10 8 11 7 12
REMARK SMILES IDX 6 13 5 14 4 15 3 16 2 17 1 18
REMARK H PARENT
REMARK Flexibility Score: inf
ROOT
ATOM      1  C   UNL     1      19.863   3.456   7.742  1.00  0.00     0.004 C 
ENDROOT
BRANCH   1   2
ATOM      2  C   UNL     1      18.332   3.509   7.587  1.00  0.00     0.000 C 
BRANCH   2   3
ATOM      3  C   UNL     1      17.588   2.814   8.740  1.00  0.00     0.000 C 
BRANCH   3   4
ATOM      4  C   UNL     1      16.275   2.150   8.290  1.00  0.00     0.000 C 
BRANCH   4   5
ATOM      5  C   UNL     1      16.304   0.609   8.255  1.00  0.00     0.006 C 
BRANCH   5   6
ATOM      6  C   UNL     1      15.809  -0.011   6.938  1.00  0.00     0.053 C 
BRANCH   6   7
ATOM      7  C   UNL     1      15.796  -1.507   6.994  1.00  0.00     0.041 C 
ATOM      8  O   UNL     1      15.225  -2.172   6.089  1.00  0.00    -0.550 OA
ATOM      9  O   UNL     1      16.390  -2.168   8.062  1.00  0.00    -0.550 OA
ENDBRANCH   6   7
ENDBRANCH   5   6
ENDBRANCH   4   5
ENDBRANCH   3   4
ENDBRANCH   2   3
ENDBRANCH   1   2
BRANCH   1  10
ATOM     10  C   UNL     1      20.354   2.962   9.116  1.00  0.00     0.027 C 
BRANCH  10  11
ATOM     11  C   UNL     1      21.462   1.942   8.991  1.00  0.00    -0.031 C 
ATOM     12  C   UNL     1      21.291   0.611   8.887  1.00  0.00    -0.031 C 
BRANCH  12  13
ATOM     13  C   UNL     1      19.961  -0.106   8.907  1.00  0.00     0.027 C 
BRANCH  13  14
ATOM     14  C   UNL     1      19.678  -0.887   7.614  1.00  0.00     0.004 C 
BRANCH  14  15
ATOM     15  C   UNL     1      19.376   0.042   6.426  1.00  0.00     0.000 C 
BRANCH  15  16
ATOM     16  C   UNL     1      20.438  -0.050   5.318  1.00  0.00    -0.000 C 
BRANCH  16  17
ATOM     17  C   UNL     1      20.860   1.326   4.786  1.00  0.00    -0.003 C 
ATOM     18  C   UNL     1      22.217   1.740   5.347  1.00  0.00     0.004 C 
ENDBRANCH  16  17
ENDBRANCH  15  16
ENDBRANCH  14  15
ENDBRANCH  13  14
ENDBRANCH  12  13
ENDBRANCH  10  11
ENDBRANCH   1  10
TORSDOF 13
ENDMDL
MODEL 5
REMARK VINA RESULT:    -3.151     11.951     14.123
REMARK INTER + INTRA:          -6.984
REMARK INTER:                  -4.778
REMARK INTRA:                  -2.205
REMARK UNBOUND:                -1.438
REMARK SMILES CCCCCCC=CCCCCCCCC(=O)[O-]
REMARK SMILES IDX 10 1 11 2 12 3 13 4 14 5 15 6 16 7 17 8 18 9 9 10 8 11 7 12
REMARK SMILES IDX 6 13 5 14 4 15 3 16 2 17 1 18
REMARK H PARENT
REMARK Flexibility Score: inf
ROOT
ATOM      1  C   UNL     1       9.635   7.383  -9.167  1.00  0.00     0.004 C 
ENDROOT
BRANCH   1   2
ATOM      2  C   UNL     1       9.883   7.654  -7.672  1.00  0.00     0.000 C 
BRANCH   2   3
ATOM      3  C   UNL     1       9.895   9.154  -7.330  1.00  0.00     0.000 C 
BRANCH   3   4
ATOM      4  C   UNL     1       8.483   9.760  -7.248  1.00  0.00     0.000 C 
BRANCH   4   5
ATOM      5  C   UNL     1       7.731   9.480  -5.931  1.00  0.00     0.006 C 
BRANCH   5   6
ATOM      6  C   UNL     1       8.585   9.633  -4.661  1.00  0.00     0.053 C 
BRANCH   6   7
ATOM      7  C   UNL     1       7.743   9.717  -3.427  1.00  0.00     0.041 C 
ATOM      8  O   UNL     1       7.607  10.815  -2.824  1.00  0.00    -0.550 OA
ATOM      9  O   UNL     1       7.131   8.576  -2.923  1.00  0.00    -0.550 OA
ENDBRANCH   6   7
ENDBRANCH   5   6
ENDBRANCH   4   5
ENDBRANCH   3   4
ENDBRANCH   2   3
ENDBRANCH   1   2
BRANCH   1  10
ATOM     10  C   UNL     1      10.303   6.106  -9.709  1.00  0.00     0.027 C 
BRANCH  10  11
ATOM     11  C   UNL     1       9.289   5.070 -10.135  1.00  0.00    -0.031 C 
ATOM     12  C   UNL     1       8.940   3.980  -9.427  1.00  0.00    -0.031 C 
BRANCH  12  13
ATOM     13  C   UNL     1       9.522   3.579  -8.091  1.00  0.00     0.027 C 
BRANCH  13  14
ATOM     14  C   UNL     1       8.710   4.104  -6.898  1.00  0.00     0.004 C 
BRANCH  14  15
ATOM     15  C   UNL     1       7.287   4.526  -7.301  1.00  0.00     0.000 C 
BRANCH  15  16
ATOM     16  C   UNL     1       6.852   5.845  -6.643  1.00  0.00    -0.000 C 
BRANCH  16  17
ATOM     17  C   UNL     1       5.823   6.615  -7.482  1.00  0.00    -0.003 C 
ATOM     18  C   UNL     1       6.043   6.381  -8.974  1.00  0.00     0.004 C 
ENDBRANCH  16  17
ENDBRANCH  15  16
ENDBRANCH  14  15
ENDBRANCH  13  14
ENDBRANCH  12  13
ENDBRANCH  10  11
ENDBRANCH   1  10
TORSDOF 13
ENDMDL
MODEL 6
REMARK VINA RESULT:    -3.121     11.453     13.509
REMARK INTER + INTRA:          -6.932
REMARK INTER:                  -4.655
REMARK INTRA:                  -2.277
REMARK UNBOUND:                -1.438
REMARK SMILES CCCCCCC=CCCCCCCCC(=O)[O-]
REMARK SMILES IDX 10 1 11 2 12 3 13 4 14 5 15 6 16 7 17 8 18 9 9 10 8 11 7 12
REMARK SMILES IDX 6 13 5 14 4 15 3 16 2 17 1 18
REMARK H PARENT
REMARK Flexibility Score: inf
ROOT
ATOM      1  C   UNL     1       6.430   3.277  -9.257  1.00  0.00     0.004 C 
ENDROOT
BRANCH   1   2
ATOM      2  C   UNL     1       6.010   4.756  -9.175  1.00  0.00     0.000 C 
BRANCH   2   3
ATOM      3  C   UNL     1       5.025   5.037  -8.027  1.00  0.00     0.000 C 
BRANCH   3   4
ATOM      4  C   UNL     1       5.495   4.454  -6.682  1.00  0.00     0.000 C 
BRANCH   4   5
ATOM      5  C   UNL     1       6.398   5.386  -5.849  1.00  0.00     0.006 C 
BRANCH   5   6
ATOM      6  C   UNL     1       5.775   6.752  -5.518  1.00  0.00     0.053 C 
BRANCH   6   7
ATOM      7  C   UNL     1       5.323   6.829  -4.093  1.00  0.00     0.041 C 
ATOM      8  O   UNL     1       4.247   6.280  -3.737  1.00  0.00    -0.550 OA
ATOM      9  O   UNL     1       6.076   7.535  -3.162  1.00  0.00    -0.550 OA
ENDBRANCH   6   7
ENDBRANCH   5   6
ENDBRANCH   4   5
ENDBRANCH   3   4
ENDBRANCH   2   3
ENDBRANCH   1   2
BRANCH   1  10
ATOM     10  C   UNL     1       7.921   3.048  -9.566  1.00  0.00     0.027 C 
BRANCH  10  11
ATOM     11  C   UNL     1       8.772   3.077  -8.317  1.00  0.00    -0.031 C 
ATOM     12  C   UNL     1       9.502   4.125  -7.893  1.00  0.00    -0.031 C 
BRANCH  12  13
ATOM     13  C   UNL     1       9.628   5.452  -8.605  1.00  0.00     0.027 C 
BRANCH  13  14
ATOM     14  C   UNL     1       9.192   6.643  -7.738  1.00  0.00     0.004 C 
BRANCH  14  15
ATOM     15  C   UNL     1       8.184   7.553  -8.463  1.00  0.00     0.000 C 
BRANCH  15  16
ATOM     16  C   UNL     1       7.980   8.897  -7.746  1.00  0.00    -0.000 C 
BRANCH  16  17
ATOM     17  C   UNL     1       8.702   8.962  -6.393  1.00  0.00    -0.003 C 
ATOM     18  C   UNL     1       9.756  10.066  -6.384  1.00  0.00     0.004 C 
ENDBRANCH  16  17
ENDBRANCH  15  16
ENDBRANCH  14  15
ENDBRANCH  13  14
ENDBRANCH  12  13
ENDBRANCH  10  11
ENDBRANCH   1  10
TORSDOF 13
ENDMDL
MODEL 7
REMARK VINA RESULT:    -3.112     11.225     13.263
REMARK INTER + INTRA:          -6.915
REMARK INTER:                  -4.478
REMARK INTRA:                  -2.437
REMARK UNBOUND:                -1.438
REMARK SMILES CCCCCCC=CCCCCCCCC(=O)[O-]
REMARK SMILES IDX 10 1 11 2 12 3 13 4 14 5 15 6 16 7 17 8 18 9 9 10 8 11 7 12
REMARK SMILES IDX 6 13 5 14 4 15 3 16 2 17 1 18
REMARK H PARENT
REMARK Flexibility Score: inf
ROOT
ATOM      1  C   UNL     1       8.867   3.952  -8.870  1.00  0.00     0.004 C 
ENDROOT
BRANCH   1   2
ATOM      2  C   UNL     1       8.918   4.148 -10.396  1.00  0.00     0.000 C 
BRANCH   2   3
ATOM      3  C   UNL     1       9.544   5.492 -10.806  1.00  0.00     0.000 C 
BRANCH   3   4
ATOM      4  C   UNL     1      10.349   6.147  -9.671  1.00  0.00     0.000 C 
BRANCH   4   5
ATOM      5  C   UNL     1       9.867   7.553  -9.259  1.00  0.00     0.006 C 
BRANCH   5   6
ATOM      6  C   UNL     1       9.851   7.805  -7.742  1.00  0.00     0.053 C 
BRANCH   6   7
ATOM      7  C   UNL     1      10.333   9.180  -7.398  1.00  0.00     0.041 C 
ATOM      8  O   UNL     1      10.971   9.860  -8.245  1.00  0.00    -0.550 OA
ATOM      9  O   UNL     1      10.102   9.700  -6.131  1.00  0.00    -0.550 OA
ENDBRANCH   6   7
ENDBRANCH   5   6
ENDBRANCH   4   5
ENDBRANCH   3   4
ENDBRANCH   2   3
ENDBRANCH   1   2
BRANCH   1  10
ATOM     10  C   UNL     1       8.267   2.609  -8.414  1.00  0.00     0.027 C 
BRANCH  10  11
ATOM     11  C   UNL     1       6.756   2.622  -8.443  1.00  0.00    -0.031 C 
ATOM     12  C   UNL     1       5.960   3.111  -7.474  1.00  0.00    -0.031 C 
BRANCH  12  13
ATOM     13  C   UNL     1       6.432   3.708  -6.169  1.00  0.00     0.027 C 
BRANCH  13  14
ATOM     14  C   UNL     1       5.934   5.145  -5.949  1.00  0.00     0.004 C 
BRANCH  14  15
ATOM     15  C   UNL     1       6.689   6.164  -6.820  1.00  0.00     0.000 C 
BRANCH  15  16
ATOM     16  C   UNL     1       5.788   6.821  -7.877  1.00  0.00    -0.000 C 
BRANCH  16  17
ATOM     17  C   UNL     1       6.352   6.692  -9.299  1.00  0.00    -0.003 C 
ATOM     18  C   UNL     1       5.544   5.694 -10.123  1.00  0.00     0.004 C 
ENDBRANCH  16  17
ENDBRANCH  15  16
ENDBRANCH  14  15
ENDBRANCH  13  14
ENDBRANCH  12  13
ENDBRANCH  10  11
ENDBRANCH   1  10
TORSDOF 13
ENDMDL
MODEL 8
REMARK VINA RESULT:    -3.105     11.196     14.021
REMARK INTER + INTRA:          -6.902
REMARK INTER:                  -4.649
REMARK INTRA:                  -2.254
REMARK UNBOUND:                -1.438
REMARK SMILES CCCCCCC=CCCCCCCCC(=O)[O-]
REMARK SMILES IDX 10 1 11 2 12 3 13 4 14 5 15 6 16 7 17 8 18 9 9 10 8 11 7 12
REMARK SMILES IDX 6 13 5 14 4 15 3 16 2 17 1 18
REMARK H PARENT
REMARK Flexibility Score: inf
ROOT
ATOM      1  C   UNL     1      18.164   3.626   7.669  1.00  0.00     0.004 C 
ENDROOT
BRANCH   1   2
ATOM      2  C   UNL     1      17.271   2.731   8.548  1.00  0.00     0.000 C 
BRANCH   2   3
ATOM      3  C   UNL     1      16.396   1.767   7.727  1.00  0.00     0.000 C 
BRANCH   3   4
ATOM      4  C   UNL     1      16.212   0.400   8.409  1.00  0.00     0.000 C 
BRANCH   4   5
ATOM      5  C   UNL     1      15.735  -0.733   7.478  1.00  0.00     0.006 C 
BRANCH   5   6
ATOM      6  C   UNL     1      15.661  -2.118   8.141  1.00  0.00     0.053 C 
BRANCH   6   7
ATOM      7  C   UNL     1      14.733  -3.039   7.412  1.00  0.00     0.041 C 
ATOM      8  O   UNL     1      14.204  -4.012   8.010  1.00  0.00    -0.550 OA
ATOM      9  O   UNL     1      14.477  -2.840   6.061  1.00  0.00    -0.550 OA
ENDBRANCH   6   7
ENDBRANCH   5   6
ENDBRANCH   4   5
ENDBRANCH   3   4
ENDBRANCH   2   3
ENDBRANCH   1   2
BRANCH   1  10
ATOM     10  C   UNL     1      19.658   3.258   7.686  1.00  0.00     0.027 C 
BRANCH  10  11
ATOM     11  C   UNL     1      20.014   2.274   6.595  1.00  0.00    -0.031 C 
ATOM     12  C   UNL     1      20.176   0.948   6.761  1.00  0.00    -0.031 C 
BRANCH  12  13
ATOM     13  C   UNL     1      20.060   0.208   8.074  1.00  0.00     0.027 C 
BRANCH  13  14
ATOM     14  C   UNL     1      19.372  -1.159   7.936  1.00  0.00     0.004 C 
BRANCH  14  15
ATOM     15  C   UNL     1      19.714  -1.853   6.606  1.00  0.00     0.000 C 
BRANCH  15  16
ATOM     16  C   UNL     1      18.742  -2.994   6.268  1.00  0.00    -0.000 C 
BRANCH  16  17
ATOM     17  C   UNL     1      17.839  -2.668   5.070  1.00  0.00    -0.003 C 
ATOM     18  C   UNL     1      18.115  -1.264   4.539  1.00  0.00     0.004 C 
ENDBRANCH  16  17
ENDBRANCH  15  16
ENDBRANCH  14  15
ENDBRANCH  13  14
ENDBRANCH  12  13
ENDBRANCH  10  11
ENDBRANCH   1  10
TORSDOF 13
ENDMDL
MODEL 9
REMARK VINA RESULT:    -3.071     11.031     13.498
REMARK INTER + INTRA:          -6.843
REMARK INTER:                  -4.398
REMARK INTRA:                  -2.445
REMARK UNBOUND:                -1.438
REMARK SMILES CCCCCCC=CCCCCCCCC(=O)[O-]
REMARK SMILES IDX 10 1 11 2 12 3 13 4 14 5 15 6 16 7 17 8 18 9 9 10 8 11 7 12
REMARK SMILES IDX 6 13 5 14 4 15 3 16 2 17 1 18
REMARK H PARENT
REMARK Flexibility Score: inf
ROOT
ATOM      1  C   UNL     1       6.075   3.902  -6.654  1.00  0.00     0.004 C 
ENDROOT
BRANCH   1   2
ATOM      2  C   UNL     1       6.432   5.182  -5.876  1.00  0.00     0.000 C 
BRANCH   2   3
ATOM      3  C   UNL     1       6.037   6.467  -6.624  1.00  0.00     0.000 C 
BRANCH   3   4
ATOM      4  C   UNL     1       7.193   7.477  -6.726  1.00  0.00     0.000 C 
BRANCH   4   5
ATOM      5  C   UNL     1       7.058   8.715  -5.815  1.00  0.00     0.006 C 
BRANCH   5   6
ATOM      6  C   UNL     1       5.707   8.831  -5.091  1.00  0.00     0.053 C 
BRANCH   6   7
ATOM      7  C   UNL     1       5.764   8.263  -3.706  1.00  0.00     0.041 C 
ATOM      8  O   UNL     1       4.795   7.599  -3.252  1.00  0.00    -0.550 OA
ATOM      9  O   UNL     1       6.876   8.494  -2.906  1.00  0.00    -0.550 OA
ENDBRANCH   6   7
ENDBRANCH   5   6
ENDBRANCH   4   5
ENDBRANCH   3   4
ENDBRANCH   2   3
ENDBRANCH   1   2
BRANCH   1  10
ATOM     10  C   UNL     1       5.406   4.144  -8.019  1.00  0.00     0.027 C 
BRANCH  10  11
ATOM     11  C   UNL     1       6.159   3.478  -9.147  1.00  0.00    -0.031 C 
ATOM     12  C   UNL     1       6.947   4.107 -10.039  1.00  0.00    -0.031 C 
BRANCH  12  13
ATOM     13  C   UNL     1       7.196   5.597 -10.092  1.00  0.00     0.027 C 
BRANCH  13  14
ATOM     14  C   UNL     1       8.656   5.973  -9.795  1.00  0.00     0.004 C 
BRANCH  14  15
ATOM     15  C   UNL     1       9.434   4.819  -9.140  1.00  0.00     0.000 C 
BRANCH  15  16
ATOM     16  C   UNL     1       9.595   5.001  -7.623  1.00  0.00    -0.000 C 
BRANCH  16  17
ATOM     17  C   UNL     1       9.870   3.677  -6.894  1.00  0.00    -0.003 C 
ATOM     18  C   UNL     1       9.461   2.483  -7.751  1.00  0.00     0.004 C 
ENDBRANCH  16  17
ENDBRANCH  15  16
ENDBRANCH  14  15
ENDBRANCH  13  14
ENDBRANCH  12  13
ENDBRANCH  10  11
ENDBRANCH   1  10
TORSDOF 13
ENDMDL
