MODEL 1
REMARK VINA RESULT:    -3.738      0.000      0.000
REMARK INTER + INTRA:          -5.895
REMARK INTER:                  -5.268
REMARK INTRA:                  -0.627
REMARK UNBOUND:                -0.627
REMARK SMILES CCCCCCCCC(=O)[O-]
REMARK SMILES IDX 6 1 7 2 8 3 9 4 10 5 11 6 5 7 4 8 3 9 2 10 1 11
REMARK H PARENT
REMARK Flexibility Score: inf
ROOT
ATOM      1  C   UNL     1      -2.928   4.967  -9.465  1.00  0.00     0.000 C 
ENDROOT
BRANCH   1   2
ATOM      2  C   UNL     1      -4.149   4.257  -8.852  1.00  0.00     0.006 C 
BRANCH   2   3
ATOM      3  C   UNL     1      -4.250   2.782  -9.262  1.00  0.00     0.053 C 
BRANCH   3   4
ATOM      4  C   UNL     1      -5.647   2.281  -9.069  1.00  0.00     0.041 C 
ATOM      5  O   UNL     1      -6.120   1.410  -9.845  1.00  0.00    -0.550 OA
ATOM      6  O   UNL     1      -6.443   2.812  -8.062  1.00  0.00    -0.550 OA
ENDBRANCH   3   4
ENDBRANCH   2   3
ENDBRANCH   1   2
BRANCH   1   7
ATOM      7  C   UNL     1      -1.776   5.243  -8.483  1.00  0.00     0.000 C 
BRANCH   7   8
ATOM      8  C   UNL     1      -0.540   4.370  -8.748  1.00  0.00    -0.000 C 
BRANCH   8   9
ATOM      9  C   UNL     1      -0.664   3.013  -8.046  1.00  0.00    -0.000 C 
BRANCH   9  10
ATOM     10  C   UNL     1      -0.010   1.902  -8.876  1.00  0.00    -0.003 C 
ATOM     11  C   UNL     1      -0.703   1.743 -10.227  1.00  0.00     0.004 C 
ENDBRANCH   9  10
ENDBRANCH   8   9
ENDBRANCH   7   8
ENDBRANCH   1   7
TORSDOF 7
ENDMDL
MODEL 2
REMARK VINA RESULT:    -3.621      1.134      1.536
REMARK INTER + INTRA:          -5.730
REMARK INTER:                  -5.365
REMARK INTRA:                  -0.364
REMARK UNBOUND:                -0.627
REMARK SMILES CCCCCCCCC(=O)[O-]
REMARK SMILES IDX 6 1 7 2 8 3 9 4 10 5 11 6 5 7 4 8 3 9 2 10 1 11
REMARK H PARENT
REMARK Flexibility Score: inf
ROOT
ATOM      1  C   UNL     1      -3.114   4.364  -8.913  1.00  0.00     0.000 C 
ENDROOT
BRANCH   1   2
ATOM      2  C   UNL     1      -4.574   4.128  -9.339  1.00  0.00     0.006 C 
BRANCH   2   3
ATOM      3  C   UNL     1      -4.733   2.934 -10.290  1.00  0.00     0.053 C 
BRANCH   3   4
ATOM      4  C   UNL     1      -5.747   1.973  -9.755  1.00  0.00     0.041 C 
ATOM      5  O   UNL     1      -5.736   1.653  -8.537  1.00  0.00    -0.550 OA
ATOM      6  O   UNL     1      -6.673   1.391 -10.611  1.00  0.00    -0.550 OA
ENDBRANCH   3   4
ENDBRANCH   2   3
ENDBRANCH   1   2
BRANCH   1   7
ATOM      7  C   UNL     1      -2.234   3.102  -8.876  1.00  0.00     0.000 C 
BRANCH   7   8
ATOM      8  C   UNL     1      -0.920   3.309  -8.108  1.00  0.00    -0.000 C 
BRANCH   8   9
ATOM      9  C   UNL     1      -0.027   2.066  -8.200  1.00  0.00    -0.000 C 
BRANCH   9  10
ATOM     10  C   UNL     1       0.003   1.516  -9.630  1.00  0.00    -0.003 C 
ATOM     11  C   UNL     1       1.208   2.049 -10.401  1.00  0.00     0.004 C 
ENDBRANCH   9  10
ENDBRANCH   8   9
ENDBRANCH   7   8
ENDBRANCH   1   7
TORSDOF 7
ENDMDL
MODEL 3
REMARK VINA RESULT:    -3.574      3.172      4.918
REMARK INTER + INTRA:          -5.664
REMARK INTER:                  -5.123
REMARK INTRA:                  -0.541
REMARK UNBOUND:                -0.627
REMARK SMILES CCCCCCCCC(=O)[O-]
REMARK SMILES IDX 6 1 7 2 8 3 9 4 10 5 11 6 5 7 4 8 3 9 2 10 1 11
REMARK H PARENT
REMARK Flexibility Score: inf
ROOT
ATOM      1  C   UNL     1      -2.611   4.317  -9.432  1.00  0.00     0.000 C 
ENDROOT
BRANCH   1   2
ATOM      2  C   UNL     1      -2.196   2.985  -8.779  1.00  0.00     0.006 C 
BRANCH   2   3
ATOM      3  C   UNL     1      -0.800   3.040  -8.146  1.00  0.00     0.053 C 
BRANCH   3   4
ATOM      4  C   UNL     1       0.154   2.180  -8.913  1.00  0.00     0.041 C 
ATOM      5  O   UNL     1       0.574   1.102  -8.418  1.00  0.00    -0.550 OA
ATOM      6  O   UNL     1       0.619   2.594 -10.155  1.00  0.00    -0.550 OA
ENDBRANCH   3   4
ENDBRANCH   2   3
ENDBRANCH   1   2
BRANCH   1   7
ATOM      7  C   UNL     1      -3.914   4.929  -8.890  1.00  0.00     0.000 C 
BRANCH   7   8
ATOM      8  C   UNL     1      -5.169   4.388  -9.593  1.00  0.00    -0.000 C 
BRANCH   8   9
ATOM      9  C   UNL     1      -5.997   3.514  -8.644  1.00  0.00    -0.000 C 
BRANCH   9  10
ATOM     10  C   UNL     1      -5.720   2.026  -8.884  1.00  0.00    -0.003 C 
ATOM     11  C   UNL     1      -5.526   1.735 -10.370  1.00  0.00     0.004 C 
ENDBRANCH   9  10
ENDBRANCH   8   9
ENDBRANCH   7   8
ENDBRANCH   1   7
TORSDOF 7
ENDMDL
MODEL 4
REMARK VINA RESULT:    -3.553      1.076      2.013
REMARK INTER + INTRA:          -5.634
REMARK INTER:                  -4.979
REMARK INTRA:                  -0.656
REMARK UNBOUND:                -0.627
REMARK SMILES CCCCCCCCC(=O)[O-]
REMARK SMILES IDX 6 1 7 2 8 3 9 4 10 5 11 6 5 7 4 8 3 9 2 10 1 11
REMARK H PARENT
REMARK Flexibility Score: inf
ROOT
ATOM      1  C   UNL     1      -4.165   5.463  -9.775  1.00  0.00     0.000 C 
ENDROOT
BRANCH   1   2
ATOM      2  C   UNL     1      -4.407   4.297  -8.799  1.00  0.00     0.006 C 
BRANCH   2   3
ATOM      3  C   UNL     1      -4.465   2.934  -9.499  1.00  0.00     0.053 C 
BRANCH   3   4
ATOM      4  C   UNL     1      -5.786   2.276  -9.253  1.00  0.00     0.041 C 
ATOM      5  O   UNL     1      -6.415   2.500  -8.186  1.00  0.00    -0.550 OA
ATOM      6  O   UNL     1      -6.300   1.378 -10.180  1.00  0.00    -0.550 OA
ENDBRANCH   3   4
ENDBRANCH   2   3
ENDBRANCH   1   2
BRANCH   1   7
ATOM      7  C   UNL     1      -2.688   5.837  -9.988  1.00  0.00     0.000 C 
BRANCH   7   8
ATOM      8  C   UNL     1      -2.073   6.563  -8.782  1.00  0.00    -0.000 C 
BRANCH   8   9
ATOM      9  C   UNL     1      -0.960   5.723  -8.144  1.00  0.00    -0.000 C 
BRANCH   9  10
ATOM     10  C   UNL     1      -0.715   4.437  -8.941  1.00  0.00    -0.003 C 
ATOM     11  C   UNL     1      -0.871   3.203  -8.057  1.00  0.00     0.004 C 
ENDBRANCH   9  10
ENDBRANCH   8   9
ENDBRANCH   7   8
ENDBRANCH   1   7
TORSDOF 7
ENDMDL
MODEL 5
REMARK VINA RESULT:    -3.428      1.182      2.739
REMARK INTER + INTRA:          -5.458
REMARK INTER:                  -4.759
REMARK INTRA:                  -0.699
REMARK UNBOUND:                -0.627
REMARK SMILES CCCCCCCCC(=O)[O-]
REMARK SMILES IDX 6 1 7 2 8 3 9 4 10 5 11 6 5 7 4 8 3 9 2 10 1 11
REMARK H PARENT
REMARK Flexibility Score: inf
ROOT
ATOM      1  C   UNL     1      -2.135   2.497  -9.947  1.00  0.00     0.000 C 
ENDROOT
BRANCH   1   2
ATOM      2  C   UNL     1      -3.587   2.692 -10.423  1.00  0.00     0.006 C 
BRANCH   2   3
ATOM      3  C   UNL     1      -4.533   3.120  -9.295  1.00  0.00     0.053 C 
BRANCH   3   4
ATOM      4  C   UNL     1      -5.617   2.105  -9.109  1.00  0.00     0.041 C 
ATOM      5  O   UNL     1      -5.990   1.783  -7.951  1.00  0.00    -0.550 OA
ATOM      6  O   UNL     1      -6.180   1.480 -10.214  1.00  0.00    -0.550 OA
ENDBRANCH   3   4
ENDBRANCH   2   3
ENDBRANCH   1   2
BRANCH   1   7
ATOM      7  C   UNL     1      -1.777   3.225  -8.639  1.00  0.00     0.000 C 
BRANCH   7   8
ATOM      8  C   UNL     1      -0.736   4.338  -8.838  1.00  0.00    -0.000 C 
BRANCH   8   9
ATOM      9  C   UNL     1      -1.190   5.641  -8.170  1.00  0.00    -0.000 C 
BRANCH   9  10
ATOM     10  C   UNL     1      -2.425   6.218  -8.870  1.00  0.00    -0.003 C 
ATOM     11  C   UNL     1      -2.167   6.423 -10.361  1.00  0.00     0.004 C 
ENDBRANCH   9  10
ENDBRANCH   8   9
ENDBRANCH   7   8
ENDBRANCH   1   7
TORSDOF 7
ENDMDL
MODEL 6
REMARK VINA RESULT:    -3.407      1.246      2.128
REMARK INTER + INTRA:          -5.428
REMARK INTER:                  -4.817
REMARK INTRA:                  -0.611
REMARK UNBOUND:                -0.627
REMARK SMILES CCCCCCCCC(=O)[O-]
REMARK SMILES IDX 6 1 7 2 8 3 9 4 10 5 11 6 5 7 4 8 3 9 2 10 1 11
REMARK H PARENT
REMARK Flexibility Score: inf
ROOT
ATOM      1  C   UNL     1      -0.977   3.790  -8.665  1.00  0.00     0.000 C 
ENDROOT
BRANCH   1   2
ATOM      2  C   UNL     1      -2.500   4.008  -8.715  1.00  0.00     0.006 C 
BRANCH   2   3
ATOM      3  C   UNL     1      -3.235   2.908  -9.491  1.00  0.00     0.053 C 
BRANCH   3   4
ATOM      4  C   UNL     1      -4.702   2.952  -9.195  1.00  0.00     0.041 C 
ATOM      5  O   UNL     1      -5.328   1.891  -8.936  1.00  0.00    -0.550 OA
ATOM      6  O   UNL     1      -5.387   4.159  -9.253  1.00  0.00    -0.550 OA
ENDBRANCH   3   4
ENDBRANCH   2   3
ENDBRANCH   1   2
BRANCH   1   7
ATOM      7  C   UNL     1      -0.521   2.572  -7.842  1.00  0.00     0.000 C 
BRANCH   7   8
ATOM      8  C   UNL     1       0.235   1.530  -8.681  1.00  0.00    -0.000 C 
BRANCH   8   9
ATOM      9  C   UNL     1       0.751   2.146  -9.987  1.00  0.00    -0.000 C 
BRANCH   9  10
ATOM     10  C   UNL     1       0.586   1.170 -11.157  1.00  0.00    -0.003 C 
ATOM     11  C   UNL     1      -0.882   1.021 -11.549  1.00  0.00     0.004 C 
ENDBRANCH   9  10
ENDBRANCH   8   9
ENDBRANCH   7   8
ENDBRANCH   1   7
TORSDOF 7
ENDMDL
MODEL 7
REMARK VINA RESULT:    -3.355      3.223      4.921
REMARK INTER + INTRA:          -5.354
REMARK INTER:                  -4.643
REMARK INTRA:                  -0.712
REMARK UNBOUND:                -0.627
REMARK SMILES CCCCCCCCC(=O)[O-]
REMARK SMILES IDX 6 1 7 2 8 3 9 4 10 5 11 6 5 7 4 8 3 9 2 10 1 11
REMARK H PARENT
REMARK Flexibility Score: inf
ROOT
ATOM      1  C   UNL     1      -2.635   2.524 -10.306  1.00  0.00     0.000 C 
ENDROOT
BRANCH   1   2
ATOM      2  C   UNL     1      -1.230   2.960  -9.850  1.00  0.00     0.006 C 
BRANCH   2   3
ATOM      3  C   UNL     1      -1.063   2.938  -8.326  1.00  0.00     0.053 C 
BRANCH   3   4
ATOM      4  C   UNL     1      -0.005   1.955  -7.932  1.00  0.00     0.041 C 
ATOM      5  O   UNL     1       0.679   1.373  -8.814  1.00  0.00    -0.550 OA
ATOM      6  O   UNL     1       0.192   1.646  -6.592  1.00  0.00    -0.550 OA
ENDBRANCH   3   4
ENDBRANCH   2   3
ENDBRANCH   1   2
BRANCH   1   7
ATOM      7  C   UNL     1      -3.392   3.557 -11.159  1.00  0.00     0.000 C 
BRANCH   7   8
ATOM      8  C   UNL     1      -4.650   4.101 -10.465  1.00  0.00    -0.000 C 
BRANCH   8   9
ATOM      9  C   UNL     1      -4.282   4.915  -9.219  1.00  0.00    -0.000 C 
BRANCH   9  10
ATOM     10  C   UNL     1      -3.606   6.236  -9.604  1.00  0.00    -0.003 C 
ATOM     11  C   UNL     1      -2.301   6.431  -8.836  1.00  0.00     0.004 C 
ENDBRANCH   9  10
ENDBRANCH   8   9
ENDBRANCH   7   8
ENDBRANCH   1   7
TORSDOF 7
ENDMDL
MODEL 8
REMARK VINA RESULT:    -3.353      3.270      4.871
REMARK INTER + INTRA:          -5.352
REMARK INTER:                  -4.723
REMARK INTRA:                  -0.629
REMARK UNBOUND:                -0.627
REMARK SMILES CCCCCCCCC(=O)[O-]
REMARK SMILES IDX 6 1 7 2 8 3 9 4 10 5 11 6 5 7 4 8 3 9 2 10 1 11
REMARK H PARENT
REMARK Flexibility Score: inf
ROOT
ATOM      1  C   UNL     1      -0.770   4.856  -8.487  1.00  0.00     0.000 C 
ENDROOT
BRANCH   1   2
ATOM      2  C   UNL     1      -1.248   3.410  -8.260  1.00  0.00     0.006 C 
BRANCH   2   3
ATOM      3  C   UNL     1      -0.908   2.479  -9.431  1.00  0.00     0.053 C 
BRANCH   3   4
ATOM      4  C   UNL     1       0.377   1.759  -9.169  1.00  0.00     0.041 C 
ATOM      5  O   UNL     1       0.496   1.025  -8.153  1.00  0.00    -0.550 OA
ATOM      6  O   UNL     1       1.461   1.938 -10.019  1.00  0.00    -0.550 OA
ENDBRANCH   3   4
ENDBRANCH   2   3
ENDBRANCH   1   2
BRANCH   1   7
ATOM      7  C   UNL     1      -1.878   5.923  -8.432  1.00  0.00     0.000 C 
BRANCH   7   8
ATOM      8  C   UNL     1      -2.100   6.626  -9.780  1.00  0.00    -0.000 C 
BRANCH   8   9
ATOM      9  C   UNL     1      -3.517   6.369 -10.307  1.00  0.00    -0.000 C 
BRANCH   9  10
ATOM     10  C   UNL     1      -4.250   5.342  -9.436  1.00  0.00    -0.003 C 
ATOM     11  C   UNL     1      -4.579   4.081 -10.230  1.00  0.00     0.004 C 
ENDBRANCH   9  10
ENDBRANCH   8   9
ENDBRANCH   7   8
ENDBRANCH   1   7
TORSDOF 7
ENDMDL
MODEL 9
REMARK VINA RESULT:    -3.268     14.199     14.853
REMARK INTER + INTRA:          -5.233
REMARK INTER:                  -4.933
REMARK INTRA:                  -0.300
REMARK UNBOUND:                -0.627
REMARK SMILES CCCCCCCCC(=O)[O-]
REMARK SMILES IDX 6 1 7 2 8 3 9 4 10 5 11 6 5 7 4 8 3 9 2 10 1 11
REMARK H PARENT
REMARK Flexibility Score: inf
ROOT
ATOM      1  C   UNL     1       0.892 -10.595  -4.743  1.00  0.00     0.000 C 
ENDROOT
BRANCH   1   2
ATOM      2  C   UNL     1      -0.574 -10.170  -4.944  1.00  0.00     0.006 C 
BRANCH   2   3
ATOM      3  C   UNL     1      -1.520 -10.774  -3.898  1.00  0.00     0.053 C 
BRANCH   3   4
ATOM      4  C   UNL     1      -1.778  -9.792  -2.799  1.00  0.00     0.041 C 
ATOM      5  O   UNL     1      -1.655  -8.557  -3.012  1.00  0.00    -0.550 OA
ATOM      6  O   UNL     1      -2.106 -10.243  -1.527  1.00  0.00    -0.550 OA
ENDBRANCH   3   4
ENDBRANCH   2   3
ENDBRANCH   1   2
BRANCH   1   7
ATOM      7  C   UNL     1       1.360 -11.759  -5.635  1.00  0.00     0.000 C 
BRANCH   7   8
ATOM      8  C   UNL     1       1.365 -11.404  -7.130  1.00  0.00    -0.000 C 
BRANCH   8   9
ATOM      9  C   UNL     1       2.756 -10.943  -7.581  1.00  0.00    -0.000 C 
BRANCH   9  10
ATOM     10  C   UNL     1       2.747 -10.529  -9.057  1.00  0.00    -0.003 C 
ATOM     11  C   UNL     1       1.397 -10.829  -9.704  1.00  0.00     0.004 C 
ENDBRANCH   9  10
ENDBRANCH   8   9
ENDBRANCH   7   8
ENDBRANCH   1   7
TORSDOF 7
ENDMDL
