MODEL 1
REMARK VINA RESULT:    -5.324      0.000      0.000
REMARK INTER + INTRA:          -6.019
REMARK INTER:                  -5.790
REMARK INTRA:                  -0.228
REMARK UNBOUND:                -0.228
REMARK SMILES O=C([O-])c1ccccc1O
REMARK SMILES IDX 4 1 9 2 5 3 8 4 6 5 7 6 2 7 1 8 3 9 10 10
REMARK H PARENT 10 11
REMARK Flexibility Score: inf
ROOT
ATOM      1  C   UNL     1      18.430 -62.990  62.242  1.00  0.00     0.039 A 
ATOM      2  C   UNL     1      18.329 -61.576  62.294  1.00  0.00     0.124 A 
ATOM      3  C   UNL     1      17.780 -63.679  61.201  1.00  0.00     0.014 A 
ATOM      4  C   UNL     1      17.540 -60.902  61.353  1.00  0.00     0.047 A 
ATOM      5  C   UNL     1      17.013 -62.990  60.260  1.00  0.00     0.001 A 
ATOM      6  C   UNL     1      16.886 -61.604  60.340  1.00  0.00     0.004 A 
ENDROOT
BRANCH   1   7
ATOM      7  C   UNL     1      19.163 -63.781  63.255  1.00  0.00     0.075 C 
ATOM      8  O   UNL     1      20.072 -63.257  63.951  1.00  0.00    -0.545 OA
ATOM      9  O   UNL     1      18.806 -65.101  63.499  1.00  0.00    -0.545 OA
ENDBRANCH   1   7
BRANCH   2  10
ATOM     10  O   UNL     1      19.019 -60.805  63.233  1.00  0.00    -0.507 OA
ATOM     11  H   UNL     1      20.008 -60.603  63.173  1.00  0.00     0.293 HD
ENDBRANCH   2  10
TORSDOF 2
ENDMDL
MODEL 2
REMARK VINA RESULT:    -5.267      2.604      3.333
REMARK INTER + INTRA:          -5.957
REMARK INTER:                  -5.721
REMARK INTRA:                  -0.236
REMARK UNBOUND:                -0.228
REMARK SMILES O=C([O-])c1ccccc1O
REMARK SMILES IDX 4 1 9 2 5 3 8 4 6 5 7 6 2 7 1 8 3 9 10 10
REMARK H PARENT 10 11
REMARK Flexibility Score: inf
ROOT
ATOM      1  C   UNL     1      17.520 -63.333  60.865  1.00  0.00     0.039 A 
ATOM      2  C   UNL     1      16.981 -62.043  60.618  1.00  0.00     0.124 A 
ATOM      3  C   UNL     1      18.345 -63.520  61.989  1.00  0.00     0.014 A 
ATOM      4  C   UNL     1      17.328 -60.975  61.455  1.00  0.00     0.047 A 
ATOM      5  C   UNL     1      18.665 -62.449  62.825  1.00  0.00     0.001 A 
ATOM      6  C   UNL     1      18.165 -61.176  62.553  1.00  0.00     0.004 A 
ENDROOT
BRANCH   1   7
ATOM      7  C   UNL     1      17.278 -64.488  59.971  1.00  0.00     0.075 C 
ATOM      8  O   UNL     1      17.448 -64.391  58.728  1.00  0.00    -0.545 OA
ATOM      9  O   UNL     1      16.926 -65.720  60.509  1.00  0.00    -0.545 OA
ENDBRANCH   1   7
BRANCH   2  10
ATOM     10  O   UNL     1      16.078 -61.788  59.582  1.00  0.00    -0.507 OA
ATOM     11  H   UNL     1      16.323 -61.291  58.737  1.00  0.00     0.293 HD
ENDBRANCH   2  10
TORSDOF 2
ENDMDL
MODEL 3
REMARK VINA RESULT:    -4.864      1.208      2.287
REMARK INTER + INTRA:          -5.518
REMARK INTER:                  -5.288
REMARK INTRA:                  -0.230
REMARK UNBOUND:                -0.228
REMARK SMILES O=C([O-])c1ccccc1O
REMARK SMILES IDX 4 1 9 2 5 3 8 4 6 5 7 6 2 7 1 8 3 9 10 10
REMARK H PARENT 10 11
REMARK Flexibility Score: inf
ROOT
ATOM      1  C   UNL     1      18.447 -62.918  62.247  1.00  0.00     0.039 A 
ATOM      2  C   UNL     1      17.977 -63.562  61.073  1.00  0.00     0.124 A 
ATOM      3  C   UNL     1      18.108 -61.569  62.463  1.00  0.00     0.014 A 
ATOM      4  C   UNL     1      17.245 -62.833  60.128  1.00  0.00     0.047 A 
ATOM      5  C   UNL     1      17.360 -60.862  61.520  1.00  0.00     0.001 A 
ATOM      6  C   UNL     1      16.936 -61.491  60.350  1.00  0.00     0.004 A 
ENDROOT
BRANCH   1   7
ATOM      7  C   UNL     1      19.308 -63.593  63.244  1.00  0.00     0.075 C 
ATOM      8  O   UNL     1      18.979 -63.636  64.459  1.00  0.00    -0.545 OA
ATOM      9  O   UNL     1      20.462 -64.250  62.834  1.00  0.00    -0.545 OA
ENDBRANCH   1   7
BRANCH   2  10
ATOM     10  O   UNL     1      18.184 -64.922  60.825  1.00  0.00    -0.507 OA
ATOM     11  H   UNL     1      17.678 -65.659  61.296  1.00  0.00     0.293 HD
ENDBRANCH   2  10
TORSDOF 2
ENDMDL
MODEL 4
REMARK VINA RESULT:    -4.739      1.731      3.329
REMARK INTER + INTRA:          -5.382
REMARK INTER:                  -5.155
REMARK INTRA:                  -0.227
REMARK UNBOUND:                -0.228
REMARK SMILES O=C([O-])c1ccccc1O
REMARK SMILES IDX 4 1 9 2 5 3 8 4 6 5 7 6 2 7 1 8 3 9 10 10
REMARK H PARENT 10 11
REMARK Flexibility Score: inf
ROOT
ATOM      1  C   UNL     1      17.989 -62.815  61.512  1.00  0.00     0.039 A 
ATOM      2  C   UNL     1      18.982 -63.104  62.484  1.00  0.00     0.124 A 
ATOM      3  C   UNL     1      17.541 -63.849  60.670  1.00  0.00     0.014 A 
ATOM      4  C   UNL     1      19.538 -64.388  62.545  1.00  0.00     0.047 A 
ATOM      5  C   UNL     1      18.092 -65.129  60.759  1.00  0.00     0.001 A 
ATOM      6  C   UNL     1      19.096 -65.396  61.689  1.00  0.00     0.004 A 
ENDROOT
BRANCH   1   7
ATOM      7  C   UNL     1      17.424 -61.460  61.320  1.00  0.00     0.075 C 
ATOM      8  O   UNL     1      17.466 -60.605  62.243  1.00  0.00    -0.545 OA
ATOM      9  O   UNL     1      16.901 -61.094  60.085  1.00  0.00    -0.545 OA
ENDBRANCH   1   7
BRANCH   2  10
ATOM     10  O   UNL     1      19.416 -62.163  63.422  1.00  0.00    -0.507 OA
ATOM     11  H   UNL     1      18.902 -61.323  63.650  1.00  0.00     0.293 HD
ENDBRANCH   2  10
TORSDOF 2
ENDMDL
MODEL 5
REMARK VINA RESULT:    -4.724      2.207      3.326
REMARK INTER + INTRA:          -5.366
REMARK INTER:                  -5.132
REMARK INTRA:                  -0.234
REMARK UNBOUND:                -0.228
REMARK SMILES O=C([O-])c1ccccc1O
REMARK SMILES IDX 4 1 9 2 5 3 8 4 6 5 7 6 2 7 1 8 3 9 10 10
REMARK H PARENT 10 11
REMARK Flexibility Score: inf
ROOT
ATOM      1  C   UNL     1      17.536 -63.303  60.631  1.00  0.00     0.039 A 
ATOM      2  C   UNL     1      18.183 -63.450  61.885  1.00  0.00     0.124 A 
ATOM      3  C   UNL     1      17.095 -62.026  60.239  1.00  0.00     0.014 A 
ATOM      4  C   UNL     1      18.314 -62.342  62.731  1.00  0.00     0.047 A 
ATOM      5  C   UNL     1      17.251 -60.927  61.087  1.00  0.00     0.001 A 
ATOM      6  C   UNL     1      17.852 -61.087  62.335  1.00  0.00     0.004 A 
ENDROOT
BRANCH   1   7
ATOM      7  C   UNL     1      17.272 -64.444  59.725  1.00  0.00     0.075 C 
ATOM      8  O   UNL     1      17.652 -64.418  58.525  1.00  0.00    -0.545 OA
ATOM      9  O   UNL     1      16.660 -65.592  60.213  1.00  0.00    -0.545 OA
ENDBRANCH   1   7
BRANCH   2  10
ATOM     10  O   UNL     1      18.736 -64.661  62.311  1.00  0.00    -0.507 OA
ATOM     11  H   UNL     1      19.411 -64.733  63.060  1.00  0.00     0.293 HD
ENDBRANCH   2  10
TORSDOF 2
ENDMDL
MODEL 6
REMARK VINA RESULT:    -4.670      2.378      3.946
REMARK INTER + INTRA:          -5.308
REMARK INTER:                  -5.067
REMARK INTRA:                  -0.241
REMARK UNBOUND:                -0.228
REMARK SMILES O=C([O-])c1ccccc1O
REMARK SMILES IDX 4 1 9 2 5 3 8 4 6 5 7 6 2 7 1 8 3 9 10 10
REMARK H PARENT 10 11
REMARK Flexibility Score: inf
ROOT
ATOM      1  C   UNL     1      17.724 -62.992  61.179  1.00  0.00     0.039 A 
ATOM      2  C   UNL     1      17.029 -63.919  60.359  1.00  0.00     0.124 A 
ATOM      3  C   UNL     1      18.741 -63.466  62.028  1.00  0.00     0.014 A 
ATOM      4  C   UNL     1      17.323 -65.285  60.455  1.00  0.00     0.047 A 
ATOM      5  C   UNL     1      19.034 -64.829  62.097  1.00  0.00     0.001 A 
ATOM      6  C   UNL     1      18.320 -65.739  61.318  1.00  0.00     0.004 A 
ENDROOT
BRANCH   1   7
ATOM      7  C   UNL     1      17.404 -61.547  61.205  1.00  0.00     0.075 C 
ATOM      8  O   UNL     1      17.615 -60.857  62.236  1.00  0.00    -0.545 OA
ATOM      9  O   UNL     1      16.928 -60.920  60.060  1.00  0.00    -0.545 OA
ENDBRANCH   1   7
BRANCH   2  10
ATOM     10  O   UNL     1      16.073 -63.526  59.418  1.00  0.00    -0.507 OA
ATOM     11  H   UNL     1      15.533 -64.177  58.864  1.00  0.00     0.293 HD
ENDBRANCH   2  10
TORSDOF 2
ENDMDL
MODEL 7
REMARK VINA RESULT:    -4.513      1.791      3.442
REMARK INTER + INTRA:          -5.137
REMARK INTER:                  -4.890
REMARK INTRA:                  -0.246
REMARK UNBOUND:                -0.228
REMARK SMILES O=C([O-])c1ccccc1O
REMARK SMILES IDX 4 1 9 2 5 3 8 4 6 5 7 6 2 7 1 8 3 9 10 10
REMARK H PARENT 10 11
REMARK Flexibility Score: inf
ROOT
ATOM      1  C   UNL     1      17.721 -62.991  61.198  1.00  0.00     0.039 A 
ATOM      2  C   UNL     1      18.791 -63.530  61.961  1.00  0.00     0.124 A 
ATOM      3  C   UNL     1      16.935 -63.861  60.422  1.00  0.00     0.014 A 
ATOM      4  C   UNL     1      19.080 -64.897  61.878  1.00  0.00     0.047 A 
ATOM      5  C   UNL     1      17.225 -65.226  60.366  1.00  0.00     0.001 A 
ATOM      6  C   UNL     1      18.302 -65.742  61.086  1.00  0.00     0.004 A 
ENDROOT
BRANCH   1   7
ATOM      7  C   UNL     1      17.415 -61.543  61.157  1.00  0.00     0.075 C 
ATOM      8  O   UNL     1      16.921 -61.016  60.126  1.00  0.00    -0.545 OA
ATOM      9  O   UNL     1      17.606 -60.760  62.289  1.00  0.00    -0.545 OA
ENDBRANCH   1   7
BRANCH   2  10
ATOM     10  O   UNL     1      19.561 -62.755  62.832  1.00  0.00    -0.507 OA
ATOM     11  H   UNL     1      19.680 -61.756  62.735  1.00  0.00     0.293 HD
ENDBRANCH   2  10
TORSDOF 2
ENDMDL
MODEL 8
REMARK VINA RESULT:    -4.278      2.046      3.888
REMARK INTER + INTRA:          -4.882
REMARK INTER:                  -4.666
REMARK INTRA:                  -0.215
REMARK UNBOUND:                -0.228
REMARK SMILES O=C([O-])c1ccccc1O
REMARK SMILES IDX 4 1 9 2 5 3 8 4 6 5 7 6 2 7 1 8 3 9 10 10
REMARK H PARENT 10 11
REMARK Flexibility Score: inf
ROOT
ATOM      1  C   UNL     1      18.155 -62.750  61.893  1.00  0.00     0.039 A 
ATOM      2  C   UNL     1      17.846 -63.795  60.983  1.00  0.00     0.124 A 
ATOM      3  C   UNL     1      18.966 -63.036  63.006  1.00  0.00     0.014 A 
ATOM      4  C   UNL     1      18.299 -65.095  61.243  1.00  0.00     0.047 A 
ATOM      5  C   UNL     1      19.425 -64.334  63.239  1.00  0.00     0.001 A 
ATOM      6  C   UNL     1      19.084 -65.364  62.364  1.00  0.00     0.004 A 
ENDROOT
BRANCH   1   7
ATOM      7  C   UNL     1      17.633 -61.373  61.740  1.00  0.00     0.075 C 
ATOM      8  O   UNL     1      17.091 -61.003  60.666  1.00  0.00    -0.545 OA
ATOM      9  O   UNL     1      17.676 -60.491  62.813  1.00  0.00    -0.545 OA
ENDBRANCH   1   7
BRANCH   2  10
ATOM     10  O   UNL     1      17.130 -63.582  59.803  1.00  0.00    -0.507 OA
ATOM     11  H   UNL     1      17.318 -64.071  58.938  1.00  0.00     0.293 HD
ENDBRANCH   2  10
TORSDOF 2
ENDMDL
MODEL 9
REMARK VINA RESULT:    -4.154      2.346      4.020
REMARK INTER + INTRA:          -4.746
REMARK INTER:                  -4.516
REMARK INTRA:                  -0.230
REMARK UNBOUND:                -0.228
REMARK SMILES O=C([O-])c1ccccc1O
REMARK SMILES IDX 4 1 9 2 5 3 8 4 6 5 7 6 2 7 1 8 3 9 10 10
REMARK H PARENT 10 11
REMARK Flexibility Score: inf
ROOT
ATOM      1  C   UNL     1      17.885 -62.830  61.343  1.00  0.00     0.039 A 
ATOM      2  C   UNL     1      18.539 -64.082  61.475  1.00  0.00     0.124 A 
ATOM      3  C   UNL     1      18.101 -61.844  62.323  1.00  0.00     0.014 A 
ATOM      4  C   UNL     1      19.332 -64.335  62.602  1.00  0.00     0.047 A 
ATOM      5  C   UNL     1      18.911 -62.105  63.430  1.00  0.00     0.001 A 
ATOM      6  C   UNL     1      19.518 -63.352  63.574  1.00  0.00     0.004 A 
ENDROOT
BRANCH   1   7
ATOM      7  C   UNL     1      16.956 -62.523  60.232  1.00  0.00     0.075 C 
ATOM      8  O   UNL     1      16.718 -61.332  59.898  1.00  0.00    -0.545 OA
ATOM      9  O   UNL     1      16.386 -63.555  59.497  1.00  0.00    -0.545 OA
ENDBRANCH   1   7
BRANCH   2  10
ATOM     10  O   UNL     1      18.458 -65.082  60.502  1.00  0.00    -0.507 OA
ATOM     11  H   UNL     1      19.045 -65.110  59.679  1.00  0.00     0.293 HD
ENDBRANCH   2  10
TORSDOF 2
ENDMDL
