MODEL 1
REMARK VINA RESULT:    -3.087      0.000      0.000
REMARK INTER + INTRA:          -3.990
REMARK INTER:                  -3.719
REMARK INTRA:                  -0.272
REMARK UNBOUND:                -0.272
REMARK SMILES C=CCc1ccc(O)c(OC)c1
REMARK SMILES IDX 9 1 7 2 6 3 5 4 4 5 12 6 10 7 11 8 8 9 3 11 2 12 1 13
REMARK H PARENT 8 10
REMARK Flexibility Score: inf
ROOT
ATOM      1  C   UNL     1     919.828  10.121  -5.278  1.00  0.00     0.160 A 
ATOM      2  C   UNL     1     920.456   8.866  -5.175  1.00  0.00     0.157 A 
ATOM      3  C   UNL     1     920.906   8.210  -6.326  1.00  0.00     0.050 A 
ATOM      4  C   UNL     1     920.734   8.793  -7.583  1.00  0.00     0.008 A 
ATOM      5  C   UNL     1     920.100  10.037  -7.705  1.00  0.00    -0.040 A 
ATOM      6  C   UNL     1     919.656  10.701  -6.551  1.00  0.00     0.054 A 
ENDROOT
BRANCH   1   7
ATOM      7  O   UNL     1     919.392  10.759  -4.106  1.00  0.00    -0.493 OA
ATOM      8  C   UNL     1     918.032  11.044  -3.799  1.00  0.00     0.278 C 
ENDBRANCH   1   7
BRANCH   2   9
ATOM      9  O   UNL     1     920.645   8.254  -3.936  1.00  0.00    -0.504 OA
ATOM     10  H   UNL     1     921.336   7.528  -3.793  1.00  0.00     0.293 HD
ENDBRANCH   2   9
BRANCH   5  11
ATOM     11  C   UNL     1     919.944  10.674  -9.060  1.00  0.00     0.062 C 
BRANCH  11  12
ATOM     12  C   UNL     1     918.493  10.788  -9.432  1.00  0.00    -0.030 C 
ATOM     13  C   UNL     1     917.757   9.713  -9.732  1.00  0.00     0.004 C 
ENDBRANCH  11  12
ENDBRANCH   5  11
TORSDOF 4
ENDMDL
MODEL 2
REMARK VINA RESULT:    -2.854     16.260     17.209
REMARK INTER + INTRA:          -3.710
REMARK INTER:                  -3.515
REMARK INTRA:                  -0.195
REMARK UNBOUND:                -0.272
REMARK SMILES C=CCc1ccc(O)c(OC)c1
REMARK SMILES IDX 9 1 7 2 6 3 5 4 4 5 12 6 10 7 11 8 8 9 3 11 2 12 1 13
REMARK H PARENT 8 10
REMARK Flexibility Score: inf
ROOT
ATOM      1  C   UNL     1     902.473   8.545  -3.902  1.00  0.00     0.160 A 
ATOM      2  C   UNL     1     902.964   9.334  -2.846  1.00  0.00     0.157 A 
ATOM      3  C   UNL     1     903.671  10.510  -3.120  1.00  0.00     0.050 A 
ATOM      4  C   UNL     1     903.896  10.907  -4.439  1.00  0.00     0.008 A 
ATOM      5  C   UNL     1     903.424  10.126  -5.503  1.00  0.00    -0.040 A 
ATOM      6  C   UNL     1     902.706   8.952  -5.231  1.00  0.00     0.054 A 
ENDROOT
BRANCH   1   7
ATOM      7  O   UNL     1     901.760   7.374  -3.597  1.00  0.00    -0.493 OA
ATOM      8  C   UNL     1     901.057   6.585  -4.550  1.00  0.00     0.278 C 
ENDBRANCH   1   7
BRANCH   2   9
ATOM      9  O   UNL     1     902.758   8.969  -1.515  1.00  0.00    -0.504 OA
ATOM     10  H   UNL     1     902.012   8.343  -1.237  1.00  0.00     0.293 HD
ENDBRANCH   2   9
BRANCH   5  11
ATOM     11  C   UNL     1     903.643  10.575  -6.923  1.00  0.00     0.062 C 
BRANCH  11  12
ATOM     12  C   UNL     1     902.371  11.114  -7.515  1.00  0.00    -0.030 C 
ATOM     13  C   UNL     1     901.712  10.463  -8.479  1.00  0.00     0.004 C 
ENDBRANCH  11  12
ENDBRANCH   5  11
TORSDOF 4
ENDMDL
MODEL 3
REMARK VINA RESULT:    -2.822      1.722      1.805
REMARK INTER + INTRA:          -3.671
REMARK INTER:                  -3.380
REMARK INTRA:                  -0.291
REMARK UNBOUND:                -0.272
REMARK SMILES C=CCc1ccc(O)c(OC)c1
REMARK SMILES IDX 9 1 7 2 6 3 5 4 4 5 12 6 10 7 11 8 8 9 3 11 2 12 1 13
REMARK H PARENT 8 10
REMARK Flexibility Score: inf
ROOT
ATOM      1  C   UNL     1     917.856   9.553  -5.072  1.00  0.00     0.160 A 
ATOM      2  C   UNL     1     918.257   8.205  -5.074  1.00  0.00     0.157 A 
ATOM      3  C   UNL     1     919.198   7.755  -6.007  1.00  0.00     0.050 A 
ATOM      4  C   UNL     1     919.743   8.638  -6.941  1.00  0.00     0.008 A 
ATOM      5  C   UNL     1     919.346   9.982  -6.960  1.00  0.00    -0.040 A 
ATOM      6  C   UNL     1     918.409  10.437  -6.019  1.00  0.00     0.054 A 
ENDROOT
BRANCH   1   7
ATOM      7  O   UNL     1     916.915   9.978  -4.119  1.00  0.00    -0.493 OA
ATOM      8  C   UNL     1     917.235  10.691  -2.930  1.00  0.00     0.278 C 
ENDBRANCH   1   7
BRANCH   2   9
ATOM      9  O   UNL     1     917.734   7.294  -4.156  1.00  0.00    -0.504 OA
ATOM     10  H   UNL     1     917.986   7.313  -3.175  1.00  0.00     0.293 HD
ENDBRANCH   2   9
BRANCH   5  11
ATOM     11  C   UNL     1     919.959  10.936  -7.950  1.00  0.00     0.062 C 
BRANCH  11  12
ATOM     12  C   UNL     1     919.727  10.467  -9.358  1.00  0.00    -0.030 C 
ATOM     13  C   UNL     1     918.518  10.521  -9.927  1.00  0.00     0.004 C 
ENDBRANCH  11  12
ENDBRANCH   5  11
TORSDOF 4
ENDMDL
MODEL 4
REMARK VINA RESULT:    -2.749     16.644     17.488
REMARK INTER + INTRA:          -3.583
REMARK INTER:                  -3.399
REMARK INTRA:                  -0.184
REMARK UNBOUND:                -0.272
REMARK SMILES C=CCc1ccc(O)c(OC)c1
REMARK SMILES IDX 9 1 7 2 6 3 5 4 4 5 12 6 10 7 11 8 8 9 3 11 2 12 1 13
REMARK H PARENT 8 10
REMARK Flexibility Score: inf
ROOT
ATOM      1  C   UNL     1     904.244   8.274   0.615  1.00  0.00     0.160 A 
ATOM      2  C   UNL     1     903.879   9.049  -0.501  1.00  0.00     0.157 A 
ATOM      3  C   UNL     1     904.259  10.394  -0.575  1.00  0.00     0.050 A 
ATOM      4  C   UNL     1     904.997  10.976   0.457  1.00  0.00     0.008 A 
ATOM      5  C   UNL     1     905.359  10.222   1.581  1.00  0.00    -0.040 A 
ATOM      6  C   UNL     1     904.988   8.870   1.653  1.00  0.00     0.054 A 
ENDROOT
BRANCH   1   7
ATOM      7  O   UNL     1     903.856   6.925   0.658  1.00  0.00    -0.493 OA
ATOM      8  C   UNL     1     903.863   6.120   1.832  1.00  0.00     0.278 C 
ENDBRANCH   1   7
BRANCH   2   9
ATOM      9  O   UNL     1     903.142   8.502  -1.551  1.00  0.00    -0.504 OA
ATOM     10  H   UNL     1     902.681   9.078  -2.245  1.00  0.00     0.293 HD
ENDBRANCH   2   9
BRANCH   5  11
ATOM     11  C   UNL     1     906.181  10.846   2.677  1.00  0.00     0.062 C 
BRANCH  11  12
ATOM     12  C   UNL     1     905.989  10.111   3.973  1.00  0.00    -0.030 C 
ATOM     13  C   UNL     1     906.048  10.738   5.153  1.00  0.00     0.004 C 
ENDBRANCH  11  12
ENDBRANCH   5  11
TORSDOF 4
ENDMDL
MODEL 5
REMARK VINA RESULT:    -2.721      2.434      3.685
REMARK INTER + INTRA:          -3.549
REMARK INTER:                  -3.397
REMARK INTRA:                  -0.152
REMARK UNBOUND:                -0.272
REMARK SMILES C=CCc1ccc(O)c(OC)c1
REMARK SMILES IDX 9 1 7 2 6 3 5 4 4 5 12 6 10 7 11 8 8 9 3 11 2 12 1 13
REMARK H PARENT 8 10
REMARK Flexibility Score: inf
ROOT
ATOM      1  C   UNL     1     917.446   9.531  -7.202  1.00  0.00     0.160 A 
ATOM      2  C   UNL     1     916.468   9.208  -8.161  1.00  0.00     0.157 A 
ATOM      3  C   UNL     1     916.770   9.290  -9.525  1.00  0.00     0.050 A 
ATOM      4  C   UNL     1     918.038   9.695  -9.943  1.00  0.00     0.008 A 
ATOM      5  C   UNL     1     919.020  10.032  -9.001  1.00  0.00    -0.040 A 
ATOM      6  C   UNL     1     918.723   9.940  -7.633  1.00  0.00     0.054 A 
ENDROOT
BRANCH   1   7
ATOM      7  O   UNL     1     917.116   9.432  -5.840  1.00  0.00    -0.493 OA
ATOM      8  C   UNL     1     917.731  10.189  -4.804  1.00  0.00     0.278 C 
ENDBRANCH   1   7
BRANCH   2   9
ATOM      9  O   UNL     1     915.190   8.799  -7.780  1.00  0.00    -0.504 OA
ATOM     10  H   UNL     1     915.039   8.041  -7.126  1.00  0.00     0.293 HD
ENDBRANCH   2   9
BRANCH   5  11
ATOM     11  C   UNL     1     920.396  10.438  -9.458  1.00  0.00     0.062 C 
BRANCH  11  12
ATOM     12  C   UNL     1     921.123   9.272 -10.066  1.00  0.00    -0.030 C 
ATOM     13  C   UNL     1     921.110   8.062  -9.497  1.00  0.00     0.004 C 
ENDBRANCH  11  12
ENDBRANCH   5  11
TORSDOF 4
ENDMDL
MODEL 6
REMARK VINA RESULT:    -2.712      2.039      2.981
REMARK INTER + INTRA:          -3.538
REMARK INTER:                  -3.262
REMARK INTRA:                  -0.276
REMARK UNBOUND:                -0.272
REMARK SMILES C=CCc1ccc(O)c(OC)c1
REMARK SMILES IDX 9 1 7 2 6 3 5 4 4 5 12 6 10 7 11 8 8 9 3 11 2 12 1 13
REMARK H PARENT 8 10
REMARK Flexibility Score: inf
ROOT
ATOM      1  C   UNL     1     918.431   8.463  -5.603  1.00  0.00     0.160 A 
ATOM      2  C   UNL     1     917.856   9.525  -4.880  1.00  0.00     0.157 A 
ATOM      3  C   UNL     1     918.121  10.848  -5.249  1.00  0.00     0.050 A 
ATOM      4  C   UNL     1     918.958  11.125  -6.331  1.00  0.00     0.008 A 
ATOM      5  C   UNL     1     919.548  10.079  -7.055  1.00  0.00    -0.040 A 
ATOM      6  C   UNL     1     919.276   8.751  -6.693  1.00  0.00     0.054 A 
ENDROOT
BRANCH   1   7
ATOM      7  O   UNL     1     918.141   7.145  -5.215  1.00  0.00    -0.493 OA
ATOM      8  C   UNL     1     917.382   6.223  -5.989  1.00  0.00     0.278 C 
ENDBRANCH   1   7
BRANCH   2   9
ATOM      9  O   UNL     1     917.014   9.286  -3.793  1.00  0.00    -0.504 OA
ATOM     10  H   UNL     1     917.359   9.256  -2.842  1.00  0.00     0.293 HD
ENDBRANCH   2   9
BRANCH   5  11
ATOM     11  C   UNL     1     920.425  10.383  -8.240  1.00  0.00     0.062 C 
BRANCH  11  12
ATOM     12  C   UNL     1     919.802   9.873  -9.509  1.00  0.00    -0.030 C 
ATOM     13  C   UNL     1     918.743  10.471 -10.062  1.00  0.00     0.004 C 
ENDBRANCH  11  12
ENDBRANCH   5  11
TORSDOF 4
ENDMDL
MODEL 7
REMARK VINA RESULT:    -2.710      1.734      2.353
REMARK INTER + INTRA:          -3.535
REMARK INTER:                  -3.337
REMARK INTRA:                  -0.198
REMARK UNBOUND:                -0.272
REMARK SMILES C=CCc1ccc(O)c(OC)c1
REMARK SMILES IDX 9 1 7 2 6 3 5 4 4 5 12 6 10 7 11 8 8 9 3 11 2 12 1 13
REMARK H PARENT 8 10
REMARK Flexibility Score: inf
ROOT
ATOM      1  C   UNL     1     918.020   9.933  -5.754  1.00  0.00     0.160 A 
ATOM      2  C   UNL     1     919.220  10.574  -5.396  1.00  0.00     0.157 A 
ATOM      3  C   UNL     1     920.043  11.123  -6.385  1.00  0.00     0.050 A 
ATOM      4  C   UNL     1     919.683  11.037  -7.731  1.00  0.00     0.008 A 
ATOM      5  C   UNL     1     918.497  10.391  -8.106  1.00  0.00    -0.040 A 
ATOM      6  C   UNL     1     917.664   9.849  -7.115  1.00  0.00     0.054 A 
ENDROOT
BRANCH   1   7
ATOM      7  O   UNL     1     917.210   9.397  -4.740  1.00  0.00    -0.493 OA
ATOM      8  C   UNL     1     917.455   8.161  -4.078  1.00  0.00     0.278 C 
ENDBRANCH   1   7
BRANCH   2   9
ATOM      9  O   UNL     1     919.612  10.679  -4.062  1.00  0.00    -0.504 OA
ATOM     10  H   UNL     1     919.708   9.868  -3.462  1.00  0.00     0.293 HD
ENDBRANCH   2   9
BRANCH   5  11
ATOM     11  C   UNL     1     918.098  10.328  -9.556  1.00  0.00     0.062 C 
BRANCH  11  12
ATOM     12  C   UNL     1     918.082   8.907 -10.044  1.00  0.00    -0.030 C 
ATOM     13  C   UNL     1     919.197   8.172 -10.107  1.00  0.00     0.004 C 
ENDBRANCH  11  12
ENDBRANCH   5  11
TORSDOF 4
ENDMDL
MODEL 8
REMARK VINA RESULT:    -2.694      2.364      3.581
REMARK INTER + INTRA:          -3.517
REMARK INTER:                  -3.325
REMARK INTRA:                  -0.192
REMARK UNBOUND:                -0.272
REMARK SMILES C=CCc1ccc(O)c(OC)c1
REMARK SMILES IDX 9 1 7 2 6 3 5 4 4 5 12 6 10 7 11 8 8 9 3 11 2 12 1 13
REMARK H PARENT 8 10
REMARK Flexibility Score: inf
ROOT
ATOM      1  C   UNL     1     918.852  10.571  -7.401  1.00  0.00     0.160 A 
ATOM      2  C   UNL     1     919.791  10.659  -8.446  1.00  0.00     0.157 A 
ATOM      3  C   UNL     1     919.433  10.281  -9.744  1.00  0.00     0.050 A 
ATOM      4  C   UNL     1     918.146   9.810 -10.012  1.00  0.00     0.008 A 
ATOM      5  C   UNL     1     917.202   9.704  -8.981  1.00  0.00    -0.040 A 
ATOM      6  C   UNL     1     917.556  10.093  -7.680  1.00  0.00     0.054 A 
ENDROOT
BRANCH   1   7
ATOM      7  O   UNL     1     919.238  10.965  -6.110  1.00  0.00    -0.493 OA
ATOM      8  C   UNL     1     918.460  10.758  -4.936  1.00  0.00     0.278 C 
ENDBRANCH   1   7
BRANCH   2   9
ATOM      9  O   UNL     1     921.086  11.125  -8.215  1.00  0.00    -0.504 OA
ATOM     10  H   UNL     1     921.303  12.113  -8.169  1.00  0.00     0.293 HD
ENDBRANCH   2   9
BRANCH   5  11
ATOM     11  C   UNL     1     915.807   9.226  -9.282  1.00  0.00     0.062 C 
BRANCH  11  12
ATOM     12  C   UNL     1     914.830   9.764  -8.274  1.00  0.00    -0.030 C 
ATOM     13  C   UNL     1     913.643  10.259  -8.641  1.00  0.00     0.004 C 
ENDBRANCH  11  12
ENDBRANCH   5  11
TORSDOF 4
ENDMDL
