MODEL 1
REMARK VINA RESULT:    -3.443      0.000      0.000
REMARK INTER + INTRA:          -4.447
REMARK INTER:                  -4.046
REMARK INTRA:                  -0.401
REMARK UNBOUND:                -0.401
REMARK SMILES [NH3+][C@H](CO)C(=O)[O-]
REMARK SMILES IDX 3 1 2 2 1 3 5 7 6 8 7 9 4 10
REMARK H PARENT 1 4 1 5 1 6 4 11
REMARK Flexibility Score: inf
ROOT
ATOM      1  C   UNL     1     191.393 193.181  84.551  1.00  0.00     0.227 C 
ENDROOT
BRANCH   1   2
ATOM      2  C   UNL     1     190.799 193.905  83.329  1.00  0.00     0.253 C 
BRANCH   2   3
ATOM      3  N   UNL     1     189.716 194.813  83.728  1.00  0.00    -0.348 N 
ATOM      4  H   UNL     1     189.078 194.983  82.918  1.00  0.00     0.345 HD
ATOM      5  H   UNL     1     190.117 195.733  84.026  1.00  0.00     0.345 HD
ATOM      6  H   UNL     1     189.164 194.408  84.520  1.00  0.00     0.345 HD
ENDBRANCH   2   3
BRANCH   2   7
ATOM      7  C   UNL     1     191.879 194.667  82.609  1.00  0.00     0.102 C 
ATOM      8  O   UNL     1     192.128 195.861  82.922  1.00  0.00    -0.544 OA
ATOM      9  O   UNL     1     192.600 194.062  81.585  1.00  0.00    -0.544 OA
ENDBRANCH   2   7
ENDBRANCH   1   2
BRANCH   1  10
ATOM     10  O   UNL     1     192.768 193.434  84.659  1.00  0.00    -0.390 OA
ATOM     11  H   UNL     1     193.142 192.725  85.245  1.00  0.00     0.210 HD
ENDBRANCH   1  10
TORSDOF 4
ENDMDL
MODEL 2
REMARK VINA RESULT:    -3.362      1.405      2.619
REMARK INTER + INTRA:          -4.353
REMARK INTER:                  -4.046
REMARK INTRA:                  -0.306
REMARK UNBOUND:                -0.401
REMARK SMILES [NH3+][C@H](CO)C(=O)[O-]
REMARK SMILES IDX 3 1 2 2 1 3 5 7 6 8 7 9 4 10
REMARK H PARENT 1 4 1 5 1 6 4 11
REMARK Flexibility Score: inf
ROOT
ATOM      1  C   UNL     1     192.368 195.335  81.601  1.00  0.00     0.227 C 
ENDROOT
BRANCH   1   2
ATOM      2  C   UNL     1     191.734 195.384  83.003  1.00  0.00     0.253 C 
BRANCH   2   3
ATOM      3  N   UNL     1     190.532 196.227  83.010  1.00  0.00    -0.348 N 
ATOM      4  H   UNL     1     189.692 195.647  83.237  1.00  0.00     0.345 HD
ATOM      5  H   UNL     1     190.390 196.649  82.064  1.00  0.00     0.345 HD
ATOM      6  H   UNL     1     190.620 196.992  83.718  1.00  0.00     0.345 HD
ENDBRANCH   2   3
BRANCH   2   7
ATOM      7  C   UNL     1     191.397 193.990  83.462  1.00  0.00     0.102 C 
ATOM      8  O   UNL     1     192.017 193.475  84.429  1.00  0.00    -0.544 OA
ATOM      9  O   UNL     1     190.409 193.258  82.812  1.00  0.00    -0.544 OA
ENDBRANCH   2   7
ENDBRANCH   1   2
BRANCH   1  10
ATOM     10  O   UNL     1     193.125 194.166  81.437  1.00  0.00    -0.390 OA
ATOM     11  H   UNL     1     192.824 193.532  82.139  1.00  0.00     0.210 HD
ENDBRANCH   1  10
TORSDOF 4
ENDMDL
MODEL 3
REMARK VINA RESULT:    -3.333      2.021      3.148
REMARK INTER + INTRA:          -4.319
REMARK INTER:                  -4.079
REMARK INTRA:                  -0.240
REMARK UNBOUND:                -0.401
REMARK SMILES [NH3+][C@H](CO)C(=O)[O-]
REMARK SMILES IDX 3 1 2 2 1 3 5 7 6 8 7 9 4 10
REMARK H PARENT 1 4 1 5 1 6 4 11
REMARK Flexibility Score: inf
ROOT
ATOM      1  C   UNL     1     191.653 196.140  82.717  1.00  0.00     0.227 C 
ENDROOT
BRANCH   1   2
ATOM      2  C   UNL     1     191.574 194.628  82.436  1.00  0.00     0.253 C 
BRANCH   2   3
ATOM      3  N   UNL     1     192.827 194.132  81.853  1.00  0.00    -0.348 N 
ATOM      4  H   UNL     1     193.615 194.281  82.524  1.00  0.00     0.345 HD
ATOM      5  H   UNL     1     193.043 194.660  80.976  1.00  0.00     0.345 HD
ATOM      6  H   UNL     1     192.754 193.112  81.631  1.00  0.00     0.345 HD
ENDBRANCH   2   3
BRANCH   2   7
ATOM      7  C   UNL     1     191.260 193.887  83.708  1.00  0.00     0.102 C 
ATOM      8  O   UNL     1     192.182 193.324  84.356  1.00  0.00    -0.544 OA
ATOM      9  O   UNL     1     189.951 193.806  84.168  1.00  0.00    -0.544 OA
ENDBRANCH   2   7
ENDBRANCH   1   2
BRANCH   1  10
ATOM     10  O   UNL     1     190.468 196.599  83.309  1.00  0.00    -0.390 OA
ATOM     11  H   UNL     1     190.051 195.816  83.753  1.00  0.00     0.210 HD
ENDBRANCH   1  10
TORSDOF 4
ENDMDL
MODEL 4
REMARK VINA RESULT:    -3.286     14.393     15.108
REMARK INTER + INTRA:          -4.263
REMARK INTER:                  -3.875
REMARK INTRA:                  -0.388
REMARK UNBOUND:                -0.401
REMARK SMILES [NH3+][C@H](CO)C(=O)[O-]
REMARK SMILES IDX 3 1 2 2 1 3 5 7 6 8 7 9 4 10
REMARK H PARENT 1 4 1 5 1 6 4 11
REMARK Flexibility Score: inf
ROOT
ATOM      1  C   UNL     1     180.835 202.346  86.109  1.00  0.00     0.227 C 
ENDROOT
BRANCH   1   2
ATOM      2  C   UNL     1     179.872 202.520  87.298  1.00  0.00     0.253 C 
BRANCH   2   3
ATOM      3  N   UNL     1     180.033 201.434  88.272  1.00  0.00    -0.348 N 
ATOM      4  H   UNL     1     179.473 200.603  87.975  1.00  0.00     0.345 HD
ATOM      5  H   UNL     1     179.684 201.743  89.209  1.00  0.00     0.345 HD
ATOM      6  H   UNL     1     181.039 201.156  88.356  1.00  0.00     0.345 HD
ENDBRANCH   2   3
BRANCH   2   7
ATOM      7  C   UNL     1     180.109 203.852  87.958  1.00  0.00     0.102 C 
ATOM      8  O   UNL     1     180.799 203.924  89.009  1.00  0.00    -0.544 OA
ATOM      9  O   UNL     1     179.556 205.009  87.420  1.00  0.00    -0.544 OA
ENDBRANCH   2   7
ENDBRANCH   1   2
BRANCH   1  10
ATOM     10  O   UNL     1     181.643 203.481  85.953  1.00  0.00    -0.390 OA
ATOM     11  H   UNL     1     181.252 204.189  86.528  1.00  0.00     0.210 HD
ENDBRANCH   1  10
TORSDOF 4
ENDMDL
MODEL 5
REMARK VINA RESULT:    -3.255     14.044     14.646
REMARK INTER + INTRA:          -4.227
REMARK INTER:                  -3.976
REMARK INTRA:                  -0.251
REMARK UNBOUND:                -0.401
REMARK SMILES [NH3+][C@H](CO)C(=O)[O-]
REMARK SMILES IDX 3 1 2 2 1 3 5 7 6 8 7 9 4 10
REMARK H PARENT 1 4 1 5 1 6 4 11
REMARK Flexibility Score: inf
ROOT
ATOM      1  C   UNL     1     180.284 204.150  88.006  1.00  0.00     0.227 C 
ENDROOT
BRANCH   1   2
ATOM      2  C   UNL     1     180.280 203.197  86.797  1.00  0.00     0.253 C 
BRANCH   2   3
ATOM      3  N   UNL     1     181.448 203.427  85.938  1.00  0.00    -0.348 N 
ATOM      4  H   UNL     1     181.633 204.453  85.855  1.00  0.00     0.345 HD
ATOM      5  H   UNL     1     181.263 203.051  84.980  1.00  0.00     0.345 HD
ATOM      6  H   UNL     1     182.296 202.958  86.333  1.00  0.00     0.345 HD
ENDBRANCH   2   3
BRANCH   2   7
ATOM      7  C   UNL     1     180.253 201.768  87.270  1.00  0.00     0.102 C 
ATOM      8  O   UNL     1     179.474 201.423  88.197  1.00  0.00    -0.544 OA
ATOM      9  O   UNL     1     181.097 200.824  86.696  1.00  0.00    -0.544 OA
ENDBRANCH   2   7
ENDBRANCH   1   2
BRANCH   1  10
ATOM     10  O   UNL     1     181.136 203.673  89.012  1.00  0.00    -0.390 OA
ATOM     11  H   UNL     1     181.574 202.859  88.651  1.00  0.00     0.210 HD
ENDBRANCH   1  10
TORSDOF 4
ENDMDL
MODEL 6
REMARK VINA RESULT:    -3.178     17.639     18.099
REMARK INTER + INTRA:          -4.137
REMARK INTER:                  -3.741
REMARK INTRA:                  -0.395
REMARK UNBOUND:                -0.401
REMARK SMILES [NH3+][C@H](CO)C(=O)[O-]
REMARK SMILES IDX 3 1 2 2 1 3 5 7 6 8 7 9 4 10
REMARK H PARENT 1 4 1 5 1 6 4 11
REMARK Flexibility Score: inf
ROOT
ATOM      1  C   UNL     1     185.461 206.271  94.903  1.00  0.00     0.227 C 
ENDROOT
BRANCH   1   2
ATOM      2  C   UNL     1     185.305 207.788  94.691  1.00  0.00     0.253 C 
BRANCH   2   3
ATOM      3  N   UNL     1     186.428 208.524  95.286  1.00  0.00    -0.348 N 
ATOM      4  H   UNL     1     187.327 208.209  94.856  1.00  0.00     0.345 HD
ATOM      5  H   UNL     1     186.473 208.331  96.313  1.00  0.00     0.345 HD
ATOM      6  H   UNL     1     186.318 209.554  95.135  1.00  0.00     0.345 HD
ENDBRANCH   2   3
BRANCH   2   7
ATOM      7  C   UNL     1     185.203 208.093  93.220  1.00  0.00     0.102 C 
ATOM      8  O   UNL     1     184.078 208.299  92.693  1.00  0.00    -0.544 OA
ATOM      9  O   UNL     1     186.347 208.134  92.432  1.00  0.00    -0.544 OA
ENDBRANCH   2   7
ENDBRANCH   1   2
BRANCH   1  10
ATOM     10  O   UNL     1     185.135 205.569  93.734  1.00  0.00    -0.390 OA
ATOM     11  H   UNL     1     185.894 205.692  93.107  1.00  0.00     0.210 HD
ENDBRANCH   1  10
TORSDOF 4
ENDMDL
MODEL 7
REMARK VINA RESULT:    -3.168      1.923      2.580
REMARK INTER + INTRA:          -4.124
REMARK INTER:                  -3.912
REMARK INTRA:                  -0.212
REMARK UNBOUND:                -0.401
REMARK SMILES [NH3+][C@H](CO)C(=O)[O-]
REMARK SMILES IDX 3 1 2 2 1 3 5 7 6 8 7 9 4 10
REMARK H PARENT 1 4 1 5 1 6 4 11
REMARK Flexibility Score: inf
ROOT
ATOM      1  C   UNL     1     192.073 193.632  81.586  1.00  0.00     0.227 C 
ENDROOT
BRANCH   1   2
ATOM      2  C   UNL     1     191.404 193.852  82.955  1.00  0.00     0.253 C 
BRANCH   2   3
ATOM      3  N   UNL     1     192.355 193.623  84.051  1.00  0.00    -0.348 N 
ATOM      4  H   UNL     1     191.888 193.799  84.970  1.00  0.00     0.345 HD
ATOM      5  H   UNL     1     193.161 194.283  83.964  1.00  0.00     0.345 HD
ATOM      6  H   UNL     1     192.712 192.639  84.032  1.00  0.00     0.345 HD
ENDBRANCH   2   3
BRANCH   2   7
ATOM      7  C   UNL     1     190.844 195.247  83.034  1.00  0.00     0.102 C 
ATOM      8  O   UNL     1     191.617 196.241  83.009  1.00  0.00    -0.544 OA
ATOM      9  O   UNL     1     189.473 195.446  83.148  1.00  0.00    -0.544 OA
ENDBRANCH   2   7
ENDBRANCH   1   2
BRANCH   1  10
ATOM     10  O   UNL     1     193.125 194.539  81.395  1.00  0.00    -0.390 OA
ATOM     11  H   UNL     1     193.930 194.132  81.809  1.00  0.00     0.210 HD
ENDBRANCH   1  10
TORSDOF 4
ENDMDL
MODEL 8
REMARK VINA RESULT:    -3.146      2.471      2.543
REMARK INTER + INTRA:          -4.098
REMARK INTER:                  -4.090
REMARK INTRA:                  -0.008
REMARK UNBOUND:                -0.401
REMARK SMILES [NH3+][C@H](CO)C(=O)[O-]
REMARK SMILES IDX 3 1 2 2 1 3 5 7 6 8 7 9 4 10
REMARK H PARENT 1 4 1 5 1 6 4 11
REMARK Flexibility Score: inf
ROOT
ATOM      1  C   UNL     1     188.866 193.943  84.506  1.00  0.00     0.227 C 
ENDROOT
BRANCH   1   2
ATOM      2  C   UNL     1     188.979 194.999  83.391  1.00  0.00     0.253 C 
BRANCH   2   3
ATOM      3  N   UNL     1     188.399 196.280  83.815  1.00  0.00    -0.348 N 
ATOM      4  H   UNL     1     189.056 197.061  83.588  1.00  0.00     0.345 HD
ATOM      5  H   UNL     1     188.246 196.274  84.850  1.00  0.00     0.345 HD
ATOM      6  H   UNL     1     187.485 196.451  83.334  1.00  0.00     0.345 HD
ENDBRANCH   2   3
BRANCH   2   7
ATOM      7  C   UNL     1     190.422 195.183  83.003  1.00  0.00     0.102 C 
ATOM      8  O   UNL     1     190.978 196.304  83.146  1.00  0.00    -0.544 OA
ATOM      9  O   UNL     1     191.146 194.121  82.473  1.00  0.00    -0.544 OA
ENDBRANCH   2   7
ENDBRANCH   1   2
BRANCH   1  10
ATOM     10  O   UNL     1     188.200 194.468  85.623  1.00  0.00    -0.390 OA
ATOM     11  H   UNL     1     188.091 193.719  86.265  1.00  0.00     0.210 HD
ENDBRANCH   1  10
TORSDOF 4
ENDMDL
MODEL 9
REMARK VINA RESULT:    -3.117     15.008     15.644
REMARK INTER + INTRA:          -4.065
REMARK INTER:                  -3.677
REMARK INTRA:                  -0.388
REMARK UNBOUND:                -0.401
REMARK SMILES [NH3+][C@H](CO)C(=O)[O-]
REMARK SMILES IDX 3 1 2 2 1 3 5 7 6 8 7 9 4 10
REMARK H PARENT 1 4 1 5 1 6 4 11
REMARK Flexibility Score: inf
ROOT
ATOM      1  C   UNL     1     179.857 201.853  87.893  1.00  0.00     0.227 C 
ENDROOT
BRANCH   1   2
ATOM      2  C   UNL     1     179.329 202.822  88.966  1.00  0.00     0.253 C 
BRANCH   2   3
ATOM      3  N   UNL     1     179.252 202.167  90.278  1.00  0.00    -0.348 N 
ATOM      4  H   UNL     1     179.735 202.753  90.997  1.00  0.00     0.345 HD
ATOM      5  H   UNL     1     179.733 201.239  90.239  1.00  0.00     0.345 HD
ATOM      6  H   UNL     1     178.256 202.025  90.565  1.00  0.00     0.345 HD
ENDBRANCH   2   3
BRANCH   2   7
ATOM      7  C   UNL     1     180.214 204.037  89.040  1.00  0.00     0.102 C 
ATOM      8  O   UNL     1     180.080 204.970  88.205  1.00  0.00    -0.544 OA
ATOM      9  O   UNL     1     181.194 204.131  90.022  1.00  0.00    -0.544 OA
ENDBRANCH   2   7
ENDBRANCH   1   2
BRANCH   1  10
ATOM     10  O   UNL     1     181.139 202.232  87.468  1.00  0.00    -0.390 OA
ATOM     11  H   UNL     1     181.017 202.757  86.634  1.00  0.00     0.210 HD
ENDBRANCH   1  10
TORSDOF 4
ENDMDL
