MODEL 1
REMARK VINA RESULT:    14.450      0.000      0.000
REMARK INTER + INTRA:          15.976
REMARK INTER:                  16.140
REMARK INTRA:                  -0.164
REMARK UNBOUND:                -0.164
REMARK SMILES O=C([O-])c1ccccc1C(=O)[O-]
REMARK SMILES IDX 4 1 9 2 5 3 8 4 6 5 7 6 2 7 1 8 3 9 10 10 11 11 12 12
REMARK H PARENT
REMARK Flexibility Score: inf
ROOT
ATOM      1  C   UNL     1     -36.072  15.547  17.641  1.00  0.00     0.006 A 
ATOM      2  C   UNL     1     -36.151  16.918  18.015  1.00  0.00     0.006 A 
ATOM      3  C   UNL     1     -37.230  14.750  17.713  1.00  0.00     0.010 A 
ATOM      4  C   UNL     1     -37.398  17.455  18.386  1.00  0.00     0.010 A 
ATOM      5  C   UNL     1     -38.451  15.299  18.105  1.00  0.00     0.001 A 
ATOM      6  C   UNL     1     -38.538  16.652  18.430  1.00  0.00     0.001 A 
ENDROOT
BRANCH   1   7
ATOM      7  C   UNL     1     -34.834  14.936  17.105  1.00  0.00     0.072 C 
ATOM      8  O   UNL     1     -34.413  15.255  15.961  1.00  0.00    -0.545 OA
ATOM      9  O   UNL     1     -34.087  14.055  17.878  1.00  0.00    -0.545 OA
ENDBRANCH   1   7
BRANCH   2  10
ATOM     10  C   UNL     1     -34.959  17.792  18.103  1.00  0.00     0.072 C 
ATOM     11  O   UNL     1     -34.762  18.685  17.238  1.00  0.00    -0.545 OA
ATOM     12  O   UNL     1     -34.078  17.682  19.173  1.00  0.00    -0.545 OA
ENDBRANCH   2  10
TORSDOF 2
ENDMDL
MODEL 2
REMARK VINA RESULT:    14.482      0.053      2.866
REMARK INTER + INTRA:          16.012
REMARK INTER:                  16.179
REMARK INTRA:                  -0.167
REMARK UNBOUND:                -0.164
REMARK SMILES O=C([O-])c1ccccc1C(=O)[O-]
REMARK SMILES IDX 4 1 9 2 5 3 8 4 6 5 7 6 2 7 1 8 3 9 10 10 11 11 12 12
REMARK H PARENT
REMARK Flexibility Score: inf
ROOT
ATOM      1  C   UNL     1     -36.148  16.901  18.034  1.00  0.00     0.006 A 
ATOM      2  C   UNL     1     -36.066  15.527  17.676  1.00  0.00     0.006 A 
ATOM      3  C   UNL     1     -37.400  17.446  18.377  1.00  0.00     0.010 A 
ATOM      4  C   UNL     1     -37.228  14.734  17.735  1.00  0.00     0.010 A 
ATOM      5  C   UNL     1     -38.543  16.645  18.407  1.00  0.00     0.001 A 
ATOM      6  C   UNL     1     -38.455  15.290  18.098  1.00  0.00     0.001 A 
ENDROOT
BRANCH   1   7
ATOM      7  C   UNL     1     -34.955  17.772  18.136  1.00  0.00     0.072 C 
ATOM      8  O   UNL     1     -34.732  18.647  17.257  1.00  0.00    -0.545 OA
ATOM      9  O   UNL     1     -34.103  17.681  19.230  1.00  0.00    -0.545 OA
ENDBRANCH   1   7
BRANCH   2  10
ATOM     10  C   UNL     1     -34.821  14.906  17.169  1.00  0.00     0.072 C 
ATOM     11  O   UNL     1     -34.384  15.204  16.026  1.00  0.00    -0.545 OA
ATOM     12  O   UNL     1     -34.084  14.041  17.970  1.00  0.00    -0.545 OA
ENDBRANCH   2  10
TORSDOF 2
ENDMDL
MODEL 3
REMARK VINA RESULT:    14.549      2.002      3.660
REMARK INTER + INTRA:          16.086
REMARK INTER:                  16.015
REMARK INTRA:                   0.071
REMARK UNBOUND:                -0.164
REMARK SMILES O=C([O-])c1ccccc1C(=O)[O-]
REMARK SMILES IDX 4 1 9 2 5 3 8 4 6 5 7 6 2 7 1 8 3 9 10 10 11 11 12 12
REMARK H PARENT
REMARK Flexibility Score: inf
ROOT
ATOM      1  C   UNL     1     -36.603  16.457  18.147  1.00  0.00     0.006 A 
ATOM      2  C   UNL     1     -35.237  16.099  17.975  1.00  0.00     0.006 A 
ATOM      3  C   UNL     1     -36.952  17.820  18.209  1.00  0.00     0.010 A 
ATOM      4  C   UNL     1     -34.279  17.117  17.807  1.00  0.00     0.010 A 
ATOM      5  C   UNL     1     -35.982  18.812  18.062  1.00  0.00     0.001 A 
ATOM      6  C   UNL     1     -34.650  18.461  17.851  1.00  0.00     0.001 A 
ENDROOT
BRANCH   1   7
ATOM      7  C   UNL     1     -37.692  15.454  18.190  1.00  0.00     0.072 C 
ATOM      8  O   UNL     1     -37.759  14.553  17.311  1.00  0.00    -0.545 OA
ATOM      9  O   UNL     1     -38.614  15.453  19.230  1.00  0.00    -0.545 OA
ENDBRANCH   1   7
BRANCH   2  10
ATOM     10  C   UNL     1     -34.765  14.697  18.039  1.00  0.00     0.072 C 
ATOM     11  O   UNL     1     -34.500  14.167  19.150  1.00  0.00    -0.545 OA
ATOM     12  O   UNL     1     -34.670  13.929  16.884  1.00  0.00    -0.545 OA
ENDBRANCH   2  10
TORSDOF 2
ENDMDL
MODEL 4
REMARK VINA RESULT:    14.550      1.997      3.295
REMARK INTER + INTRA:          16.088
REMARK INTER:                  16.018
REMARK INTRA:                   0.069
REMARK UNBOUND:                -0.164
REMARK SMILES O=C([O-])c1ccccc1C(=O)[O-]
REMARK SMILES IDX 4 1 9 2 5 3 8 4 6 5 7 6 2 7 1 8 3 9 10 10 11 11 12 12
REMARK H PARENT
REMARK Flexibility Score: inf
ROOT
ATOM      1  C   UNL     1     -35.218  16.093  17.969  1.00  0.00     0.006 A 
ATOM      2  C   UNL     1     -36.583  16.458  18.138  1.00  0.00     0.006 A 
ATOM      3  C   UNL     1     -34.254  17.105  17.807  1.00  0.00     0.010 A 
ATOM      4  C   UNL     1     -36.923  17.823  18.202  1.00  0.00     0.010 A 
ATOM      5  C   UNL     1     -34.617  18.451  17.851  1.00  0.00     0.001 A 
ATOM      6  C   UNL     1     -35.947  18.810  18.060  1.00  0.00     0.001 A 
ENDROOT
BRANCH   1   7
ATOM      7  C   UNL     1     -34.755  14.688  18.032  1.00  0.00     0.072 C 
ATOM      8  O   UNL     1     -34.496  14.154  19.144  1.00  0.00    -0.545 OA
ATOM      9  O   UNL     1     -34.660  13.920  16.877  1.00  0.00    -0.545 OA
ENDBRANCH   1   7
BRANCH   2  10
ATOM     10  C   UNL     1     -37.678  15.462  18.176  1.00  0.00     0.072 C 
ATOM     11  O   UNL     1     -37.748  14.564  17.296  1.00  0.00    -0.545 OA
ATOM     12  O   UNL     1     -38.601  15.463  19.215  1.00  0.00    -0.545 OA
ENDBRANCH   2  10
TORSDOF 2
ENDMDL
