MODEL 1
REMARK VINA RESULT:    -4.965      0.000      0.000
REMARK INTER + INTRA:          -5.349
REMARK INTER:                  -5.255
REMARK INTRA:                  -0.094
REMARK UNBOUND:                -0.094
REMARK SMILES C=C(C)[C@@H]1CC=C(C)C(=O)C1
REMARK SMILES IDX 8 1 7 2 6 3 5 4 4 5 11 6 9 7 10 8 2 9 1 10 3 11
REMARK H PARENT
REMARK Flexibility Score: inf
ROOT
ATOM      1  C   UNL     1       7.595  32.472  54.764  1.00  0.00     0.048 C 
ATOM      2  C   UNL     1       6.853  31.345  54.100  1.00  0.00    -0.012 C 
ATOM      3  C   UNL     1       5.567  31.115  54.412  1.00  0.00    -0.019 C 
ATOM      4  C   UNL     1       4.773  30.012  53.764  1.00  0.00     0.036 C 
ATOM      5  C   UNL     1       5.672  28.809  53.423  1.00  0.00     0.025 C 
ATOM      6  C   UNL     1       6.861  29.259  52.555  1.00  0.00     0.089 C 
ATOM      7  C   UNL     1       7.577  30.415  53.197  1.00  0.00     0.158 C 
ATOM      8  O   UNL     1       8.794  30.609  52.931  1.00  0.00    -0.295 OA
ENDROOT
BRANCH   5   9
ATOM      9  C   UNL     1       4.881  27.695  52.749  1.00  0.00    -0.077 C 
ATOM     10  C   UNL     1       3.724  27.273  53.283  1.00  0.00     0.008 C 
ATOM     11  C   UNL     1       5.370  27.041  51.480  1.00  0.00     0.039 C 
ENDBRANCH   5   9
TORSDOF 1
ENDMDL
MODEL 2
REMARK VINA RESULT:    -4.924      1.954      4.640
REMARK INTER + INTRA:          -5.307
REMARK INTER:                  -5.209
REMARK INTRA:                  -0.098
REMARK UNBOUND:                -0.094
REMARK SMILES C=C(C)[C@@H]1CC=C(C)C(=O)C1
REMARK SMILES IDX 8 1 7 2 6 3 5 4 4 5 11 6 9 7 10 8 2 9 1 10 3 11
REMARK H PARENT
REMARK Flexibility Score: inf
ROOT
ATOM      1  C   UNL     1       3.742  27.574  53.259  1.00  0.00     0.048 C 
ATOM      2  C   UNL     1       4.774  28.666  53.330  1.00  0.00    -0.012 C 
ATOM      3  C   UNL     1       6.045  28.409  52.982  1.00  0.00    -0.019 C 
ATOM      4  C   UNL     1       7.113  29.470  53.018  1.00  0.00     0.036 C 
ATOM      5  C   UNL     1       6.852  30.481  54.150  1.00  0.00     0.025 C 
ATOM      6  C   UNL     1       5.440  31.079  54.018  1.00  0.00     0.089 C 
ATOM      7  C   UNL     1       4.413  29.988  53.902  1.00  0.00     0.158 C 
ATOM      8  O   UNL     1       3.227  30.220  54.263  1.00  0.00    -0.295 OA
ENDROOT
BRANCH   5   9
ATOM      9  C   UNL     1       7.917  31.569  54.182  1.00  0.00    -0.077 C 
ATOM     10  C   UNL     1       7.692  32.713  54.848  1.00  0.00     0.008 C 
ATOM     11  C   UNL     1       9.239  31.396  53.474  1.00  0.00     0.039 C 
ENDBRANCH   5   9
TORSDOF 1
ENDMDL
MODEL 3
REMARK VINA RESULT:    -4.922     12.314     12.770
REMARK INTER + INTRA:          -5.304
REMARK INTER:                  -5.207
REMARK INTRA:                  -0.097
REMARK UNBOUND:                -0.094
REMARK SMILES C=C(C)[C@@H]1CC=C(C)C(=O)C1
REMARK SMILES IDX 8 1 7 2 6 3 5 4 4 5 11 6 9 7 10 8 2 9 1 10 3 11
REMARK H PARENT
REMARK Flexibility Score: inf
ROOT
ATOM      1  C   UNL     1      17.980  22.615  60.344  1.00  0.00     0.048 C 
ATOM      2  C   UNL     1      16.526  22.700  59.970  1.00  0.00    -0.012 C 
ATOM      3  C   UNL     1      15.584  22.618  60.923  1.00  0.00    -0.019 C 
ATOM      4  C   UNL     1      14.115  22.715  60.605  1.00  0.00     0.036 C 
ATOM      5  C   UNL     1      13.809  22.121  59.217  1.00  0.00     0.025 C 
ATOM      6  C   UNL     1      14.684  22.793  58.143  1.00  0.00     0.089 C 
ATOM      7  C   UNL     1      16.133  22.748  58.539  1.00  0.00     0.158 C 
ATOM      8  O   UNL     1      17.017  22.788  57.640  1.00  0.00    -0.295 OA
ENDROOT
BRANCH   5   9
ATOM      9  C   UNL     1      12.328  22.233  58.878  1.00  0.00    -0.077 C 
ATOM     10  C   UNL     1      11.895  21.929  57.644  1.00  0.00     0.008 C 
ATOM     11  C   UNL     1      11.319  22.684  59.905  1.00  0.00     0.039 C 
ENDBRANCH   5   9
TORSDOF 1
ENDMDL
MODEL 4
REMARK VINA RESULT:    -4.907     11.687     12.169
REMARK INTER + INTRA:          -5.289
REMARK INTER:                  -5.192
REMARK INTRA:                  -0.097
REMARK UNBOUND:                -0.094
REMARK SMILES C=C(C)[C@@H]1CC=C(C)C(=O)C1
REMARK SMILES IDX 8 1 7 2 6 3 5 4 4 5 11 6 9 7 10 8 2 9 1 10 3 11
REMARK H PARENT
REMARK Flexibility Score: inf
ROOT
ATOM      1  C   UNL     1      16.933  22.609  58.459  1.00  0.00     0.048 C 
ATOM      2  C   UNL     1      15.464  22.398  58.704  1.00  0.00    -0.012 C 
ATOM      3  C   UNL     1      14.634  22.202  57.666  1.00  0.00    -0.019 C 
ATOM      4  C   UNL     1      13.159  21.968  57.856  1.00  0.00     0.036 C 
ATOM      5  C   UNL     1      12.630  22.733  59.085  1.00  0.00     0.025 C 
ATOM      6  C   UNL     1      13.446  22.362  60.337  1.00  0.00     0.089 C 
ATOM      7  C   UNL     1      14.918  22.531  60.078  1.00  0.00     0.158 C 
ATOM      8  O   UNL     1      15.691  22.750  61.049  1.00  0.00    -0.295 OA
ENDROOT
BRANCH   5   9
ATOM      9  C   UNL     1      11.143  22.487  59.297  1.00  0.00    -0.077 C 
ATOM     10  C   UNL     1      10.552  22.874  60.439  1.00  0.00     0.008 C 
ATOM     11  C   UNL     1      10.301  21.808  58.245  1.00  0.00     0.039 C 
ENDBRANCH   5   9
TORSDOF 1
ENDMDL
MODEL 5
REMARK VINA RESULT:    -4.899     11.577     12.349
REMARK INTER + INTRA:          -5.280
REMARK INTER:                  -5.183
REMARK INTRA:                  -0.096
REMARK UNBOUND:                -0.094
REMARK SMILES C=C(C)[C@@H]1CC=C(C)C(=O)C1
REMARK SMILES IDX 8 1 7 2 6 3 5 4 4 5 11 6 9 7 10 8 2 9 1 10 3 11
REMARK H PARENT
REMARK Flexibility Score: inf
ROOT
ATOM      1  C   UNL     1      10.797  22.333  56.445  1.00  0.00     0.048 C 
ATOM      2  C   UNL     1      11.812  22.437  57.550  1.00  0.00    -0.012 C 
ATOM      3  C   UNL     1      13.121  22.483  57.254  1.00  0.00    -0.019 C 
ATOM      4  C   UNL     1      14.177  22.605  58.320  1.00  0.00     0.036 C 
ATOM      5  C   UNL     1      13.742  21.894  59.615  1.00  0.00     0.025 C 
ATOM      6  C   UNL     1      12.375  22.426  60.084  1.00  0.00     0.089 C 
ATOM      7  C   UNL     1      11.372  22.363  58.966  1.00  0.00     0.158 C 
ATOM      8  O   UNL     1      10.145  22.284  59.246  1.00  0.00    -0.295 OA
ENDROOT
BRANCH   5   9
ATOM      9  C   UNL     1      14.796  22.029  60.706  1.00  0.00    -0.077 C 
ATOM     10  C   UNL     1      14.554  21.555  61.939  1.00  0.00     0.008 C 
ATOM     11  C   UNL     1      16.124  22.693  60.438  1.00  0.00     0.039 C 
ENDBRANCH   5   9
TORSDOF 1
ENDMDL
MODEL 6
REMARK VINA RESULT:    -4.796     11.460     11.853
REMARK INTER + INTRA:          -5.171
REMARK INTER:                  -5.073
REMARK INTRA:                  -0.098
REMARK UNBOUND:                -0.094
REMARK SMILES C=C(C)[C@@H]1CC=C(C)C(=O)C1
REMARK SMILES IDX 8 1 7 2 6 3 5 4 4 5 11 6 9 7 10 8 2 9 1 10 3 11
REMARK H PARENT
REMARK Flexibility Score: inf
ROOT
ATOM      1  C   UNL     1      16.677  22.653  60.378  1.00  0.00     0.048 C 
ATOM      2  C   UNL     1      15.316  22.697  59.741  1.00  0.00    -0.012 C 
ATOM      3  C   UNL     1      14.215  22.632  60.508  1.00  0.00    -0.019 C 
ATOM      4  C   UNL     1      12.829  22.689  59.923  1.00  0.00     0.036 C 
ATOM      5  C   UNL     1      12.790  22.041  58.526  1.00  0.00     0.025 C 
ATOM      6  C   UNL     1      13.839  22.690  57.605  1.00  0.00     0.089 C 
ATOM      7  C   UNL     1      15.192  22.686  58.261  1.00  0.00     0.158 C 
ATOM      8  O   UNL     1      16.225  22.711  57.538  1.00  0.00    -0.295 OA
ENDROOT
BRANCH   5   9
ATOM      9  C   UNL     1      11.395  22.112  57.917  1.00  0.00    -0.077 C 
ATOM     10  C   UNL     1      11.245  22.345  56.604  1.00  0.00     0.008 C 
ATOM     11  C   UNL     1      10.159  21.927  58.763  1.00  0.00     0.039 C 
ENDBRANCH   5   9
TORSDOF 1
ENDMDL
MODEL 7
REMARK VINA RESULT:    -4.778      1.558      2.144
REMARK INTER + INTRA:          -5.152
REMARK INTER:                  -5.054
REMARK INTRA:                  -0.098
REMARK UNBOUND:                -0.094
REMARK SMILES C=C(C)[C@@H]1CC=C(C)C(=O)C1
REMARK SMILES IDX 8 1 7 2 6 3 5 4 4 5 11 6 9 7 10 8 2 9 1 10 3 11
REMARK H PARENT
REMARK Flexibility Score: inf
ROOT
ATOM      1  C   UNL     1       7.288  32.288  54.597  1.00  0.00     0.048 C 
ATOM      2  C   UNL     1       6.675  31.000  54.120  1.00  0.00    -0.012 C 
ATOM      3  C   UNL     1       7.451  30.054  53.566  1.00  0.00    -0.019 C 
ATOM      4  C   UNL     1       6.892  28.740  53.089  1.00  0.00     0.036 C 
ATOM      5  C   UNL     1       5.453  28.908  52.566  1.00  0.00     0.025 C 
ATOM      6  C   UNL     1       4.567  29.563  53.641  1.00  0.00     0.089 C 
ATOM      7  C   UNL     1       5.201  30.827  54.149  1.00  0.00     0.158 C 
ATOM      8  O   UNL     1       4.467  31.729  54.637  1.00  0.00    -0.295 OA
ENDROOT
BRANCH   5   9
ATOM      9  C   UNL     1       4.872  27.580  52.099  1.00  0.00    -0.077 C 
ATOM     10  C   UNL     1       4.002  26.915  52.876  1.00  0.00     0.008 C 
ATOM     11  C   UNL     1       5.254  26.980  50.768  1.00  0.00     0.039 C 
ENDBRANCH   5   9
TORSDOF 1
ENDMDL
MODEL 8
REMARK VINA RESULT:    -4.775      2.032      4.641
REMARK INTER + INTRA:          -5.149
REMARK INTER:                  -5.050
REMARK INTRA:                  -0.098
REMARK UNBOUND:                -0.094
REMARK SMILES C=C(C)[C@@H]1CC=C(C)C(=O)C1
REMARK SMILES IDX 8 1 7 2 6 3 5 4 4 5 11 6 9 7 10 8 2 9 1 10 3 11
REMARK H PARENT
REMARK Flexibility Score: inf
ROOT
ATOM      1  C   UNL     1       5.386  26.472  50.854  1.00  0.00     0.048 C 
ATOM      2  C   UNL     1       5.568  27.734  51.651  1.00  0.00    -0.012 C 
ATOM      3  C   UNL     1       6.611  28.541  51.396  1.00  0.00    -0.019 C 
ATOM      4  C   UNL     1       6.831  29.825  52.152  1.00  0.00     0.036 C 
ATOM      5  C   UNL     1       6.334  29.705  53.605  1.00  0.00     0.025 C 
ATOM      6  C   UNL     1       4.861  29.258  53.631  1.00  0.00     0.089 C 
ATOM      7  C   UNL     1       4.670  28.021  52.798  1.00  0.00     0.158 C 
ATOM      8  O   UNL     1       3.711  27.245  53.061  1.00  0.00    -0.295 OA
ENDROOT
BRANCH   5   9
ATOM      9  C   UNL     1       6.534  31.005  54.372  1.00  0.00    -0.077 C 
ATOM     10  C   UNL     1       5.474  31.754  54.716  1.00  0.00     0.008 C 
ATOM     11  C   UNL     1       7.912  31.485  54.759  1.00  0.00     0.039 C 
ENDBRANCH   5   9
TORSDOF 1
ENDMDL
MODEL 9
REMARK VINA RESULT:    -4.660     11.669     12.413
REMARK INTER + INTRA:          -5.027
REMARK INTER:                  -4.935
REMARK INTRA:                  -0.092
REMARK UNBOUND:                -0.094
REMARK SMILES C=C(C)[C@@H]1CC=C(C)C(=O)C1
REMARK SMILES IDX 8 1 7 2 6 3 5 4 4 5 11 6 9 7 10 8 2 9 1 10 3 11
REMARK H PARENT
REMARK Flexibility Score: inf
ROOT
ATOM      1  C   UNL     1      10.389  22.340  56.906  1.00  0.00     0.048 C 
ATOM      2  C   UNL     1      11.509  22.143  57.890  1.00  0.00    -0.012 C 
ATOM      3  C   UNL     1      11.352  22.524  59.168  1.00  0.00    -0.019 C 
ATOM      4  C   UNL     1      12.434  22.334  60.198  1.00  0.00     0.036 C 
ATOM      5  C   UNL     1      13.832  22.456  59.561  1.00  0.00     0.025 C 
ATOM      6  C   UNL     1      13.970  21.476  58.382  1.00  0.00     0.089 C 
ATOM      7  C   UNL     1      12.826  21.643  57.420  1.00  0.00     0.158 C 
ATOM      8  O   UNL     1      12.986  21.317  56.213  1.00  0.00    -0.295 OA
ENDROOT
BRANCH   5   9
ATOM      9  C   UNL     1      14.933  22.246  60.592  1.00  0.00    -0.077 C 
ATOM     10  C   UNL     1      16.184  22.658  60.334  1.00  0.00     0.008 C 
ATOM     11  C   UNL     1      14.654  21.574  61.914  1.00  0.00     0.039 C 
ENDBRANCH   5   9
TORSDOF 1
ENDMDL
