MODEL 1
REMARK VINA RESULT:    -4.626      0.000      0.000
REMARK INTER + INTRA:          -4.961
REMARK INTER:                  -5.031
REMARK INTRA:                   0.071
REMARK UNBOUND:                 0.071
REMARK SMILES C=C(C)[C@@H]1CC[C@@H](C)C[C@@H]1O
REMARK SMILES IDX 8 1 7 2 6 3 5 4 4 5 10 6 9 7 11 8 2 10 1 11 3 12
REMARK H PARENT 11 9
REMARK Flexibility Score: inf
ROOT
ATOM      1  C   UNL     1     185.776 194.096 189.526  1.00  0.00     0.008 C 
ATOM      2  C   UNL     1     186.304 192.652 189.542  1.00  0.00    -0.012 C 
ATOM      3  C   UNL     1     186.549 192.108 188.120  1.00  0.00     0.004 C 
ATOM      4  C   UNL     1     185.244 191.795 187.377  1.00  0.00     0.011 C 
ATOM      5  C   UNL     1     184.332 190.829 188.162  1.00  0.00     0.043 C 
ATOM      6  C   UNL     1     184.090 191.338 189.609  1.00  0.00     0.121 C 
ATOM      7  C   UNL     1     185.391 191.712 190.355  1.00  0.00     0.035 C 
ENDROOT
BRANCH   6   8
ATOM      8  O   UNL     1     183.356 190.389 190.339  1.00  0.00    -0.392 OA
ATOM      9  H   UNL     1     182.517 190.834 190.631  1.00  0.00     0.210 HD
ENDBRANCH   6   8
BRANCH   5  10
ATOM     10  C   UNL     1     184.793 189.372 188.010  1.00  0.00    -0.075 C 
ATOM     11  C   UNL     1     183.892 188.454 187.618  1.00  0.00     0.008 C 
ATOM     12  C   UNL     1     186.228 188.937 188.206  1.00  0.00     0.039 C 
ENDBRANCH   5  10
TORSDOF 2
ENDMDL
MODEL 2
REMARK VINA RESULT:    -4.346      1.326      3.583
REMARK INTER + INTRA:          -4.656
REMARK INTER:                  -4.639
REMARK INTRA:                  -0.017
REMARK UNBOUND:                 0.071
REMARK SMILES C=C(C)[C@@H]1CC[C@@H](C)C[C@@H]1O
REMARK SMILES IDX 8 1 7 2 6 3 5 4 4 5 10 6 9 7 11 8 2 10 1 11 3 12
REMARK H PARENT 11 9
REMARK Flexibility Score: inf
ROOT
ATOM      1  C   UNL     1     185.881 189.646 186.072  1.00  0.00     0.008 C 
ATOM      2  C   UNL     1     185.757 191.056 186.674  1.00  0.00    -0.012 C 
ATOM      3  C   UNL     1     187.007 191.451 187.485  1.00  0.00     0.004 C 
ATOM      4  C   UNL     1     187.099 190.709 188.825  1.00  0.00     0.011 C 
ATOM      5  C   UNL     1     185.832 190.887 189.689  1.00  0.00     0.043 C 
ATOM      6  C   UNL     1     184.553 190.522 188.888  1.00  0.00     0.121 C 
ATOM      7  C   UNL     1     184.471 191.216 187.509  1.00  0.00     0.035 C 
ENDROOT
BRANCH   6   8
ATOM      8  O   UNL     1     183.408 190.800 189.651  1.00  0.00    -0.392 OA
ATOM      9  H   UNL     1     183.488 191.741 189.961  1.00  0.00     0.210 HD
ENDBRANCH   6   8
BRANCH   5  10
ATOM     10  C   UNL     1     185.830 192.240 190.413  1.00  0.00    -0.075 C 
ATOM     11  C   UNL     1     185.994 192.251 191.749  1.00  0.00     0.008 C 
ATOM     12  C   UNL     1     185.731 193.564 189.688  1.00  0.00     0.039 C 
ENDBRANCH   5  10
TORSDOF 2
ENDMDL
MODEL 3
REMARK VINA RESULT:    -4.263      1.733      4.104
REMARK INTER + INTRA:          -4.566
REMARK INTER:                  -4.569
REMARK INTRA:                   0.002
REMARK UNBOUND:                 0.071
REMARK SMILES C=C(C)[C@@H]1CC[C@@H](C)C[C@@H]1O
REMARK SMILES IDX 8 1 7 2 6 3 5 4 4 5 10 6 9 7 11 8 2 10 1 11 3 12
REMARK H PARENT 11 9
REMARK Flexibility Score: inf
ROOT
ATOM      1  C   UNL     1     183.916 188.244 188.044  1.00  0.00     0.008 C 
ATOM      2  C   UNL     1     185.107 188.884 188.776  1.00  0.00    -0.012 C 
ATOM      3  C   UNL     1     184.658 189.720 189.991  1.00  0.00     0.004 C 
ATOM      4  C   UNL     1     183.990 191.040 189.584  1.00  0.00     0.011 C 
ATOM      5  C   UNL     1     184.880 191.893 188.656  1.00  0.00     0.043 C 
ATOM      6  C   UNL     1     185.369 191.068 187.436  1.00  0.00     0.121 C 
ATOM      7  C   UNL     1     185.995 189.708 187.823  1.00  0.00     0.035 C 
ENDROOT
BRANCH   6   8
ATOM      8  O   UNL     1     186.268 191.826 186.668  1.00  0.00    -0.392 OA
ATOM      9  H   UNL     1     186.974 192.152 187.287  1.00  0.00     0.210 HD
ENDBRANCH   6   8
BRANCH   5  10
ATOM     10  C   UNL     1     185.951 192.655 189.449  1.00  0.00    -0.075 C 
ATOM     11  C   UNL     1     185.905 194.000 189.457  1.00  0.00     0.008 C 
ATOM     12  C   UNL     1     187.008 191.964 190.283  1.00  0.00     0.039 C 
ENDBRANCH   5  10
TORSDOF 2
ENDMDL
MODEL 4
REMARK VINA RESULT:    -4.220      1.257      3.778
REMARK INTER + INTRA:          -4.519
REMARK INTER:                  -4.489
REMARK INTRA:                  -0.030
REMARK UNBOUND:                 0.071
REMARK SMILES C=C(C)[C@@H]1CC[C@@H](C)C[C@@H]1O
REMARK SMILES IDX 8 1 7 2 6 3 5 4 4 5 10 6 9 7 11 8 2 10 1 11 3 12
REMARK H PARENT 11 9
REMARK Flexibility Score: inf
ROOT
ATOM      1  C   UNL     1     185.911 187.204 189.757  1.00  0.00     0.008 C 
ATOM      2  C   UNL     1     185.727 188.290 188.684  1.00  0.00    -0.012 C 
ATOM      3  C   UNL     1     186.903 189.287 188.661  1.00  0.00     0.004 C 
ATOM      4  C   UNL     1     186.889 190.242 189.862  1.00  0.00     0.011 C 
ATOM      5  C   UNL     1     185.554 191.004 189.997  1.00  0.00     0.043 C 
ATOM      6  C   UNL     1     184.348 190.025 189.995  1.00  0.00     0.121 C 
ATOM      7  C   UNL     1     184.375 189.017 188.823  1.00  0.00     0.035 C 
ENDROOT
BRANCH   6   8
ATOM      8  O   UNL     1     183.142 190.743 190.002  1.00  0.00    -0.392 OA
ATOM      9  H   UNL     1     183.376 191.704 189.903  1.00  0.00     0.210 HD
ENDBRANCH   6   8
BRANCH   5  10
ATOM     10  C   UNL     1     185.481 192.189 189.025  1.00  0.00    -0.075 C 
ATOM     11  C   UNL     1     185.683 193.428 189.512  1.00  0.00     0.008 C 
ATOM     12  C   UNL     1     185.271 192.025 187.536  1.00  0.00     0.039 C 
ENDBRANCH   5  10
TORSDOF 2
ENDMDL
MODEL 5
REMARK VINA RESULT:    -4.211      3.501      4.635
REMARK INTER + INTRA:          -4.510
REMARK INTER:                  -4.503
REMARK INTRA:                  -0.007
REMARK UNBOUND:                 0.071
REMARK SMILES C=C(C)[C@@H]1CC[C@@H](C)C[C@@H]1O
REMARK SMILES IDX 8 1 7 2 6 3 5 4 4 5 10 6 9 7 11 8 2 10 1 11 3 12
REMARK H PARENT 11 9
REMARK Flexibility Score: inf
ROOT
ATOM      1  C   UNL     1     186.468 189.318 191.914  1.00  0.00     0.008 C 
ATOM      2  C   UNL     1     185.916 188.678 190.629  1.00  0.00    -0.012 C 
ATOM      3  C   UNL     1     184.562 189.287 190.213  1.00  0.00     0.004 C 
ATOM      4  C   UNL     1     183.411 188.842 191.124  1.00  0.00     0.011 C 
ATOM      5  C   UNL     1     183.291 187.306 191.219  1.00  0.00     0.043 C 
ATOM      6  C   UNL     1     184.648 186.662 191.611  1.00  0.00     0.121 C 
ATOM      7  C   UNL     1     185.832 187.142 190.740  1.00  0.00     0.035 C 
ENDROOT
BRANCH   6   8
ATOM      8  O   UNL     1     184.547 185.262 191.580  1.00  0.00    -0.392 OA
ATOM      9  H   UNL     1     185.372 184.902 191.999  1.00  0.00     0.210 HD
ENDBRANCH   6   8
BRANCH   5  10
ATOM     10  C   UNL     1     182.577 186.720 189.994  1.00  0.00    -0.075 C 
ATOM     11  C   UNL     1     181.372 186.147 190.169  1.00  0.00     0.008 C 
ATOM     12  C   UNL     1     183.128 186.826 188.589  1.00  0.00     0.039 C 
ENDBRANCH   5  10
TORSDOF 2
ENDMDL
MODEL 6
REMARK VINA RESULT:    -4.146      2.715      3.602
REMARK INTER + INTRA:          -4.439
REMARK INTER:                  -4.425
REMARK INTRA:                  -0.015
REMARK UNBOUND:                 0.071
REMARK SMILES C=C(C)[C@@H]1CC[C@@H](C)C[C@@H]1O
REMARK SMILES IDX 8 1 7 2 6 3 5 4 4 5 10 6 9 7 11 8 2 10 1 11 3 12
REMARK H PARENT 11 9
REMARK Flexibility Score: inf
ROOT
ATOM      1  C   UNL     1     187.363 189.777 191.914  1.00  0.00     0.008 C 
ATOM      2  C   UNL     1     186.194 188.784 192.026  1.00  0.00    -0.012 C 
ATOM      3  C   UNL     1     186.341 187.604 191.044  1.00  0.00     0.004 C 
ATOM      4  C   UNL     1     186.069 188.011 189.590  1.00  0.00     0.011 C 
ATOM      5  C   UNL     1     184.690 188.680 189.410  1.00  0.00     0.043 C 
ATOM      6  C   UNL     1     184.504 189.856 190.406  1.00  0.00     0.121 C 
ATOM      7  C   UNL     1     184.828 189.480 191.870  1.00  0.00     0.035 C 
ENDROOT
BRANCH   6   8
ATOM      8  O   UNL     1     183.203 190.375 190.305  1.00  0.00    -0.392 OA
ATOM      9  H   UNL     1     183.244 191.137 189.669  1.00  0.00     0.210 HD
ENDBRANCH   6   8
BRANCH   5  10
ATOM     10  C   UNL     1     183.563 187.639 189.351  1.00  0.00    -0.075 C 
ATOM     11  C   UNL     1     183.192 187.165 188.148  1.00  0.00     0.008 C 
ATOM     12  C   UNL     1     182.905 187.066 190.587  1.00  0.00     0.039 C 
ENDBRANCH   5  10
TORSDOF 2
ENDMDL
MODEL 7
REMARK VINA RESULT:    -4.083      2.185      3.952
REMARK INTER + INTRA:          -4.371
REMARK INTER:                  -4.347
REMARK INTRA:                  -0.024
REMARK UNBOUND:                 0.071
REMARK SMILES C=C(C)[C@@H]1CC[C@@H](C)C[C@@H]1O
REMARK SMILES IDX 8 1 7 2 6 3 5 4 4 5 10 6 9 7 11 8 2 10 1 11 3 12
REMARK H PARENT 11 9
REMARK Flexibility Score: inf
ROOT
ATOM      1  C   UNL     1     183.396 187.450 190.981  1.00  0.00     0.008 C 
ATOM      2  C   UNL     1     184.746 188.099 190.636  1.00  0.00    -0.012 C 
ATOM      3  C   UNL     1     184.801 189.581 191.057  1.00  0.00     0.004 C 
ATOM      4  C   UNL     1     183.952 190.483 190.151  1.00  0.00     0.011 C 
ATOM      5  C   UNL     1     184.324 190.343 188.660  1.00  0.00     0.043 C 
ATOM      6  C   UNL     1     184.304 188.856 188.214  1.00  0.00     0.121 C 
ATOM      7  C   UNL     1     185.108 187.923 189.147  1.00  0.00     0.035 C 
ENDROOT
BRANCH   6   8
ATOM      8  O   UNL     1     184.756 188.742 186.890  1.00  0.00    -0.392 OA
ATOM      9  H   UNL     1     184.308 187.946 186.498  1.00  0.00     0.210 HD
ENDBRANCH   6   8
BRANCH   5  10
ATOM     10  C   UNL     1     185.584 191.150 188.317  1.00  0.00    -0.075 C 
ATOM     11  C   UNL     1     185.441 192.303 187.638  1.00  0.00     0.008 C 
ATOM     12  C   UNL     1     186.970 190.748 188.773  1.00  0.00     0.039 C 
ENDBRANCH   5  10
TORSDOF 2
ENDMDL
MODEL 8
REMARK VINA RESULT:    -4.010     11.742     13.278
REMARK INTER + INTRA:          -4.291
REMARK INTER:                  -4.711
REMARK INTRA:                   0.420
REMARK UNBOUND:                 0.071
REMARK SMILES C=C(C)[C@@H]1CC[C@@H](C)C[C@@H]1O
REMARK SMILES IDX 8 1 7 2 6 3 5 4 4 5 10 6 9 7 11 8 2 10 1 11 3 12
REMARK H PARENT 11 9
REMARK Flexibility Score: inf
ROOT
ATOM      1  C   UNL     1     181.403 189.988 202.414  1.00  0.00     0.008 C 
ATOM      2  C   UNL     1     181.293 190.935 201.208  1.00  0.00    -0.012 C 
ATOM      3  C   UNL     1     180.594 192.260 201.574  1.00  0.00     0.004 C 
ATOM      4  C   UNL     1     179.084 192.090 201.784  1.00  0.00     0.011 C 
ATOM      5  C   UNL     1     178.386 191.442 200.570  1.00  0.00     0.043 C 
ATOM      6  C   UNL     1     179.086 190.118 200.162  1.00  0.00     0.121 C 
ATOM      7  C   UNL     1     180.618 190.257 200.000  1.00  0.00     0.035 C 
ENDROOT
BRANCH   6   8
ATOM      8  O   UNL     1     178.509 189.607 198.989  1.00  0.00    -0.392 OA
ATOM      9  H   UNL     1     178.602 190.308 198.291  1.00  0.00     0.210 HD
ENDBRANCH   6   8
BRANCH   5  10
ATOM     10  C   UNL     1     178.137 192.464 199.453  1.00  0.00    -0.075 C 
ATOM     11  C   UNL     1     177.875 193.738 199.798  1.00  0.00     0.008 C 
ATOM     12  C   UNL     1     178.248 192.124 197.983  1.00  0.00     0.039 C 
ENDBRANCH   5  10
TORSDOF 2
ENDMDL
MODEL 9
REMARK VINA RESULT:    -3.981      2.063      3.078
REMARK INTER + INTRA:          -4.260
REMARK INTER:                  -4.294
REMARK INTRA:                   0.034
REMARK UNBOUND:                 0.071
REMARK SMILES C=C(C)[C@@H]1CC[C@@H](C)C[C@@H]1O
REMARK SMILES IDX 8 1 7 2 6 3 5 4 4 5 10 6 9 7 11 8 2 10 1 11 3 12
REMARK H PARENT 11 9
REMARK Flexibility Score: inf
ROOT
ATOM      1  C   UNL     1     185.743 192.604 188.117  1.00  0.00     0.008 C 
ATOM      2  C   UNL     1     184.688 191.503 187.917  1.00  0.00    -0.012 C 
ATOM      3  C   UNL     1     183.922 191.191 189.219  1.00  0.00     0.004 C 
ATOM      4  C   UNL     1     184.775 190.417 190.233  1.00  0.00     0.011 C 
ATOM      5  C   UNL     1     185.363 189.118 189.642  1.00  0.00     0.043 C 
ATOM      6  C   UNL     1     186.118 189.398 188.314  1.00  0.00     0.121 C 
ATOM      7  C   UNL     1     185.295 190.226 187.301  1.00  0.00     0.035 C 
ENDROOT
BRANCH   6   8
ATOM      8  O   UNL     1     186.544 188.191 187.736  1.00  0.00    -0.392 OA
ATOM      9  H   UNL     1     186.983 188.422 186.876  1.00  0.00     0.210 HD
ENDBRANCH   6   8
BRANCH   5  10
ATOM     10  C   UNL     1     184.324 187.989 189.621  1.00  0.00    -0.075 C 
ATOM     11  C   UNL     1     184.117 187.288 190.751  1.00  0.00     0.008 C 
ATOM     12  C   UNL     1     183.468 187.678 188.413  1.00  0.00     0.039 C 
ENDBRANCH   5  10
TORSDOF 2
ENDMDL
