MODEL 1
REMARK VINA RESULT:    -2.665      0.000      0.000
REMARK INTER + INTRA:          -4.376
REMARK INTER:                  -3.834
REMARK INTRA:                  -0.542
REMARK UNBOUND:                -0.542
REMARK SMILES CCCCCCCCCO
REMARK SMILES IDX 6 1 5 2 4 3 3 4 2 5 1 6 7 7 8 8 9 9 10 10
REMARK H PARENT 10 11
REMARK Flexibility Score: inf
ROOT
ATOM      1  C   UNL     1     113.968 102.887 108.991  1.00  0.00     0.000 C 
ENDROOT
BRANCH   1   2
ATOM      2  C   UNL     1     114.756 101.661 108.505  1.00  0.00     0.000 C 
BRANCH   2   3
ATOM      3  C   UNL     1     116.167 101.640 109.108  1.00  0.00    -0.000 C 
BRANCH   3   4
ATOM      4  C   UNL     1     117.236 101.748 108.011  1.00  0.00    -0.000 C 
BRANCH   4   5
ATOM      5  C   UNL     1     118.179 102.943 108.222  1.00  0.00    -0.003 C 
ATOM      6  C   UNL     1     117.521 104.086 108.994  1.00  0.00     0.004 C 
ENDBRANCH   4   5
ENDBRANCH   3   4
ENDBRANCH   2   3
ENDBRANCH   1   2
BRANCH   1   7
ATOM      7  C   UNL     1     113.858 103.990 107.923  1.00  0.00     0.002 C 
BRANCH   7   8
ATOM      8  C   UNL     1     114.080 105.422 108.443  1.00  0.00     0.028 C 
BRANCH   8   9
ATOM      9  C   UNL     1     113.473 106.493 107.530  1.00  0.00     0.156 C 
BRANCH   9  10
ATOM     10  O   UNL     1     114.402 106.879 106.555  1.00  0.00    -0.396 OA
ATOM     11  H   UNL     1     114.351 106.204 105.829  1.00  0.00     0.210 HD
ENDBRANCH   9  10
ENDBRANCH   8   9
ENDBRANCH   7   8
ENDBRANCH   1   7
TORSDOF 8
ENDMDL
MODEL 2
REMARK VINA RESULT:    -2.652      3.231      6.722
REMARK INTER + INTRA:          -4.356
REMARK INTER:                  -4.068
REMARK INTRA:                  -0.288
REMARK UNBOUND:                -0.542
REMARK SMILES CCCCCCCCCO
REMARK SMILES IDX 6 1 5 2 4 3 3 4 2 5 1 6 7 7 8 8 9 9 10 10
REMARK H PARENT 10 11
REMARK Flexibility Score: inf
ROOT
ATOM      1  C   UNL     1     113.015 107.495 107.587  1.00  0.00     0.000 C 
ENDROOT
BRANCH   1   2
ATOM      2  C   UNL     1     112.358 108.005 106.295  1.00  0.00     0.000 C 
BRANCH   2   3
ATOM      3  C   UNL     1     113.316 107.876 105.104  1.00  0.00    -0.000 C 
BRANCH   3   4
ATOM      4  C   UNL     1     113.026 108.952 104.046  1.00  0.00    -0.000 C 
BRANCH   4   5
ATOM      5  C   UNL     1     112.098 110.059 104.569  1.00  0.00    -0.003 C 
ATOM      6  C   UNL     1     112.510 111.451 104.091  1.00  0.00     0.004 C 
ENDBRANCH   4   5
ENDBRANCH   3   4
ENDBRANCH   2   3
ENDBRANCH   1   2
BRANCH   1   7
ATOM      7  C   UNL     1     113.828 106.206 107.377  1.00  0.00     0.002 C 
BRANCH   7   8
ATOM      8  C   UNL     1     113.836 105.240 108.575  1.00  0.00     0.028 C 
BRANCH   8   9
ATOM      9  C   UNL     1     113.936 103.767 108.159  1.00  0.00     0.156 C 
BRANCH   9  10
ATOM     10  O   UNL     1     113.846 103.653 106.766  1.00  0.00    -0.396 OA
ATOM     11  H   UNL     1     114.643 103.142 106.469  1.00  0.00     0.210 HD
ENDBRANCH   9  10
ENDBRANCH   8   9
ENDBRANCH   7   8
ENDBRANCH   1   7
TORSDOF 8
ENDMDL
MODEL 3
REMARK VINA RESULT:    -2.641      4.807      7.411
REMARK INTER + INTRA:          -4.341
REMARK INTER:                  -3.957
REMARK INTRA:                  -0.383
REMARK UNBOUND:                -0.542
REMARK SMILES CCCCCCCCCO
REMARK SMILES IDX 6 1 5 2 4 3 3 4 2 5 1 6 7 7 8 8 9 9 10 10
REMARK H PARENT 10 11
REMARK Flexibility Score: inf
ROOT
ATOM      1  C   UNL     1     110.208 107.630 104.228  1.00  0.00     0.000 C 
ENDROOT
BRANCH   1   2
ATOM      2  C   UNL     1     111.608 108.205 104.490  1.00  0.00     0.000 C 
BRANCH   2   3
ATOM      3  C   UNL     1     111.605 109.123 105.719  1.00  0.00    -0.000 C 
BRANCH   3   4
ATOM      4  C   UNL     1     112.626 108.646 106.764  1.00  0.00    -0.000 C 
BRANCH   4   5
ATOM      5  C   UNL     1     113.441 107.436 106.282  1.00  0.00    -0.003 C 
ATOM      6  C   UNL     1     113.744 106.444 107.404  1.00  0.00     0.004 C 
ENDBRANCH   4   5
ENDBRANCH   3   4
ENDBRANCH   2   3
ENDBRANCH   1   2
BRANCH   1   7
ATOM      7  C   UNL     1     109.180 108.049 105.294  1.00  0.00     0.002 C 
BRANCH   7   8
ATOM      8  C   UNL     1     107.907 107.185 105.344  1.00  0.00     0.028 C 
BRANCH   8   9
ATOM      9  C   UNL     1     107.463 106.852 106.774  1.00  0.00     0.156 C 
BRANCH   9  10
ATOM     10  O   UNL     1     106.710 105.671 106.782  1.00  0.00    -0.396 OA
ATOM     11  H   UNL     1     107.211 105.017 107.336  1.00  0.00     0.210 HD
ENDBRANCH   9  10
ENDBRANCH   8   9
ENDBRANCH   7   8
ENDBRANCH   1   7
TORSDOF 8
ENDMDL
MODEL 4
REMARK VINA RESULT:    -2.603     10.146     12.189
REMARK INTER + INTRA:          -4.286
REMARK INTER:                  -3.655
REMARK INTRA:                  -0.631
REMARK UNBOUND:                -0.542
REMARK SMILES CCCCCCCCCO
REMARK SMILES IDX 6 1 5 2 4 3 3 4 2 5 1 6 7 7 8 8 9 9 10 10
REMARK H PARENT 10 11
REMARK Flexibility Score: inf
ROOT
ATOM      1  C   UNL     1     103.383 106.332 109.547  1.00  0.00     0.000 C 
ENDROOT
BRANCH   1   2
ATOM      2  C   UNL     1     102.103 105.496 109.700  1.00  0.00     0.000 C 
BRANCH   2   3
ATOM      3  C   UNL     1     101.791 104.727 108.410  1.00  0.00    -0.000 C 
BRANCH   3   4
ATOM      4  C   UNL     1     101.412 103.270 108.715  1.00  0.00    -0.000 C 
BRANCH   4   5
ATOM      5  C   UNL     1     102.504 102.529 109.503  1.00  0.00    -0.003 C 
ATOM      6  C   UNL     1     103.773 102.303 108.683  1.00  0.00     0.004 C 
ENDBRANCH   4   5
ENDBRANCH   3   4
ENDBRANCH   2   3
ENDBRANCH   1   2
BRANCH   1   7
ATOM      7  C   UNL     1     104.119 106.062 108.223  1.00  0.00     0.002 C 
BRANCH   7   8
ATOM      8  C   UNL     1     105.596 105.654 108.372  1.00  0.00     0.028 C 
BRANCH   8   9
ATOM      9  C   UNL     1     106.545 106.512 107.527  1.00  0.00     0.156 C 
BRANCH   9  10
ATOM     10  O   UNL     1     106.983 105.789 106.410  1.00  0.00    -0.396 OA
ATOM     11  H   UNL     1     106.866 104.828 106.628  1.00  0.00     0.210 HD
ENDBRANCH   9  10
ENDBRANCH   8   9
ENDBRANCH   7   8
ENDBRANCH   1   7
TORSDOF 8
ENDMDL
MODEL 5
REMARK VINA RESULT:    -2.597      5.079      8.036
REMARK INTER + INTRA:          -4.278
REMARK INTER:                  -3.821
REMARK INTRA:                  -0.457
REMARK UNBOUND:                -0.542
REMARK SMILES CCCCCCCCCO
REMARK SMILES IDX 6 1 5 2 4 3 3 4 2 5 1 6 7 7 8 8 9 9 10 10
REMARK H PARENT 10 11
REMARK Flexibility Score: inf
ROOT
ATOM      1  C   UNL     1     111.263 107.606 104.010  1.00  0.00     0.000 C 
ENDROOT
BRANCH   1   2
ATOM      2  C   UNL     1     109.842 108.183 104.100  1.00  0.00     0.000 C 
BRANCH   2   3
ATOM      3  C   UNL     1     108.790 107.090 103.876  1.00  0.00    -0.000 C 
BRANCH   3   4
ATOM      4  C   UNL     1     108.044 106.769 105.181  1.00  0.00    -0.000 C 
BRANCH   4   5
ATOM      5  C   UNL     1     108.351 107.778 106.299  1.00  0.00    -0.003 C 
ATOM      6  C   UNL     1     108.059 107.223 107.692  1.00  0.00     0.004 C 
ENDBRANCH   4   5
ENDBRANCH   3   4
ENDBRANCH   2   3
ENDBRANCH   1   2
BRANCH   1   7
ATOM      7  C   UNL     1     112.311 108.479 104.724  1.00  0.00     0.002 C 
BRANCH   7   8
ATOM      8  C   UNL     1     112.274 108.411 106.262  1.00  0.00     0.028 C 
BRANCH   8   9
ATOM      9  C   UNL     1     113.152 107.292 106.835  1.00  0.00     0.156 C 
BRANCH   9  10
ATOM     10  O   UNL     1     114.318 107.155 106.071  1.00  0.00    -0.396 OA
ATOM     11  H   UNL     1     114.593 106.203 106.137  1.00  0.00     0.210 HD
ENDBRANCH   9  10
ENDBRANCH   8   9
ENDBRANCH   7   8
ENDBRANCH   1   7
TORSDOF 8
ENDMDL
MODEL 6
REMARK VINA RESULT:    -2.590     10.084     10.807
REMARK INTER + INTRA:          -4.267
REMARK INTER:                  -3.800
REMARK INTRA:                  -0.467
REMARK UNBOUND:                -0.542
REMARK SMILES CCCCCCCCCO
REMARK SMILES IDX 6 1 5 2 4 3 3 4 2 5 1 6 7 7 8 8 9 9 10 10
REMARK H PARENT 10 11
REMARK Flexibility Score: inf
ROOT
ATOM      1  C   UNL     1     109.970 112.273 104.551  1.00  0.00     0.000 C 
ENDROOT
BRANCH   1   2
ATOM      2  C   UNL     1     111.191 111.346 104.449  1.00  0.00     0.000 C 
BRANCH   2   3
ATOM      3  C   UNL     1     112.496 112.141 104.574  1.00  0.00    -0.000 C 
BRANCH   3   4
ATOM      4  C   UNL     1     112.283 113.424 105.393  1.00  0.00    -0.000 C 
BRANCH   4   5
ATOM      5  C   UNL     1     112.914 113.342 106.792  1.00  0.00    -0.003 C 
ATOM      6  C   UNL     1     111.945 112.810 107.846  1.00  0.00     0.004 C 
ENDBRANCH   4   5
ENDBRANCH   3   4
ENDBRANCH   2   3
ENDBRANCH   1   2
BRANCH   1   7
ATOM      7  C   UNL     1     108.844 111.687 105.421  1.00  0.00     0.002 C 
BRANCH   7   8
ATOM      8  C   UNL     1     107.782 110.880 104.653  1.00  0.00     0.028 C 
BRANCH   8   9
ATOM      9  C   UNL     1     106.593 111.734 104.196  1.00  0.00     0.156 C 
BRANCH   9  10
ATOM     10  O   UNL     1     105.988 112.348 105.300  1.00  0.00    -0.396 OA
ATOM     11  H   UNL     1     105.019 112.410 105.097  1.00  0.00     0.210 HD
ENDBRANCH   9  10
ENDBRANCH   8   9
ENDBRANCH   7   8
ENDBRANCH   1   7
TORSDOF 8
ENDMDL
MODEL 7
REMARK VINA RESULT:    -2.526      9.036     11.251
REMARK INTER + INTRA:          -4.176
REMARK INTER:                  -3.947
REMARK INTRA:                  -0.229
REMARK UNBOUND:                -0.542
REMARK SMILES CCCCCCCCCO
REMARK SMILES IDX 6 1 5 2 4 3 3 4 2 5 1 6 7 7 8 8 9 9 10 10
REMARK H PARENT 10 11
REMARK Flexibility Score: inf
ROOT
ATOM      1  C   UNL     1     108.147 109.585 104.480  1.00  0.00     0.000 C 
ENDROOT
BRANCH   1   2
ATOM      2  C   UNL     1     107.388 110.776 103.875  1.00  0.00     0.000 C 
BRANCH   2   3
ATOM      3  C   UNL     1     107.715 112.074 104.625  1.00  0.00    -0.000 C 
BRANCH   3   4
ATOM      4  C   UNL     1     106.894 112.183 105.919  1.00  0.00    -0.000 C 
BRANCH   4   5
ATOM      5  C   UNL     1     107.778 112.241 107.175  1.00  0.00    -0.003 C 
ATOM      6  C   UNL     1     106.980 112.071 108.467  1.00  0.00     0.004 C 
ENDBRANCH   4   5
ENDBRANCH   3   4
ENDBRANCH   2   3
ENDBRANCH   1   2
BRANCH   1   7
ATOM      7  C   UNL     1     107.673 108.230 103.927  1.00  0.00     0.002 C 
BRANCH   7   8
ATOM      8  C   UNL     1     108.141 107.001 104.728  1.00  0.00     0.028 C 
BRANCH   8   9
ATOM      9  C   UNL     1     107.643 107.005 106.179  1.00  0.00     0.156 C 
BRANCH   9  10
ATOM     10  O   UNL     1     106.960 105.814 106.457  1.00  0.00    -0.396 OA
ATOM     11  H   UNL     1     106.845 105.774 107.442  1.00  0.00     0.210 HD
ENDBRANCH   9  10
ENDBRANCH   8   9
ENDBRANCH   7   8
ENDBRANCH   1   7
TORSDOF 8
ENDMDL
MODEL 8
REMARK VINA RESULT:    -2.520      8.753     10.703
REMARK INTER + INTRA:          -4.166
REMARK INTER:                  -3.588
REMARK INTRA:                  -0.578
REMARK UNBOUND:                -0.542
REMARK SMILES CCCCCCCCCO
REMARK SMILES IDX 6 1 5 2 4 3 3 4 2 5 1 6 7 7 8 8 9 9 10 10
REMARK H PARENT 10 11
REMARK Flexibility Score: inf
ROOT
ATOM      1  C   UNL     1     108.605 112.324 104.458  1.00  0.00     0.000 C 
ENDROOT
BRANCH   1   2
ATOM      2  C   UNL     1     110.002 112.675 103.923  1.00  0.00     0.000 C 
BRANCH   2   3
ATOM      3  C   UNL     1     111.078 112.414 104.984  1.00  0.00    -0.000 C 
BRANCH   3   4
ATOM      4  C   UNL     1     112.209 111.541 104.419  1.00  0.00    -0.000 C 
BRANCH   4   5
ATOM      5  C   UNL     1     112.171 110.103 104.960  1.00  0.00    -0.003 C 
ATOM      6  C   UNL     1     111.361 109.159 104.074  1.00  0.00     0.004 C 
ENDBRANCH   4   5
ENDBRANCH   3   4
ENDBRANCH   2   3
ENDBRANCH   1   2
BRANCH   1   7
ATOM      7  C   UNL     1     108.642 111.292 105.598  1.00  0.00     0.002 C 
BRANCH   7   8
ATOM      8  C   UNL     1     107.528 111.444 106.649  1.00  0.00     0.028 C 
BRANCH   8   9
ATOM      9  C   UNL     1     107.103 112.901 106.868  1.00  0.00     0.156 C 
BRANCH   9  10
ATOM     10  O   UNL     1     105.760 113.070 106.508  1.00  0.00    -0.396 OA
ATOM     11  H   UNL     1     105.755 113.444 105.589  1.00  0.00     0.210 HD
ENDBRANCH   9  10
ENDBRANCH   8   9
ENDBRANCH   7   8
ENDBRANCH   1   7
TORSDOF 8
ENDMDL
MODEL 9
REMARK VINA RESULT:    -2.514      4.882      8.261
REMARK INTER + INTRA:          -4.157
REMARK INTER:                  -3.500
REMARK INTRA:                  -0.657
REMARK UNBOUND:                -0.542
REMARK SMILES CCCCCCCCCO
REMARK SMILES IDX 6 1 5 2 4 3 3 4 2 5 1 6 7 7 8 8 9 9 10 10
REMARK H PARENT 10 11
REMARK Flexibility Score: inf
ROOT
ATOM      1  C   UNL     1     111.394 107.773 104.191  1.00  0.00     0.000 C 
ENDROOT
BRANCH   1   2
ATOM      2  C   UNL     1     110.271 108.373 105.052  1.00  0.00     0.000 C 
BRANCH   2   3
ATOM      3  C   UNL     1     109.716 109.654 104.416  1.00  0.00    -0.000 C 
BRANCH   3   4
ATOM      4  C   UNL     1     110.213 110.900 105.165  1.00  0.00    -0.000 C 
BRANCH   4   5
ATOM      5  C   UNL     1     111.446 111.535 104.502  1.00  0.00    -0.003 C 
ATOM      6  C   UNL     1     112.300 112.332 105.486  1.00  0.00     0.004 C 
ENDBRANCH   4   5
ENDBRANCH   3   4
ENDBRANCH   2   3
ENDBRANCH   1   2
BRANCH   1   7
ATOM      7  C   UNL     1     112.790 107.965 104.810  1.00  0.00     0.002 C 
BRANCH   7   8
ATOM      8  C   UNL     1     112.793 108.350 106.300  1.00  0.00     0.028 C 
BRANCH   8   9
ATOM      9  C   UNL     1     113.257 107.210 107.214  1.00  0.00     0.156 C 
BRANCH   9  10
ATOM     10  O   UNL     1     114.497 106.720 106.783  1.00  0.00    -0.396 OA
ATOM     11  H   UNL     1     114.545 106.886 105.805  1.00  0.00     0.210 HD
ENDBRANCH   9  10
ENDBRANCH   8   9
ENDBRANCH   7   8
ENDBRANCH   1   7
TORSDOF 8
ENDMDL
