MODEL 1
REMARK VINA RESULT:    -3.259      0.000      0.000
REMARK INTER + INTRA:          -3.863
REMARK INTER:                  -3.830
REMARK INTRA:                  -0.033
REMARK UNBOUND:                -0.033
REMARK SMILES O=C([O-])CCC(=O)[O-]
REMARK SMILES IDX 4 1 2 2 1 3 3 4 5 5 6 6 7 7 8 8
REMARK H PARENT
REMARK Flexibility Score: inf
ROOT
ATOM      1  C   UNL     1      -2.585  -2.140   1.206  1.00  0.00     0.059 C 
ENDROOT
BRANCH   1   2
ATOM      2  C   UNL     1      -3.948  -2.159   1.826  1.00  0.00     0.042 C 
ATOM      3  O   UNL     1      -4.251  -1.323   2.716  1.00  0.00    -0.550 OA
ATOM      4  O   UNL     1      -4.899  -3.074   1.391  1.00  0.00    -0.550 OA
ENDBRANCH   1   2
BRANCH   1   5
ATOM      5  C   UNL     1      -1.736  -3.328   1.671  1.00  0.00     0.059 C 
BRANCH   5   6
ATOM      6  C   UNL     1      -0.331  -3.238   1.158  1.00  0.00     0.042 C 
ATOM      7  O   UNL     1      -0.005  -2.318   0.362  1.00  0.00    -0.550 OA
ATOM      8  O   UNL     1       0.629  -4.144   1.592  1.00  0.00    -0.550 OA
ENDBRANCH   5   6
ENDBRANCH   1   5
TORSDOF 3
ENDMDL
MODEL 2
REMARK VINA RESULT:    -3.253      0.154      4.287
REMARK INTER + INTRA:          -3.856
REMARK INTER:                  -3.824
REMARK INTRA:                  -0.032
REMARK UNBOUND:                -0.033
REMARK SMILES O=C([O-])CCC(=O)[O-]
REMARK SMILES IDX 4 1 2 2 1 3 3 4 5 5 6 6 7 7 8 8
REMARK H PARENT
REMARK Flexibility Score: inf
ROOT
ATOM      1  C   UNL     1      -1.682  -3.242   1.630  1.00  0.00     0.059 C 
ENDROOT
BRANCH   1   2
ATOM      2  C   UNL     1      -0.315  -3.120   1.031  1.00  0.00     0.042 C 
ATOM      3  O   UNL     1      -0.089  -2.263   0.138  1.00  0.00    -0.550 OA
ATOM      4  O   UNL     1       0.721  -3.925   1.490  1.00  0.00    -0.550 OA
ENDBRANCH   1   2
BRANCH   1   5
ATOM      5  C   UNL     1      -2.595  -2.090   1.195  1.00  0.00     0.059 C 
BRANCH   5   6
ATOM      6  C   UNL     1      -3.949  -2.189   1.829  1.00  0.00     0.042 C 
ATOM      7  O   UNL     1      -4.296  -1.362   2.714  1.00  0.00    -0.550 OA
ATOM      8  O   UNL     1      -4.843  -3.168   1.414  1.00  0.00    -0.550 OA
ENDBRANCH   5   6
ENDBRANCH   1   5
TORSDOF 3
ENDMDL
MODEL 3
REMARK VINA RESULT:    -3.218      0.167      4.335
REMARK INTER + INTRA:          -3.815
REMARK INTER:                  -3.784
REMARK INTRA:                  -0.031
REMARK UNBOUND:                -0.033
REMARK SMILES O=C([O-])CCC(=O)[O-]
REMARK SMILES IDX 4 1 2 2 1 3 3 4 5 5 6 6 7 7 8 8
REMARK H PARENT
REMARK Flexibility Score: inf
ROOT
ATOM      1  C   UNL     1      -1.846  -3.341   1.729  1.00  0.00     0.059 C 
ENDROOT
BRANCH   1   2
ATOM      2  C   UNL     1      -0.443  -3.319   1.204  1.00  0.00     0.042 C 
ATOM      3  O   UNL     1       0.380  -4.202   1.560  1.00  0.00    -0.550 OA
ATOM      4  O   UNL     1      -0.056  -2.347   0.290  1.00  0.00    -0.550 OA
ENDBRANCH   1   2
BRANCH   1   5
ATOM      5  C   UNL     1      -2.640  -2.113   1.271  1.00  0.00     0.059 C 
BRANCH   5   6
ATOM      6  C   UNL     1      -4.019  -2.097   1.855  1.00  0.00     0.042 C 
ATOM      7  O   UNL     1      -4.906  -2.871   1.407  1.00  0.00    -0.550 OA
ATOM      8  O   UNL     1      -4.315  -1.258   2.923  1.00  0.00    -0.550 OA
ENDBRANCH   5   6
ENDBRANCH   1   5
TORSDOF 3
ENDMDL
MODEL 4
REMARK VINA RESULT:    -3.156      0.986      1.498
REMARK INTER + INTRA:          -3.743
REMARK INTER:                  -3.710
REMARK INTRA:                  -0.032
REMARK UNBOUND:                -0.033
REMARK SMILES O=C([O-])CCC(=O)[O-]
REMARK SMILES IDX 4 1 2 2 1 3 3 4 5 5 6 6 7 7 8 8
REMARK H PARENT
REMARK Flexibility Score: inf
ROOT
ATOM      1  C   UNL     1      -3.001  -3.181   1.241  1.00  0.00     0.059 C 
ENDROOT
BRANCH   1   2
ATOM      2  C   UNL     1      -4.298  -2.557   1.654  1.00  0.00     0.042 C 
ATOM      3  O   UNL     1      -4.303  -1.515   2.360  1.00  0.00    -0.550 OA
ATOM      4  O   UNL     1      -5.502  -3.103   1.226  1.00  0.00    -0.550 OA
ENDBRANCH   1   2
BRANCH   1   5
ATOM      5  C   UNL     1      -1.871  -2.149   1.178  1.00  0.00     0.059 C 
BRANCH   5   6
ATOM      6  C   UNL     1      -0.753  -2.606   0.291  1.00  0.00     0.042 C 
ATOM      7  O   UNL     1       0.309  -3.061   0.793  1.00  0.00    -0.550 OA
ATOM      8  O   UNL     1      -0.899  -2.568  -1.090  1.00  0.00    -0.550 OA
ENDBRANCH   5   6
ENDBRANCH   1   5
TORSDOF 3
ENDMDL
MODEL 5
REMARK VINA RESULT:    -2.957     10.057     10.519
REMARK INTER + INTRA:          -3.509
REMARK INTER:                  -3.422
REMARK INTRA:                  -0.087
REMARK UNBOUND:                -0.033
REMARK SMILES O=C([O-])CCC(=O)[O-]
REMARK SMILES IDX 4 1 2 2 1 3 3 4 5 5 6 6 7 7 8 8
REMARK H PARENT
REMARK Flexibility Score: inf
ROOT
ATOM      1  C   UNL     1       1.361   3.825  -4.642  1.00  0.00     0.059 C 
ENDROOT
BRANCH   1   2
ATOM      2  C   UNL     1       1.307   5.250  -5.099  1.00  0.00     0.042 C 
ATOM      3  O   UNL     1       0.502   6.056  -4.564  1.00  0.00    -0.550 OA
ATOM      4  O   UNL     1       2.173   5.698  -6.089  1.00  0.00    -0.550 OA
ENDBRANCH   1   2
BRANCH   1   5
ATOM      5  C   UNL     1       2.446   3.035  -5.382  1.00  0.00     0.059 C 
BRANCH   5   6
ATOM      6  C   UNL     1       3.666   2.843  -4.533  1.00  0.00     0.042 C 
ATOM      7  O   UNL     1       4.435   1.867  -4.741  1.00  0.00    -0.550 OA
ATOM      8  O   UNL     1       3.976   3.764  -3.540  1.00  0.00    -0.550 OA
ENDBRANCH   5   6
ENDBRANCH   1   5
TORSDOF 3
ENDMDL
MODEL 6
REMARK VINA RESULT:    -2.941     10.061     11.065
REMARK INTER + INTRA:          -3.489
REMARK INTER:                  -3.415
REMARK INTRA:                  -0.074
REMARK UNBOUND:                -0.033
REMARK SMILES O=C([O-])CCC(=O)[O-]
REMARK SMILES IDX 4 1 2 2 1 3 3 4 5 5 6 6 7 7 8 8
REMARK H PARENT
REMARK Flexibility Score: inf
ROOT
ATOM      1  C   UNL     1       2.563   3.032  -5.422  1.00  0.00     0.059 C 
ENDROOT
BRANCH   1   2
ATOM      2  C   UNL     1       3.746   2.845  -4.524  1.00  0.00     0.042 C 
ATOM      3  O   UNL     1       4.511   1.858  -4.680  1.00  0.00    -0.550 OA
ATOM      4  O   UNL     1       4.028   3.784  -3.539  1.00  0.00    -0.550 OA
ENDBRANCH   1   2
BRANCH   1   5
ATOM      5  C   UNL     1       1.425   3.773  -4.712  1.00  0.00     0.059 C 
BRANCH   5   6
ATOM      6  C   UNL     1       1.379   5.219  -5.103  1.00  0.00     0.042 C 
ATOM      7  O   UNL     1       2.144   5.657  -6.002  1.00  0.00    -0.550 OA
ATOM      8  O   UNL     1       0.463   6.074  -4.503  1.00  0.00    -0.550 OA
ENDBRANCH   5   6
ENDBRANCH   1   5
TORSDOF 3
ENDMDL
MODEL 7
REMARK VINA RESULT:    -2.938     10.199     11.462
REMARK INTER + INTRA:          -3.486
REMARK INTER:                  -3.336
REMARK INTRA:                  -0.150
REMARK UNBOUND:                -0.033
REMARK SMILES O=C([O-])CCC(=O)[O-]
REMARK SMILES IDX 4 1 2 2 1 3 3 4 5 5 6 6 7 7 8 8
REMARK H PARENT
REMARK Flexibility Score: inf
ROOT
ATOM      1  C   UNL     1       2.696   3.427  -5.322  1.00  0.00     0.059 C 
ENDROOT
BRANCH   1   2
ATOM      2  C   UNL     1       3.784   4.145  -4.584  1.00  0.00     0.042 C 
ATOM      3  O   UNL     1       4.073   3.817  -3.404  1.00  0.00    -0.550 OA
ATOM      4  O   UNL     1       4.507   5.150  -5.215  1.00  0.00    -0.550 OA
ENDBRANCH   1   2
BRANCH   1   5
ATOM      5  C   UNL     1       1.307   3.869  -4.852  1.00  0.00     0.059 C 
BRANCH   5   6
ATOM      6  C   UNL     1       1.028   5.296  -5.214  1.00  0.00     0.042 C 
ATOM      7  O   UNL     1       0.528   6.080  -4.364  1.00  0.00    -0.550 OA
ATOM      8  O   UNL     1       1.359   5.771  -6.477  1.00  0.00    -0.550 OA
ENDBRANCH   5   6
ENDBRANCH   1   5
TORSDOF 3
ENDMDL
MODEL 8
REMARK VINA RESULT:    -2.895     10.114     10.544
REMARK INTER + INTRA:          -3.435
REMARK INTER:                  -3.353
REMARK INTRA:                  -0.082
REMARK UNBOUND:                -0.033
REMARK SMILES O=C([O-])CCC(=O)[O-]
REMARK SMILES IDX 4 1 2 2 1 3 3 4 5 5 6 6 7 7 8 8
REMARK H PARENT
REMARK Flexibility Score: inf
ROOT
ATOM      1  C   UNL     1       1.366   3.874  -4.693  1.00  0.00     0.059 C 
ENDROOT
BRANCH   1   2
ATOM      2  C   UNL     1       1.278   5.260  -5.252  1.00  0.00     0.042 C 
ATOM      3  O   UNL     1       2.152   5.676  -6.056  1.00  0.00    -0.550 OA
ATOM      4  O   UNL     1       0.207   6.079  -4.916  1.00  0.00    -0.550 OA
ENDBRANCH   1   2
BRANCH   1   5
ATOM      5  C   UNL     1       2.476   3.061  -5.370  1.00  0.00     0.059 C 
BRANCH   5   6
ATOM      6  C   UNL     1       3.689   2.948  -4.497  1.00  0.00     0.042 C 
ATOM      7  O   UNL     1       3.878   3.775  -3.566  1.00  0.00    -0.550 OA
ATOM      8  O   UNL     1       4.589   1.907  -4.686  1.00  0.00    -0.550 OA
ENDBRANCH   5   6
ENDBRANCH   1   5
TORSDOF 3
ENDMDL
MODEL 9
REMARK VINA RESULT:    -2.878      1.836      2.109
REMARK INTER + INTRA:          -3.415
REMARK INTER:                  -3.273
REMARK INTRA:                  -0.142
REMARK UNBOUND:                -0.033
REMARK SMILES O=C([O-])CCC(=O)[O-]
REMARK SMILES IDX 4 1 2 2 1 3 3 4 5 5 6 6 7 7 8 8
REMARK H PARENT
REMARK Flexibility Score: inf
ROOT
ATOM      1  C   UNL     1      -2.392  -2.237   1.262  1.00  0.00     0.059 C 
ENDROOT
BRANCH   1   2
ATOM      2  C   UNL     1      -3.103  -3.459   1.757  1.00  0.00     0.042 C 
ATOM      3  O   UNL     1      -4.303  -3.665   1.442  1.00  0.00    -0.550 OA
ATOM      4  O   UNL     1      -2.425  -4.392   2.533  1.00  0.00    -0.550 OA
ENDBRANCH   1   2
BRANCH   1   5
ATOM      5  C   UNL     1      -0.953  -2.551   0.840  1.00  0.00     0.059 C 
BRANCH   5   6
ATOM      6  C   UNL     1      -0.897  -3.135  -0.539  1.00  0.00     0.042 C 
ATOM      7  O   UNL     1      -1.127  -2.410  -1.544  1.00  0.00    -0.550 OA
ATOM      8  O   UNL     1      -0.550  -4.468  -0.718  1.00  0.00    -0.550 OA
ENDBRANCH   5   6
ENDBRANCH   1   5
TORSDOF 3
ENDMDL
