MODEL 1
REMARK VINA RESULT:    -3.020      0.000      0.000
REMARK INTER + INTRA:          -7.572
REMARK INTER:                  -5.492
REMARK INTRA:                  -2.081
REMARK UNBOUND:                -2.081
REMARK SMILES CCCCCCCCCCCCCCCC(=O)[O-]
REMARK SMILES IDX 9 1 10 2 11 3 12 4 13 5 14 6 15 7 16 8 17 9 18 10 8 11 7 12
REMARK SMILES IDX 6 13 5 14 4 15 3 16 2 17 1 18
REMARK H PARENT
REMARK Flexibility Score: inf
ROOT
ATOM      1  C   UNL     1       0.888  -0.110   8.035  1.00  0.00     0.000 C 
ENDROOT
BRANCH   1   2
ATOM      2  C   UNL     1      -0.091  -1.251   8.363  1.00  0.00     0.000 C 
BRANCH   2   3
ATOM      3  C   UNL     1       0.109  -2.483   7.461  1.00  0.00     0.000 C 
BRANCH   3   4
ATOM      4  C   UNL     1      -1.175  -3.007   6.788  1.00  0.00     0.000 C 
BRANCH   4   5
ATOM      5  C   UNL     1      -2.278  -1.953   6.567  1.00  0.00     0.000 C 
BRANCH   5   6
ATOM      6  C   UNL     1      -3.718  -2.491   6.659  1.00  0.00     0.006 C 
BRANCH   6   7
ATOM      7  C   UNL     1      -4.614  -1.987   5.521  1.00  0.00     0.053 C 
BRANCH   7   8
ATOM      8  C   UNL     1      -4.660  -2.989   4.411  1.00  0.00     0.041 C 
ATOM      9  O   UNL     1      -4.612  -4.221   4.666  1.00  0.00    -0.550 OA
ATOM     10  O   UNL     1      -4.705  -2.562   3.090  1.00  0.00    -0.550 OA
ENDBRANCH   7   8
ENDBRANCH   6   7
ENDBRANCH   5   6
ENDBRANCH   4   5
ENDBRANCH   3   4
ENDBRANCH   2   3
ENDBRANCH   1   2
BRANCH   1  11
ATOM     11  C   UNL     1       0.905   0.245   6.540  1.00  0.00     0.000 C 
BRANCH  11  12
ATOM     12  C   UNL     1      -0.051   1.402   6.198  1.00  0.00    -0.000 C 
BRANCH  12  13
ATOM     13  C   UNL     1      -0.349   2.298   7.411  1.00  0.00    -0.000 C 
BRANCH  13  14
ATOM     14  C   UNL     1      -1.828   2.710   7.495  1.00  0.00    -0.000 C 
BRANCH  14  15
ATOM     15  C   UNL     1      -2.703   1.525   7.928  1.00  0.00    -0.000 C 
BRANCH  15  16
ATOM     16  C   UNL     1      -3.934   1.327   7.025  1.00  0.00    -0.000 C 
BRANCH  16  17
ATOM     17  C   UNL     1      -3.889   2.092   5.690  1.00  0.00    -0.003 C 
ATOM     18  C   UNL     1      -4.975   1.652   4.710  1.00  0.00     0.004 C 
ENDBRANCH  16  17
ENDBRANCH  15  16
ENDBRANCH  14  15
ENDBRANCH  13  14
ENDBRANCH  12  13
ENDBRANCH  11  12
ENDBRANCH   1  11
TORSDOF 14
ENDMDL
MODEL 2
REMARK VINA RESULT:    -2.984      1.441      3.982
REMARK INTER + INTRA:          -7.507
REMARK INTER:                  -5.379
REMARK INTRA:                  -2.128
REMARK UNBOUND:                -2.081
REMARK SMILES CCCCCCCCCCCCCCCC(=O)[O-]
REMARK SMILES IDX 9 1 10 2 11 3 12 4 13 5 14 6 15 7 16 8 17 9 18 10 8 11 7 12
REMARK SMILES IDX 6 13 5 14 4 15 3 16 2 17 1 18
REMARK H PARENT
REMARK Flexibility Score: inf
ROOT
ATOM      1  C   UNL     1      -1.357   2.579   7.392  1.00  0.00     0.000 C 
ENDROOT
BRANCH   1   2
ATOM      2  C   UNL     1      -2.091   2.005   8.617  1.00  0.00     0.000 C 
BRANCH   2   3
ATOM      3  C   UNL     1      -3.263   1.085   8.231  1.00  0.00     0.000 C 
BRANCH   3   4
ATOM      4  C   UNL     1      -2.893  -0.402   8.068  1.00  0.00     0.000 C 
BRANCH   4   5
ATOM      5  C   UNL     1      -3.057  -0.967   6.642  1.00  0.00     0.000 C 
BRANCH   5   6
ATOM      6  C   UNL     1      -3.972  -2.200   6.534  1.00  0.00     0.006 C 
BRANCH   6   7
ATOM      7  C   UNL     1      -3.767  -2.980   5.230  1.00  0.00     0.053 C 
BRANCH   7   8
ATOM      8  C   UNL     1      -4.860  -2.667   4.257  1.00  0.00     0.041 C 
ATOM      9  O   UNL     1      -4.621  -2.644   3.021  1.00  0.00    -0.550 OA
ATOM     10  O   UNL     1      -6.131  -2.350   4.718  1.00  0.00    -0.550 OA
ENDBRANCH   7   8
ENDBRANCH   6   7
ENDBRANCH   5   6
ENDBRANCH   4   5
ENDBRANCH   3   4
ENDBRANCH   2   3
ENDBRANCH   1   2
BRANCH   1  11
ATOM     11  C   UNL     1       0.090   2.072   7.277  1.00  0.00     0.000 C 
BRANCH  11  12
ATOM     12  C   UNL     1       0.301   1.171   6.048  1.00  0.00    -0.000 C 
BRANCH  12  13
ATOM     13  C   UNL     1       0.718  -0.259   6.430  1.00  0.00    -0.000 C 
BRANCH  13  14
ATOM     14  C   UNL     1       0.713  -0.492   7.950  1.00  0.00    -0.000 C 
BRANCH  14  15
ATOM     15  C   UNL     1       0.673  -1.993   8.273  1.00  0.00    -0.000 C 
BRANCH  15  16
ATOM     16  C   UNL     1      -0.008  -2.827   7.173  1.00  0.00    -0.000 C 
BRANCH  16  17
ATOM     17  C   UNL     1      -0.093  -4.336   7.463  1.00  0.00    -0.003 C 
ATOM     18  C   UNL     1      -1.526  -4.831   7.649  1.00  0.00     0.004 C 
ENDBRANCH  16  17
ENDBRANCH  15  16
ENDBRANCH  14  15
ENDBRANCH  13  14
ENDBRANCH  12  13
ENDBRANCH  11  12
ENDBRANCH   1  11
TORSDOF 14
ENDMDL
MODEL 3
REMARK VINA RESULT:    -2.912      3.659      7.167
REMARK INTER + INTRA:          -7.376
REMARK INTER:                  -5.810
REMARK INTRA:                  -1.565
REMARK UNBOUND:                -2.081
REMARK SMILES CCCCCCCCCCCCCCCC(=O)[O-]
REMARK SMILES IDX 9 1 10 2 11 3 12 4 13 5 14 6 15 7 16 8 17 9 18 10 8 11 7 12
REMARK SMILES IDX 6 13 5 14 4 15 3 16 2 17 1 18
REMARK H PARENT
REMARK Flexibility Score: inf
ROOT
ATOM      1  C   UNL     1      -0.736  -3.414   6.737  1.00  0.00     0.000 C 
ENDROOT
BRANCH   1   2
ATOM      2  C   UNL     1      -2.096  -2.754   7.027  1.00  0.00     0.000 C 
BRANCH   2   3
ATOM      3  C   UNL     1      -1.999  -1.222   7.147  1.00  0.00     0.000 C 
BRANCH   3   4
ATOM      4  C   UNL     1      -1.858  -0.693   8.588  1.00  0.00     0.000 C 
BRANCH   4   5
ATOM      5  C   UNL     1      -0.410  -0.575   9.106  1.00  0.00     0.000 C 
BRANCH   5   6
ATOM      6  C   UNL     1       0.605  -0.047   8.076  1.00  0.00     0.006 C 
BRANCH   6   7
ATOM      7  C   UNL     1       0.488   1.465   7.848  1.00  0.00     0.053 C 
BRANCH   7   8
ATOM      8  C   UNL     1      -0.090   1.746   6.497  1.00  0.00     0.041 C 
ATOM      9  O   UNL     1       0.507   1.358   5.459  1.00  0.00    -0.550 OA
ATOM     10  O   UNL     1      -1.262   2.482   6.382  1.00  0.00    -0.550 OA
ENDBRANCH   7   8
ENDBRANCH   6   7
ENDBRANCH   5   6
ENDBRANCH   4   5
ENDBRANCH   3   4
ENDBRANCH   2   3
ENDBRANCH   1   2
BRANCH   1  11
ATOM     11  C   UNL     1      -0.538  -4.729   7.508  1.00  0.00     0.000 C 
BRANCH  11  12
ATOM     12  C   UNL     1       0.260  -4.534   8.809  1.00  0.00    -0.000 C 
BRANCH  12  13
ATOM     13  C   UNL     1       1.498  -3.644   8.613  1.00  0.00    -0.000 C 
BRANCH  13  14
ATOM     14  C   UNL     1       2.815  -4.431   8.706  1.00  0.00    -0.000 C 
BRANCH  14  15
ATOM     15  C   UNL     1       2.642  -5.855   8.157  1.00  0.00    -0.000 C 
BRANCH  15  16
ATOM     16  C   UNL     1       2.982  -5.967   6.659  1.00  0.00    -0.000 C 
BRANCH  16  17
ATOM     17  C   UNL     1       2.962  -7.399   6.096  1.00  0.00    -0.003 C 
ATOM     18  C   UNL     1       1.721  -8.189   6.509  1.00  0.00     0.004 C 
ENDBRANCH  16  17
ENDBRANCH  15  16
ENDBRANCH  14  15
ENDBRANCH  13  14
ENDBRANCH  12  13
ENDBRANCH  11  12
ENDBRANCH   1  11
TORSDOF 14
ENDMDL
MODEL 4
REMARK VINA RESULT:    -2.895      1.485      3.643
REMARK INTER + INTRA:          -7.344
REMARK INTER:                  -5.078
REMARK INTRA:                  -2.266
REMARK UNBOUND:                -2.081
REMARK SMILES CCCCCCCCCCCCCCCC(=O)[O-]
REMARK SMILES IDX 9 1 10 2 11 3 12 4 13 5 14 6 15 7 16 8 17 9 18 10 8 11 7 12
REMARK SMILES IDX 6 13 5 14 4 15 3 16 2 17 1 18
REMARK H PARENT
REMARK Flexibility Score: inf
ROOT
ATOM      1  C   UNL     1      -2.684   0.540   8.595  1.00  0.00     0.000 C 
ENDROOT
BRANCH   1   2
ATOM      2  C   UNL     1      -3.224  -0.077   7.293  1.00  0.00     0.000 C 
BRANCH   2   3
ATOM      3  C   UNL     1      -2.510  -1.387   6.915  1.00  0.00     0.000 C 
BRANCH   3   4
ATOM      4  C   UNL     1      -2.934  -2.617   7.742  1.00  0.00     0.000 C 
BRANCH   4   5
ATOM      5  C   UNL     1      -2.485  -3.978   7.172  1.00  0.00     0.000 C 
BRANCH   5   6
ATOM      6  C   UNL     1      -3.632  -4.919   6.761  1.00  0.00     0.006 C 
BRANCH   6   7
ATOM      7  C   UNL     1      -4.866  -4.164   6.251  1.00  0.00     0.053 C 
BRANCH   7   8
ATOM      8  C   UNL     1      -4.823  -4.038   4.761  1.00  0.00     0.041 C 
ATOM      9  O   UNL     1      -5.356  -4.919   4.035  1.00  0.00    -0.550 OA
ATOM     10  O   UNL     1      -4.150  -2.976   4.172  1.00  0.00    -0.550 OA
ENDBRANCH   7   8
ENDBRANCH   6   7
ENDBRANCH   5   6
ENDBRANCH   4   5
ENDBRANCH   3   4
ENDBRANCH   2   3
ENDBRANCH   1   2
BRANCH   1  11
ATOM     11  C   UNL     1      -2.454   2.055   8.483  1.00  0.00     0.000 C 
BRANCH  11  12
ATOM     12  C   UNL     1      -1.808   2.456   7.145  1.00  0.00    -0.000 C 
BRANCH  12  13
ATOM     13  C   UNL     1      -0.289   2.220   7.131  1.00  0.00    -0.000 C 
BRANCH  13  14
ATOM     14  C   UNL     1       0.137   1.158   6.104  1.00  0.00    -0.000 C 
BRANCH  14  15
ATOM     15  C   UNL     1       0.902   0.014   6.784  1.00  0.00    -0.000 C 
BRANCH  15  16
ATOM     16  C   UNL     1       0.971   0.164   8.315  1.00  0.00    -0.000 C 
BRANCH  16  17
ATOM     17  C   UNL     1       0.641  -1.115   9.107  1.00  0.00    -0.003 C 
ATOM     18  C   UNL     1       0.811  -2.390   8.282  1.00  0.00     0.004 C 
ENDBRANCH  16  17
ENDBRANCH  15  16
ENDBRANCH  14  15
ENDBRANCH  13  14
ENDBRANCH  12  13
ENDBRANCH  11  12
ENDBRANCH   1  11
TORSDOF 14
ENDMDL
MODEL 5
REMARK VINA RESULT:    -2.840      2.001      3.572
REMARK INTER + INTRA:          -7.246
REMARK INTER:                  -5.491
REMARK INTRA:                  -1.755
REMARK UNBOUND:                -2.081
REMARK SMILES CCCCCCCCCCCCCCCC(=O)[O-]
REMARK SMILES IDX 9 1 10 2 11 3 12 4 13 5 14 6 15 7 16 8 17 9 18 10 8 11 7 12
REMARK SMILES IDX 6 13 5 14 4 15 3 16 2 17 1 18
REMARK H PARENT
REMARK Flexibility Score: inf
ROOT
ATOM      1  C   UNL     1       1.332  -4.162   7.905  1.00  0.00     0.000 C 
ENDROOT
BRANCH   1   2
ATOM      2  C   UNL     1       0.143  -4.944   7.320  1.00  0.00     0.000 C 
BRANCH   2   3
ATOM      3  C   UNL     1      -1.019  -5.095   8.318  1.00  0.00     0.000 C 
BRANCH   3   4
ATOM      4  C   UNL     1      -2.426  -4.976   7.698  1.00  0.00     0.000 C 
BRANCH   4   5
ATOM      5  C   UNL     1      -2.992  -3.543   7.625  1.00  0.00     0.000 C 
BRANCH   5   6
ATOM      6  C   UNL     1      -2.815  -2.845   6.265  1.00  0.00     0.006 C 
BRANCH   6   7
ATOM      7  C   UNL     1      -4.143  -2.363   5.667  1.00  0.00     0.053 C 
BRANCH   7   8
ATOM      8  C   UNL     1      -4.535  -3.222   4.506  1.00  0.00     0.041 C 
ATOM      9  O   UNL     1      -4.788  -4.443   4.677  1.00  0.00    -0.550 OA
ATOM     10  O   UNL     1      -4.571  -2.684   3.226  1.00  0.00    -0.550 OA
ENDBRANCH   7   8
ENDBRANCH   6   7
ENDBRANCH   5   6
ENDBRANCH   4   5
ENDBRANCH   3   4
ENDBRANCH   2   3
ENDBRANCH   1   2
BRANCH   1  11
ATOM     11  C   UNL     1       0.964  -3.397   9.187  1.00  0.00     0.000 C 
BRANCH  11  12
ATOM     12  C   UNL     1       1.130  -1.875   9.032  1.00  0.00    -0.000 C 
BRANCH  12  13
ATOM     13  C   UNL     1      -0.067  -1.220   8.325  1.00  0.00    -0.000 C 
BRANCH  13  14
ATOM     14  C   UNL     1       0.260  -0.777   6.890  1.00  0.00    -0.000 C 
BRANCH  14  15
ATOM     15  C   UNL     1       1.056   0.536   6.890  1.00  0.00    -0.000 C 
BRANCH  15  16
ATOM     16  C   UNL     1       0.161   1.780   6.740  1.00  0.00    -0.000 C 
BRANCH  16  17
ATOM     17  C   UNL     1      -0.220   2.468   8.064  1.00  0.00    -0.003 C 
ATOM     18  C   UNL     1       0.871   2.362   9.129  1.00  0.00     0.004 C 
ENDBRANCH  16  17
ENDBRANCH  15  16
ENDBRANCH  14  15
ENDBRANCH  13  14
ENDBRANCH  12  13
ENDBRANCH  11  12
ENDBRANCH   1  11
TORSDOF 14
ENDMDL
MODEL 6
REMARK VINA RESULT:    -2.819     11.015     12.227
REMARK INTER + INTRA:          -7.207
REMARK INTER:                  -4.962
REMARK INTRA:                  -2.245
REMARK UNBOUND:                -2.081
REMARK SMILES CCCCCCCCCCCCCCCC(=O)[O-]
REMARK SMILES IDX 9 1 10 2 11 3 12 4 13 5 14 6 15 7 16 8 17 9 18 10 8 11 7 12
REMARK SMILES IDX 6 13 5 14 4 15 3 16 2 17 1 18
REMARK H PARENT
REMARK Flexibility Score: inf
ROOT
ATOM      1  C   UNL     1       4.382   9.150   1.596  1.00  0.00     0.000 C 
ENDROOT
BRANCH   1   2
ATOM      2  C   UNL     1       3.221   8.144   1.498  1.00  0.00     0.000 C 
BRANCH   2   3
ATOM      3  C   UNL     1       3.109   7.499   0.105  1.00  0.00     0.000 C 
BRANCH   3   4
ATOM      4  C   UNL     1       3.577   6.032   0.031  1.00  0.00     0.000 C 
BRANCH   4   5
ATOM      5  C   UNL     1       3.883   5.511  -1.389  1.00  0.00     0.000 C 
BRANCH   5   6
ATOM      6  C   UNL     1       2.643   5.163  -2.232  1.00  0.00     0.006 C 
BRANCH   6   7
ATOM      7  C   UNL     1       2.340   6.216  -3.306  1.00  0.00     0.053 C 
BRANCH   7   8
ATOM      8  C   UNL     1       0.877   6.528  -3.334  1.00  0.00     0.041 C 
ATOM      9  O   UNL     1       0.269   6.810  -2.268  1.00  0.00    -0.550 OA
ATOM     10  O   UNL     1       0.174   6.457  -4.529  1.00  0.00    -0.550 OA
ENDBRANCH   7   8
ENDBRANCH   6   7
ENDBRANCH   5   6
ENDBRANCH   4   5
ENDBRANCH   3   4
ENDBRANCH   2   3
ENDBRANCH   1   2
BRANCH   1  11
ATOM     11  C   UNL     1       5.117   9.078   2.944  1.00  0.00     0.000 C 
BRANCH  11  12
ATOM     12  C   UNL     1       4.478   8.064   3.909  1.00  0.00    -0.000 C 
BRANCH  12  13
ATOM     13  C   UNL     1       5.501   7.074   4.488  1.00  0.00    -0.000 C 
BRANCH  13  14
ATOM     14  C   UNL     1       6.662   6.789   3.521  1.00  0.00    -0.000 C 
BRANCH  14  15
ATOM     15  C   UNL     1       6.368   5.552   2.660  1.00  0.00    -0.000 C 
BRANCH  15  16
ATOM     16  C   UNL     1       6.899   5.682   1.221  1.00  0.00    -0.000 C 
BRANCH  16  17
ATOM     17  C   UNL     1       7.401   7.087   0.841  1.00  0.00    -0.003 C 
ATOM     18  C   UNL     1       6.956   7.524  -0.554  1.00  0.00     0.004 C 
ENDBRANCH  16  17
ENDBRANCH  15  16
ENDBRANCH  14  15
ENDBRANCH  13  14
ENDBRANCH  12  13
ENDBRANCH  11  12
ENDBRANCH   1  11
TORSDOF 14
ENDMDL
MODEL 7
REMARK VINA RESULT:    -2.783      1.189      1.667
REMARK INTER + INTRA:          -7.142
REMARK INTER:                  -5.245
REMARK INTRA:                  -1.897
REMARK UNBOUND:                -2.081
REMARK SMILES CCCCCCCCCCCCCCCC(=O)[O-]
REMARK SMILES IDX 9 1 10 2 11 3 12 4 13 5 14 6 15 7 16 8 17 9 18 10 8 11 7 12
REMARK SMILES IDX 6 13 5 14 4 15 3 16 2 17 1 18
REMARK H PARENT
REMARK Flexibility Score: inf
ROOT
ATOM      1  C   UNL     1       0.647  -0.585   7.504  1.00  0.00     0.000 C 
ENDROOT
BRANCH   1   2
ATOM      2  C   UNL     1      -0.533  -1.564   7.368  1.00  0.00     0.000 C 
BRANCH   2   3
ATOM      3  C   UNL     1      -0.078  -3.011   7.106  1.00  0.00     0.000 C 
BRANCH   3   4
ATOM      4  C   UNL     1      -1.200  -4.066   7.180  1.00  0.00     0.000 C 
BRANCH   4   5
ATOM      5  C   UNL     1      -2.534  -3.565   7.768  1.00  0.00     0.000 C 
BRANCH   5   6
ATOM      6  C   UNL     1      -3.772  -3.843   6.895  1.00  0.00     0.006 C 
BRANCH   6   7
ATOM      7  C   UNL     1      -4.030  -2.740   5.861  1.00  0.00     0.053 C 
BRANCH   7   8
ATOM      8  C   UNL     1      -4.505  -3.333   4.573  1.00  0.00     0.041 C 
ATOM      9  O   UNL     1      -4.530  -2.635   3.525  1.00  0.00    -0.550 OA
ATOM     10  O   UNL     1      -4.970  -4.641   4.540  1.00  0.00    -0.550 OA
ENDBRANCH   7   8
ENDBRANCH   6   7
ENDBRANCH   5   6
ENDBRANCH   4   5
ENDBRANCH   3   4
ENDBRANCH   2   3
ENDBRANCH   1   2
BRANCH   1  11
ATOM     11  C   UNL     1       0.766   0.370   6.305  1.00  0.00     0.000 C 
BRANCH  11  12
ATOM     12  C   UNL     1       0.338   1.807   6.652  1.00  0.00    -0.000 C 
BRANCH  12  13
ATOM     13  C   UNL     1       0.122   2.010   8.160  1.00  0.00    -0.000 C 
BRANCH  13  14
ATOM     14  C   UNL     1      -1.249   2.623   8.486  1.00  0.00    -0.000 C 
BRANCH  14  15
ATOM     15  C   UNL     1      -2.067   2.850   7.206  1.00  0.00    -0.000 C 
BRANCH  15  16
ATOM     16  C   UNL     1      -3.455   2.186   7.255  1.00  0.00    -0.000 C 
BRANCH  16  17
ATOM     17  C   UNL     1      -3.443   0.651   7.137  1.00  0.00    -0.003 C 
ATOM     18  C   UNL     1      -3.843  -0.052   8.434  1.00  0.00     0.004 C 
ENDBRANCH  16  17
ENDBRANCH  15  16
ENDBRANCH  14  15
ENDBRANCH  13  14
ENDBRANCH  12  13
ENDBRANCH  11  12
ENDBRANCH   1  11
TORSDOF 14
ENDMDL
MODEL 8
REMARK VINA RESULT:    -2.764      1.311      2.654
REMARK INTER + INTRA:          -7.107
REMARK INTER:                  -5.118
REMARK INTRA:                  -1.989
REMARK UNBOUND:                -2.081
REMARK SMILES CCCCCCCCCCCCCCCC(=O)[O-]
REMARK SMILES IDX 9 1 10 2 11 3 12 4 13 5 14 6 15 7 16 8 17 9 18 10 8 11 7 12
REMARK SMILES IDX 6 13 5 14 4 15 3 16 2 17 1 18
REMARK H PARENT
REMARK Flexibility Score: inf
ROOT
ATOM      1  C   UNL     1      -1.814  -2.358   7.747  1.00  0.00     0.000 C 
ENDROOT
BRANCH   1   2
ATOM      2  C   UNL     1      -2.225  -1.216   8.694  1.00  0.00     0.000 C 
BRANCH   2   3
ATOM      3  C   UNL     1      -3.427  -0.410   8.167  1.00  0.00     0.000 C 
BRANCH   3   4
ATOM      4  C   UNL     1      -3.609  -0.445   6.637  1.00  0.00     0.000 C 
BRANCH   4   5
ATOM      5  C   UNL     1      -5.015  -0.058   6.134  1.00  0.00     0.000 C 
BRANCH   5   6
ATOM      6  C   UNL     1      -5.400  -0.649   4.766  1.00  0.00     0.006 C 
BRANCH   6   7
ATOM      7  C   UNL     1      -5.943  -2.080   4.869  1.00  0.00     0.053 C 
BRANCH   7   8
ATOM      8  C   UNL     1      -5.217  -2.983   3.922  1.00  0.00     0.041 C 
ATOM      9  O   UNL     1      -4.956  -4.170   4.252  1.00  0.00    -0.550 OA
ATOM     10  O   UNL     1      -4.782  -2.499   2.695  1.00  0.00    -0.550 OA
ENDBRANCH   7   8
ENDBRANCH   6   7
ENDBRANCH   5   6
ENDBRANCH   4   5
ENDBRANCH   3   4
ENDBRANCH   2   3
ENDBRANCH   1   2
BRANCH   1  11
ATOM     11  C   UNL     1      -0.430  -2.137   7.118  1.00  0.00     0.000 C 
BRANCH  11  12
ATOM     12  C   UNL     1       0.311  -0.935   7.731  1.00  0.00    -0.000 C 
BRANCH  12  13
ATOM     13  C   UNL     1       0.835   0.041   6.665  1.00  0.00    -0.000 C 
BRANCH  13  14
ATOM     14  C   UNL     1      -0.219   1.076   6.239  1.00  0.00    -0.000 C 
BRANCH  14  15
ATOM     15  C   UNL     1      -0.269   2.247   7.231  1.00  0.00    -0.000 C 
BRANCH  15  16
ATOM     16  C   UNL     1      -1.706   2.676   7.582  1.00  0.00    -0.000 C 
BRANCH  16  17
ATOM     17  C   UNL     1      -2.587   3.041   6.373  1.00  0.00    -0.003 C 
ATOM     18  C   UNL     1      -3.968   3.556   6.773  1.00  0.00     0.004 C 
ENDBRANCH  16  17
ENDBRANCH  15  16
ENDBRANCH  14  15
ENDBRANCH  13  14
ENDBRANCH  12  13
ENDBRANCH  11  12
ENDBRANCH   1  11
TORSDOF 14
ENDMDL
MODEL 9
REMARK VINA RESULT:    -2.749      1.259      3.768
REMARK INTER + INTRA:          -7.079
REMARK INTER:                  -4.988
REMARK INTRA:                  -2.091
REMARK UNBOUND:                -2.081
REMARK SMILES CCCCCCCCCCCCCCCC(=O)[O-]
REMARK SMILES IDX 9 1 10 2 11 3 12 4 13 5 14 6 15 7 16 8 17 9 18 10 8 11 7 12
REMARK SMILES IDX 6 13 5 14 4 15 3 16 2 17 1 18
REMARK H PARENT
REMARK Flexibility Score: inf
ROOT
ATOM      1  C   UNL     1      -1.328   2.637   7.393  1.00  0.00     0.000 C 
ENDROOT
BRANCH   1   2
ATOM      2  C   UNL     1      -2.164   1.998   6.270  1.00  0.00     0.000 C 
BRANCH   2   3
ATOM      3  C   UNL     1      -3.548   2.653   6.114  1.00  0.00     0.000 C 
BRANCH   3   4
ATOM      4  C   UNL     1      -4.497   1.936   5.132  1.00  0.00     0.000 C 
BRANCH   4   5
ATOM      5  C   UNL     1      -5.380   0.837   5.757  1.00  0.00     0.000 C 
BRANCH   5   6
ATOM      6  C   UNL     1      -6.232   0.041   4.753  1.00  0.00     0.006 C 
BRANCH   6   7
ATOM      7  C   UNL     1      -5.799  -1.426   4.637  1.00  0.00     0.053 C 
BRANCH   7   8
ATOM      8  C   UNL     1      -5.448  -1.757   3.221  1.00  0.00     0.041 C 
ATOM      9  O   UNL     1      -4.598  -2.652   2.970  1.00  0.00    -0.550 OA
ATOM     10  O   UNL     1      -6.021  -1.042   2.178  1.00  0.00    -0.550 OA
ENDBRANCH   7   8
ENDBRANCH   6   7
ENDBRANCH   5   6
ENDBRANCH   4   5
ENDBRANCH   3   4
ENDBRANCH   2   3
ENDBRANCH   1   2
BRANCH   1  11
ATOM     11  C   UNL     1       0.119   2.118   7.424  1.00  0.00     0.000 C 
BRANCH  11  12
ATOM     12  C   UNL     1       0.444   1.210   6.225  1.00  0.00    -0.000 C 
BRANCH  12  13
ATOM     13  C   UNL     1       0.742  -0.238   6.646  1.00  0.00    -0.000 C 
BRANCH  13  14
ATOM     14  C   UNL     1       0.618  -0.452   8.163  1.00  0.00    -0.000 C 
BRANCH  14  15
ATOM     15  C   UNL     1      -0.506  -1.447   8.486  1.00  0.00    -0.000 C 
BRANCH  15  16
ATOM     16  C   UNL     1      -1.845  -0.757   8.806  1.00  0.00    -0.000 C 
BRANCH  16  17
ATOM     17  C   UNL     1      -3.041  -1.245   7.968  1.00  0.00    -0.003 C 
ATOM     18  C   UNL     1      -2.640  -1.722   6.573  1.00  0.00     0.004 C 
ENDBRANCH  16  17
ENDBRANCH  15  16
ENDBRANCH  14  15
ENDBRANCH  13  14
ENDBRANCH  12  13
ENDBRANCH  11  12
ENDBRANCH   1  11
TORSDOF 14
ENDMDL
