MODEL 1
REMARK VINA RESULT:    -5.199      0.000      0.000
REMARK INTER + INTRA:          -6.670
REMARK INTER:                  -6.263
REMARK INTRA:                  -0.407
REMARK UNBOUND:                -0.407
REMARK SMILES O=c1c(O)c(-c2ccc(O)cc2O)oc2cc(O)cc(O)c12
REMARK SMILES IDX 5 1 3 2 2 3 1 4 22 5 20 6 19 7 17 8 16 9 15 10 14 11 6 12
REMARK SMILES IDX 8 13 7 14 9 15 11 16 12 17 10 18 13 20 4 22 21 24 18 26
REMARK H PARENT 10 19 13 21 4 23 21 25 18 27
REMARK Flexibility Score: inf
ROOT
ATOM      1  C   UNL     1      -2.432   4.403  -4.160  1.00  0.00     0.184 A 
ATOM      2  C   UNL     1      -1.868   3.432  -3.318  1.00  0.00     0.208 A 
ATOM      3  C   UNL     1      -1.191   3.847  -2.159  1.00  0.00     0.238 A 
ATOM      4  O   UNL     1      -0.735   2.970  -1.381  1.00  0.00    -0.285 OA
ATOM      5  C   UNL     1      -1.075   5.228  -1.869  1.00  0.00     0.111 A 
ATOM      6  C   UNL     1      -0.378   5.763  -0.744  1.00  0.00     0.134 A 
ATOM      7  C   UNL     1      -0.437   7.138  -0.486  1.00  0.00     0.093 A 
ATOM      8  C   UNL     1      -1.113   8.004  -1.344  1.00  0.00     0.123 A 
ATOM      9  C   UNL     1      -1.750   7.499  -2.479  1.00  0.00     0.094 A 
ATOM     10  C   UNL     1      -1.738   6.127  -2.744  1.00  0.00     0.146 A 
ATOM     11  O   UNL     1      -2.364   5.686  -3.829  1.00  0.00    -0.451 OA
ENDROOT
BRANCH   1  12
ATOM     12  C   UNL     1      -3.143   4.035  -5.403  1.00  0.00     0.063 A 
ATOM     13  C   UNL     1      -5.225   3.436  -6.506  1.00  0.00     0.047 A 
ATOM     14  C   UNL     1      -4.522   3.781  -5.348  1.00  0.00     0.020 A 
ATOM     15  C   UNL     1      -4.562   3.354  -7.733  1.00  0.00     0.119 A 
ATOM     16  C   UNL     1      -3.190   3.629  -7.802  1.00  0.00     0.093 A 
ATOM     17  C   UNL     1      -2.478   3.981  -6.646  1.00  0.00     0.130 A 
BRANCH  15  18
ATOM     18  O   UNL     1      -5.275   3.005  -8.877  1.00  0.00    -0.508 OA
ATOM     19  H   UNL     1      -5.157   3.509  -9.749  1.00  0.00     0.293 HD
ENDBRANCH  15  18
BRANCH  17  20
ATOM     20  O   UNL     1      -1.123   4.300  -6.736  1.00  0.00    -0.507 OA
ATOM     21  H   UNL     1      -0.572   4.515  -5.912  1.00  0.00     0.293 HD
ENDBRANCH  17  20
ENDBRANCH   1  12
BRANCH   2  22
ATOM     22  O   UNL     1      -2.014   2.075  -3.619  1.00  0.00    -0.502 OA
ATOM     23  H   UNL     1      -2.227   1.747  -4.554  1.00  0.00     0.293 HD
ENDBRANCH   2  22
BRANCH   6  24
ATOM     24  O   UNL     1       0.405   4.998   0.125  1.00  0.00    -0.507 OA
ATOM     25  H   UNL     1       0.223   4.880   1.110  1.00  0.00     0.293 HD
ENDBRANCH   6  24
BRANCH   8  26
ATOM     26  O   UNL     1      -1.139   9.369  -1.064  1.00  0.00    -0.508 OA
ATOM     27  H   UNL     1      -0.296   9.930  -1.084  1.00  0.00     0.293 HD
ENDBRANCH   8  26
TORSDOF 6
ENDMDL
MODEL 2
REMARK VINA RESULT:    -4.798      1.941      2.461
REMARK INTER + INTRA:          -6.187
REMARK INTER:                  -5.783
REMARK INTRA:                  -0.404
REMARK UNBOUND:                -0.407
REMARK SMILES O=c1c(O)c(-c2ccc(O)cc2O)oc2cc(O)cc(O)c12
REMARK SMILES IDX 5 1 3 2 2 3 1 4 22 5 20 6 19 7 17 8 16 9 15 10 14 11 6 12
REMARK SMILES IDX 8 13 7 14 9 15 11 16 12 17 10 18 13 20 4 22 21 24 18 26
REMARK H PARENT 10 19 13 21 4 23 21 25 18 27
REMARK Flexibility Score: inf
ROOT
ATOM      1  C   UNL     1      -3.673   3.848  -4.907  1.00  0.00     0.184 A 
ATOM      2  C   UNL     1      -4.309   3.286  -3.789  1.00  0.00     0.208 A 
ATOM      3  C   UNL     1      -3.993   3.774  -2.510  1.00  0.00     0.238 A 
ATOM      4  O   UNL     1      -4.605   3.304  -1.517  1.00  0.00    -0.285 OA
ATOM      5  C   UNL     1      -3.032   4.805  -2.368  1.00  0.00     0.111 A 
ATOM      6  C   UNL     1      -2.605   5.347  -1.118  1.00  0.00     0.134 A 
ATOM      7  C   UNL     1      -1.747   6.453  -1.104  1.00  0.00     0.093 A 
ATOM      8  C   UNL     1      -1.248   6.995  -2.287  1.00  0.00     0.123 A 
ATOM      9  C   UNL     1      -1.613   6.435  -3.513  1.00  0.00     0.094 A 
ATOM     10  C   UNL     1      -2.496   5.354  -3.562  1.00  0.00     0.146 A 
ATOM     11  O   UNL     1      -2.826   4.858  -4.749  1.00  0.00    -0.451 OA
ENDROOT
BRANCH   1  12
ATOM     12  C   UNL     1      -3.948   3.371  -6.278  1.00  0.00     0.063 A 
ATOM     13  C   UNL     1      -3.383   1.875  -8.110  1.00  0.00     0.047 A 
ATOM     14  C   UNL     1      -3.146   2.352  -6.818  1.00  0.00     0.020 A 
ATOM     15  C   UNL     1      -4.429   2.398  -8.872  1.00  0.00     0.119 A 
ATOM     16  C   UNL     1      -5.250   3.398  -8.334  1.00  0.00     0.093 A 
ATOM     17  C   UNL     1      -5.023   3.879  -7.037  1.00  0.00     0.130 A 
BRANCH  15  18
ATOM     18  O   UNL     1      -4.650   1.915 -10.160  1.00  0.00    -0.508 OA
ATOM     19  H   UNL     1      -5.521   1.461 -10.413  1.00  0.00     0.293 HD
ENDBRANCH  15  18
BRANCH  17  20
ATOM     20  O   UNL     1      -5.877   4.840  -6.493  1.00  0.00    -0.507 OA
ATOM     21  H   UNL     1      -5.572   5.466  -5.756  1.00  0.00     0.293 HD
ENDBRANCH  17  20
ENDBRANCH   1  12
BRANCH   2  22
ATOM     22  O   UNL     1      -5.266   2.282  -3.960  1.00  0.00    -0.502 OA
ATOM     23  H   UNL     1      -5.475   1.881  -4.866  1.00  0.00     0.293 HD
ENDBRANCH   2  22
BRANCH   6  24
ATOM     24  O   UNL     1      -2.970   4.823   0.125  1.00  0.00    -0.507 OA
ATOM     25  H   UNL     1      -2.593   5.128   1.010  1.00  0.00     0.293 HD
ENDBRANCH   6  24
BRANCH   8  26
ATOM     26  O   UNL     1      -0.383   8.086  -2.235  1.00  0.00    -0.508 OA
ATOM     27  H   UNL     1      -0.394   8.734  -1.456  1.00  0.00     0.293 HD
ENDBRANCH   8  26
TORSDOF 6
ENDMDL
MODEL 3
REMARK VINA RESULT:    -4.676      0.950      1.075
REMARK INTER + INTRA:          -6.040
REMARK INTER:                  -5.629
REMARK INTRA:                  -0.411
REMARK UNBOUND:                -0.407
REMARK SMILES O=c1c(O)c(-c2ccc(O)cc2O)oc2cc(O)cc(O)c12
REMARK SMILES IDX 5 1 3 2 2 3 1 4 22 5 20 6 19 7 17 8 16 9 15 10 14 11 6 12
REMARK SMILES IDX 8 13 7 14 9 15 11 16 12 17 10 18 13 20 4 22 21 24 18 26
REMARK H PARENT 10 19 13 21 4 23 21 25 18 27
REMARK Flexibility Score: inf
ROOT
ATOM      1  C   UNL     1      -3.173   4.218  -4.168  1.00  0.00     0.184 A 
ATOM      2  C   UNL     1      -2.393   3.219  -3.563  1.00  0.00     0.208 A 
ATOM      3  C   UNL     1      -1.436   3.590  -2.606  1.00  0.00     0.238 A 
ATOM      4  O   UNL     1      -0.778   2.686  -2.029  1.00  0.00    -0.285 OA
ATOM      5  C   UNL     1      -1.260   4.957  -2.279  1.00  0.00     0.111 A 
ATOM      6  C   UNL     1      -0.292   5.450  -1.353  1.00  0.00     0.134 A 
ATOM      7  C   UNL     1      -0.295   6.808  -1.010  1.00  0.00     0.093 A 
ATOM      8  C   UNL     1      -1.185   7.700  -1.606  1.00  0.00     0.123 A 
ATOM      9  C   UNL     1      -2.097   7.239  -2.556  1.00  0.00     0.094 A 
ATOM     10  C   UNL     1      -2.142   5.884  -2.893  1.00  0.00     0.146 A 
ATOM     11  O   UNL     1      -3.032   5.484  -3.794  1.00  0.00    -0.451 OA
ENDROOT
BRANCH   1  12
ATOM     12  C   UNL     1      -4.186   3.898  -5.194  1.00  0.00     0.063 A 
ATOM     13  C   UNL     1      -6.432   3.136  -5.730  1.00  0.00     0.047 A 
ATOM     14  C   UNL     1      -5.450   3.443  -4.785  1.00  0.00     0.020 A 
ATOM     15  C   UNL     1      -6.170   3.293  -7.093  1.00  0.00     0.119 A 
ATOM     16  C   UNL     1      -4.921   3.770  -7.511  1.00  0.00     0.093 A 
ATOM     17  C   UNL     1      -3.931   4.084  -6.569  1.00  0.00     0.130 A 
BRANCH  15  18
ATOM     18  O   UNL     1      -7.159   2.980  -8.023  1.00  0.00    -0.508 OA
ATOM     19  H   UNL     1      -7.827   2.236  -7.856  1.00  0.00     0.293 HD
ENDBRANCH  15  18
BRANCH  17  20
ATOM     20  O   UNL     1      -2.708   4.604  -6.995  1.00  0.00    -0.507 OA
ATOM     21  H   UNL     1      -2.632   5.160  -7.839  1.00  0.00     0.293 HD
ENDBRANCH  17  20
ENDBRANCH   1  12
BRANCH   2  22
ATOM     22  O   UNL     1      -2.601   1.877  -3.891  1.00  0.00    -0.502 OA
ATOM     23  H   UNL     1      -2.356   1.121  -3.263  1.00  0.00     0.293 HD
ENDBRANCH   2  22
BRANCH   6  24
ATOM     24  O   UNL     1       0.703   4.661  -0.769  1.00  0.00    -0.507 OA
ATOM     25  H   UNL     1       1.668   4.936  -0.666  1.00  0.00     0.293 HD
ENDBRANCH   6  24
BRANCH   8  26
ATOM     26  O   UNL     1      -1.149   9.047  -1.252  1.00  0.00    -0.508 OA
ATOM     27  H   UNL     1      -1.399   9.358  -0.321  1.00  0.00     0.293 HD
ENDBRANCH   8  26
TORSDOF 6
ENDMDL
MODEL 4
REMARK VINA RESULT:    -4.607      1.531      6.938
REMARK INTER + INTRA:          -5.957
REMARK INTER:                  -5.552
REMARK INTRA:                  -0.405
REMARK UNBOUND:                -0.407
REMARK SMILES O=c1c(O)c(-c2ccc(O)cc2O)oc2cc(O)cc(O)c12
REMARK SMILES IDX 5 1 3 2 2 3 1 4 22 5 20 6 19 7 17 8 16 9 15 10 14 11 6 12
REMARK SMILES IDX 8 13 7 14 9 15 11 16 12 17 10 18 13 20 4 22 21 24 18 26
REMARK H PARENT 10 19 13 21 4 23 21 25 18 27
REMARK Flexibility Score: inf
ROOT
ATOM      1  C   UNL     1      -2.872   4.103  -4.599  1.00  0.00     0.184 A 
ATOM      2  C   UNL     1      -2.296   4.218  -5.874  1.00  0.00     0.208 A 
ATOM      3  C   UNL     1      -3.092   3.977  -7.005  1.00  0.00     0.238 A 
ATOM      4  O   UNL     1      -2.585   4.134  -8.145  1.00  0.00    -0.285 OA
ATOM      5  C   UNL     1      -4.450   3.607  -6.844  1.00  0.00     0.111 A 
ATOM      6  C   UNL     1      -5.339   3.301  -7.917  1.00  0.00     0.134 A 
ATOM      7  C   UNL     1      -6.694   3.074  -7.648  1.00  0.00     0.093 A 
ATOM      8  C   UNL     1      -7.180   3.079  -6.342  1.00  0.00     0.123 A 
ATOM      9  C   UNL     1      -6.308   3.320  -5.278  1.00  0.00     0.094 A 
ATOM     10  C   UNL     1      -4.957   3.585  -5.518  1.00  0.00     0.146 A 
ATOM     11  O   UNL     1      -4.163   3.819  -4.480  1.00  0.00    -0.451 OA
ENDROOT
BRANCH   1  12
ATOM     12  C   UNL     1      -2.086   4.327  -3.368  1.00  0.00     0.063 A 
ATOM     13  C   UNL     1      -0.695   3.414  -1.595  1.00  0.00     0.047 A 
ATOM     14  C   UNL     1      -1.450   3.235  -2.758  1.00  0.00     0.020 A 
ATOM     15  C   UNL     1      -0.555   4.686  -1.036  1.00  0.00     0.119 A 
ATOM     16  C   UNL     1      -1.166   5.787  -1.651  1.00  0.00     0.093 A 
ATOM     17  C   UNL     1      -1.922   5.617  -2.820  1.00  0.00     0.130 A 
BRANCH  15  18
ATOM     18  O   UNL     1       0.197   4.847   0.125  1.00  0.00    -0.508 OA
ATOM     19  H   UNL     1       1.157   4.527   0.183  1.00  0.00     0.293 HD
ENDBRANCH  15  18
BRANCH  17  20
ATOM     20  O   UNL     1      -2.485   6.727  -3.450  1.00  0.00    -0.507 OA
ATOM     21  H   UNL     1      -2.948   7.459  -2.923  1.00  0.00     0.293 HD
ENDBRANCH  17  20
ENDBRANCH   1  12
BRANCH   2  22
ATOM     22  O   UNL     1      -0.958   4.602  -6.004  1.00  0.00    -0.502 OA
ATOM     23  H   UNL     1      -0.275   4.033  -6.490  1.00  0.00     0.293 HD
ENDBRANCH   2  22
BRANCH   6  24
ATOM     24  O   UNL     1      -4.939   3.179  -9.251  1.00  0.00    -0.507 OA
ATOM     25  H   UNL     1      -3.992   3.290  -9.580  1.00  0.00     0.293 HD
ENDBRANCH   6  24
BRANCH   8  26
ATOM     26  O   UNL     1      -8.532   2.835  -6.109  1.00  0.00    -0.508 OA
ATOM     27  H   UNL     1      -9.017   2.069  -6.560  1.00  0.00     0.293 HD
ENDBRANCH   8  26
TORSDOF 6
ENDMDL
MODEL 5
REMARK VINA RESULT:    -4.571      3.535      7.378
REMARK INTER + INTRA:          -5.913
REMARK INTER:                  -5.697
REMARK INTRA:                  -0.216
REMARK UNBOUND:                -0.407
REMARK SMILES O=c1c(O)c(-c2ccc(O)cc2O)oc2cc(O)cc(O)c12
REMARK SMILES IDX 5 1 3 2 2 3 1 4 22 5 20 6 19 7 17 8 16 9 15 10 14 11 6 12
REMARK SMILES IDX 8 13 7 14 9 15 11 16 12 17 10 18 13 20 4 22 21 24 18 26
REMARK H PARENT 10 19 13 21 4 23 21 25 18 27
REMARK Flexibility Score: inf
ROOT
ATOM      1  C   UNL     1       1.755   5.261  -0.903  1.00  0.00     0.184 A 
ATOM      2  C   UNL     1       1.514   6.578  -0.481  1.00  0.00     0.208 A 
ATOM      3  C   UNL     1       0.229   7.121  -0.646  1.00  0.00     0.238 A 
ATOM      4  O   UNL     1       0.005   8.282  -0.217  1.00  0.00    -0.285 OA
ATOM      5  C   UNL     1      -0.792   6.343  -1.246  1.00  0.00     0.111 A 
ATOM      6  C   UNL     1      -2.118   6.805  -1.499  1.00  0.00     0.134 A 
ATOM      7  C   UNL     1      -3.081   5.908  -1.978  1.00  0.00     0.093 A 
ATOM      8  C   UNL     1      -2.751   4.586  -2.275  1.00  0.00     0.123 A 
ATOM      9  C   UNL     1      -1.442   4.140  -2.086  1.00  0.00     0.094 A 
ATOM     10  C   UNL     1      -0.468   5.001  -1.576  1.00  0.00     0.146 A 
ATOM     11  O   UNL     1       0.763   4.534  -1.402  1.00  0.00    -0.451 OA
ENDROOT
BRANCH   1  12
ATOM     12  C   UNL     1       3.088   4.636  -0.774  1.00  0.00     0.063 A 
ATOM     13  C   UNL     1       4.462   2.838   0.116  1.00  0.00     0.047 A 
ATOM     14  C   UNL     1       3.217   3.457  -0.022  1.00  0.00     0.020 A 
ATOM     15  C   UNL     1       5.589   3.379  -0.506  1.00  0.00     0.119 A 
ATOM     16  C   UNL     1       5.467   4.542  -1.278  1.00  0.00     0.093 A 
ATOM     17  C   UNL     1       4.220   5.167  -1.426  1.00  0.00     0.130 A 
BRANCH  15  18
ATOM     18  O   UNL     1       6.824   2.752  -0.356  1.00  0.00    -0.508 OA
ATOM     19  H   UNL     1       6.920   1.746  -0.428  1.00  0.00     0.293 HD
ENDBRANCH  15  18
BRANCH  17  20
ATOM     20  O   UNL     1       4.102   6.296  -2.237  1.00  0.00    -0.507 OA
ATOM     21  H   UNL     1       4.433   7.205  -1.933  1.00  0.00     0.293 HD
ENDBRANCH  17  20
ENDBRANCH   1  12
BRANCH   2  22
ATOM     22  O   UNL     1       2.534   7.316   0.125  1.00  0.00    -0.502 OA
ATOM     23  H   UNL     1       2.916   8.157  -0.292  1.00  0.00     0.293 HD
ENDBRANCH   2  22
BRANCH   6  24
ATOM     24  O   UNL     1      -2.530   8.129  -1.325  1.00  0.00    -0.507 OA
ATOM     25  H   UNL     1      -3.474   8.414  -1.111  1.00  0.00     0.293 HD
ENDBRANCH   6  24
BRANCH   8  26
ATOM     26  O   UNL     1      -3.731   3.726  -2.764  1.00  0.00    -0.508 OA
ATOM     27  H   UNL     1      -3.929   2.839  -2.317  1.00  0.00     0.293 HD
ENDBRANCH   8  26
TORSDOF 6
ENDMDL
MODEL 6
REMARK VINA RESULT:    -4.412      1.781      6.686
REMARK INTER + INTRA:          -5.721
REMARK INTER:                  -5.317
REMARK INTRA:                  -0.404
REMARK UNBOUND:                -0.407
REMARK SMILES O=c1c(O)c(-c2ccc(O)cc2O)oc2cc(O)cc(O)c12
REMARK SMILES IDX 5 1 3 2 2 3 1 4 22 5 20 6 19 7 17 8 16 9 15 10 14 11 6 12
REMARK SMILES IDX 8 13 7 14 9 15 11 16 12 17 10 18 13 20 4 22 21 24 18 26
REMARK H PARENT 10 19 13 21 4 23 21 25 18 27
REMARK Flexibility Score: inf
ROOT
ATOM      1  C   UNL     1      -3.119   4.592  -3.576  1.00  0.00     0.184 A 
ATOM      2  C   UNL     1      -4.139   3.837  -2.976  1.00  0.00     0.208 A 
ATOM      3  C   UNL     1      -5.032   3.127  -3.795  1.00  0.00     0.238 A 
ATOM      4  O   UNL     1      -5.910   2.410  -3.251  1.00  0.00    -0.285 OA
ATOM      5  C   UNL     1      -4.902   3.198  -5.204  1.00  0.00     0.111 A 
ATOM      6  C   UNL     1      -5.774   2.552  -6.131  1.00  0.00     0.134 A 
ATOM      7  C   UNL     1      -5.474   2.584  -7.498  1.00  0.00     0.093 A 
ATOM      8  C   UNL     1      -4.373   3.290  -7.978  1.00  0.00     0.123 A 
ATOM      9  C   UNL     1      -3.545   3.975  -7.086  1.00  0.00     0.094 A 
ATOM     10  C   UNL     1      -3.799   3.932  -5.712  1.00  0.00     0.146 A 
ATOM     11  O   UNL     1      -2.981   4.587  -4.896  1.00  0.00    -0.451 OA
ENDROOT
BRANCH   1  12
ATOM     12  C   UNL     1      -2.157   5.375  -2.773  1.00  0.00     0.063 A 
ATOM     13  C   UNL     1      -1.559   7.484  -1.720  1.00  0.00     0.047 A 
ATOM     14  C   UNL     1      -2.446   6.717  -2.481  1.00  0.00     0.020 A 
ATOM     15  C   UNL     1      -0.382   6.916  -1.230  1.00  0.00     0.119 A 
ATOM     16  C   UNL     1      -0.095   5.570  -1.495  1.00  0.00     0.093 A 
ATOM     17  C   UNL     1      -0.981   4.793  -2.254  1.00  0.00     0.130 A 
BRANCH  15  18
ATOM     18  O   UNL     1       0.495   7.694  -0.476  1.00  0.00    -0.508 OA
ATOM     19  H   UNL     1       1.245   7.276   0.062  1.00  0.00     0.293 HD
ENDBRANCH  15  18
BRANCH  17  20
ATOM     20  O   UNL     1      -0.709   3.442  -2.470  1.00  0.00    -0.507 OA
ATOM     21  H   UNL     1      -1.325   2.713  -2.126  1.00  0.00     0.293 HD
ENDBRANCH  17  20
ENDBRANCH   1  12
BRANCH   2  22
ATOM     22  O   UNL     1      -4.232   3.771  -1.583  1.00  0.00    -0.502 OA
ATOM     23  H   UNL     1      -3.532   3.311  -1.014  1.00  0.00     0.293 HD
ENDBRANCH   2  22
BRANCH   6  24
ATOM     24  O   UNL     1      -6.954   1.897  -5.766  1.00  0.00    -0.507 OA
ATOM     25  H   UNL     1      -7.725   2.329  -5.281  1.00  0.00     0.293 HD
ENDBRANCH   6  24
BRANCH   8  26
ATOM     26  O   UNL     1      -4.113   3.314  -9.347  1.00  0.00    -0.508 OA
ATOM     27  H   UNL     1      -4.729   3.787  -9.995  1.00  0.00     0.293 HD
ENDBRANCH   8  26
TORSDOF 6
ENDMDL
MODEL 7
REMARK VINA RESULT:    -4.115      2.191      6.695
REMARK INTER + INTRA:          -5.365
REMARK INTER:                  -4.941
REMARK INTRA:                  -0.423
REMARK UNBOUND:                -0.407
REMARK SMILES O=c1c(O)c(-c2ccc(O)cc2O)oc2cc(O)cc(O)c12
REMARK SMILES IDX 5 1 3 2 2 3 1 4 22 5 20 6 19 7 17 8 16 9 15 10 14 11 6 12
REMARK SMILES IDX 8 13 7 14 9 15 11 16 12 17 10 18 13 20 4 22 21 24 18 26
REMARK H PARENT 10 19 13 21 4 23 21 25 18 27
REMARK Flexibility Score: inf
ROOT
ATOM      1  C   UNL     1      -2.099   4.931  -3.003  1.00  0.00     0.184 A 
ATOM      2  C   UNL     1      -1.942   4.788  -4.391  1.00  0.00     0.208 A 
ATOM      3  C   UNL     1      -2.903   4.064  -5.113  1.00  0.00     0.238 A 
ATOM      4  O   UNL     1      -2.786   3.984  -6.363  1.00  0.00    -0.285 OA
ATOM      5  C   UNL     1      -4.000   3.479  -4.434  1.00  0.00     0.111 A 
ATOM      6  C   UNL     1      -5.012   2.690  -5.059  1.00  0.00     0.134 A 
ATOM      7  C   UNL     1      -6.120   2.271  -4.312  1.00  0.00     0.093 A 
ATOM      8  C   UNL     1      -6.221   2.555  -2.951  1.00  0.00     0.123 A 
ATOM      9  C   UNL     1      -5.208   3.275  -2.316  1.00  0.00     0.094 A 
ATOM     10  C   UNL     1      -4.108   3.738  -3.043  1.00  0.00     0.146 A 
ATOM     11  O   UNL     1      -3.171   4.428  -2.403  1.00  0.00    -0.451 OA
ENDROOT
BRANCH   1  12
ATOM     12  C   UNL     1      -1.116   5.667  -2.181  1.00  0.00     0.063 A 
ATOM     13  C   UNL     1       1.077   5.739  -1.133  1.00  0.00     0.047 A 
ATOM     14  C   UNL     1       0.123   5.068  -1.903  1.00  0.00     0.020 A 
ATOM     15  C   UNL     1       0.812   7.020  -0.644  1.00  0.00     0.119 A 
ATOM     16  C   UNL     1      -0.412   7.637  -0.937  1.00  0.00     0.093 A 
ATOM     17  C   UNL     1      -1.373   6.973  -1.713  1.00  0.00     0.130 A 
BRANCH  15  18
ATOM     18  O   UNL     1       1.771   7.675   0.125  1.00  0.00    -0.508 OA
ATOM     19  H   UNL     1       2.463   7.161   0.658  1.00  0.00     0.293 HD
ENDBRANCH  15  18
BRANCH  17  20
ATOM     20  O   UNL     1      -2.568   7.616  -2.038  1.00  0.00    -0.507 OA
ATOM     21  H   UNL     1      -3.444   7.366  -1.594  1.00  0.00     0.293 HD
ENDBRANCH  17  20
ENDBRANCH   1  12
BRANCH   2  22
ATOM     22  O   UNL     1      -0.860   5.392  -5.037  1.00  0.00    -0.502 OA
ATOM     23  H   UNL     1      -0.485   5.040  -5.911  1.00  0.00     0.293 HD
ENDBRANCH   2  22
BRANCH   6  24
ATOM     24  O   UNL     1      -4.963   2.271  -6.392  1.00  0.00    -0.507 OA
ATOM     25  H   UNL     1      -4.265   2.559  -7.060  1.00  0.00     0.293 HD
ENDBRANCH   6  24
BRANCH   8  26
ATOM     26  O   UNL     1      -7.330   2.108  -2.236  1.00  0.00    -0.508 OA
ATOM     27  H   UNL     1      -8.260   2.462  -2.424  1.00  0.00     0.293 HD
ENDBRANCH   8  26
TORSDOF 6
ENDMDL
MODEL 8
REMARK VINA RESULT:    -4.092      4.238      7.129
REMARK INTER + INTRA:          -5.336
REMARK INTER:                  -5.236
REMARK INTRA:                  -0.100
REMARK UNBOUND:                -0.407
REMARK SMILES O=c1c(O)c(-c2ccc(O)cc2O)oc2cc(O)cc(O)c12
REMARK SMILES IDX 5 1 3 2 2 3 1 4 22 5 20 6 19 7 17 8 16 9 15 10 14 11 6 12
REMARK SMILES IDX 8 13 7 14 9 15 11 16 12 17 10 18 13 20 4 22 21 24 18 26
REMARK H PARENT 10 19 13 21 4 23 21 25 18 27
REMARK Flexibility Score: inf
ROOT
ATOM      1  C   UNL     1       2.186   4.566  -0.902  1.00  0.00     0.184 A 
ATOM      2  C   UNL     1       1.247   3.528  -1.015  1.00  0.00     0.208 A 
ATOM      3  C   UNL     1      -0.118   3.850  -1.083  1.00  0.00     0.238 A 
ATOM      4  O   UNL     1      -0.950   2.920  -1.238  1.00  0.00    -0.285 OA
ATOM      5  C   UNL     1      -0.525   5.205  -1.020  1.00  0.00     0.111 A 
ATOM      6  C   UNL     1      -1.883   5.644  -1.040  1.00  0.00     0.134 A 
ATOM      7  C   UNL     1      -2.164   7.014  -1.103  1.00  0.00     0.093 A 
ATOM      8  C   UNL     1      -1.142   7.962  -1.082  1.00  0.00     0.123 A 
ATOM      9  C   UNL     1       0.188   7.545  -1.004  1.00  0.00     0.094 A 
ATOM     10  C   UNL     1       0.502   6.184  -0.976  1.00  0.00     0.146 A 
ATOM     11  O   UNL     1       1.780   5.829  -0.912  1.00  0.00    -0.451 OA
ENDROOT
BRANCH   1  12
ATOM     12  C   UNL     1       3.636   4.295  -0.810  1.00  0.00     0.063 A 
ATOM     13  C   UNL     1       5.447   2.970   0.124  1.00  0.00     0.047 A 
ATOM     14  C   UNL     1       4.083   3.254   0.018  1.00  0.00     0.020 A 
ATOM     15  C   UNL     1       6.378   3.710  -0.606  1.00  0.00     0.119 A 
ATOM     16  C   UNL     1       5.941   4.736  -1.455  1.00  0.00     0.093 A 
ATOM     17  C   UNL     1       4.574   5.025  -1.570  1.00  0.00     0.130 A 
BRANCH  15  18
ATOM     18  O   UNL     1       7.735   3.417  -0.487  1.00  0.00    -0.508 OA
ATOM     19  H   UNL     1       8.055   2.524  -0.130  1.00  0.00     0.293 HD
ENDBRANCH  15  18
BRANCH  17  20
ATOM     20  O   UNL     1       4.147   6.016  -2.455  1.00  0.00    -0.507 OA
ATOM     21  H   UNL     1       4.183   6.999  -2.210  1.00  0.00     0.293 HD
ENDBRANCH  17  20
ENDBRANCH   1  12
BRANCH   2  22
ATOM     22  O   UNL     1       1.678   2.201  -1.094  1.00  0.00    -0.502 OA
ATOM     23  H   UNL     1       1.037   1.418  -1.038  1.00  0.00     0.293 HD
ENDBRANCH   2  22
BRANCH   6  24
ATOM     24  O   UNL     1      -2.983   4.784  -0.969  1.00  0.00    -0.507 OA
ATOM     25  H   UNL     1      -3.946   5.082  -0.971  1.00  0.00     0.293 HD
ENDBRANCH   6  24
BRANCH   8  26
ATOM     26  O   UNL     1      -1.459   9.318  -1.132  1.00  0.00    -0.508 OA
ATOM     27  H   UNL     1      -0.766  10.016  -1.372  1.00  0.00     0.293 HD
ENDBRANCH   8  26
TORSDOF 6
ENDMDL
