MODEL 1
REMARK VINA RESULT:    -6.687      0.000      0.000
REMARK INTER + INTRA:         -13.966
REMARK INTER:                 -10.988
REMARK INTRA:                  -2.978
REMARK UNBOUND:                -2.978
REMARK SMILES C[C@H]1O[C@H](OC[C@@H]2O[C@H](Oc3c(-c4ccc(O)c(O)c4)oc4cc(O)cc(O)c4c3=O)[C@@H](O)[C@H](O)[C@@H]2O)[C@@H](O)[C@@H](O)[C@H]1O
REMARK SMILES IDX 7 1 36 2 34 3 32 4 9 5 8 6 6 7 5 8 4 9 1 10 2 11 42 12 3 13
REMARK SMILES IDX 40 14 38 15 43 16 41 18 39 20 37 22 35 24 10 26 11 27 12 28
REMARK SMILES IDX 30 29 21 30 29 31 31 32 22 33 27 34 23 35 26 36 24 37 13 38
REMARK SMILES IDX 20 39 14 40 18 41 15 42 16 43 19 44 17 46 28 48 25 50 33 52
REMARK H PARENT 43 17 41 19 39 21 37 23 35 25 19 45 17 47 28 49 25 51 33 53
REMARK Flexibility Score: inf
ROOT
ATOM      1  C   UNL     1      31.027   8.094  31.565  1.00  0.00     0.180 C 
ATOM      2  C   UNL     1      30.509   6.671  31.946  1.00  0.00     0.177 C 
ATOM      3  C   UNL     1      30.013   5.896  30.679  1.00  0.00     0.180 C 
ATOM      4  C   UNL     1      30.618   6.453  29.380  1.00  0.00     0.214 C 
ATOM      5  C   UNL     1      30.485   8.007  29.295  1.00  0.00     0.339 C 
ATOM      6  O   UNL     1      30.220   8.639  30.541  1.00  0.00    -0.332 OA
ENDROOT
BRANCH   1   7
ATOM      7  C   UNL     1      31.111   9.080  32.739  1.00  0.00     0.198 C 
BRANCH   7   8
ATOM      8  O   UNL     1      29.843   9.642  32.980  1.00  0.00    -0.347 OA
BRANCH   8   9
ATOM      9  C   UNL     1      29.836  10.512  34.097  1.00  0.00     0.281 C 
ATOM     10  C   UNL     1      26.174  10.775  34.293  1.00  0.00     0.041 C 
ATOM     11  C   UNL     1      27.547  10.122  34.405  1.00  0.00     0.150 C 
ATOM     12  C   UNL     1      27.735   9.398  35.751  1.00  0.00     0.174 C 
ATOM     13  O   UNL     1      28.551  11.107  34.216  1.00  0.00    -0.344 OA
ATOM     14  C   UNL     1      29.126   8.742  35.773  1.00  0.00     0.179 C 
ATOM     15  C   UNL     1      30.223   9.755  35.391  1.00  0.00     0.202 C 
BRANCH  12  16
ATOM     16  O   UNL     1      27.607  10.306  36.821  1.00  0.00    -0.388 OA
ATOM     17  H   UNL     1      27.419   9.784  37.633  1.00  0.00     0.211 HD
ENDBRANCH  12  16
BRANCH  14  18
ATOM     18  O   UNL     1      29.385   8.204  37.042  1.00  0.00    -0.387 OA
ATOM     19  H   UNL     1      29.008   8.833  37.709  1.00  0.00     0.211 HD
ENDBRANCH  14  18
BRANCH  15  20
ATOM     20  O   UNL     1      30.412  10.674  36.437  1.00  0.00    -0.385 OA
ATOM     21  H   UNL     1      29.671  10.532  37.076  1.00  0.00     0.211 HD
ENDBRANCH  15  20
ENDBRANCH   8   9
ENDBRANCH   7   8
ENDBRANCH   1   7
BRANCH   2  22
ATOM     22  O   UNL     1      29.527   6.705  32.950  1.00  0.00    -0.387 OA
ATOM     23  H   UNL     1      29.720   7.499  33.533  1.00  0.00     0.211 HD
ENDBRANCH   2  22
BRANCH   3  24
ATOM     24  O   UNL     1      28.618   5.918  30.579  1.00  0.00    -0.387 OA
ATOM     25  H   UNL     1      28.259   5.945  31.501  1.00  0.00     0.211 HD
ENDBRANCH   3  24
BRANCH   5  26
ATOM     26  O   UNL     1      29.508   8.401  28.324  1.00  0.00    -0.454 OA
BRANCH  26  27
ATOM     27  C   UNL     1      29.777   9.177  27.188  1.00  0.00     0.214 A 
ATOM     28  C   UNL     1      29.825  10.580  27.291  1.00  0.00     0.180 A 
ATOM     29  C   UNL     1      30.055   8.585  25.941  1.00  0.00     0.239 A 
ATOM     30  O   UNL     1      30.309  11.293  26.279  1.00  0.00    -0.452 OA
ATOM     31  C   UNL     1      30.550   9.380  24.878  1.00  0.00     0.111 A 
ATOM     32  O   UNL     1      29.873   7.350  25.802  1.00  0.00    -0.285 OA
ATOM     33  C   UNL     1      30.701  10.764  25.130  1.00  0.00     0.146 A 
ATOM     34  C   UNL     1      30.939   8.886  23.599  1.00  0.00     0.134 A 
ATOM     35  C   UNL     1      31.285  11.609  24.179  1.00  0.00     0.094 A 
ATOM     36  C   UNL     1      31.571   9.745  22.684  1.00  0.00     0.093 A 
ATOM     37  C   UNL     1      31.749  11.094  22.967  1.00  0.00     0.123 A 
BRANCH  28  38
ATOM     38  C   UNL     1      29.338  11.314  28.477  1.00  0.00     0.025 A 
ATOM     39  C   UNL     1      30.227  11.830  29.439  1.00  0.00     0.062 A 
ATOM     40  C   UNL     1      27.962  11.361  28.740  1.00  0.00     0.016 A 
ATOM     41  C   UNL     1      29.748  12.394  30.632  1.00  0.00     0.158 A 
ATOM     42  C   UNL     1      27.479  11.924  29.929  1.00  0.00     0.051 A 
ATOM     43  C   UNL     1      28.366  12.440  30.887  1.00  0.00     0.157 A 
BRANCH  41  44
ATOM     44  O   UNL     1      30.659  12.878  31.566  1.00  0.00    -0.504 OA
ATOM     45  H   UNL     1      31.637  12.606  31.551  1.00  0.00     0.293 HD
ENDBRANCH  41  44
BRANCH  43  46
ATOM     46  O   UNL     1      27.881  12.962  32.085  1.00  0.00    -0.504 OA
ATOM     47  H   UNL     1      28.397  13.653  32.619  1.00  0.00     0.293 HD
ENDBRANCH  43  46
ENDBRANCH  28  38
BRANCH  34  48
ATOM     48  O   UNL     1      30.728   7.570  23.196  1.00  0.00    -0.507 OA
ATOM     49  H   UNL     1      31.201   7.129  22.425  1.00  0.00     0.293 HD
ENDBRANCH  34  48
BRANCH  37  50
ATOM     50  O   UNL     1      32.368  11.914  22.030  1.00  0.00    -0.508 OA
ATOM     51  H   UNL     1      33.217  12.426  22.250  1.00  0.00     0.293 HD
ENDBRANCH  37  50
ENDBRANCH  26  27
ENDBRANCH   5  26
BRANCH   4  52
ATOM     52  O   UNL     1      31.968   6.080  29.315  1.00  0.00    -0.384 OA
ATOM     53  H   UNL     1      32.119   5.449  30.075  1.00  0.00     0.211 HD
ENDBRANCH   4  52
TORSDOF 16
ENDMDL
MODEL 2
REMARK VINA RESULT:    -6.594      2.901      4.642
REMARK INTER + INTRA:         -13.813
REMARK INTER:                 -12.179
REMARK INTRA:                  -1.634
REMARK UNBOUND:                -2.978
REMARK SMILES C[C@H]1O[C@H](OC[C@@H]2O[C@H](Oc3c(-c4ccc(O)c(O)c4)oc4cc(O)cc(O)c4c3=O)[C@@H](O)[C@H](O)[C@@H]2O)[C@@H](O)[C@@H](O)[C@H]1O
REMARK SMILES IDX 7 1 36 2 34 3 32 4 9 5 8 6 6 7 5 8 4 9 1 10 2 11 42 12 3 13
REMARK SMILES IDX 40 14 38 15 43 16 41 18 39 20 37 22 35 24 10 26 11 27 12 28
REMARK SMILES IDX 30 29 21 30 29 31 31 32 22 33 27 34 23 35 26 36 24 37 13 38
REMARK SMILES IDX 20 39 14 40 18 41 15 42 16 43 19 44 17 46 28 48 25 50 33 52
REMARK H PARENT 43 17 41 19 39 21 37 23 35 25 19 45 17 47 28 49 25 51 33 53
REMARK Flexibility Score: inf
ROOT
ATOM      1  C   UNL     1      29.011  10.996  30.382  1.00  0.00     0.180 C 
ATOM      2  C   UNL     1      28.934  12.341  31.169  1.00  0.00     0.177 C 
ATOM      3  C   UNL     1      27.825  13.276  30.578  1.00  0.00     0.180 C 
ATOM      4  C   UNL     1      26.771  12.495  29.775  1.00  0.00     0.214 C 
ATOM      5  C   UNL     1      27.427  11.519  28.748  1.00  0.00     0.339 C 
ATOM      6  O   UNL     1      28.796  11.233  29.005  1.00  0.00    -0.332 OA
ENDROOT
BRANCH   1   7
ATOM      7  C   UNL     1      30.320  10.215  30.575  1.00  0.00     0.198 C 
BRANCH   7   8
ATOM      8  O   UNL     1      30.615  10.115  31.948  1.00  0.00    -0.347 OA
BRANCH   8   9
ATOM      9  C   UNL     1      31.498   9.046  32.237  1.00  0.00     0.281 C 
ATOM     10  C   UNL     1      31.764   9.797  35.827  1.00  0.00     0.041 C 
ATOM     11  C   UNL     1      31.112   9.331  34.530  1.00  0.00     0.150 C 
ATOM     12  C   UNL     1      30.402   7.974  34.696  1.00  0.00     0.174 C 
ATOM     13  O   UNL     1      32.094   9.266  33.509  1.00  0.00    -0.344 OA
ATOM     14  C   UNL     1      29.746   7.589  33.359  1.00  0.00     0.179 C 
ATOM     15  C   UNL     1      30.755   7.689  32.198  1.00  0.00     0.202 C 
BRANCH  12  16
ATOM     16  O   UNL     1      31.322   6.982  35.091  1.00  0.00    -0.388 OA
ATOM     17  H   UNL     1      31.024   6.630  35.960  1.00  0.00     0.211 HD
ENDBRANCH  12  16
BRANCH  14  18
ATOM     18  O   UNL     1      29.222   6.291  33.435  1.00  0.00    -0.387 OA
ATOM     19  H   UNL     1      28.234   6.372  33.407  1.00  0.00     0.211 HD
ENDBRANCH  14  18
BRANCH  15  20
ATOM     20  O   UNL     1      31.685   6.639  32.280  1.00  0.00    -0.385 OA
ATOM     21  H   UNL     1      31.488   6.026  31.529  1.00  0.00     0.211 HD
ENDBRANCH  15  20
ENDBRANCH   8   9
ENDBRANCH   7   8
ENDBRANCH   1   7
BRANCH   2  22
ATOM     22  O   UNL     1      30.175  12.994  31.246  1.00  0.00    -0.387 OA
ATOM     23  H   UNL     1      30.090  13.862  30.751  1.00  0.00     0.211 HD
ENDBRANCH   2  22
BRANCH   3  24
ATOM     24  O   UNL     1      28.375  14.270  29.763  1.00  0.00    -0.387 OA
ATOM     25  H   UNL     1      27.804  14.336  28.957  1.00  0.00     0.211 HD
ENDBRANCH   3  24
BRANCH   5  26
ATOM     26  O   UNL     1      27.265  11.982  27.402  1.00  0.00    -0.454 OA
BRANCH  26  27
ATOM     27  C   UNL     1      28.057  11.580  26.316  1.00  0.00     0.214 A 
ATOM     28  C   UNL     1      28.712  12.547  25.531  1.00  0.00     0.180 A 
ATOM     29  C   UNL     1      28.259  10.221  26.015  1.00  0.00     0.239 A 
ATOM     30  O   UNL     1      29.641  12.162  24.662  1.00  0.00    -0.452 OA
ATOM     31  C   UNL     1      29.243   9.847  25.067  1.00  0.00     0.111 A 
ATOM     32  O   UNL     1      27.568   9.358  26.612  1.00  0.00    -0.285 OA
ATOM     33  C   UNL     1      29.954  10.895  24.436  1.00  0.00     0.146 A 
ATOM     34  C   UNL     1      29.593   8.506  24.736  1.00  0.00     0.134 A 
ATOM     35  C   UNL     1      31.018  10.622  23.569  1.00  0.00     0.094 A 
ATOM     36  C   UNL     1      30.699   8.261  23.905  1.00  0.00     0.093 A 
ATOM     37  C   UNL     1      31.412   9.304  23.326  1.00  0.00     0.123 A 
BRANCH  28  38
ATOM     38  C   UNL     1      28.402  13.990  25.610  1.00  0.00     0.025 A 
ATOM     39  C   UNL     1      29.209  14.875  26.350  1.00  0.00     0.062 A 
ATOM     40  C   UNL     1      27.197  14.465  25.077  1.00  0.00     0.016 A 
ATOM     41  C   UNL     1      28.823  16.212  26.539  1.00  0.00     0.158 A 
ATOM     42  C   UNL     1      26.808  15.798  25.261  1.00  0.00     0.051 A 
ATOM     43  C   UNL     1      27.613  16.681  25.997  1.00  0.00     0.157 A 
BRANCH  41  44
ATOM     44  O   UNL     1      29.638  17.053  27.290  1.00  0.00    -0.504 OA
ATOM     45  H   UNL     1      29.299  17.522  28.125  1.00  0.00     0.293 HD
ENDBRANCH  41  44
BRANCH  43  46
ATOM     46  O   UNL     1      27.200  17.996  26.212  1.00  0.00    -0.504 OA
ATOM     47  H   UNL     1      26.225  18.268  26.160  1.00  0.00     0.293 HD
ENDBRANCH  43  46
ENDBRANCH  28  38
BRANCH  34  48
ATOM     48  O   UNL     1      28.888   7.399  25.200  1.00  0.00    -0.507 OA
ATOM     49  H   UNL     1      28.406   6.743  24.609  1.00  0.00     0.293 HD
ENDBRANCH  34  48
BRANCH  37  50
ATOM     50  O   UNL     1      32.493   9.020  22.499  1.00  0.00    -0.508 OA
ATOM     51  H   UNL     1      32.647   8.087  22.128  1.00  0.00     0.293 HD
ENDBRANCH  37  50
ENDBRANCH  26  27
ENDBRANCH   5  26
BRANCH   4  52
ATOM     52  O   UNL     1      25.961  11.782  30.670  1.00  0.00    -0.384 OA
ATOM     53  H   UNL     1      25.644  10.974  30.174  1.00  0.00     0.211 HD
ENDBRANCH   4  52
TORSDOF 16
ENDMDL
MODEL 3
REMARK VINA RESULT:    -6.537      2.623      7.275
REMARK INTER + INTRA:         -13.719
REMARK INTER:                 -10.864
REMARK INTRA:                  -2.856
REMARK UNBOUND:                -2.978
REMARK SMILES C[C@H]1O[C@H](OC[C@@H]2O[C@H](Oc3c(-c4ccc(O)c(O)c4)oc4cc(O)cc(O)c4c3=O)[C@@H](O)[C@H](O)[C@@H]2O)[C@@H](O)[C@@H](O)[C@H]1O
REMARK SMILES IDX 7 1 36 2 34 3 32 4 9 5 8 6 6 7 5 8 4 9 1 10 2 11 42 12 3 13
REMARK SMILES IDX 40 14 38 15 43 16 41 18 39 20 37 22 35 24 10 26 11 27 12 28
REMARK SMILES IDX 30 29 21 30 29 31 31 32 22 33 27 34 23 35 26 36 24 37 13 38
REMARK SMILES IDX 20 39 14 40 18 41 15 42 16 43 19 44 17 46 28 48 25 50 33 52
REMARK H PARENT 43 17 41 19 39 21 37 23 35 25 19 45 17 47 28 49 25 51 33 53
REMARK Flexibility Score: inf
ROOT
ATOM      1  C   UNL     1      27.375  14.582  28.151  1.00  0.00     0.180 C 
ATOM      2  C   UNL     1      28.002  15.608  27.156  1.00  0.00     0.177 C 
ATOM      3  C   UNL     1      29.253  15.001  26.437  1.00  0.00     0.180 C 
ATOM      4  C   UNL     1      29.249  13.463  26.457  1.00  0.00     0.214 C 
ATOM      5  C   UNL     1      28.974  12.901  27.888  1.00  0.00     0.339 C 
ATOM      6  O   UNL     1      28.398  13.842  28.785  1.00  0.00    -0.332 OA
ENDROOT
BRANCH   1   7
ATOM      7  C   UNL     1      26.451  15.201  29.211  1.00  0.00     0.198 C 
BRANCH   7   8
ATOM      8  O   UNL     1      25.826  14.180  29.951  1.00  0.00    -0.347 OA
BRANCH   8   9
ATOM      9  C   UNL     1      25.650  14.525  31.313  1.00  0.00     0.281 C 
ATOM     10  C   UNL     1      23.278  11.810  32.041  1.00  0.00     0.041 C 
ATOM     11  C   UNL     1      24.619  12.460  31.717  1.00  0.00     0.150 C 
ATOM     12  C   UNL     1      25.746  11.947  32.632  1.00  0.00     0.174 C 
ATOM     13  O   UNL     1      24.492  13.870  31.813  1.00  0.00    -0.344 OA
ATOM     14  C   UNL     1      27.066  12.623  32.224  1.00  0.00     0.179 C 
ATOM     15  C   UNL     1      26.903  14.153  32.144  1.00  0.00     0.202 C 
BRANCH  12  16
ATOM     16  O   UNL     1      25.451  12.228  33.981  1.00  0.00    -0.388 OA
ATOM     17  H   UNL     1      26.147  12.836  34.317  1.00  0.00     0.211 HD
ENDBRANCH  12  16
BRANCH  14  18
ATOM     18  O   UNL     1      28.080  12.291  33.134  1.00  0.00    -0.387 OA
ATOM     19  H   UNL     1      28.893  12.785  32.857  1.00  0.00     0.211 HD
ENDBRANCH  14  18
BRANCH  15  20
ATOM     20  O   UNL     1      26.787  14.691  33.437  1.00  0.00    -0.385 OA
ATOM     21  H   UNL     1      27.586  14.395  33.939  1.00  0.00     0.211 HD
ENDBRANCH  15  20
ENDBRANCH   8   9
ENDBRANCH   7   8
ENDBRANCH   1   7
BRANCH   2  22
ATOM     22  O   UNL     1      28.301  16.838  27.765  1.00  0.00    -0.387 OA
ATOM     23  H   UNL     1      28.075  16.755  28.739  1.00  0.00     0.211 HD
ENDBRANCH   2  22
BRANCH   3  24
ATOM     24  O   UNL     1      30.445  15.460  27.005  1.00  0.00    -0.387 OA
ATOM     25  H   UNL     1      30.217  15.852  27.886  1.00  0.00     0.211 HD
ENDBRANCH   3  24
BRANCH   5  26
ATOM     26  O   UNL     1      30.152  12.326  28.465  1.00  0.00    -0.454 OA
BRANCH  26  27
ATOM     27  C   UNL     1      30.169  11.189  29.285  1.00  0.00     0.214 A 
ATOM     28  C   UNL     1      30.022   9.910  28.716  1.00  0.00     0.180 A 
ATOM     29  C   UNL     1      30.383  11.285  30.673  1.00  0.00     0.239 A 
ATOM     30  O   UNL     1      30.275   8.834  29.453  1.00  0.00    -0.452 OA
ATOM     31  C   UNL     1      30.627  10.114  31.432  1.00  0.00     0.111 A 
ATOM     32  O   UNL     1      30.369  12.420  31.212  1.00  0.00    -0.285 OA
ATOM     33  C   UNL     1      30.602   8.883  30.735  1.00  0.00     0.146 A 
ATOM     34  C   UNL     1      30.932  10.090  32.824  1.00  0.00     0.134 A 
ATOM     35  C   UNL     1      30.940   7.686  31.376  1.00  0.00     0.094 A 
ATOM     36  C   UNL     1      31.320   8.883  33.430  1.00  0.00     0.093 A 
ATOM     37  C   UNL     1      31.329   7.689  32.718  1.00  0.00     0.123 A 
BRANCH  28  38
ATOM     38  C   UNL     1      29.575   9.700  27.323  1.00  0.00     0.025 A 
ATOM     39  C   UNL     1      30.490   9.672  26.253  1.00  0.00     0.062 A 
ATOM     40  C   UNL     1      28.204   9.687  27.035  1.00  0.00     0.016 A 
ATOM     41  C   UNL     1      30.041   9.620  24.924  1.00  0.00     0.158 A 
ATOM     42  C   UNL     1      27.751   9.633  25.710  1.00  0.00     0.051 A 
ATOM     43  C   UNL     1      28.663   9.605  24.644  1.00  0.00     0.157 A 
BRANCH  41  44
ATOM     44  O   UNL     1      30.975   9.611  23.893  1.00  0.00    -0.504 OA
ATOM     45  H   UNL     1      31.519  10.435  23.656  1.00  0.00     0.293 HD
ENDBRANCH  41  44
BRANCH  43  46
ATOM     46  O   UNL     1      28.205   9.592  23.327  1.00  0.00    -0.504 OA
ATOM     47  H   UNL     1      28.523   8.903  22.654  1.00  0.00     0.293 HD
ENDBRANCH  43  46
ENDBRANCH  28  38
BRANCH  34  48
ATOM     48  O   UNL     1      30.870  11.219  33.636  1.00  0.00    -0.507 OA
ATOM     49  H   UNL     1      30.121  11.418  34.277  1.00  0.00     0.293 HD
ENDBRANCH  34  48
BRANCH  37  50
ATOM     50  O   UNL     1      31.708   6.513  33.357  1.00  0.00    -0.508 OA
ATOM     51  H   UNL     1      32.553   6.462  33.918  1.00  0.00     0.293 HD
ENDBRANCH  37  50
ENDBRANCH  26  27
ENDBRANCH   5  26
BRANCH   4  52
ATOM     52  O   UNL     1      28.272  13.003  25.562  1.00  0.00    -0.384 OA
ATOM     53  H   UNL     1      28.318  13.606  24.766  1.00  0.00     0.211 HD
ENDBRANCH   4  52
TORSDOF 16
ENDMDL
MODEL 4
REMARK VINA RESULT:    -6.464      2.354      9.771
REMARK INTER + INTRA:         -13.599
REMARK INTER:                 -10.942
REMARK INTRA:                  -2.657
REMARK UNBOUND:                -2.978
REMARK SMILES C[C@H]1O[C@H](OC[C@@H]2O[C@H](Oc3c(-c4ccc(O)c(O)c4)oc4cc(O)cc(O)c4c3=O)[C@@H](O)[C@H](O)[C@@H]2O)[C@@H](O)[C@@H](O)[C@H]1O
REMARK SMILES IDX 7 1 36 2 34 3 32 4 9 5 8 6 6 7 5 8 4 9 1 10 2 11 42 12 3 13
REMARK SMILES IDX 40 14 38 15 43 16 41 18 39 20 37 22 35 24 10 26 11 27 12 28
REMARK SMILES IDX 30 29 21 30 29 31 31 32 22 33 27 34 23 35 26 36 24 37 13 38
REMARK SMILES IDX 20 39 14 40 18 41 15 42 16 43 19 44 17 46 28 48 25 50 33 52
REMARK H PARENT 43 17 41 19 39 21 37 23 35 25 19 45 17 47 28 49 25 51 33 53
REMARK Flexibility Score: inf
ROOT
ATOM      1  C   UNL     1      28.841  13.682  24.950  1.00  0.00     0.180 C 
ATOM      2  C   UNL     1      28.544  14.945  25.817  1.00  0.00     0.177 C 
ATOM      3  C   UNL     1      28.653  14.616  27.344  1.00  0.00     0.180 C 
ATOM      4  C   UNL     1      29.506  13.366  27.613  1.00  0.00     0.214 C 
ATOM      5  C   UNL     1      29.080  12.165  26.710  1.00  0.00     0.339 C 
ATOM      6  O   UNL     1      28.305  12.533  25.575  1.00  0.00    -0.332 OA
ENDROOT
BRANCH   1   7
ATOM      7  C   UNL     1      28.336  13.766  23.502  1.00  0.00     0.198 C 
BRANCH   7   8
ATOM      8  O   UNL     1      29.357  13.367  22.618  1.00  0.00    -0.347 OA
BRANCH   8   9
ATOM      9  C   UNL     1      30.221  12.400  23.187  1.00  0.00     0.281 C 
ATOM     10  C   UNL     1      28.958   9.596  21.172  1.00  0.00     0.041 C 
ATOM     11  C   UNL     1      29.695  10.898  21.469  1.00  0.00     0.150 C 
ATOM     12  C   UNL     1      31.112  10.910  20.868  1.00  0.00     0.174 C 
ATOM     13  O   UNL     1      29.739  11.101  22.873  1.00  0.00    -0.344 OA
ATOM     14  C   UNL     1      31.774  12.262  21.182  1.00  0.00     0.179 C 
ATOM     15  C   UNL     1      31.673  12.593  22.684  1.00  0.00     0.202 C 
BRANCH  12  16
ATOM     16  O   UNL     1      31.881   9.855  21.398  1.00  0.00    -0.388 OA
ATOM     17  H   UNL     1      32.796   9.950  21.050  1.00  0.00     0.211 HD
ENDBRANCH  12  16
BRANCH  14  18
ATOM     18  O   UNL     1      33.118  12.247  20.779  1.00  0.00    -0.387 OA
ATOM     19  H   UNL     1      33.537  11.450  21.194  1.00  0.00     0.211 HD
ENDBRANCH  14  18
BRANCH  15  20
ATOM     20  O   UNL     1      32.540  11.764  23.417  1.00  0.00    -0.385 OA
ATOM     21  H   UNL     1      32.252  11.817  24.361  1.00  0.00     0.211 HD
ENDBRANCH  15  20
ENDBRANCH   8   9
ENDBRANCH   7   8
ENDBRANCH   1   7
BRANCH   2  22
ATOM     22  O   UNL     1      27.310  15.539  25.502  1.00  0.00    -0.387 OA
ATOM     23  H   UNL     1      27.221  15.535  24.503  1.00  0.00     0.211 HD
ENDBRANCH   2  22
BRANCH   3  24
ATOM     24  O   UNL     1      27.392  14.440  27.922  1.00  0.00    -0.387 OA
ATOM     25  H   UNL     1      26.740  14.922  27.354  1.00  0.00     0.211 HD
ENDBRANCH   3  24
BRANCH   5  26
ATOM     26  O   UNL     1      28.402  11.152  27.462  1.00  0.00    -0.454 OA
BRANCH  26  27
ATOM     27  C   UNL     1      28.902  10.549  28.625  1.00  0.00     0.214 A 
ATOM     28  C   UNL     1      29.737   9.420  28.526  1.00  0.00     0.180 A 
ATOM     29  C   UNL     1      28.633  11.075  29.902  1.00  0.00     0.239 A 
ATOM     30  O   UNL     1      30.396   8.999  29.601  1.00  0.00    -0.452 OA
ATOM     31  C   UNL     1      29.338  10.587  31.030  1.00  0.00     0.111 A 
ATOM     32  O   UNL     1      27.777  11.988  30.013  1.00  0.00    -0.285 OA
ATOM     33  C   UNL     1      30.268   9.545  30.800  1.00  0.00     0.146 A 
ATOM     34  C   UNL     1      29.210  11.091  32.356  1.00  0.00     0.134 A 
ATOM     35  C   UNL     1      31.089   9.075  31.831  1.00  0.00     0.094 A 
ATOM     36  C   UNL     1      30.084  10.639  33.360  1.00  0.00     0.093 A 
ATOM     37  C   UNL     1      31.019   9.643  33.105  1.00  0.00     0.123 A 
BRANCH  28  38
ATOM     38  C   UNL     1      29.907   8.655  27.273  1.00  0.00     0.025 A 
ATOM     39  C   UNL     1      30.736   9.120  26.235  1.00  0.00     0.062 A 
ATOM     40  C   UNL     1      29.107   7.528  27.042  1.00  0.00     0.016 A 
ATOM     41  C   UNL     1      30.774   8.461  24.995  1.00  0.00     0.158 A 
ATOM     42  C   UNL     1      29.143   6.867  25.807  1.00  0.00     0.051 A 
ATOM     43  C   UNL     1      29.970   7.329  24.772  1.00  0.00     0.157 A 
BRANCH  41  44
ATOM     44  O   UNL     1      31.593   8.960  23.988  1.00  0.00    -0.504 OA
ATOM     45  H   UNL     1      32.575   9.164  24.148  1.00  0.00     0.293 HD
ENDBRANCH  41  44
BRANCH  43  46
ATOM     46  O   UNL     1      29.969   6.690  23.533  1.00  0.00    -0.504 OA
ATOM     47  H   UNL     1      30.234   5.717  23.430  1.00  0.00     0.293 HD
ENDBRANCH  43  46
ENDBRANCH  28  38
BRANCH  34  48
ATOM     48  O   UNL     1      28.249  12.029  32.724  1.00  0.00    -0.507 OA
ATOM     49  H   UNL     1      28.095  12.345  33.667  1.00  0.00     0.293 HD
ENDBRANCH  34  48
BRANCH  37  50
ATOM     50  O   UNL     1      31.858   9.214  34.129  1.00  0.00    -0.508 OA
ATOM     51  H   UNL     1      31.496   8.970  35.045  1.00  0.00     0.293 HD
ENDBRANCH  37  50
ENDBRANCH  26  27
ENDBRANCH   5  26
BRANCH   4  52
ATOM     52  O   UNL     1      30.854  13.683  27.390  1.00  0.00    -0.384 OA
ATOM     53  H   UNL     1      30.880  14.662  27.190  1.00  0.00     0.211 HD
ENDBRANCH   4  52
TORSDOF 16
ENDMDL
MODEL 5
REMARK VINA RESULT:    -6.274      3.406      5.433
REMARK INTER + INTRA:         -13.286
REMARK INTER:                 -11.128
REMARK INTRA:                  -2.159
REMARK UNBOUND:                -2.978
REMARK SMILES C[C@H]1O[C@H](OC[C@@H]2O[C@H](Oc3c(-c4ccc(O)c(O)c4)oc4cc(O)cc(O)c4c3=O)[C@@H](O)[C@H](O)[C@@H]2O)[C@@H](O)[C@@H](O)[C@H]1O
REMARK SMILES IDX 7 1 36 2 34 3 32 4 9 5 8 6 6 7 5 8 4 9 1 10 2 11 42 12 3 13
REMARK SMILES IDX 40 14 38 15 43 16 41 18 39 20 37 22 35 24 10 26 11 27 12 28
REMARK SMILES IDX 30 29 21 30 29 31 31 32 22 33 27 34 23 35 26 36 24 37 13 38
REMARK SMILES IDX 20 39 14 40 18 41 15 42 16 43 19 44 17 46 28 48 25 50 33 52
REMARK H PARENT 43 17 41 19 39 21 37 23 35 25 19 45 17 47 28 49 25 51 33 53
REMARK Flexibility Score: inf
ROOT
ATOM      1  C   UNL     1      28.071  12.386  31.052  1.00  0.00     0.180 C 
ATOM      2  C   UNL     1      29.166  11.350  31.456  1.00  0.00     0.177 C 
ATOM      3  C   UNL     1      29.896  10.782  30.193  1.00  0.00     0.180 C 
ATOM      4  C   UNL     1      29.762  11.711  28.975  1.00  0.00     0.214 C 
ATOM      5  C   UNL     1      28.283  12.152  28.739  1.00  0.00     0.339 C 
ATOM      6  O   UNL     1      27.432  11.969  29.863  1.00  0.00    -0.332 OA
ENDROOT
BRANCH   1   7
ATOM      7  C   UNL     1      27.018  12.660  32.137  1.00  0.00     0.198 C 
BRANCH   7   8
ATOM      8  O   UNL     1      26.218  13.754  31.757  1.00  0.00    -0.347 OA
BRANCH   8   9
ATOM      9  C   UNL     1      26.983  14.855  31.300  1.00  0.00     0.281 C 
ATOM     10  C   UNL     1      24.427  16.092  28.964  1.00  0.00     0.041 C 
ATOM     11  C   UNL     1      25.076  15.787  30.310  1.00  0.00     0.150 C 
ATOM     12  C   UNL     1      25.036  17.000  31.258  1.00  0.00     0.174 C 
ATOM     13  O   UNL     1      26.410  15.354  30.099  1.00  0.00    -0.344 OA
ATOM     14  C   UNL     1      25.678  16.605  32.598  1.00  0.00     0.179 C 
ATOM     15  C   UNL     1      27.062  15.960  32.381  1.00  0.00     0.202 C 
BRANCH  12  16
ATOM     16  O   UNL     1      25.723  18.092  30.690  1.00  0.00    -0.388 OA
ATOM     17  H   UNL     1      26.129  17.782  29.849  1.00  0.00     0.211 HD
ENDBRANCH  12  16
BRANCH  14  18
ATOM     18  O   UNL     1      25.794  17.730  33.429  1.00  0.00    -0.387 OA
ATOM     19  H   UNL     1      25.648  18.528  32.860  1.00  0.00     0.211 HD
ENDBRANCH  14  18
BRANCH  15  20
ATOM     20  O   UNL     1      27.990  16.939  31.989  1.00  0.00    -0.385 OA
ATOM     21  H   UNL     1      28.886  16.589  32.221  1.00  0.00     0.211 HD
ENDBRANCH  15  20
ENDBRANCH   8   9
ENDBRANCH   7   8
ENDBRANCH   1   7
BRANCH   2  22
ATOM     22  O   UNL     1      28.664  10.322  32.270  1.00  0.00    -0.387 OA
ATOM     23  H   UNL     1      27.770  10.621  32.616  1.00  0.00     0.211 HD
ENDBRANCH   2  22
BRANCH   3  24
ATOM     24  O   UNL     1      29.418   9.513  29.852  1.00  0.00    -0.387 OA
ATOM     25  H   UNL     1      28.871   9.193  30.613  1.00  0.00     0.211 HD
ENDBRANCH   3  24
BRANCH   5  26
ATOM     26  O   UNL     1      27.720  11.517  27.585  1.00  0.00    -0.454 OA
BRANCH  26  27
ATOM     27  C   UNL     1      28.419  11.241  26.401  1.00  0.00     0.214 A 
ATOM     28  C   UNL     1      28.934  12.299  25.628  1.00  0.00     0.180 A 
ATOM     29  C   UNL     1      28.669   9.921  25.984  1.00  0.00     0.239 A 
ATOM     30  O   UNL     1      29.791  12.034  24.647  1.00  0.00    -0.452 OA
ATOM     31  C   UNL     1      29.572   9.676  24.919  1.00  0.00     0.111 A 
ATOM     32  O   UNL     1      28.094   8.977  26.581  1.00  0.00    -0.285 OA
ATOM     33  C   UNL     1      30.152  10.808  24.300  1.00  0.00     0.146 A 
ATOM     34  C   UNL     1      29.963   8.386  24.459  1.00  0.00     0.134 A 
ATOM     35  C   UNL     1      31.137  10.664  23.316  1.00  0.00     0.094 A 
ATOM     36  C   UNL     1      30.992   8.269  23.508  1.00  0.00     0.093 A 
ATOM     37  C   UNL     1      31.580   9.394  22.941  1.00  0.00     0.123 A 
BRANCH  28  38
ATOM     38  C   UNL     1      28.550  13.710  25.842  1.00  0.00     0.025 A 
ATOM     39  C   UNL     1      29.455  14.645  26.379  1.00  0.00     0.062 A 
ATOM     40  C   UNL     1      27.215  14.094  25.661  1.00  0.00     0.016 A 
ATOM     41  C   UNL     1      29.034  15.942  26.714  1.00  0.00     0.158 A 
ATOM     42  C   UNL     1      26.791  15.388  25.992  1.00  0.00     0.051 A 
ATOM     43  C   UNL     1      27.694  16.320  26.527  1.00  0.00     0.157 A 
BRANCH  41  44
ATOM     44  O   UNL     1      29.954  16.832  27.258  1.00  0.00    -0.504 OA
ATOM     45  H   UNL     1      29.760  17.350  28.110  1.00  0.00     0.293 HD
ENDBRANCH  41  44
BRANCH  43  46
ATOM     46  O   UNL     1      27.256  17.593  26.893  1.00  0.00    -0.504 OA
ATOM     47  H   UNL     1      26.324  17.756  27.259  1.00  0.00     0.293 HD
ENDBRANCH  43  46
ENDBRANCH  28  38
BRANCH  34  48
ATOM     48  O   UNL     1      29.376   7.207  24.908  1.00  0.00    -0.507 OA
ATOM     49  H   UNL     1      29.429   6.870  25.855  1.00  0.00     0.293 HD
ENDBRANCH  34  48
BRANCH  37  50
ATOM     50  O   UNL     1      32.587   9.236  21.994  1.00  0.00    -0.508 OA
ATOM     51  H   UNL     1      32.390   8.881  21.063  1.00  0.00     0.293 HD
ENDBRANCH  37  50
ENDBRANCH  26  27
ENDBRANCH   5  26
BRANCH   4  52
ATOM     52  O   UNL     1      30.576  12.835  29.174  1.00  0.00    -0.384 OA
ATOM     53  H   UNL     1      31.308  12.544  29.788  1.00  0.00     0.211 HD
ENDBRANCH   4  52
TORSDOF 16
ENDMDL
MODEL 6
REMARK VINA RESULT:    -6.144      3.028      5.475
REMARK INTER + INTRA:         -13.073
REMARK INTER:                 -11.268
REMARK INTRA:                  -1.805
REMARK UNBOUND:                -2.978
REMARK SMILES C[C@H]1O[C@H](OC[C@@H]2O[C@H](Oc3c(-c4ccc(O)c(O)c4)oc4cc(O)cc(O)c4c3=O)[C@@H](O)[C@H](O)[C@@H]2O)[C@@H](O)[C@@H](O)[C@H]1O
REMARK SMILES IDX 7 1 36 2 34 3 32 4 9 5 8 6 6 7 5 8 4 9 1 10 2 11 42 12 3 13
REMARK SMILES IDX 40 14 38 15 43 16 41 18 39 20 37 22 35 24 10 26 11 27 12 28
REMARK SMILES IDX 30 29 21 30 29 31 31 32 22 33 27 34 23 35 26 36 24 37 13 38
REMARK SMILES IDX 20 39 14 40 18 41 15 42 16 43 19 44 17 46 28 48 25 50 33 52
REMARK H PARENT 43 17 41 19 39 21 37 23 35 25 19 45 17 47 28 49 25 51 33 53
REMARK Flexibility Score: inf
ROOT
ATOM      1  C   UNL     1      29.262  11.199  32.603  1.00  0.00     0.180 C 
ATOM      2  C   UNL     1      30.189  10.027  32.150  1.00  0.00     0.177 C 
ATOM      3  C   UNL     1      30.473  10.098  30.612  1.00  0.00     0.180 C 
ATOM      4  C   UNL     1      30.250  11.509  30.042  1.00  0.00     0.214 C 
ATOM      5  C   UNL     1      28.877  12.106  30.486  1.00  0.00     0.339 C 
ATOM      6  O   UNL     1      28.293  11.456  31.608  1.00  0.00    -0.332 OA
ENDROOT
BRANCH   1   7
ATOM      7  C   UNL     1      28.570  10.980  33.957  1.00  0.00     0.198 C 
BRANCH   7   8
ATOM      8  O   UNL     1      29.539  10.806  34.964  1.00  0.00    -0.347 OA
BRANCH   8   9
ATOM      9  C   UNL     1      29.066  10.022  36.044  1.00  0.00     0.281 C 
ATOM     10  C   UNL     1      31.242   7.142  35.343  1.00  0.00     0.041 C 
ATOM     11  C   UNL     1      30.873   8.553  35.786  1.00  0.00     0.150 C 
ATOM     12  C   UNL     1      31.512   8.920  37.139  1.00  0.00     0.174 C 
ATOM     13  O   UNL     1      29.460   8.671  35.846  1.00  0.00    -0.344 OA
ATOM     14  C   UNL     1      31.120  10.362  37.500  1.00  0.00     0.179 C 
ATOM     15  C   UNL     1      29.595  10.565  37.394  1.00  0.00     0.202 C 
BRANCH  12  16
ATOM     16  O   UNL     1      31.081   8.030  38.143  1.00  0.00    -0.388 OA
ATOM     17  H   UNL     1      30.728   8.570  38.886  1.00  0.00     0.211 HD
ENDBRANCH  12  16
BRANCH  14  18
ATOM     18  O   UNL     1      31.560  10.672  38.795  1.00  0.00    -0.387 OA
ATOM     19  H   UNL     1      31.844  11.622  38.786  1.00  0.00     0.211 HD
ENDBRANCH  14  18
BRANCH  15  20
ATOM     20  O   UNL     1      28.950   9.904  38.453  1.00  0.00    -0.385 OA
ATOM     21  H   UNL     1      28.211  10.493  38.746  1.00  0.00     0.211 HD
ENDBRANCH  15  20
ENDBRANCH   8   9
ENDBRANCH   7   8
ENDBRANCH   1   7
BRANCH   2  22
ATOM     22  O   UNL     1      29.693   8.768  32.528  1.00  0.00    -0.387 OA
ATOM     23  H   UNL     1      30.027   8.579  33.454  1.00  0.00     0.211 HD
ENDBRANCH   2  22
BRANCH   3  24
ATOM     24  O   UNL     1      29.682   9.189  29.902  1.00  0.00    -0.387 OA
ATOM     25  H   UNL     1      28.987   8.858  30.525  1.00  0.00     0.211 HD
ENDBRANCH   3  24
BRANCH   5  26
ATOM     26  O   UNL     1      27.944  12.151  29.401  1.00  0.00    -0.454 OA
BRANCH  26  27
ATOM     27  C   UNL     1      27.996  13.062  28.337  1.00  0.00     0.214 A 
ATOM     28  C   UNL     1      28.258  12.604  27.032  1.00  0.00     0.180 A 
ATOM     29  C   UNL     1      27.739  14.433  28.528  1.00  0.00     0.239 A 
ATOM     30  O   UNL     1      28.072  13.423  26.003  1.00  0.00    -0.452 OA
ATOM     31  C   UNL     1      27.569  15.282  27.407  1.00  0.00     0.111 A 
ATOM     32  O   UNL     1      27.649  14.875  29.700  1.00  0.00    -0.285 OA
ATOM     33  C   UNL     1      27.709  14.690  26.129  1.00  0.00     0.146 A 
ATOM     34  C   UNL     1      27.231  16.664  27.471  1.00  0.00     0.134 A 
ATOM     35  C   UNL     1      27.451  15.422  24.965  1.00  0.00     0.094 A 
ATOM     36  C   UNL     1      26.925  17.362  26.290  1.00  0.00     0.093 A 
ATOM     37  C   UNL     1      27.028  16.751  25.045  1.00  0.00     0.123 A 
BRANCH  28  38
ATOM     38  C   UNL     1      28.756  11.242  26.746  1.00  0.00     0.025 A 
ATOM     39  C   UNL     1      30.030  11.027  26.187  1.00  0.00     0.062 A 
ATOM     40  C   UNL     1      27.888  10.150  26.879  1.00  0.00     0.016 A 
ATOM     41  C   UNL     1      30.432   9.744  25.784  1.00  0.00     0.158 A 
ATOM     42  C   UNL     1      28.285   8.867  26.480  1.00  0.00     0.051 A 
ATOM     43  C   UNL     1      29.556   8.653  25.924  1.00  0.00     0.157 A 
BRANCH  41  44
ATOM     44  O   UNL     1      31.693   9.574  25.221  1.00  0.00    -0.504 OA
ATOM     45  H   UNL     1      32.037  10.183  24.485  1.00  0.00     0.293 HD
ENDBRANCH  41  44
BRANCH  43  46
ATOM     46  O   UNL     1      29.928   7.381  25.491  1.00  0.00    -0.504 OA
ATOM     47  H   UNL     1      29.246   6.653  25.310  1.00  0.00     0.293 HD
ENDBRANCH  43  46
ENDBRANCH  28  38
BRANCH  34  48
ATOM     48  O   UNL     1      27.183  17.381  28.664  1.00  0.00    -0.507 OA
ATOM     49  H   UNL     1      27.911  17.994  28.989  1.00  0.00     0.293 HD
ENDBRANCH  34  48
BRANCH  37  50
ATOM     50  O   UNL     1      26.728  17.479  23.899  1.00  0.00    -0.508 OA
ATOM     51  H   UNL     1      25.773  17.583  23.570  1.00  0.00     0.293 HD
ENDBRANCH  37  50
ENDBRANCH  26  27
ENDBRANCH   5  26
BRANCH   4  52
ATOM     52  O   UNL     1      31.297  12.338  30.466  1.00  0.00    -0.384 OA
ATOM     53  H   UNL     1      32.081  12.115  29.888  1.00  0.00     0.211 HD
ENDBRANCH   4  52
TORSDOF 16
ENDMDL
MODEL 7
REMARK VINA RESULT:    -6.137      3.341      8.009
REMARK INTER + INTRA:         -13.061
REMARK INTER:                 -10.999
REMARK INTRA:                  -2.061
REMARK UNBOUND:                -2.978
REMARK SMILES C[C@H]1O[C@H](OC[C@@H]2O[C@H](Oc3c(-c4ccc(O)c(O)c4)oc4cc(O)cc(O)c4c3=O)[C@@H](O)[C@H](O)[C@@H]2O)[C@@H](O)[C@@H](O)[C@H]1O
REMARK SMILES IDX 7 1 36 2 34 3 32 4 9 5 8 6 6 7 5 8 4 9 1 10 2 11 42 12 3 13
REMARK SMILES IDX 40 14 38 15 43 16 41 18 39 20 37 22 35 24 10 26 11 27 12 28
REMARK SMILES IDX 30 29 21 30 29 31 31 32 22 33 27 34 23 35 26 36 24 37 13 38
REMARK SMILES IDX 20 39 14 40 18 41 15 42 16 43 19 44 17 46 28 48 25 50 33 52
REMARK H PARENT 43 17 41 19 39 21 37 23 35 25 19 45 17 47 28 49 25 51 33 53
REMARK Flexibility Score: inf
ROOT
ATOM      1  C   UNL     1      27.288  14.881  27.948  1.00  0.00     0.180 C 
ATOM      2  C   UNL     1      27.986  15.941  27.040  1.00  0.00     0.177 C 
ATOM      3  C   UNL     1      29.242  15.333  26.329  1.00  0.00     0.180 C 
ATOM      4  C   UNL     1      29.185  13.798  26.256  1.00  0.00     0.214 C 
ATOM      5  C   UNL     1      28.838  13.162  27.639  1.00  0.00     0.339 C 
ATOM      6  O   UNL     1      28.262  14.068  28.571  1.00  0.00    -0.332 OA
ENDROOT
BRANCH   1   7
ATOM      7  C   UNL     1      26.346  15.468  29.010  1.00  0.00     0.198 C 
BRANCH   7   8
ATOM      8  O   UNL     1      25.112  14.792  28.976  1.00  0.00    -0.347 OA
BRANCH   8   9
ATOM      9  C   UNL     1      25.211  13.454  29.431  1.00  0.00     0.281 C 
ATOM     10  C   UNL     1      22.864  13.879  32.230  1.00  0.00     0.041 C 
ATOM     11  C   UNL     1      23.320  13.758  30.780  1.00  0.00     0.150 C 
ATOM     12  C   UNL     1      22.450  12.770  29.981  1.00  0.00     0.174 C 
ATOM     13  O   UNL     1      24.684  13.370  30.749  1.00  0.00    -0.344 OA
ATOM     14  C   UNL     1      22.951  12.728  28.528  1.00  0.00     0.179 C 
ATOM     15  C   UNL     1      24.473  12.488  28.473  1.00  0.00     0.202 C 
BRANCH  12  16
ATOM     16  O   UNL     1      22.511  11.485  30.555  1.00  0.00    -0.388 OA
ATOM     17  H   UNL     1      23.407  11.377  30.947  1.00  0.00     0.211 HD
ENDBRANCH  12  16
BRANCH  14  18
ATOM     18  O   UNL     1      22.277  11.727  27.813  1.00  0.00    -0.387 OA
ATOM     19  H   UNL     1      22.964  11.199  27.333  1.00  0.00     0.211 HD
ENDBRANCH  14  18
BRANCH  15  20
ATOM     20  O   UNL     1      24.761  11.159  28.829  1.00  0.00    -0.385 OA
ATOM     21  H   UNL     1      25.262  11.197  29.680  1.00  0.00     0.211 HD
ENDBRANCH  15  20
ENDBRANCH   8   9
ENDBRANCH   7   8
ENDBRANCH   1   7
BRANCH   2  22
ATOM     22  O   UNL     1      28.303  17.121  27.733  1.00  0.00    -0.387 OA
ATOM     23  H   UNL     1      27.932  17.889  27.204  1.00  0.00     0.211 HD
ENDBRANCH   2  22
BRANCH   3  24
ATOM     24  O   UNL     1      30.426  15.716  26.966  1.00  0.00    -0.387 OA
ATOM     25  H   UNL     1      30.311  15.530  27.932  1.00  0.00     0.211 HD
ENDBRANCH   3  24
BRANCH   5  26
ATOM     26  O   UNL     1      29.974  12.512  28.221  1.00  0.00    -0.454 OA
BRANCH  26  27
ATOM     27  C   UNL     1      29.926  11.314  28.948  1.00  0.00     0.214 A 
ATOM     28  C   UNL     1      29.924  10.081  28.270  1.00  0.00     0.180 A 
ATOM     29  C   UNL     1      29.932  11.306  30.356  1.00  0.00     0.239 A 
ATOM     30  O   UNL     1      30.118   8.959  28.954  1.00  0.00    -0.452 OA
ATOM     31  C   UNL     1      30.119  10.087  31.053  1.00  0.00     0.111 A 
ATOM     32  O   UNL     1      29.787  12.393  30.969  1.00  0.00    -0.285 OA
ATOM     33  C   UNL     1      30.254   8.916  30.271  1.00  0.00     0.146 A 
ATOM     34  C   UNL     1      30.220   9.962  32.469  1.00  0.00     0.134 A 
ATOM     35  C   UNL     1      30.551   7.684  30.864  1.00  0.00     0.094 A 
ATOM     36  C   UNL     1      30.573   8.725  33.035  1.00  0.00     0.093 A 
ATOM     37  C   UNL     1      30.742   7.593  32.245  1.00  0.00     0.123 A 
BRANCH  28  38
ATOM     38  C   UNL     1      29.694   9.967  26.814  1.00  0.00     0.025 A 
ATOM     39  C   UNL     1      30.751  10.085  25.892  1.00  0.00     0.062 A 
ATOM     40  C   UNL     1      28.382   9.902  26.328  1.00  0.00     0.016 A 
ATOM     41  C   UNL     1      30.499  10.122  24.511  1.00  0.00     0.158 A 
ATOM     42  C   UNL     1      28.125   9.937  24.951  1.00  0.00     0.051 A 
ATOM     43  C   UNL     1      29.179  10.054  24.031  1.00  0.00     0.157 A 
BRANCH  41  44
ATOM     44  O   UNL     1      31.568  10.256  23.631  1.00  0.00    -0.504 OA
ATOM     45  H   UNL     1      31.972  11.162  23.412  1.00  0.00     0.293 HD
ENDBRANCH  41  44
BRANCH  43  46
ATOM     46  O   UNL     1      28.914  10.129  22.664  1.00  0.00    -0.504 OA
ATOM     47  H   UNL     1      29.004  10.997  22.146  1.00  0.00     0.293 HD
ENDBRANCH  43  46
ENDBRANCH  28  38
BRANCH  34  48
ATOM     48  O   UNL     1      29.988  11.019  33.345  1.00  0.00    -0.507 OA
ATOM     49  H   UNL     1      29.124  11.169  33.838  1.00  0.00     0.293 HD
ENDBRANCH  34  48
BRANCH  37  50
ATOM     50  O   UNL     1      31.079   6.384  32.844  1.00  0.00    -0.508 OA
ATOM     51  H   UNL     1      31.890   6.299  33.449  1.00  0.00     0.293 HD
ENDBRANCH  37  50
ENDBRANCH  26  27
ENDBRANCH   5  26
BRANCH   4  52
ATOM     52  O   UNL     1      28.228  13.428  25.300  1.00  0.00    -0.384 OA
ATOM     53  H   UNL     1      28.191  12.429  25.316  1.00  0.00     0.211 HD
ENDBRANCH   4  52
TORSDOF 16
ENDMDL
MODEL 8
REMARK VINA RESULT:    -6.125      4.150      8.727
REMARK INTER + INTRA:         -13.041
REMARK INTER:                 -10.742
REMARK INTRA:                  -2.299
REMARK UNBOUND:                -2.978
REMARK SMILES C[C@H]1O[C@H](OC[C@@H]2O[C@H](Oc3c(-c4ccc(O)c(O)c4)oc4cc(O)cc(O)c4c3=O)[C@@H](O)[C@H](O)[C@@H]2O)[C@@H](O)[C@@H](O)[C@H]1O
REMARK SMILES IDX 7 1 36 2 34 3 32 4 9 5 8 6 6 7 5 8 4 9 1 10 2 11 42 12 3 13
REMARK SMILES IDX 40 14 38 15 43 16 41 18 39 20 37 22 35 24 10 26 11 27 12 28
REMARK SMILES IDX 30 29 21 30 29 31 31 32 22 33 27 34 23 35 26 36 24 37 13 38
REMARK SMILES IDX 20 39 14 40 18 41 15 42 16 43 19 44 17 46 28 48 25 50 33 52
REMARK H PARENT 43 17 41 19 39 21 37 23 35 25 19 45 17 47 28 49 25 51 33 53
REMARK Flexibility Score: inf
ROOT
ATOM      1  C   UNL     1      28.796  10.850  29.622  1.00  0.00     0.180 C 
ATOM      2  C   UNL     1      29.894  11.501  30.520  1.00  0.00     0.177 C 
ATOM      3  C   UNL     1      29.252  12.352  31.667  1.00  0.00     0.180 C 
ATOM      4  C   UNL     1      27.802  11.933  31.961  1.00  0.00     0.214 C 
ATOM      5  C   UNL     1      26.948  11.834  30.657  1.00  0.00     0.339 C 
ATOM      6  O   UNL     1      27.715  11.746  29.462  1.00  0.00    -0.332 OA
ENDROOT
BRANCH   1   7
ATOM      7  C   UNL     1      29.290  10.383  28.244  1.00  0.00     0.198 C 
BRANCH   7   8
ATOM      8  O   UNL     1      29.009  11.370  27.280  1.00  0.00    -0.347 OA
BRANCH   8   9
ATOM      9  C   UNL     1      28.527  10.822  26.066  1.00  0.00     0.281 C 
ATOM     10  C   UNL     1      29.606  13.647  23.973  1.00  0.00     0.041 C 
ATOM     11  C   UNL     1      29.750  12.407  24.849  1.00  0.00     0.150 C 
ATOM     12  C   UNL     1      30.697  11.365  24.225  1.00  0.00     0.174 C 
ATOM     13  O   UNL     1      28.467  11.848  25.083  1.00  0.00    -0.344 OA
ATOM     14  C   UNL     1      30.814  10.164  25.178  1.00  0.00     0.179 C 
ATOM     15  C   UNL     1      29.422   9.650  25.594  1.00  0.00     0.202 C 
BRANCH  12  16
ATOM     16  O   UNL     1      30.211  10.947  22.970  1.00  0.00    -0.388 OA
ATOM     17  H   UNL     1      30.449   9.999  22.860  1.00  0.00     0.211 HD
ENDBRANCH  12  16
BRANCH  14  18
ATOM     18  O   UNL     1      31.548   9.135  24.570  1.00  0.00    -0.387 OA
ATOM     19  H   UNL     1      32.281   8.893  25.192  1.00  0.00     0.211 HD
ENDBRANCH  14  18
BRANCH  15  20
ATOM     20  O   UNL     1      28.810   8.995  24.512  1.00  0.00    -0.385 OA
ATOM     21  H   UNL     1      27.842   9.191  24.572  1.00  0.00     0.211 HD
ENDBRANCH  15  20
ENDBRANCH   8   9
ENDBRANCH   7   8
ENDBRANCH   1   7
BRANCH   2  22
ATOM     22  O   UNL     1      30.825  12.249  29.779  1.00  0.00    -0.387 OA
ATOM     23  H   UNL     1      31.202  12.950  30.390  1.00  0.00     0.211 HD
ENDBRANCH   2  22
BRANCH   3  24
ATOM     24  O   UNL     1      29.280  13.717  31.369  1.00  0.00    -0.387 OA
ATOM     25  H   UNL     1      30.026  13.863  30.735  1.00  0.00     0.211 HD
ENDBRANCH   3  24
BRANCH   5  26
ATOM     26  O   UNL     1      26.005  12.907  30.560  1.00  0.00    -0.454 OA
BRANCH  26  27
ATOM     27  C   UNL     1      24.812  12.861  29.824  1.00  0.00     0.214 A 
ATOM     28  C   UNL     1      24.746  13.468  28.556  1.00  0.00     0.180 A 
ATOM     29  C   UNL     1      23.680  12.173  30.299  1.00  0.00     0.239 A 
ATOM     30  O   UNL     1      23.705  13.221  27.767  1.00  0.00    -0.452 OA
ATOM     31  C   UNL     1      22.579  11.946  29.437  1.00  0.00     0.111 A 
ATOM     32  O   UNL     1      23.677  11.754  31.483  1.00  0.00    -0.285 OA
ATOM     33  C   UNL     1      22.672  12.475  28.127  1.00  0.00     0.146 A 
ATOM     34  C   UNL     1      21.414  11.200  29.776  1.00  0.00     0.134 A 
ATOM     35  C   UNL     1      21.685  12.209  27.172  1.00  0.00     0.094 A 
ATOM     36  C   UNL     1      20.464  10.903  28.784  1.00  0.00     0.093 A 
ATOM     37  C   UNL     1      20.594  11.396  27.491  1.00  0.00     0.123 A 
BRANCH  28  38
ATOM     38  C   UNL     1      25.782  14.396  28.056  1.00  0.00     0.025 A 
ATOM     39  C   UNL     1      26.034  15.627  28.691  1.00  0.00     0.062 A 
ATOM     40  C   UNL     1      26.416  14.126  26.836  1.00  0.00     0.016 A 
ATOM     41  C   UNL     1      26.914  16.562  28.122  1.00  0.00     0.158 A 
ATOM     42  C   UNL     1      27.297  15.055  26.266  1.00  0.00     0.051 A 
ATOM     43  C   UNL     1      27.549  16.282  26.900  1.00  0.00     0.157 A 
BRANCH  41  44
ATOM     44  O   UNL     1      27.124  17.775  28.771  1.00  0.00    -0.504 OA
ATOM     45  H   UNL     1      26.378  18.451  28.897  1.00  0.00     0.293 HD
ENDBRANCH  41  44
BRANCH  43  46
ATOM     46  O   UNL     1      28.394  17.219  26.306  1.00  0.00    -0.504 OA
ATOM     47  H   UNL     1      28.169  17.662  25.422  1.00  0.00     0.293 HD
ENDBRANCH  43  46
ENDBRANCH  28  38
BRANCH  34  48
ATOM     48  O   UNL     1      21.157  10.734  31.063  1.00  0.00    -0.507 OA
ATOM     49  H   UNL     1      20.690   9.867  31.271  1.00  0.00     0.293 HD
ENDBRANCH  34  48
BRANCH  37  50
ATOM     50  O   UNL     1      19.627  11.090  26.540  1.00  0.00    -0.508 OA
ATOM     51  H   UNL     1      18.873  10.439  26.740  1.00  0.00     0.293 HD
ENDBRANCH  37  50
ENDBRANCH  26  27
ENDBRANCH   5  26
BRANCH   4  52
ATOM     52  O   UNL     1      27.814  10.698  32.625  1.00  0.00    -0.384 OA
ATOM     53  H   UNL     1      26.914  10.600  33.048  1.00  0.00     0.211 HD
ENDBRANCH   4  52
TORSDOF 16
ENDMDL
MODEL 9
REMARK VINA RESULT:    -5.929      4.120      9.577
REMARK INTER + INTRA:         -12.720
REMARK INTER:                 -10.084
REMARK INTRA:                  -2.636
REMARK UNBOUND:                -2.978
REMARK SMILES C[C@H]1O[C@H](OC[C@@H]2O[C@H](Oc3c(-c4ccc(O)c(O)c4)oc4cc(O)cc(O)c4c3=O)[C@@H](O)[C@H](O)[C@@H]2O)[C@@H](O)[C@@H](O)[C@H]1O
REMARK SMILES IDX 7 1 36 2 34 3 32 4 9 5 8 6 6 7 5 8 4 9 1 10 2 11 42 12 3 13
REMARK SMILES IDX 40 14 38 15 43 16 41 18 39 20 37 22 35 24 10 26 11 27 12 28
REMARK SMILES IDX 30 29 21 30 29 31 31 32 22 33 27 34 23 35 26 36 24 37 13 38
REMARK SMILES IDX 20 39 14 40 18 41 15 42 16 43 19 44 17 46 28 48 25 50 33 52
REMARK H PARENT 43 17 41 19 39 21 37 23 35 25 19 45 17 47 28 49 25 51 33 53
REMARK Flexibility Score: inf
ROOT
ATOM      1  C   UNL     1      28.203  13.992  25.390  1.00  0.00     0.180 C 
ATOM      2  C   UNL     1      27.748  15.259  24.600  1.00  0.00     0.177 C 
ATOM      3  C   UNL     1      27.259  16.383  25.575  1.00  0.00     0.180 C 
ATOM      4  C   UNL     1      27.818  16.206  26.996  1.00  0.00     0.214 C 
ATOM      5  C   UNL     1      27.623  14.748  27.521  1.00  0.00     0.339 C 
ATOM      6  O   UNL     1      27.358  13.791  26.504  1.00  0.00    -0.332 OA
ENDROOT
BRANCH   1   7
ATOM      7  C   UNL     1      28.271  12.706  24.552  1.00  0.00     0.198 C 
BRANCH   7   8
ATOM      8  O   UNL     1      28.669  11.629  25.367  1.00  0.00    -0.347 OA
BRANCH   8   9
ATOM      9  C   UNL     1      30.076  11.477  25.419  1.00  0.00     0.281 C 
ATOM     10  C   UNL     1      30.005   7.815  25.743  1.00  0.00     0.041 C 
ATOM     11  C   UNL     1      29.854   9.172  25.065  1.00  0.00     0.150 C 
ATOM     12  C   UNL     1      30.529   9.204  23.681  1.00  0.00     0.174 C 
ATOM     13  O   UNL     1      30.386  10.180  25.910  1.00  0.00    -0.344 OA
ATOM     14  C   UNL     1      30.307  10.589  23.051  1.00  0.00     0.179 C 
ATOM     15  C   UNL     1      30.710  11.713  24.026  1.00  0.00     0.202 C 
BRANCH  12  16
ATOM     16  O   UNL     1      31.907   8.937  23.799  1.00  0.00    -0.388 OA
ATOM     17  H   UNL     1      32.094   8.110  23.298  1.00  0.00     0.211 HD
ENDBRANCH  12  16
BRANCH  14  18
ATOM     18  O   UNL     1      31.036  10.699  21.858  1.00  0.00    -0.387 OA
ATOM     19  H   UNL     1      31.378   9.795  21.640  1.00  0.00     0.211 HD
ENDBRANCH  14  18
BRANCH  15  20
ATOM     20  O   UNL     1      32.109  11.763  24.147  1.00  0.00    -0.385 OA
ATOM     21  H   UNL     1      32.305  12.345  24.922  1.00  0.00     0.211 HD
ENDBRANCH  15  20
ENDBRANCH   8   9
ENDBRANCH   7   8
ENDBRANCH   1   7
BRANCH   2  22
ATOM     22  O   UNL     1      26.784  14.968  23.620  1.00  0.00    -0.387 OA
ATOM     23  H   UNL     1      26.936  15.596  22.853  1.00  0.00     0.211 HD
ENDBRANCH   2  22
BRANCH   3  24
ATOM     24  O   UNL     1      25.864  16.435  25.637  1.00  0.00    -0.387 OA
ATOM     25  H   UNL     1      25.578  15.796  26.337  1.00  0.00     0.211 HD
ENDBRANCH   3  24
BRANCH   5  26
ATOM     26  O   UNL     1      26.615  14.682  28.536  1.00  0.00    -0.454 OA
BRANCH  26  27
ATOM     27  C   UNL     1      25.568  13.750  28.565  1.00  0.00     0.214 A 
ATOM     28  C   UNL     1      25.733  12.531  29.249  1.00  0.00     0.180 A 
ATOM     29  C   UNL     1      24.323  14.021  27.968  1.00  0.00     0.239 A 
ATOM     30  O   UNL     1      24.674  11.761  29.477  1.00  0.00    -0.452 OA
ATOM     31  C   UNL     1      23.220  13.167  28.216  1.00  0.00     0.111 A 
ATOM     32  O   UNL     1      24.210  15.035  27.235  1.00  0.00    -0.285 OA
ATOM     33  C   UNL     1      23.456  12.041  29.039  1.00  0.00     0.146 A 
ATOM     34  C   UNL     1      21.897  13.378  27.732  1.00  0.00     0.134 A 
ATOM     35  C   UNL     1      22.406  11.202  29.429  1.00  0.00     0.094 A 
ATOM     36  C   UNL     1      20.852  12.552  28.182  1.00  0.00     0.093 A 
ATOM     37  C   UNL     1      21.097  11.475  29.025  1.00  0.00     0.123 A 
BRANCH  28  38
ATOM     38  C   UNL     1      27.049  12.045  29.717  1.00  0.00     0.025 A 
ATOM     39  C   UNL     1      27.863  11.232  28.906  1.00  0.00     0.062 A 
ATOM     40  C   UNL     1      27.427  12.261  31.048  1.00  0.00     0.016 A 
ATOM     41  C   UNL     1      29.039  10.658  29.415  1.00  0.00     0.158 A 
ATOM     42  C   UNL     1      28.601  11.692  31.560  1.00  0.00     0.051 A 
ATOM     43  C   UNL     1      29.413  10.881  30.751  1.00  0.00     0.157 A 
BRANCH  41  44
ATOM     44  O   UNL     1      29.809   9.846  28.588  1.00  0.00    -0.504 OA
ATOM     45  H   UNL     1      30.783   9.644  28.791  1.00  0.00     0.293 HD
ENDBRANCH  41  44
BRANCH  43  46
ATOM     46  O   UNL     1      30.558  10.285  31.279  1.00  0.00    -0.504 OA
ATOM     47  H   UNL     1      30.510   9.574  32.001  1.00  0.00     0.293 HD
ENDBRANCH  43  46
ENDBRANCH  28  38
BRANCH  34  48
ATOM     48  O   UNL     1      21.570  14.379  26.823  1.00  0.00    -0.507 OA
ATOM     49  H   UNL     1      20.631  14.686  26.628  1.00  0.00     0.293 HD
ENDBRANCH  34  48
BRANCH  37  50
ATOM     50  O   UNL     1      20.037  10.674  29.439  1.00  0.00    -0.508 OA
ATOM     51  H   UNL     1      20.193   9.775  29.886  1.00  0.00     0.293 HD
ENDBRANCH  37  50
ENDBRANCH  26  27
ENDBRANCH   5  26
BRANCH   4  52
ATOM     52  O   UNL     1      29.180  16.539  26.990  1.00  0.00    -0.384 OA
ATOM     53  H   UNL     1      29.610  15.969  27.690  1.00  0.00     0.211 HD
ENDBRANCH   4  52
TORSDOF 16
ENDMDL
