MODEL 1
REMARK VINA RESULT:    -3.471      0.000      0.000
REMARK INTER + INTRA:          -5.681
REMARK INTER:                  -4.790
REMARK INTRA:                  -0.891
REMARK UNBOUND:                -0.891
REMARK SMILES OC[C@@H](O)[C@H](O)[C@@H](O)CO
REMARK SMILES IDX 5 1 7 2 9 3 10 4 8 6 3 8 2 9 1 10 4 12 6 14
REMARK H PARENT 10 5 8 7 1 11 4 13 6 15
REMARK Flexibility Score: inf
ROOT
ATOM      1  C   UNL     1     176.779 163.788 179.145  1.00  0.00     0.176 C 
ENDROOT
BRANCH   1   2
ATOM      2  C   UNL     1     177.573 163.762 180.475  1.00  0.00     0.171 C 
BRANCH   2   3
ATOM      3  C   UNL     1     177.659 165.173 181.084  1.00  0.00     0.190 C 
BRANCH   3   4
ATOM      4  O   UNL     1     178.848 165.807 180.697  1.00  0.00    -0.394 OA
ATOM      5  H   UNL     1     179.592 165.270 181.075  1.00  0.00     0.210 HD
ENDBRANCH   3   4
ENDBRANCH   2   3
BRANCH   2   6
ATOM      6  O   UNL     1     178.873 163.275 180.247  1.00  0.00    -0.388 OA
ATOM      7  H   UNL     1     178.794 162.296 180.096  1.00  0.00     0.211 HD
ENDBRANCH   2   6
ENDBRANCH   1   2
BRANCH   1   8
ATOM      8  C   UNL     1     176.625 162.393 178.484  1.00  0.00     0.171 C 
BRANCH   8   9
ATOM      9  C   UNL     1     177.568 162.176 177.289  1.00  0.00     0.190 C 
BRANCH   9  10
ATOM     10  O   UNL     1     178.896 162.151 177.736  1.00  0.00    -0.394 OA
ATOM     11  H   UNL     1     178.864 162.364 178.706  1.00  0.00     0.210 HD
ENDBRANCH   9  10
ENDBRANCH   8   9
BRANCH   8  12
ATOM     12  O   UNL     1     176.832 161.392 179.448  1.00  0.00    -0.388 OA
ATOM     13  H   UNL     1     177.544 160.795 179.099  1.00  0.00     0.211 HD
ENDBRANCH   8  12
ENDBRANCH   1   8
BRANCH   1  14
ATOM     14  O   UNL     1     177.383 164.690 178.251  1.00  0.00    -0.388 OA
ATOM     15  H   UNL     1     177.506 164.208 177.392  1.00  0.00     0.211 HD
ENDBRANCH   1  14
TORSDOF 9
ENDMDL
MODEL 2
REMARK VINA RESULT:    -3.461     10.876     12.145
REMARK INTER + INTRA:          -5.667
REMARK INTER:                  -4.783
REMARK INTRA:                  -0.885
REMARK UNBOUND:                -0.891
REMARK SMILES OC[C@@H](O)[C@H](O)[C@@H](O)CO
REMARK SMILES IDX 5 1 7 2 9 3 10 4 8 6 3 8 2 9 1 10 4 12 6 14
REMARK H PARENT 10 5 8 7 1 11 4 13 6 15
REMARK Flexibility Score: inf
ROOT
ATOM      1  C   UNL     1     177.135 174.661 179.129  1.00  0.00     0.176 C 
ENDROOT
BRANCH   1   2
ATOM      2  C   UNL     1     177.369 175.400 180.470  1.00  0.00     0.171 C 
BRANCH   2   3
ATOM      3  C   UNL     1     176.042 175.943 181.029  1.00  0.00     0.190 C 
BRANCH   3   4
ATOM      4  O   UNL     1     175.869 177.288 180.671  1.00  0.00    -0.394 OA
ATOM      5  H   UNL     1     176.715 177.754 180.899  1.00  0.00     0.210 HD
ENDBRANCH   3   4
ENDBRANCH   2   3
BRANCH   2   6
ATOM      6  O   UNL     1     178.264 176.467 180.278  1.00  0.00    -0.388 OA
ATOM      7  H   UNL     1     178.954 176.399 180.990  1.00  0.00     0.211 HD
ENDBRANCH   2   6
ENDBRANCH   1   2
BRANCH   1   8
ATOM      8  C   UNL     1     178.435 174.113 178.484  1.00  0.00     0.171 C 
BRANCH   8   9
ATOM      9  C   UNL     1     178.932 174.958 177.299  1.00  0.00     0.190 C 
BRANCH   9  10
ATOM     10  O   UNL     1     179.405 176.191 177.767  1.00  0.00    -0.394 OA
ATOM     11  H   UNL     1     179.054 176.877 177.140  1.00  0.00     0.210 HD
ENDBRANCH   9  10
ENDBRANCH   8   9
BRANCH   8  12
ATOM     12  O   UNL     1     179.440 174.018 179.462  1.00  0.00    -0.388 OA
ATOM     13  H   UNL     1     179.090 173.433 180.183  1.00  0.00     0.211 HD
ENDBRANCH   8  12
ENDBRANCH   1   8
BRANCH   1  14
ATOM     14  O   UNL     1     176.463 175.510 178.231  1.00  0.00    -0.388 OA
ATOM     15  H   UNL     1     175.813 174.949 177.733  1.00  0.00     0.211 HD
ENDBRANCH   1  14
TORSDOF 9
ENDMDL
MODEL 3
REMARK VINA RESULT:    -3.338     15.564     16.620
REMARK INTER + INTRA:          -5.498
REMARK INTER:                  -4.522
REMARK INTRA:                  -0.976
REMARK UNBOUND:                -0.891
REMARK SMILES OC[C@@H](O)[C@H](O)[C@@H](O)CO
REMARK SMILES IDX 5 1 7 2 9 3 10 4 8 6 3 8 2 9 1 10 4 12 6 14
REMARK H PARENT 10 5 8 7 1 11 4 13 6 15
REMARK Flexibility Score: inf
ROOT
ATOM      1  C   UNL     1     178.944 176.699 170.306  1.00  0.00     0.176 C 
ENDROOT
BRANCH   1   2
ATOM      2  C   UNL     1     180.076 176.679 169.249  1.00  0.00     0.171 C 
BRANCH   2   3
ATOM      3  C   UNL     1     179.995 177.920 168.343  1.00  0.00     0.190 C 
BRANCH   3   4
ATOM      4  O   UNL     1     178.953 177.787 167.415  1.00  0.00    -0.394 OA
ATOM      5  H   UNL     1     178.130 178.114 167.862  1.00  0.00     0.210 HD
ENDBRANCH   3   4
ENDBRANCH   2   3
BRANCH   2   6
ATOM      6  O   UNL     1     179.973 175.519 168.459  1.00  0.00    -0.388 OA
ATOM      7  H   UNL     1     179.276 175.696 167.774  1.00  0.00     0.211 HD
ENDBRANCH   2   6
ENDBRANCH   1   2
BRANCH   1   8
ATOM      8  C   UNL     1     177.841 175.636 170.058  1.00  0.00     0.171 C 
BRANCH   8   9
ATOM      9  C   UNL     1     176.966 175.364 171.293  1.00  0.00     0.190 C 
BRANCH   9  10
ATOM     10  O   UNL     1     176.149 176.475 171.543  1.00  0.00    -0.394 OA
ATOM     11  H   UNL     1     176.763 177.233 171.727  1.00  0.00     0.210 HD
ENDBRANCH   9  10
ENDBRANCH   8   9
BRANCH   8  12
ATOM     12  O   UNL     1     177.037 176.037 168.978  1.00  0.00    -0.388 OA
ATOM     13  H   UNL     1     177.411 176.893 168.639  1.00  0.00     0.211 HD
ENDBRANCH   8  12
ENDBRANCH   1   8
BRANCH   1  14
ATOM     14  O   UNL     1     178.379 177.985 170.370  1.00  0.00    -0.388 OA
ATOM     15  H   UNL     1     178.435 178.280 171.316  1.00  0.00     0.211 HD
ENDBRANCH   1  14
TORSDOF 9
ENDMDL
MODEL 4
REMARK VINA RESULT:    -3.337     15.109     16.127
REMARK INTER + INTRA:          -5.496
REMARK INTER:                  -4.543
REMARK INTRA:                  -0.953
REMARK UNBOUND:                -0.891
REMARK SMILES OC[C@@H](O)[C@H](O)[C@@H](O)CO
REMARK SMILES IDX 5 1 7 2 9 3 10 4 8 6 3 8 2 9 1 10 4 12 6 14
REMARK H PARENT 10 5 8 7 1 11 4 13 6 15
REMARK Flexibility Score: inf
ROOT
ATOM      1  C   UNL     1     177.979 175.798 169.550  1.00  0.00     0.176 C 
ENDROOT
BRANCH   1   2
ATOM      2  C   UNL     1     177.813 175.077 170.910  1.00  0.00     0.171 C 
BRANCH   2   3
ATOM      3  C   UNL     1     176.358 175.174 171.401  1.00  0.00     0.190 C 
BRANCH   3   4
ATOM      4  O   UNL     1     176.064 176.480 171.820  1.00  0.00    -0.394 OA
ATOM      5  H   UNL     1     175.078 176.531 171.921  1.00  0.00     0.210 HD
ENDBRANCH   3   4
ENDBRANCH   2   3
BRANCH   2   6
ATOM      6  O   UNL     1     178.666 175.656 171.866  1.00  0.00    -0.388 OA
ATOM      7  H   UNL     1     178.097 175.940 172.630  1.00  0.00     0.211 HD
ENDBRANCH   2   6
ENDBRANCH   1   2
BRANCH   1   8
ATOM      8  C   UNL     1     178.906 177.041 169.612  1.00  0.00     0.171 C 
BRANCH   8   9
ATOM      9  C   UNL     1     179.258 177.611 168.228  1.00  0.00     0.190 C 
BRANCH   9  10
ATOM     10  O   UNL     1     178.722 176.786 167.230  1.00  0.00    -0.394 OA
ATOM     11  H   UNL     1     179.380 176.789 166.487  1.00  0.00     0.210 HD
ENDBRANCH   9  10
ENDBRANCH   8   9
BRANCH   8  12
ATOM     12  O   UNL     1     178.304 178.035 170.402  1.00  0.00    -0.388 OA
ATOM     13  H   UNL     1     178.101 178.801 169.803  1.00  0.00     0.211 HD
ENDBRANCH   8  12
ENDBRANCH   1   8
BRANCH   1  14
ATOM     14  O   UNL     1     176.716 176.154 169.044  1.00  0.00    -0.388 OA
ATOM     15  H   UNL     1     176.137 176.354 169.826  1.00  0.00     0.211 HD
ENDBRANCH   1  14
TORSDOF 9
ENDMDL
MODEL 5
REMARK VINA RESULT:    -3.315     18.856     19.986
REMARK INTER + INTRA:          -5.466
REMARK INTER:                  -4.552
REMARK INTRA:                  -0.914
REMARK UNBOUND:                -0.891
REMARK SMILES OC[C@@H](O)[C@H](O)[C@@H](O)CO
REMARK SMILES IDX 5 1 7 2 9 3 10 4 8 6 3 8 2 9 1 10 4 12 6 14
REMARK H PARENT 10 5 8 7 1 11 4 13 6 15
REMARK Flexibility Score: inf
ROOT
ATOM      1  C   UNL     1     163.638 176.161 180.438  1.00  0.00     0.176 C 
ENDROOT
BRANCH   1   2
ATOM      2  C   UNL     1     162.311 176.518 181.153  1.00  0.00     0.171 C 
BRANCH   2   3
ATOM      3  C   UNL     1     161.104 176.027 180.334  1.00  0.00     0.190 C 
BRANCH   3   4
ATOM      4  O   UNL     1     160.987 176.757 179.142  1.00  0.00    -0.394 OA
ATOM      5  H   UNL     1     161.909 176.897 178.803  1.00  0.00     0.210 HD
ENDBRANCH   3   4
ENDBRANCH   2   3
BRANCH   2   6
ATOM      6  O   UNL     1     162.220 177.910 181.326  1.00  0.00    -0.388 OA
ATOM      7  H   UNL     1     161.281 178.111 181.581  1.00  0.00     0.211 HD
ENDBRANCH   2   6
ENDBRANCH   1   2
BRANCH   1   8
ATOM      8  C   UNL     1     164.904 176.499 181.268  1.00  0.00     0.171 C 
BRANCH   8   9
ATOM      9  C   UNL     1     165.780 177.591 180.630  1.00  0.00     0.190 C 
BRANCH   9  10
ATOM     10  O   UNL     1     165.081 178.805 180.616  1.00  0.00    -0.394 OA
ATOM     11  H   UNL     1     164.564 178.835 181.463  1.00  0.00     0.210 HD
ENDBRANCH   9  10
ENDBRANCH   8   9
BRANCH   8  12
ATOM     12  O   UNL     1     164.525 176.885 182.565  1.00  0.00    -0.388 OA
ATOM     13  H   UNL     1     165.327 176.793 183.143  1.00  0.00     0.211 HD
ENDBRANCH   8  12
ENDBRANCH   1   8
BRANCH   1  14
ATOM     14  O   UNL     1     163.688 176.800 179.186  1.00  0.00    -0.388 OA
ATOM     15  H   UNL     1     164.504 176.472 178.725  1.00  0.00     0.211 HD
ENDBRANCH   1  14
TORSDOF 9
ENDMDL
MODEL 6
REMARK VINA RESULT:    -3.288      1.071      3.700
REMARK INTER + INTRA:          -5.428
REMARK INTER:                  -4.524
REMARK INTRA:                  -0.904
REMARK UNBOUND:                -0.891
REMARK SMILES OC[C@@H](O)[C@H](O)[C@@H](O)CO
REMARK SMILES IDX 5 1 7 2 9 3 10 4 8 6 3 8 2 9 1 10 4 12 6 14
REMARK H PARENT 10 5 8 7 1 11 4 13 6 15
REMARK Flexibility Score: inf
ROOT
ATOM      1  C   UNL     1     176.582 162.807 179.460  1.00  0.00     0.176 C 
ENDROOT
BRANCH   1   2
ATOM      2  C   UNL     1     176.791 163.159 177.966  1.00  0.00     0.171 C 
BRANCH   2   3
ATOM      3  C   UNL     1     177.636 162.079 177.267  1.00  0.00     0.190 C 
BRANCH   3   4
ATOM      4  O   UNL     1     178.970 162.144 177.693  1.00  0.00    -0.394 OA
ATOM      5  H   UNL     1     179.110 163.058 178.053  1.00  0.00     0.210 HD
ENDBRANCH   3   4
ENDBRANCH   2   3
BRANCH   2   6
ATOM      6  O   UNL     1     177.440 164.402 177.854  1.00  0.00    -0.388 OA
ATOM      7  H   UNL     1     177.378 164.843 178.742  1.00  0.00     0.211 HD
ENDBRANCH   2   6
ENDBRANCH   1   2
BRANCH   1   8
ATOM      8  C   UNL     1     177.469 163.635 180.426  1.00  0.00     0.171 C 
BRANCH   8   9
ATOM      9  C   UNL     1     177.143 163.398 181.910  1.00  0.00     0.190 C 
BRANCH   9  10
ATOM     10  O   UNL     1     177.764 162.219 182.345  1.00  0.00    -0.394 OA
ATOM     11  H   UNL     1     178.691 162.471 182.594  1.00  0.00     0.210 HD
ENDBRANCH   9  10
ENDBRANCH   8   9
BRANCH   8  12
ATOM     12  O   UNL     1     178.823 163.350 180.180  1.00  0.00    -0.388 OA
ATOM     13  H   UNL     1     179.089 163.872 179.378  1.00  0.00     0.211 HD
ENDBRANCH   8  12
ENDBRANCH   1   8
BRANCH   1  14
ATOM     14  O   UNL     1     176.796 161.431 179.657  1.00  0.00    -0.388 OA
ATOM     15  H   UNL     1     176.399 160.961 178.877  1.00  0.00     0.211 HD
ENDBRANCH   1  14
TORSDOF 9
ENDMDL
MODEL 7
REMARK VINA RESULT:    -3.273     10.817     12.177
REMARK INTER + INTRA:          -5.407
REMARK INTER:                  -4.495
REMARK INTRA:                  -0.912
REMARK UNBOUND:                -0.891
REMARK SMILES OC[C@@H](O)[C@H](O)[C@@H](O)CO
REMARK SMILES IDX 5 1 7 2 9 3 10 4 8 6 3 8 2 9 1 10 4 12 6 14
REMARK H PARENT 10 5 8 7 1 11 4 13 6 15
REMARK Flexibility Score: inf
ROOT
ATOM      1  C   UNL     1     178.050 174.146 179.684  1.00  0.00     0.176 C 
ENDROOT
BRANCH   1   2
ATOM      2  C   UNL     1     177.764 174.418 178.187  1.00  0.00     0.171 C 
BRANCH   2   3
ATOM      3  C   UNL     1     179.054 174.824 177.453  1.00  0.00     0.190 C 
BRANCH   3   4
ATOM      4  O   UNL     1     179.425 176.132 177.794  1.00  0.00    -0.394 OA
ATOM      5  H   UNL     1     180.021 176.457 177.069  1.00  0.00     0.210 HD
ENDBRANCH   3   4
ENDBRANCH   2   3
BRANCH   2   6
ATOM      6  O   UNL     1     176.813 175.447 178.060  1.00  0.00    -0.388 OA
ATOM      7  H   UNL     1     176.151 175.149 177.382  1.00  0.00     0.211 HD
ENDBRANCH   2   6
ENDBRANCH   1   2
BRANCH   1   8
ATOM      8  C   UNL     1     177.564 175.278 180.627  1.00  0.00     0.171 C 
BRANCH   8   9
ATOM      9  C   UNL     1     177.761 174.958 182.119  1.00  0.00     0.190 C 
BRANCH   9  10
ATOM     10  O   UNL     1     179.083 175.235 182.488  1.00  0.00    -0.394 OA
ATOM     11  H   UNL     1     179.228 176.198 182.293  1.00  0.00     0.210 HD
ENDBRANCH   9  10
ENDBRANCH   8   9
BRANCH   8  12
ATOM     12  O   UNL     1     178.224 176.475 180.301  1.00  0.00    -0.388 OA
ATOM     13  H   UNL     1     179.176 176.246 180.133  1.00  0.00     0.211 HD
ENDBRANCH   8  12
ENDBRANCH   1   8
BRANCH   1  14
ATOM     14  O   UNL     1     179.423 173.910 179.870  1.00  0.00    -0.388 OA
ATOM     15  H   UNL     1     179.690 174.384 180.700  1.00  0.00     0.211 HD
ENDBRANCH   1  14
TORSDOF 9
ENDMDL
MODEL 8
REMARK VINA RESULT:    -3.247      1.082      2.022
REMARK INTER + INTRA:          -5.371
REMARK INTER:                  -4.504
REMARK INTRA:                  -0.867
REMARK UNBOUND:                -0.891
REMARK SMILES OC[C@@H](O)[C@H](O)[C@@H](O)CO
REMARK SMILES IDX 5 1 7 2 9 3 10 4 8 6 3 8 2 9 1 10 4 12 6 14
REMARK H PARENT 10 5 8 7 1 11 4 13 6 15
REMARK Flexibility Score: inf
ROOT
ATOM      1  C   UNL     1     176.618 163.493 178.412  1.00  0.00     0.176 C 
ENDROOT
BRANCH   1   2
ATOM      2  C   UNL     1     176.453 162.820 179.796  1.00  0.00     0.171 C 
BRANCH   2   3
ATOM      3  C   UNL     1     177.363 163.492 180.839  1.00  0.00     0.190 C 
BRANCH   3   4
ATOM      4  O   UNL     1     178.709 163.393 180.457  1.00  0.00    -0.394 OA
ATOM      5  H   UNL     1     178.722 162.919 179.585  1.00  0.00     0.210 HD
ENDBRANCH   3   4
ENDBRANCH   2   3
BRANCH   2   6
ATOM      6  O   UNL     1     176.778 161.455 179.707  1.00  0.00    -0.388 OA
ATOM      7  H   UNL     1     176.316 160.996 180.457  1.00  0.00     0.211 HD
ENDBRANCH   2   6
ENDBRANCH   1   2
BRANCH   1   8
ATOM      8  C   UNL     1     177.406 162.631 177.390  1.00  0.00     0.171 C 
BRANCH   8   9
ATOM      9  C   UNL     1     177.437 163.236 175.976  1.00  0.00     0.190 C 
BRANCH   9  10
ATOM     10  O   UNL     1     178.178 164.425 175.990  1.00  0.00    -0.394 OA
ATOM     11  H   UNL     1     179.133 164.155 175.962  1.00  0.00     0.210 HD
ENDBRANCH   9  10
ENDBRANCH   8   9
BRANCH   8  12
ATOM     12  O   UNL     1     178.716 162.431 177.856  1.00  0.00    -0.388 OA
ATOM     13  H   UNL     1     179.277 162.218 177.065  1.00  0.00     0.211 HD
ENDBRANCH   8  12
ENDBRANCH   1   8
BRANCH   1  14
ATOM     14  O   UNL     1     177.230 164.750 178.566  1.00  0.00    -0.388 OA
ATOM     15  H   UNL     1     178.137 164.682 178.168  1.00  0.00     0.211 HD
ENDBRANCH   1  14
TORSDOF 9
ENDMDL
MODEL 9
REMARK VINA RESULT:    -3.226     12.318     13.469
REMARK INTER + INTRA:          -5.343
REMARK INTER:                  -4.399
REMARK INTRA:                  -0.944
REMARK UNBOUND:                -0.891
REMARK SMILES OC[C@@H](O)[C@H](O)[C@@H](O)CO
REMARK SMILES IDX 5 1 7 2 9 3 10 4 8 6 3 8 2 9 1 10 4 12 6 14
REMARK H PARENT 10 5 8 7 1 11 4 13 6 15
REMARK Flexibility Score: inf
ROOT
ATOM      1  C   UNL     1     175.168 175.699 180.230  1.00  0.00     0.176 C 
ENDROOT
BRANCH   1   2
ATOM      2  C   UNL     1     174.644 177.005 180.878  1.00  0.00     0.171 C 
BRANCH   2   3
ATOM      3  C   UNL     1     173.498 177.603 180.043  1.00  0.00     0.190 C 
BRANCH   3   4
ATOM      4  O   UNL     1     173.995 178.526 179.111  1.00  0.00    -0.394 OA
ATOM      5  H   UNL     1     174.897 178.793 179.429  1.00  0.00     0.210 HD
ENDBRANCH   3   4
ENDBRANCH   2   3
BRANCH   2   6
ATOM      6  O   UNL     1     175.688 177.943 180.975  1.00  0.00    -0.388 OA
ATOM      7  H   UNL     1     175.932 178.202 180.047  1.00  0.00     0.211 HD
ENDBRANCH   2   6
ENDBRANCH   1   2
BRANCH   1   8
ATOM      8  C   UNL     1     176.363 175.063 180.988  1.00  0.00     0.171 C 
BRANCH   8   9
ATOM      9  C   UNL     1     177.691 175.148 180.218  1.00  0.00     0.190 C 
BRANCH   9  10
ATOM     10  O   UNL     1     178.151 176.471 180.220  1.00  0.00    -0.394 OA
ATOM     11  H   UNL     1     177.356 177.040 180.396  1.00  0.00     0.210 HD
ENDBRANCH   9  10
ENDBRANCH   8   9
BRANCH   8  12
ATOM     12  O   UNL     1     176.497 175.673 182.247  1.00  0.00    -0.388 OA
ATOM     13  H   UNL     1     176.975 175.029 182.833  1.00  0.00     0.211 HD
ENDBRANCH   8  12
ENDBRANCH   1   8
BRANCH   1  14
ATOM     14  O   UNL     1     175.512 175.941 178.888  1.00  0.00    -0.388 OA
ATOM     15  H   UNL     1     175.143 175.190 178.354  1.00  0.00     0.211 HD
ENDBRANCH   1  14
TORSDOF 9
ENDMDL
