MODEL 1
REMARK VINA RESULT:    -3.119      0.000      0.000
REMARK INTER + INTRA:          -4.211
REMARK INTER:                  -4.030
REMARK INTRA:                  -0.180
REMARK UNBOUND:                -0.180
REMARK SMILES CCCCCCC(=O)[O-]
REMARK SMILES IDX 5 1 6 2 7 3 8 4 9 5 4 6 3 7 2 8 1 9
REMARK H PARENT
REMARK Flexibility Score: inf
ROOT
ATOM      1  C   UNL     1      14.047   2.627  -2.938  1.00  0.00     0.006 C 
ENDROOT
BRANCH   1   2
ATOM      2  C   UNL     1      15.233   2.747  -1.976  1.00  0.00     0.053 C 
BRANCH   2   3
ATOM      3  C   UNL     1      16.238   1.674  -2.246  1.00  0.00     0.041 C 
ATOM      4  O   UNL     1      15.864   0.544  -2.659  1.00  0.00    -0.550 OA
ATOM      5  O   UNL     1      17.593   1.935  -2.090  1.00  0.00    -0.550 OA
ENDBRANCH   2   3
ENDBRANCH   1   2
BRANCH   1   6
ATOM      6  C   UNL     1      12.878   3.515  -2.484  1.00  0.00     0.000 C 
BRANCH   6   7
ATOM      7  C   UNL     1      13.223   4.381  -1.260  1.00  0.00    -0.000 C 
BRANCH   7   8
ATOM      8  C   UNL     1      12.010   4.999  -0.541  1.00  0.00    -0.003 C 
ATOM      9  C   UNL     1      10.722   4.912  -1.359  1.00  0.00     0.004 C 
ENDBRANCH   7   8
ENDBRANCH   6   7
ENDBRANCH   1   6
TORSDOF 5
ENDMDL
MODEL 2
REMARK VINA RESULT:    -3.099      0.164      1.088
REMARK INTER + INTRA:          -4.185
REMARK INTER:                  -4.002
REMARK INTRA:                  -0.183
REMARK UNBOUND:                -0.180
REMARK SMILES CCCCCCC(=O)[O-]
REMARK SMILES IDX 5 1 6 2 7 3 8 4 9 5 4 6 3 7 2 8 1 9
REMARK H PARENT
REMARK Flexibility Score: inf
ROOT
ATOM      1  C   UNL     1      13.928   2.545  -2.705  1.00  0.00     0.006 C 
ENDROOT
BRANCH   1   2
ATOM      2  C   UNL     1      15.185   2.732  -1.850  1.00  0.00     0.053 C 
BRANCH   2   3
ATOM      3  C   UNL     1      16.243   1.756  -2.253  1.00  0.00     0.041 C 
ATOM      4  O   UNL     1      17.458   2.010  -2.032  1.00  0.00    -0.550 OA
ATOM      5  O   UNL     1      15.888   0.542  -2.826  1.00  0.00    -0.550 OA
ENDBRANCH   2   3
ENDBRANCH   1   2
BRANCH   1   6
ATOM      6  C   UNL     1      12.955   3.719  -2.520  1.00  0.00     0.000 C 
BRANCH   6   7
ATOM      7  C   UNL     1      13.243   4.541  -1.250  1.00  0.00    -0.000 C 
BRANCH   7   8
ATOM      8  C   UNL     1      11.994   4.981  -0.467  1.00  0.00    -0.003 C 
ATOM      9  C   UNL     1      10.722   4.971  -1.314  1.00  0.00     0.004 C 
ENDBRANCH   7   8
ENDBRANCH   6   7
ENDBRANCH   1   6
TORSDOF 5
ENDMDL
MODEL 3
REMARK VINA RESULT:    -3.087      0.807      1.541
REMARK INTER + INTRA:          -4.169
REMARK INTER:                  -4.055
REMARK INTRA:                  -0.115
REMARK UNBOUND:                -0.180
REMARK SMILES CCCCCCC(=O)[O-]
REMARK SMILES IDX 5 1 6 2 7 3 8 4 9 5 4 6 3 7 2 8 1 9
REMARK H PARENT
REMARK Flexibility Score: inf
ROOT
ATOM      1  C   UNL     1      14.132   3.641  -1.356  1.00  0.00     0.006 C 
ENDROOT
BRANCH   1   2
ATOM      2  C   UNL     1      14.613   2.837  -2.568  1.00  0.00     0.053 C 
BRANCH   2   3
ATOM      3  C   UNL     1      15.766   1.962  -2.193  1.00  0.00     0.041 C 
ATOM      4  O   UNL     1      16.639   2.375  -1.383  1.00  0.00    -0.550 OA
ATOM      5  O   UNL     1      15.852   0.672  -2.698  1.00  0.00    -0.550 OA
ENDBRANCH   2   3
ENDBRANCH   1   2
BRANCH   1   6
ATOM      6  C   UNL     1      12.797   4.340  -1.655  1.00  0.00     0.000 C 
BRANCH   6   7
ATOM      7  C   UNL     1      12.154   4.964  -0.404  1.00  0.00    -0.000 C 
BRANCH   7   8
ATOM      8  C   UNL     1      10.744   5.543  -0.620  1.00  0.00    -0.003 C 
ATOM      9  C   UNL     1      10.073   5.023  -1.891  1.00  0.00     0.004 C 
ENDBRANCH   7   8
ENDBRANCH   6   7
ENDBRANCH   1   6
TORSDOF 5
ENDMDL
MODEL 4
REMARK VINA RESULT:    -3.005      2.326      3.658
REMARK INTER + INTRA:          -4.063
REMARK INTER:                  -3.950
REMARK INTRA:                  -0.113
REMARK UNBOUND:                -0.180
REMARK SMILES CCCCCCC(=O)[O-]
REMARK SMILES IDX 5 1 6 2 7 3 8 4 9 5 4 6 3 7 2 8 1 9
REMARK H PARENT
REMARK Flexibility Score: inf
ROOT
ATOM      1  C   UNL     1      17.406   1.614  -2.436  1.00  0.00     0.006 C 
ENDROOT
BRANCH   1   2
ATOM      2  C   UNL     1      18.448   0.690  -3.073  1.00  0.00     0.053 C 
BRANCH   2   3
ATOM      3  C   UNL     1      19.782   0.877  -2.423  1.00  0.00     0.041 C 
ATOM      4  O   UNL     1      20.393  -0.111  -1.933  1.00  0.00    -0.550 OA
ATOM      5  O   UNL     1      20.375   2.132  -2.402  1.00  0.00    -0.550 OA
ENDBRANCH   2   3
ENDBRANCH   1   2
BRANCH   1   6
ATOM      6  C   UNL     1      16.031   0.933  -2.374  1.00  0.00     0.000 C 
BRANCH   6   7
ATOM      7  C   UNL     1      14.863   1.933  -2.444  1.00  0.00    -0.000 C 
BRANCH   7   8
ATOM      8  C   UNL     1      14.958   3.111  -1.458  1.00  0.00    -0.003 C 
ATOM      9  C   UNL     1      13.701   3.979  -1.439  1.00  0.00     0.004 C 
ENDBRANCH   7   8
ENDBRANCH   6   7
ENDBRANCH   1   6
TORSDOF 5
ENDMDL
MODEL 5
REMARK VINA RESULT:    -2.960      3.652      5.340
REMARK INTER + INTRA:          -4.006
REMARK INTER:                  -3.841
REMARK INTRA:                  -0.165
REMARK UNBOUND:                -0.180
REMARK SMILES CCCCCCC(=O)[O-]
REMARK SMILES IDX 5 1 6 2 7 3 8 4 9 5 4 6 3 7 2 8 1 9
REMARK H PARENT
REMARK Flexibility Score: inf
ROOT
ATOM      1  C   UNL     1      12.655   3.847  -2.297  1.00  0.00     0.006 C 
ENDROOT
BRANCH   1   2
ATOM      2  C   UNL     1      12.545   4.684  -1.019  1.00  0.00     0.053 C 
BRANCH   2   3
ATOM      3  C   UNL     1      11.188   5.303  -0.911  1.00  0.00     0.041 C 
ATOM      4  O   UNL     1      11.030   6.379  -0.274  1.00  0.00    -0.550 OA
ATOM      5  O   UNL     1      10.106   4.720  -1.557  1.00  0.00    -0.550 OA
ENDBRANCH   2   3
ENDBRANCH   1   2
BRANCH   1   6
ATOM      6  C   UNL     1      14.110   3.431  -2.560  1.00  0.00     0.000 C 
BRANCH   6   7
ATOM      7  C   UNL     1      14.928   3.262  -1.267  1.00  0.00    -0.000 C 
BRANCH   7   8
ATOM      8  C   UNL     1      16.194   2.399  -1.411  1.00  0.00    -0.003 C 
ATOM      9  C   UNL     1      15.936   1.071  -2.121  1.00  0.00     0.004 C 
ENDBRANCH   7   8
ENDBRANCH   6   7
ENDBRANCH   1   6
TORSDOF 5
ENDMDL
MODEL 6
REMARK VINA RESULT:    -2.773      4.564      6.170
REMARK INTER + INTRA:          -3.763
REMARK INTER:                  -3.602
REMARK INTRA:                  -0.161
REMARK UNBOUND:                -0.180
REMARK SMILES CCCCCCC(=O)[O-]
REMARK SMILES IDX 5 1 6 2 7 3 8 4 9 5 4 6 3 7 2 8 1 9
REMARK H PARENT
REMARK Flexibility Score: inf
ROOT
ATOM      1  C   UNL     1      11.152   4.976  -0.982  1.00  0.00     0.006 C 
ENDROOT
BRANCH   1   2
ATOM      2  C   UNL     1      10.868   6.369  -0.414  1.00  0.00     0.053 C 
BRANCH   2   3
ATOM      3  C   UNL     1      10.193   7.225  -1.438  1.00  0.00     0.041 C 
ATOM      4  O   UNL     1      10.730   7.412  -2.563  1.00  0.00    -0.550 OA
ATOM      5  O   UNL     1       8.948   7.778  -1.170  1.00  0.00    -0.550 OA
ENDBRANCH   2   3
ENDBRANCH   1   2
BRANCH   1   6
ATOM      6  C   UNL     1      12.662   4.690  -1.011  1.00  0.00     0.000 C 
BRANCH   6   7
ATOM      7  C   UNL     1      13.165   4.264  -2.401  1.00  0.00    -0.000 C 
BRANCH   7   8
ATOM      8  C   UNL     1      14.186   3.112  -2.395  1.00  0.00    -0.003 C 
ATOM      9  C   UNL     1      15.105   3.134  -1.174  1.00  0.00     0.004 C 
ENDBRANCH   7   8
ENDBRANCH   6   7
ENDBRANCH   1   6
TORSDOF 5
ENDMDL
MODEL 7
REMARK VINA RESULT:    -2.722      2.369      3.547
REMARK INTER + INTRA:          -3.698
REMARK INTER:                  -3.495
REMARK INTRA:                  -0.203
REMARK UNBOUND:                -0.180
REMARK SMILES CCCCCCC(=O)[O-]
REMARK SMILES IDX 5 1 6 2 7 3 8 4 9 5 4 6 3 7 2 8 1 9
REMARK H PARENT
REMARK Flexibility Score: inf
ROOT
ATOM      1  C   UNL     1      11.876   5.023  -0.468  1.00  0.00     0.006 C 
ENDROOT
BRANCH   1   2
ATOM      2  C   UNL     1      12.924   5.118  -1.582  1.00  0.00     0.053 C 
BRANCH   2   3
ATOM      3  C   UNL     1      13.552   3.783  -1.827  1.00  0.00     0.041 C 
ATOM      4  O   UNL     1      13.087   3.016  -2.711  1.00  0.00    -0.550 OA
ATOM      5  O   UNL     1      14.682   3.406  -1.113  1.00  0.00    -0.550 OA
ENDBRANCH   2   3
ENDBRANCH   1   2
BRANCH   1   6
ATOM      6  C   UNL     1      10.457   4.960  -1.052  1.00  0.00     0.000 C 
BRANCH   6   7
ATOM      7  C   UNL     1      10.164   6.102  -2.042  1.00  0.00    -0.000 C 
BRANCH   7   8
ATOM      8  C   UNL     1       9.852   7.461  -1.390  1.00  0.00    -0.003 C 
ATOM      9  C   UNL     1       8.363   7.804  -1.405  1.00  0.00     0.004 C 
ENDBRANCH   7   8
ENDBRANCH   6   7
ENDBRANCH   1   6
TORSDOF 5
ENDMDL
MODEL 8
REMARK VINA RESULT:    -2.709      2.744      5.365
REMARK INTER + INTRA:          -3.681
REMARK INTER:                  -3.513
REMARK INTRA:                  -0.168
REMARK UNBOUND:                -0.180
REMARK SMILES CCCCCCC(=O)[O-]
REMARK SMILES IDX 5 1 6 2 7 3 8 4 9 5 4 6 3 7 2 8 1 9
REMARK H PARENT
REMARK Flexibility Score: inf
ROOT
ATOM      1  C   UNL     1      15.353   2.828  -1.630  1.00  0.00     0.006 C 
ENDROOT
BRANCH   1   2
ATOM      2  C   UNL     1      14.404   3.262  -2.751  1.00  0.00     0.053 C 
BRANCH   2   3
ATOM      3  C   UNL     1      13.140   3.822  -2.180  1.00  0.00     0.041 C 
ATOM      4  O   UNL     1      13.185   4.704  -1.282  1.00  0.00    -0.550 OA
ATOM      5  O   UNL     1      11.911   3.406  -2.675  1.00  0.00    -0.550 OA
ENDBRANCH   2   3
ENDBRANCH   1   2
BRANCH   1   6
ATOM      6  C   UNL     1      15.528   1.302  -1.617  1.00  0.00     0.000 C 
BRANCH   6   7
ATOM      7  C   UNL     1      16.512   0.802  -2.690  1.00  0.00    -0.000 C 
BRANCH   7   8
ATOM      8  C   UNL     1      17.840   1.575  -2.762  1.00  0.00    -0.003 C 
ATOM      9  C   UNL     1      19.065   0.661  -2.773  1.00  0.00     0.004 C 
ENDBRANCH   7   8
ENDBRANCH   6   7
ENDBRANCH   1   6
TORSDOF 5
ENDMDL
MODEL 9
REMARK VINA RESULT:    -2.652      3.399      6.679
REMARK INTER + INTRA:          -3.608
REMARK INTER:                  -3.526
REMARK INTRA:                  -0.082
REMARK UNBOUND:                -0.180
REMARK SMILES CCCCCCC(=O)[O-]
REMARK SMILES IDX 5 1 6 2 7 3 8 4 9 5 4 6 3 7 2 8 1 9
REMARK H PARENT
REMARK Flexibility Score: inf
ROOT
ATOM      1  C   UNL     1      17.639   1.694  -3.017  1.00  0.00     0.006 C 
ENDROOT
BRANCH   1   2
ATOM      2  C   UNL     1      16.367   1.042  -2.467  1.00  0.00     0.053 C 
BRANCH   2   3
ATOM      3  C   UNL     1      15.367   2.085  -2.081  1.00  0.00     0.041 C 
ATOM      4  O   UNL     1      15.658   2.955  -1.218  1.00  0.00    -0.550 OA
ATOM      5  O   UNL     1      14.129   2.127  -2.711  1.00  0.00    -0.550 OA
ENDBRANCH   2   3
ENDBRANCH   1   2
BRANCH   1   6
ATOM      6  C   UNL     1      18.883   0.875  -2.643  1.00  0.00     0.000 C 
BRANCH   6   7
ATOM      7  C   UNL     1      20.181   1.701  -2.689  1.00  0.00    -0.000 C 
BRANCH   7   8
ATOM      8  C   UNL     1      21.328   1.152  -1.822  1.00  0.00    -0.003 C 
ATOM      9  C   UNL     1      22.385   0.402  -2.632  1.00  0.00     0.004 C 
ENDBRANCH   7   8
ENDBRANCH   6   7
ENDBRANCH   1   6
TORSDOF 5
ENDMDL
