MODEL 1
REMARK VINA RESULT:    -4.312      0.000      0.000
REMARK INTER + INTRA:          -9.988
REMARK INTER:                  -8.094
REMARK INTRA:                  -1.895
REMARK UNBOUND:                -1.895
REMARK SMILES O=C([O-])CCCCCCCCCCCCCCC(=O)[O-]
REMARK SMILES IDX 10 1 9 2 8 3 7 4 6 5 5 6 4 7 2 8 1 9 3 10 11 11 12 12 13 13
REMARK SMILES IDX 14 14 15 15 16 16 17 17 18 18 19 19 20 20
REMARK H PARENT
REMARK Flexibility Score: inf
ROOT
ATOM      1  C   UNL     1     -12.030  -2.892 -23.956  1.00  0.00     0.000 C 
ENDROOT
BRANCH   1   2
ATOM      2  C   UNL     1     -12.486  -2.301 -22.607  1.00  0.00     0.000 C 
BRANCH   2   3
ATOM      3  C   UNL     1     -12.957  -0.837 -22.666  1.00  0.00     0.000 C 
BRANCH   3   4
ATOM      4  C   UNL     1     -12.869  -0.126 -21.307  1.00  0.00     0.000 C 
BRANCH   4   5
ATOM      5  C   UNL     1     -11.790  -0.768 -20.422  1.00  0.00     0.000 C 
BRANCH   5   6
ATOM      6  C   UNL     1     -10.916   0.273 -19.704  1.00  0.00     0.006 C 
BRANCH   6   7
ATOM      7  C   UNL     1     -11.114   0.261 -18.182  1.00  0.00     0.053 C 
BRANCH   7   8
ATOM      8  C   UNL     1      -9.818   0.534 -17.487  1.00  0.00     0.041 C 
ATOM      9  O   UNL     1      -9.795   1.240 -16.443  1.00  0.00    -0.550 OA
ATOM     10  O   UNL     1      -8.628   0.052 -18.018  1.00  0.00    -0.550 OA
ENDBRANCH   7   8
ENDBRANCH   6   7
ENDBRANCH   5   6
ENDBRANCH   4   5
ENDBRANCH   3   4
ENDBRANCH   2   3
ENDBRANCH   1   2
BRANCH   1  11
ATOM     11  C   UNL     1     -12.963  -2.603 -25.148  1.00  0.00     0.000 C 
BRANCH  11  12
ATOM     12  C   UNL     1     -12.278  -2.607 -26.527  1.00  0.00     0.000 C 
BRANCH  12  13
ATOM     13  C   UNL     1     -11.809  -1.212 -26.963  1.00  0.00     0.000 C 
BRANCH  13  14
ATOM     14  C   UNL     1     -10.302  -1.037 -26.727  1.00  0.00     0.000 C 
BRANCH  14  15
ATOM     15  C   UNL     1     -10.002  -0.165 -25.489  1.00  0.00     0.000 C 
BRANCH  15  16
ATOM     16  C   UNL     1      -9.085  -0.853 -24.461  1.00  0.00     0.006 C 
BRANCH  16  17
ATOM     17  C   UNL     1      -9.239  -0.322 -23.027  1.00  0.00     0.053 C 
BRANCH  17  18
ATOM     18  C   UNL     1      -9.267   1.175 -22.984  1.00  0.00     0.041 C 
ATOM     19  O   UNL     1      -8.190   1.829 -22.991  1.00  0.00    -0.550 OA
ATOM     20  O   UNL     1     -10.479   1.851 -22.928  1.00  0.00    -0.550 OA
ENDBRANCH  17  18
ENDBRANCH  16  17
ENDBRANCH  15  16
ENDBRANCH  14  15
ENDBRANCH  13  14
ENDBRANCH  12  13
ENDBRANCH  11  12
ENDBRANCH   1  11
TORSDOF 15
ENDMDL
MODEL 2
REMARK VINA RESULT:    -4.144      2.243      6.487
REMARK INTER + INTRA:          -9.673
REMARK INTER:                  -8.591
REMARK INTRA:                  -1.083
REMARK UNBOUND:                -1.895
REMARK SMILES O=C([O-])CCCCCCCCCCCCCCC(=O)[O-]
REMARK SMILES IDX 10 1 9 2 8 3 7 4 6 5 5 6 4 7 2 8 1 9 3 10 11 11 12 12 13 13
REMARK SMILES IDX 14 14 15 15 16 16 17 17 18 18 19 19 20 20
REMARK H PARENT
REMARK Flexibility Score: inf
ROOT
ATOM      1  C   UNL     1     -12.967  -2.356 -23.442  1.00  0.00     0.000 C 
ENDROOT
BRANCH   1   2
ATOM      2  C   UNL     1     -11.990  -2.894 -24.507  1.00  0.00     0.000 C 
BRANCH   2   3
ATOM      3  C   UNL     1     -12.556  -2.951 -25.937  1.00  0.00     0.000 C 
BRANCH   3   4
ATOM      4  C   UNL     1     -11.927  -1.905 -26.870  1.00  0.00     0.000 C 
BRANCH   4   5
ATOM      5  C   UNL     1     -10.888  -1.057 -26.120  1.00  0.00     0.000 C 
BRANCH   5   6
ATOM      6  C   UNL     1      -9.601  -0.842 -26.933  1.00  0.00     0.006 C 
BRANCH   6   7
ATOM      7  C   UNL     1      -8.393  -0.508 -26.048  1.00  0.00     0.053 C 
BRANCH   7   8
ATOM      8  C   UNL     1      -7.139  -1.060 -26.648  1.00  0.00     0.041 C 
ATOM      9  O   UNL     1      -6.084  -1.125 -25.963  1.00  0.00    -0.550 OA
ATOM     10  O   UNL     1      -7.121  -1.456 -27.979  1.00  0.00    -0.550 OA
ENDBRANCH   7   8
ENDBRANCH   6   7
ENDBRANCH   5   6
ENDBRANCH   4   5
ENDBRANCH   3   4
ENDBRANCH   2   3
ENDBRANCH   1   2
BRANCH   1  11
ATOM     11  C   UNL     1     -12.309  -1.855 -22.141  1.00  0.00     0.000 C 
BRANCH  11  12
ATOM     12  C   UNL     1     -10.979  -1.105 -22.332  1.00  0.00     0.000 C 
BRANCH  12  13
ATOM     13  C   UNL     1     -10.488  -0.426 -21.044  1.00  0.00     0.000 C 
BRANCH  13  14
ATOM     14  C   UNL     1     -11.633  -0.260 -20.036  1.00  0.00     0.000 C 
BRANCH  14  15
ATOM     15  C   UNL     1     -11.123   0.143 -18.635  1.00  0.00     0.000 C 
BRANCH  15  16
ATOM     16  C   UNL     1      -9.725   0.788 -18.653  1.00  0.00     0.006 C 
BRANCH  16  17
ATOM     17  C   UNL     1      -8.734   0.167 -17.657  1.00  0.00     0.053 C 
BRANCH  17  18
ATOM     18  C   UNL     1      -7.420  -0.155 -18.301  1.00  0.00     0.041 C 
ATOM     19  O   UNL     1      -6.346   0.258 -17.788  1.00  0.00    -0.550 OA
ATOM     20  O   UNL     1      -7.378  -0.905 -19.469  1.00  0.00    -0.550 OA
ENDBRANCH  17  18
ENDBRANCH  16  17
ENDBRANCH  15  16
ENDBRANCH  14  15
ENDBRANCH  13  14
ENDBRANCH  12  13
ENDBRANCH  11  12
ENDBRANCH   1  11
TORSDOF 15
ENDMDL
MODEL 3
REMARK VINA RESULT:    -4.137      1.874      3.628
REMARK INTER + INTRA:          -9.660
REMARK INTER:                  -7.879
REMARK INTRA:                  -1.781
REMARK UNBOUND:                -1.895
REMARK SMILES O=C([O-])CCCCCCCCCCCCCCC(=O)[O-]
REMARK SMILES IDX 10 1 9 2 8 3 7 4 6 5 5 6 4 7 2 8 1 9 3 10 11 11 12 12 13 13
REMARK SMILES IDX 14 14 15 15 16 16 17 17 18 18 19 19 20 20
REMARK H PARENT
REMARK Flexibility Score: inf
ROOT
ATOM      1  C   UNL     1     -11.635  -1.503 -27.060  1.00  0.00     0.000 C 
ENDROOT
BRANCH   1   2
ATOM      2  C   UNL     1     -12.413  -2.621 -26.337  1.00  0.00     0.000 C 
BRANCH   2   3
ATOM      3  C   UNL     1     -11.965  -2.889 -24.889  1.00  0.00     0.000 C 
BRANCH   3   4
ATOM      4  C   UNL     1     -12.957  -2.347 -23.848  1.00  0.00     0.000 C 
BRANCH   4   5
ATOM      5  C   UNL     1     -12.282  -2.189 -22.477  1.00  0.00     0.000 C 
BRANCH   5   6
ATOM      6  C   UNL     1     -12.717  -0.909 -21.746  1.00  0.00     0.006 C 
BRANCH   6   7
ATOM      7  C   UNL     1     -11.867  -0.623 -20.501  1.00  0.00     0.053 C 
BRANCH   7   8
ATOM      8  C   UNL     1     -11.247   0.735 -20.594  1.00  0.00     0.041 C 
ATOM      9  O   UNL     1     -11.572   1.518 -21.525  1.00  0.00    -0.550 OA
ATOM     10  O   UNL     1     -10.273   1.119 -19.681  1.00  0.00    -0.550 OA
ENDBRANCH   7   8
ENDBRANCH   6   7
ENDBRANCH   5   6
ENDBRANCH   4   5
ENDBRANCH   3   4
ENDBRANCH   2   3
ENDBRANCH   1   2
BRANCH   1  11
ATOM     11  C   UNL     1     -10.775  -0.606 -26.149  1.00  0.00     0.000 C 
BRANCH  11  12
ATOM     12  C   UNL     1      -9.258  -0.688 -26.399  1.00  0.00     0.000 C 
BRANCH  12  13
ATOM     13  C   UNL     1      -8.431  -0.464 -25.125  1.00  0.00     0.000 C 
BRANCH  13  14
ATOM     14  C   UNL     1      -9.337  -0.339 -23.893  1.00  0.00     0.000 C 
BRANCH  14  15
ATOM     15  C   UNL     1      -8.669  -0.900 -22.618  1.00  0.00     0.000 C 
BRANCH  15  16
ATOM     16  C   UNL     1      -7.141  -1.044 -22.739  1.00  0.00     0.006 C 
BRANCH  16  17
ATOM     17  C   UNL     1      -6.477  -1.728 -21.533  1.00  0.00     0.053 C 
BRANCH  17  18
ATOM     18  C   UNL     1      -6.411  -0.822 -20.342  1.00  0.00     0.041 C 
ATOM     19  O   UNL     1      -5.906   0.327 -20.447  1.00  0.00    -0.550 OA
ATOM     20  O   UNL     1      -6.900  -1.246 -19.113  1.00  0.00    -0.550 OA
ENDBRANCH  17  18
ENDBRANCH  16  17
ENDBRANCH  15  16
ENDBRANCH  14  15
ENDBRANCH  13  14
ENDBRANCH  12  13
ENDBRANCH  11  12
ENDBRANCH   1  11
TORSDOF 15
ENDMDL
MODEL 4
REMARK VINA RESULT:    -4.126      1.334      5.572
REMARK INTER + INTRA:          -9.639
REMARK INTER:                  -7.981
REMARK INTRA:                  -1.658
REMARK UNBOUND:                -1.895
REMARK SMILES O=C([O-])CCCCCCCCCCCCCCC(=O)[O-]
REMARK SMILES IDX 10 1 9 2 8 3 7 4 6 5 5 6 4 7 2 8 1 9 3 10 11 11 12 12 13 13
REMARK SMILES IDX 14 14 15 15 16 16 17 17 18 18 19 19 20 20
REMARK H PARENT
REMARK Flexibility Score: inf
ROOT
ATOM      1  C   UNL     1     -13.040  -2.411 -23.815  1.00  0.00     0.000 C 
ENDROOT
BRANCH   1   2
ATOM      2  C   UNL     1     -12.009  -2.997 -24.800  1.00  0.00     0.000 C 
BRANCH   2   3
ATOM      3  C   UNL     1     -12.431  -2.956 -26.280  1.00  0.00     0.000 C 
BRANCH   3   4
ATOM      4  C   UNL     1     -11.925  -1.702 -27.010  1.00  0.00     0.000 C 
BRANCH   4   5
ATOM      5  C   UNL     1     -10.724  -1.088 -26.275  1.00  0.00     0.000 C 
BRANCH   5   6
ATOM      6  C   UNL     1     -10.976   0.365 -25.839  1.00  0.00     0.006 C 
BRANCH   6   7
ATOM      7  C   UNL     1     -10.900   0.545 -24.317  1.00  0.00     0.053 C 
BRANCH   7   8
ATOM      8  C   UNL     1      -9.548   0.152 -23.812  1.00  0.00     0.041 C 
ATOM      9  O   UNL     1      -8.525   0.790 -24.178  1.00  0.00    -0.550 OA
ATOM     10  O   UNL     1      -9.410  -0.949 -22.977  1.00  0.00    -0.550 OA
ENDBRANCH   7   8
ENDBRANCH   6   7
ENDBRANCH   5   6
ENDBRANCH   4   5
ENDBRANCH   3   4
ENDBRANCH   2   3
ENDBRANCH   1   2
BRANCH   1  11
ATOM     11  C   UNL     1     -12.542  -2.247 -22.365  1.00  0.00     0.000 C 
BRANCH  11  12
ATOM     12  C   UNL     1     -13.005  -0.960 -21.660  1.00  0.00     0.000 C 
BRANCH  12  13
ATOM     13  C   UNL     1     -12.033  -0.499 -20.563  1.00  0.00     0.000 C 
BRANCH  13  14
ATOM     14  C   UNL     1     -12.179   1.005 -20.291  1.00  0.00     0.000 C 
BRANCH  14  15
ATOM     15  C   UNL     1     -11.742   1.384 -18.860  1.00  0.00     0.000 C 
BRANCH  15  16
ATOM     16  C   UNL     1     -10.976   0.262 -18.134  1.00  0.00     0.006 C 
BRANCH  16  17
ATOM     17  C   UNL     1      -9.577   0.671 -17.646  1.00  0.00     0.053 C 
BRANCH  17  18
ATOM     18  C   UNL     1      -8.500   0.199 -18.574  1.00  0.00     0.041 C 
ATOM     19  O   UNL     1      -8.537   0.506 -19.795  1.00  0.00    -0.550 OA
ATOM     20  O   UNL     1      -7.457  -0.584 -18.095  1.00  0.00    -0.550 OA
ENDBRANCH  17  18
ENDBRANCH  16  17
ENDBRANCH  15  16
ENDBRANCH  14  15
ENDBRANCH  13  14
ENDBRANCH  12  13
ENDBRANCH  11  12
ENDBRANCH   1  11
TORSDOF 15
ENDMDL
MODEL 5
REMARK VINA RESULT:    -4.125      2.111      6.771
REMARK INTER + INTRA:          -9.638
REMARK INTER:                  -8.368
REMARK INTRA:                  -1.270
REMARK UNBOUND:                -1.895
REMARK SMILES O=C([O-])CCCCCCCCCCCCCCC(=O)[O-]
REMARK SMILES IDX 10 1 9 2 8 3 7 4 6 5 5 6 4 7 2 8 1 9 3 10 11 11 12 12 13 13
REMARK SMILES IDX 14 14 15 15 16 16 17 17 18 18 19 19 20 20
REMARK H PARENT
REMARK Flexibility Score: inf
ROOT
ATOM      1  C   UNL     1     -11.413  -0.791 -21.832  1.00  0.00     0.000 C 
ENDROOT
BRANCH   1   2
ATOM      2  C   UNL     1     -12.744  -0.962 -22.591  1.00  0.00     0.000 C 
BRANCH   2   3
ATOM      3  C   UNL     1     -13.001  -2.376 -23.140  1.00  0.00     0.000 C 
BRANCH   3   4
ATOM      4  C   UNL     1     -11.948  -2.816 -24.170  1.00  0.00     0.000 C 
BRANCH   4   5
ATOM      5  C   UNL     1     -12.577  -2.976 -25.562  1.00  0.00     0.000 C 
BRANCH   5   6
ATOM      6  C   UNL     1     -11.958  -2.030 -26.603  1.00  0.00     0.006 C 
BRANCH   6   7
ATOM      7  C   UNL     1     -10.926  -1.073 -25.992  1.00  0.00     0.053 C 
BRANCH   7   8
ATOM      8  C   UNL     1     -11.503   0.302 -25.864  1.00  0.00     0.041 C 
ATOM      9  O   UNL     1     -10.823   1.229 -25.348  1.00  0.00    -0.550 OA
ATOM     10  O   UNL     1     -12.808   0.549 -26.269  1.00  0.00    -0.550 OA
ENDBRANCH   7   8
ENDBRANCH   6   7
ENDBRANCH   5   6
ENDBRANCH   4   5
ENDBRANCH   3   4
ENDBRANCH   2   3
ENDBRANCH   1   2
BRANCH   1  11
ATOM     11  C   UNL     1     -11.527  -0.808 -20.295  1.00  0.00     0.000 C 
BRANCH  11  12
ATOM     12  C   UNL     1     -11.981   0.519 -19.661  1.00  0.00     0.000 C 
BRANCH  12  13
ATOM     13  C   UNL     1     -10.912   1.143 -18.753  1.00  0.00     0.000 C 
BRANCH  13  14
ATOM     14  C   UNL     1     -10.733   0.324 -17.467  1.00  0.00     0.000 C 
BRANCH  14  15
ATOM     15  C   UNL     1      -9.274  -0.142 -17.270  1.00  0.00     0.000 C 
BRANCH  15  16
ATOM     16  C   UNL     1      -8.295   0.455 -18.298  1.00  0.00     0.006 C 
BRANCH  16  17
ATOM     17  C   UNL     1      -7.437  -0.590 -19.029  1.00  0.00     0.053 C 
BRANCH  17  18
ATOM     18  C   UNL     1      -6.023  -0.600 -18.533  1.00  0.00     0.041 C 
ATOM     19  O   UNL     1      -5.221  -1.488 -18.925  1.00  0.00    -0.550 OA
ATOM     20  O   UNL     1      -5.590   0.367 -17.634  1.00  0.00    -0.550 OA
ENDBRANCH  17  18
ENDBRANCH  16  17
ENDBRANCH  15  16
ENDBRANCH  14  15
ENDBRANCH  13  14
ENDBRANCH  12  13
ENDBRANCH  11  12
ENDBRANCH   1  11
TORSDOF 15
ENDMDL
MODEL 6
REMARK VINA RESULT:    -4.105     12.334     14.281
REMARK INTER + INTRA:          -9.599
REMARK INTER:                  -7.555
REMARK INTRA:                  -2.044
REMARK UNBOUND:                -1.895
REMARK SMILES O=C([O-])CCCCCCCCCCCCCCC(=O)[O-]
REMARK SMILES IDX 10 1 9 2 8 3 7 4 6 5 5 6 4 7 2 8 1 9 3 10 11 11 12 12 13 13
REMARK SMILES IDX 14 14 15 15 16 16 17 17 18 18 19 19 20 20
REMARK H PARENT
REMARK Flexibility Score: inf
ROOT
ATOM      1  C   UNL     1      -9.917   6.891 -12.384  1.00  0.00     0.000 C 
ENDROOT
BRANCH   1   2
ATOM      2  C   UNL     1     -11.348   6.793 -12.953  1.00  0.00     0.000 C 
BRANCH   2   3
ATOM      3  C   UNL     1     -12.281   5.832 -12.196  1.00  0.00     0.000 C 
BRANCH   3   4
ATOM      4  C   UNL     1     -12.777   6.409 -10.861  1.00  0.00     0.000 C 
BRANCH   4   5
ATOM      5  C   UNL     1     -12.747   5.342  -9.757  1.00  0.00     0.000 C 
BRANCH   5   6
ATOM      6  C   UNL     1     -11.388   4.632  -9.656  1.00  0.00     0.006 C 
BRANCH   6   7
ATOM      7  C   UNL     1     -11.126   4.053  -8.260  1.00  0.00     0.053 C 
BRANCH   7   8
ATOM      8  C   UNL     1     -11.292   2.567  -8.272  1.00  0.00     0.041 C 
ATOM      9  O   UNL     1     -10.284   1.816  -8.355  1.00  0.00    -0.550 OA
ATOM     10  O   UNL     1     -12.564   2.008  -8.244  1.00  0.00    -0.550 OA
ENDBRANCH   7   8
ENDBRANCH   6   7
ENDBRANCH   5   6
ENDBRANCH   4   5
ENDBRANCH   3   4
ENDBRANCH   2   3
ENDBRANCH   1   2
BRANCH   1  11
ATOM     11  C   UNL     1      -9.373   8.324 -12.223  1.00  0.00     0.000 C 
BRANCH  11  12
ATOM     12  C   UNL     1      -9.195   8.792 -10.767  1.00  0.00     0.000 C 
BRANCH  12  13
ATOM     13  C   UNL     1      -9.088   7.626  -9.774  1.00  0.00     0.000 C 
BRANCH  13  14
ATOM     14  C   UNL     1      -7.775   7.693  -8.982  1.00  0.00     0.000 C 
BRANCH  14  15
ATOM     15  C   UNL     1      -6.667   8.445  -9.751  1.00  0.00     0.000 C 
BRANCH  15  16
ATOM     16  C   UNL     1      -5.611   7.513 -10.373  1.00  0.00     0.006 C 
BRANCH  16  17
ATOM     17  C   UNL     1      -5.895   7.127 -11.833  1.00  0.00     0.053 C 
BRANCH  17  18
ATOM     18  C   UNL     1      -6.385   5.716 -11.955  1.00  0.00     0.041 C 
ATOM     19  O   UNL     1      -6.518   5.189 -13.091  1.00  0.00    -0.550 OA
ATOM     20  O   UNL     1      -6.701   4.984 -10.818  1.00  0.00    -0.550 OA
ENDBRANCH  17  18
ENDBRANCH  16  17
ENDBRANCH  15  16
ENDBRANCH  14  15
ENDBRANCH  13  14
ENDBRANCH  12  13
ENDBRANCH  11  12
ENDBRANCH   1  11
TORSDOF 15
ENDMDL
MODEL 7
REMARK VINA RESULT:    -4.069     11.763     14.115
REMARK INTER + INTRA:          -9.532
REMARK INTER:                  -8.049
REMARK INTRA:                  -1.483
REMARK UNBOUND:                -1.895
REMARK SMILES O=C([O-])CCCCCCCCCCCCCCC(=O)[O-]
REMARK SMILES IDX 10 1 9 2 8 3 7 4 6 5 5 6 4 7 2 8 1 9 3 10 11 11 12 12 13 13
REMARK SMILES IDX 14 14 15 15 16 16 17 17 18 18 19 19 20 20
REMARK H PARENT
REMARK Flexibility Score: inf
ROOT
ATOM      1  C   UNL     1     -12.113   2.460 -11.898  1.00  0.00     0.000 C 
ENDROOT
BRANCH   1   2
ATOM      2  C   UNL     1     -11.455   3.816 -11.573  1.00  0.00     0.000 C 
BRANCH   2   3
ATOM      3  C   UNL     1     -12.356   5.043 -11.791  1.00  0.00     0.000 C 
BRANCH   3   4
ATOM      4  C   UNL     1     -12.036   6.198 -10.828  1.00  0.00     0.000 C 
BRANCH   4   5
ATOM      5  C   UNL     1     -10.543   6.213 -10.469  1.00  0.00     0.000 C 
BRANCH   5   6
ATOM      6  C   UNL     1      -9.847   7.519 -10.885  1.00  0.00     0.006 C 
BRANCH   6   7
ATOM      7  C   UNL     1      -9.161   8.223  -9.707  1.00  0.00     0.053 C 
BRANCH   7   8
ATOM      8  C   UNL     1      -7.716   7.842  -9.641  1.00  0.00     0.041 C 
ATOM      9  O   UNL     1      -7.372   6.753  -9.109  1.00  0.00    -0.550 OA
ATOM     10  O   UNL     1      -6.745   8.710 -10.121  1.00  0.00    -0.550 OA
ENDBRANCH   7   8
ENDBRANCH   6   7
ENDBRANCH   5   6
ENDBRANCH   4   5
ENDBRANCH   3   4
ENDBRANCH   2   3
ENDBRANCH   1   2
BRANCH   1  11
ATOM     11  C   UNL     1     -13.118   1.949 -10.847  1.00  0.00     0.000 C 
BRANCH  11  12
ATOM     12  C   UNL     1     -12.923   2.519  -9.430  1.00  0.00     0.000 C 
BRANCH  12  13
ATOM     13  C   UNL     1     -12.744   1.425  -8.367  1.00  0.00     0.000 C 
BRANCH  13  14
ATOM     14  C   UNL     1     -11.258   1.156  -8.095  1.00  0.00     0.000 C 
BRANCH  14  15
ATOM     15  C   UNL     1     -10.422   2.455  -8.084  1.00  0.00     0.000 C 
BRANCH  15  16
ATOM     16  C   UNL     1      -9.156   2.377  -8.958  1.00  0.00     0.006 C 
BRANCH  16  17
ATOM     17  C   UNL     1      -8.060   1.459  -8.395  1.00  0.00     0.053 C 
BRANCH  17  18
ATOM     18  C   UNL     1      -7.467   0.580  -9.454  1.00  0.00     0.041 C 
ATOM     19  O   UNL     1      -6.916   1.091 -10.464  1.00  0.00    -0.550 OA
ATOM     20  O   UNL     1      -7.528  -0.802  -9.331  1.00  0.00    -0.550 OA
ENDBRANCH  17  18
ENDBRANCH  16  17
ENDBRANCH  15  16
ENDBRANCH  14  15
ENDBRANCH  13  14
ENDBRANCH  12  13
ENDBRANCH  11  12
ENDBRANCH   1  11
TORSDOF 15
ENDMDL
MODEL 8
REMARK VINA RESULT:    -4.050      2.481      3.622
REMARK INTER + INTRA:          -9.497
REMARK INTER:                  -7.551
REMARK INTRA:                  -1.946
REMARK UNBOUND:                -1.895
REMARK SMILES O=C([O-])CCCCCCCCCCCCCCC(=O)[O-]
REMARK SMILES IDX 10 1 9 2 8 3 7 4 6 5 5 6 4 7 2 8 1 9 3 10 11 11 12 12 13 13
REMARK SMILES IDX 14 14 15 15 16 16 17 17 18 18 19 19 20 20
REMARK H PARENT
REMARK Flexibility Score: inf
ROOT
ATOM      1  C   UNL     1     -11.864  -1.867 -26.694  1.00  0.00     0.000 C 
ENDROOT
BRANCH   1   2
ATOM      2  C   UNL     1     -12.580  -2.905 -25.805  1.00  0.00     0.000 C 
BRANCH   2   3
ATOM      3  C   UNL     1     -12.022  -3.029 -24.377  1.00  0.00     0.000 C 
BRANCH   3   4
ATOM      4  C   UNL     1     -12.883  -2.298 -23.335  1.00  0.00     0.000 C 
BRANCH   4   5
ATOM      5  C   UNL     1     -12.038  -1.883 -22.120  1.00  0.00     0.000 C 
BRANCH   5   6
ATOM      6  C   UNL     1     -12.578  -0.622 -21.427  1.00  0.00     0.006 C 
BRANCH   6   7
ATOM      7  C   UNL     1     -11.910  -0.363 -20.070  1.00  0.00     0.053 C 
BRANCH   7   8
ATOM      8  C   UNL     1     -10.709   0.514 -20.239  1.00  0.00     0.041 C 
ATOM      9  O   UNL     1     -10.847   1.717 -20.588  1.00  0.00    -0.550 OA
ATOM     10  O   UNL     1      -9.435  -0.010 -20.061  1.00  0.00    -0.550 OA
ENDBRANCH   7   8
ENDBRANCH   6   7
ENDBRANCH   5   6
ENDBRANCH   4   5
ENDBRANCH   3   4
ENDBRANCH   2   3
ENDBRANCH   1   2
BRANCH   1  11
ATOM     11  C   UNL     1     -12.377  -0.420 -26.556  1.00  0.00     0.000 C 
BRANCH  11  12
ATOM     12  C   UNL     1     -11.536   0.483 -25.637  1.00  0.00     0.000 C 
BRANCH  12  13
ATOM     13  C   UNL     1     -10.137  -0.086 -25.359  1.00  0.00     0.000 C 
BRANCH  13  14
ATOM     14  C   UNL     1      -9.678   0.245 -23.933  1.00  0.00     0.000 C 
BRANCH  14  15
ATOM     15  C   UNL     1      -8.712  -0.819 -23.368  1.00  0.00     0.000 C 
BRANCH  15  16
ATOM     16  C   UNL     1      -7.541  -1.148 -24.314  1.00  0.00     0.006 C 
BRANCH  16  17
ATOM     17  C   UNL     1      -6.261  -1.599 -23.594  1.00  0.00     0.053 C 
BRANCH  17  18
ATOM     18  C   UNL     1      -5.485  -2.595 -24.401  1.00  0.00     0.041 C 
ATOM     19  O   UNL     1      -4.962  -2.253 -25.495  1.00  0.00    -0.550 OA
ATOM     20  O   UNL     1      -5.344  -3.902 -23.952  1.00  0.00    -0.550 OA
ENDBRANCH  17  18
ENDBRANCH  16  17
ENDBRANCH  15  16
ENDBRANCH  14  15
ENDBRANCH  13  14
ENDBRANCH  12  13
ENDBRANCH  11  12
ENDBRANCH   1  11
TORSDOF 15
ENDMDL
MODEL 9
REMARK VINA RESULT:    -4.046     12.771     14.767
REMARK INTER + INTRA:          -9.490
REMARK INTER:                  -7.392
REMARK INTRA:                  -2.098
REMARK UNBOUND:                -1.895
REMARK SMILES O=C([O-])CCCCCCCCCCCCCCC(=O)[O-]
REMARK SMILES IDX 10 1 9 2 8 3 7 4 6 5 5 6 4 7 2 8 1 9 3 10 11 11 12 12 13 13
REMARK SMILES IDX 14 14 15 15 16 16 17 17 18 18 19 19 20 20
REMARK H PARENT
REMARK Flexibility Score: inf
ROOT
ATOM      1  C   UNL     1     -12.308   5.312 -11.545  1.00  0.00     0.000 C 
ENDROOT
BRANCH   1   2
ATOM      2  C   UNL     1     -12.742   5.045 -10.089  1.00  0.00     0.000 C 
BRANCH   2   3
ATOM      3  C   UNL     1     -12.940   3.561  -9.733  1.00  0.00     0.000 C 
BRANCH   3   4
ATOM      4  C   UNL     1     -11.990   3.082  -8.625  1.00  0.00     0.000 C 
BRANCH   4   5
ATOM      5  C   UNL     1     -10.951   4.162  -8.289  1.00  0.00     0.000 C 
BRANCH   5   6
ATOM      6  C   UNL     1      -9.517   3.734  -8.639  1.00  0.00     0.006 C 
BRANCH   6   7
ATOM      7  C   UNL     1      -9.371   3.300 -10.104  1.00  0.00     0.053 C 
BRANCH   7   8
ATOM      8  C   UNL     1      -8.260   4.054 -10.762  1.00  0.00     0.041 C 
ATOM      9  O   UNL     1      -8.499   4.809 -11.742  1.00  0.00    -0.550 OA
ATOM     10  O   UNL     1      -6.951   3.886 -10.327  1.00  0.00    -0.550 OA
ENDBRANCH   7   8
ENDBRANCH   6   7
ENDBRANCH   5   6
ENDBRANCH   4   5
ENDBRANCH   3   4
ENDBRANCH   2   3
ENDBRANCH   1   2
BRANCH   1  11
ATOM     11  C   UNL     1     -11.621   6.670 -11.787  1.00  0.00     0.000 C 
BRANCH  11  12
ATOM     12  C   UNL     1     -10.707   7.149 -10.645  1.00  0.00     0.000 C 
BRANCH  12  13
ATOM     13  C   UNL     1      -9.672   8.186 -11.106  1.00  0.00     0.000 C 
BRANCH  13  14
ATOM     14  C   UNL     1      -8.400   8.116 -10.249  1.00  0.00     0.000 C 
BRANCH  14  15
ATOM     15  C   UNL     1      -8.601   7.265  -8.976  1.00  0.00     0.000 C 
BRANCH  15  16
ATOM     16  C   UNL     1      -7.535   7.520  -7.894  1.00  0.00     0.006 C 
BRANCH  16  17
ATOM     17  C   UNL     1      -6.162   7.930  -8.449  1.00  0.00     0.053 C 
BRANCH  17  18
ATOM     18  C   UNL     1      -5.312   6.741  -8.777  1.00  0.00     0.041 C 
ATOM     19  O   UNL     1      -4.676   6.699  -9.863  1.00  0.00    -0.550 OA
ATOM     20  O   UNL     1      -5.225   5.676  -7.889  1.00  0.00    -0.550 OA
ENDBRANCH  17  18
ENDBRANCH  16  17
ENDBRANCH  15  16
ENDBRANCH  14  15
ENDBRANCH  13  14
ENDBRANCH  12  13
ENDBRANCH  11  12
ENDBRANCH   1  11
TORSDOF 15
ENDMDL
