MODEL 1
REMARK VINA RESULT:     2.130      0.000      0.000
REMARK INTER + INTRA:           4.786
REMARK INTER:                   5.366
REMARK INTRA:                  -0.580
REMARK UNBOUND:                -0.580
REMARK SMILES CCCCCCCCCCCCCCCCCCCCCCCCCCCC(=O)[O-]
REMARK SMILES IDX 15 1 16 2 17 3 18 4 19 5 20 6 21 7 22 8 23 9 24 10 25 11
REMARK SMILES IDX 26 12 27 13 28 14 29 15 30 16 14 17 13 18 12 19 11 20 10 21
REMARK SMILES IDX 9 22 8 23 7 24 6 25 5 26 4 27 3 28 2 29 1 30
REMARK H PARENT
REMARK Flexibility Score: inf
ROOT
ATOM      1  C   UNL     1       4.446   2.576  13.064  1.00  0.00     0.000 C 
ENDROOT
BRANCH   1   2
ATOM      2  C   UNL     1       3.501   3.791  13.185  1.00  0.00     0.000 C 
BRANCH   2   3
ATOM      3  C   UNL     1       2.765   3.872  14.534  1.00  0.00     0.000 C 
BRANCH   3   4
ATOM      4  C   UNL     1       3.708   4.178  15.709  1.00  0.00     0.000 C 
BRANCH   4   5
ATOM      5  C   UNL     1       4.122   2.913  16.477  1.00  0.00     0.000 C 
BRANCH   5   6
ATOM      6  C   UNL     1       5.643   2.841  16.713  1.00  0.00     0.000 C 
BRANCH   6   7
ATOM      7  C   UNL     1       6.262   1.538  16.179  1.00  0.00     0.000 C 
BRANCH   7   8
ATOM      8  C   UNL     1       5.856   0.269  16.957  1.00  0.00     0.000 C 
BRANCH   8   9
ATOM      9  C   UNL     1       6.372   0.203  18.410  1.00  0.00     0.000 C 
BRANCH   9  10
ATOM     10  C   UNL     1       5.656  -0.816  19.316  1.00  0.00     0.000 C 
BRANCH  10  11
ATOM     11  C   UNL     1       4.367  -0.256  19.947  1.00  0.00     0.000 C 
BRANCH  11  12
ATOM     12  C   UNL     1       3.608   0.688  19.000  1.00  0.00     0.006 C 
BRANCH  12  13
ATOM     13  C   UNL     1       3.119   1.961  19.704  1.00  0.00     0.053 C 
BRANCH  13  14
ATOM     14  C   UNL     1       1.625   1.964  19.795  1.00  0.00     0.041 C 
ATOM     15  O   UNL     1       0.925   1.856  18.754  1.00  0.00    -0.550 OA
ATOM     16  O   UNL     1       1.008   2.137  21.027  1.00  0.00    -0.550 OA
ENDBRANCH  13  14
ENDBRANCH  12  13
ENDBRANCH  11  12
ENDBRANCH  10  11
ENDBRANCH   9  10
ENDBRANCH   8   9
ENDBRANCH   7   8
ENDBRANCH   6   7
ENDBRANCH   5   6
ENDBRANCH   4   5
ENDBRANCH   3   4
ENDBRANCH   2   3
ENDBRANCH   1   2
BRANCH   1  17
ATOM     17  C   UNL     1       5.911   2.934  13.359  1.00  0.00     0.000 C 
BRANCH  17  18
ATOM     18  C   UNL     1       6.848   1.817  12.876  1.00  0.00     0.000 C 
BRANCH  18  19
ATOM     19  C   UNL     1       6.202   0.423  12.956  1.00  0.00     0.000 C 
BRANCH  19  20
ATOM     20  C   UNL     1       7.247  -0.706  12.879  1.00  0.00     0.000 C 
BRANCH  20  21
ATOM     21  C   UNL     1       6.984  -1.842  13.885  1.00  0.00     0.000 C 
BRANCH  21  22
ATOM     22  C   UNL     1       6.112  -1.458  15.097  1.00  0.00    -0.000 C 
BRANCH  22  23
ATOM     23  C   UNL     1       4.652  -1.930  14.968  1.00  0.00    -0.000 C 
BRANCH  23  24
ATOM     24  C   UNL     1       4.209  -2.125  13.502  1.00  0.00    -0.000 C 
BRANCH  24  25
ATOM     25  C   UNL     1       2.888  -1.413  13.140  1.00  0.00    -0.000 C 
BRANCH  25  26
ATOM     26  C   UNL     1       2.864   0.110  13.375  1.00  0.00    -0.000 C 
BRANCH  26  27
ATOM     27  C   UNL     1       2.136   0.554  14.659  1.00  0.00    -0.000 C 
BRANCH  27  28
ATOM     28  C   UNL     1       1.459  -0.618  15.390  1.00  0.00    -0.000 C 
BRANCH  28  29
ATOM     29  C   UNL     1      -0.074  -0.483  15.405  1.00  0.00    -0.003 C 
ATOM     30  C   UNL     1      -0.549   0.868  14.865  1.00  0.00     0.004 C 
ENDBRANCH  28  29
ENDBRANCH  27  28
ENDBRANCH  26  27
ENDBRANCH  25  26
ENDBRANCH  24  25
ENDBRANCH  23  24
ENDBRANCH  22  23
ENDBRANCH  21  22
ENDBRANCH  20  21
ENDBRANCH  19  20
ENDBRANCH  18  19
ENDBRANCH  17  18
ENDBRANCH   1  17
TORSDOF 26
ENDMDL
MODEL 2
REMARK VINA RESULT:     2.441      1.203      4.858
REMARK INTER + INTRA:           5.571
REMARK INTER:                   4.221
REMARK INTRA:                   1.351
REMARK UNBOUND:                -0.580
REMARK SMILES CCCCCCCCCCCCCCCCCCCCCCCCCCCC(=O)[O-]
REMARK SMILES IDX 15 1 16 2 17 3 18 4 19 5 20 6 21 7 22 8 23 9 24 10 25 11
REMARK SMILES IDX 26 12 27 13 28 14 29 15 30 16 14 17 13 18 12 19 11 20 10 21
REMARK SMILES IDX 9 22 8 23 7 24 6 25 5 26 4 27 3 28 2 29 1 30
REMARK H PARENT
REMARK Flexibility Score: inf
ROOT
ATOM      1  C   UNL     1       2.983   3.235  14.137  1.00  0.00     0.000 C 
ENDROOT
BRANCH   1   2
ATOM      2  C   UNL     1       3.859   3.423  12.881  1.00  0.00     0.000 C 
BRANCH   2   3
ATOM      3  C   UNL     1       5.335   3.041  13.091  1.00  0.00     0.000 C 
BRANCH   3   4
ATOM      4  C   UNL     1       5.593   1.537  12.902  1.00  0.00     0.000 C 
BRANCH   4   5
ATOM      5  C   UNL     1       6.944   1.094  13.485  1.00  0.00     0.000 C 
BRANCH   5   6
ATOM      6  C   UNL     1       7.265  -0.379  13.170  1.00  0.00     0.000 C 
BRANCH   6   7
ATOM      7  C   UNL     1       6.285  -1.355  13.844  1.00  0.00     0.000 C 
BRANCH   7   8
ATOM      8  C   UNL     1       5.313  -2.059  12.876  1.00  0.00     0.000 C 
BRANCH   8   9
ATOM      9  C   UNL     1       3.816  -1.820  13.167  1.00  0.00     0.000 C 
BRANCH   9  10
ATOM     10  C   UNL     1       3.343  -0.362  13.020  1.00  0.00     0.000 C 
BRANCH  10  11
ATOM     11  C   UNL     1       2.535   0.132  14.235  1.00  0.00     0.000 C 
BRANCH  11  12
ATOM     12  C   UNL     1       1.059  -0.293  14.174  1.00  0.00     0.006 C 
BRANCH  12  13
ATOM     13  C   UNL     1       0.203   0.396  15.246  1.00  0.00     0.053 C 
BRANCH  13  14
ATOM     14  C   UNL     1       1.041   0.750  16.434  1.00  0.00     0.041 C 
ATOM     15  O   UNL     1       2.289   0.580  16.404  1.00  0.00    -0.550 OA
ATOM     16  O   UNL     1       0.436   1.220  17.591  1.00  0.00    -0.550 OA
ENDBRANCH  13  14
ENDBRANCH  12  13
ENDBRANCH  11  12
ENDBRANCH  10  11
ENDBRANCH   9  10
ENDBRANCH   8   9
ENDBRANCH   7   8
ENDBRANCH   6   7
ENDBRANCH   5   6
ENDBRANCH   4   5
ENDBRANCH   3   4
ENDBRANCH   2   3
ENDBRANCH   1   2
BRANCH   1  17
ATOM     17  C   UNL     1       3.380   4.179  15.283  1.00  0.00     0.000 C 
BRANCH  17  18
ATOM     18  C   UNL     1       3.788   3.378  16.528  1.00  0.00     0.000 C 
BRANCH  18  19
ATOM     19  C   UNL     1       5.086   2.579  16.321  1.00  0.00     0.000 C 
BRANCH  19  20
ATOM     20  C   UNL     1       5.173   1.360  17.260  1.00  0.00     0.000 C 
BRANCH  20  21
ATOM     21  C   UNL     1       6.391   0.463  16.975  1.00  0.00     0.000 C 
BRANCH  21  22
ATOM     22  C   UNL     1       6.059  -0.942  16.433  1.00  0.00    -0.000 C 
BRANCH  22  23
ATOM     23  C   UNL     1       5.538  -1.904  17.517  1.00  0.00    -0.000 C 
BRANCH  23  24
ATOM     24  C   UNL     1       6.299  -1.772  18.854  1.00  0.00    -0.000 C 
BRANCH  24  25
ATOM     25  C   UNL     1       5.454  -1.195  20.009  1.00  0.00    -0.000 C 
BRANCH  25  26
ATOM     26  C   UNL     1       5.564   0.327  20.221  1.00  0.00    -0.000 C 
BRANCH  26  27
ATOM     27  C   UNL     1       4.395   1.147  19.640  1.00  0.00    -0.000 C 
BRANCH  27  28
ATOM     28  C   UNL     1       3.036   0.742  20.235  1.00  0.00    -0.000 C 
BRANCH  28  29
ATOM     29  C   UNL     1       1.936   1.772  19.919  1.00  0.00    -0.003 C 
ATOM     30  C   UNL     1       1.042   2.063  21.126  1.00  0.00     0.004 C 
ENDBRANCH  28  29
ENDBRANCH  27  28
ENDBRANCH  26  27
ENDBRANCH  25  26
ENDBRANCH  24  25
ENDBRANCH  23  24
ENDBRANCH  22  23
ENDBRANCH  21  22
ENDBRANCH  20  21
ENDBRANCH  19  20
ENDBRANCH  18  19
ENDBRANCH  17  18
ENDBRANCH   1  17
TORSDOF 26
ENDMDL
MODEL 3
REMARK VINA RESULT:     3.032      1.174      3.922
REMARK INTER + INTRA:           7.061
REMARK INTER:                   5.481
REMARK INTRA:                   1.579
REMARK UNBOUND:                -0.580
REMARK SMILES CCCCCCCCCCCCCCCCCCCCCCCCCCCC(=O)[O-]
REMARK SMILES IDX 15 1 16 2 17 3 18 4 19 5 20 6 21 7 22 8 23 9 24 10 25 11
REMARK SMILES IDX 26 12 27 13 28 14 29 15 30 16 14 17 13 18 12 19 11 20 10 21
REMARK SMILES IDX 9 22 8 23 7 24 6 25 5 26 4 27 3 28 2 29 1 30
REMARK H PARENT
REMARK Flexibility Score: inf
ROOT
ATOM      1  C   UNL     1       1.787   1.938  16.832  1.00  0.00     0.000 C 
ENDROOT
BRANCH   1   2
ATOM      2  C   UNL     1       3.119   2.503  16.295  1.00  0.00     0.000 C 
BRANCH   2   3
ATOM      3  C   UNL     1       4.355   2.032  17.083  1.00  0.00     0.000 C 
BRANCH   3   4
ATOM      4  C   UNL     1       5.222   1.039  16.293  1.00  0.00     0.000 C 
BRANCH   4   5
ATOM      5  C   UNL     1       6.241   0.310  17.182  1.00  0.00     0.000 C 
BRANCH   5   6
ATOM      6  C   UNL     1       5.871  -1.169  17.409  1.00  0.00     0.000 C 
BRANCH   6   7
ATOM      7  C   UNL     1       6.584  -1.774  18.631  1.00  0.00     0.000 C 
BRANCH   7   8
ATOM      8  C   UNL     1       6.552  -0.891  19.895  1.00  0.00     0.000 C 
BRANCH   8   9
ATOM      9  C   UNL     1       5.161  -0.337  20.268  1.00  0.00     0.000 C 
BRANCH   9  10
ATOM     10  C   UNL     1       4.722   0.917  19.490  1.00  0.00     0.000 C 
BRANCH  10  11
ATOM     11  C   UNL     1       3.434   1.550  20.047  1.00  0.00     0.000 C 
BRANCH  11  12
ATOM     12  C   UNL     1       2.699   0.622  21.030  1.00  0.00     0.006 C 
BRANCH  12  13
ATOM     13  C   UNL     1       1.172   0.717  20.899  1.00  0.00     0.053 C 
BRANCH  13  14
ATOM     14  C   UNL     1       0.791   1.938  20.121  1.00  0.00     0.041 C 
ATOM     15  O   UNL     1       0.240   1.826  18.994  1.00  0.00    -0.550 OA
ATOM     16  O   UNL     1       1.093   3.198  20.620  1.00  0.00    -0.550 OA
ENDBRANCH  13  14
ENDBRANCH  12  13
ENDBRANCH  11  12
ENDBRANCH  10  11
ENDBRANCH   9  10
ENDBRANCH   8   9
ENDBRANCH   7   8
ENDBRANCH   6   7
ENDBRANCH   5   6
ENDBRANCH   4   5
ENDBRANCH   3   4
ENDBRANCH   2   3
ENDBRANCH   1   2
BRANCH   1  17
ATOM     17  C   UNL     1       0.984   1.192  15.756  1.00  0.00     0.000 C 
BRANCH  17  18
ATOM     18  C   UNL     1       1.193  -0.324  15.879  1.00  0.00     0.000 C 
BRANCH  18  19
ATOM     19  C   UNL     1       1.020  -1.058  14.538  1.00  0.00     0.000 C 
BRANCH  19  20
ATOM     20  C   UNL     1       2.193  -2.013  14.244  1.00  0.00     0.000 C 
BRANCH  20  21
ATOM     21  C   UNL     1       3.118  -1.506  13.122  1.00  0.00     0.000 C 
BRANCH  21  22
ATOM     22  C   UNL     1       4.534  -2.117  13.112  1.00  0.00    -0.000 C 
BRANCH  22  23
ATOM     23  C   UNL     1       5.383  -1.702  14.328  1.00  0.00    -0.000 C 
BRANCH  23  24
ATOM     24  C   UNL     1       6.820  -1.290  13.946  1.00  0.00    -0.000 C 
BRANCH  24  25
ATOM     25  C   UNL     1       6.975   0.202  13.577  1.00  0.00    -0.000 C 
BRANCH  25  26
ATOM     26  C   UNL     1       5.682   0.920  13.145  1.00  0.00    -0.000 C 
BRANCH  26  27
ATOM     27  C   UNL     1       5.841   2.429  12.876  1.00  0.00    -0.000 C 
BRANCH  27  28
ATOM     28  C   UNL     1       4.894   3.285  13.735  1.00  0.00    -0.000 C 
BRANCH  28  29
ATOM     29  C   UNL     1       3.959   4.154  12.875  1.00  0.00    -0.003 C 
ATOM     30  C   UNL     1       2.760   4.684  13.666  1.00  0.00     0.004 C 
ENDBRANCH  28  29
ENDBRANCH  27  28
ENDBRANCH  26  27
ENDBRANCH  25  26
ENDBRANCH  24  25
ENDBRANCH  23  24
ENDBRANCH  22  23
ENDBRANCH  21  22
ENDBRANCH  20  21
ENDBRANCH  19  20
ENDBRANCH  18  19
ENDBRANCH  17  18
ENDBRANCH   1  17
TORSDOF 26
ENDMDL
MODEL 4
REMARK VINA RESULT:     3.078      1.286      3.936
REMARK INTER + INTRA:           7.177
REMARK INTER:                   8.484
REMARK INTRA:                  -1.308
REMARK UNBOUND:                -0.580
REMARK SMILES CCCCCCCCCCCCCCCCCCCCCCCCCCCC(=O)[O-]
REMARK SMILES IDX 15 1 16 2 17 3 18 4 19 5 20 6 21 7 22 8 23 9 24 10 25 11
REMARK SMILES IDX 26 12 27 13 28 14 29 15 30 16 14 17 13 18 12 19 11 20 10 21
REMARK SMILES IDX 9 22 8 23 7 24 6 25 5 26 4 27 3 28 2 29 1 30
REMARK H PARENT
REMARK Flexibility Score: inf
ROOT
ATOM      1  C   UNL     1       4.487   1.125  17.784  1.00  0.00     0.000 C 
ENDROOT
BRANCH   1   2
ATOM      2  C   UNL     1       4.833   2.626  17.683  1.00  0.00     0.000 C 
BRANCH   2   3
ATOM      3  C   UNL     1       4.996   3.128  16.238  1.00  0.00     0.000 C 
BRANCH   3   4
ATOM      4  C   UNL     1       5.260   1.990  15.238  1.00  0.00     0.000 C 
BRANCH   4   5
ATOM      5  C   UNL     1       5.448   2.501  13.801  1.00  0.00     0.000 C 
BRANCH   5   6
ATOM      6  C   UNL     1       5.105   3.997  13.660  1.00  0.00     0.000 C 
BRANCH   6   7
ATOM      7  C   UNL     1       3.700   4.228  13.078  1.00  0.00     0.000 C 
BRANCH   7   8
ATOM      8  C   UNL     1       2.595   4.437  14.133  1.00  0.00     0.000 C 
BRANCH   8   9
ATOM      9  C   UNL     1       1.715   3.199  14.408  1.00  0.00     0.000 C 
BRANCH   9  10
ATOM     10  C   UNL     1       2.234   2.256  15.510  1.00  0.00     0.000 C 
BRANCH  10  11
ATOM     11  C   UNL     1       1.120   1.765  16.452  1.00  0.00     0.000 C 
BRANCH  11  12
ATOM     12  C   UNL     1       1.598   1.624  17.908  1.00  0.00     0.006 C 
BRANCH  12  13
ATOM     13  C   UNL     1       0.548   2.102  18.921  1.00  0.00     0.053 C 
BRANCH  13  14
ATOM     14  C   UNL     1       1.145   2.182  20.291  1.00  0.00     0.041 C 
ATOM     15  O   UNL     1       0.961   3.202  21.005  1.00  0.00    -0.550 OA
ATOM     16  O   UNL     1       1.949   1.150  20.756  1.00  0.00    -0.550 OA
ENDBRANCH  13  14
ENDBRANCH  12  13
ENDBRANCH  11  12
ENDBRANCH  10  11
ENDBRANCH   9  10
ENDBRANCH   8   9
ENDBRANCH   7   8
ENDBRANCH   6   7
ENDBRANCH   5   6
ENDBRANCH   4   5
ENDBRANCH   3   4
ENDBRANCH   2   3
ENDBRANCH   1   2
BRANCH   1  17
ATOM     17  C   UNL     1       4.949   0.499  19.108  1.00  0.00     0.000 C 
BRANCH  17  18
ATOM     18  C   UNL     1       5.838  -0.726  18.847  1.00  0.00     0.000 C 
BRANCH  18  19
ATOM     19  C   UNL     1       5.060  -1.904  18.235  1.00  0.00     0.000 C 
BRANCH  19  20
ATOM     20  C   UNL     1       5.415  -2.124  16.751  1.00  0.00     0.000 C 
BRANCH  20  21
ATOM     21  C   UNL     1       6.799  -1.568  16.371  1.00  0.00     0.000 C 
BRANCH  21  22
ATOM     22  C   UNL     1       6.781  -0.373  15.397  1.00  0.00    -0.000 C 
BRANCH  22  23
ATOM     23  C   UNL     1       7.381  -0.706  14.018  1.00  0.00    -0.000 C 
BRANCH  23  24
ATOM     24  C   UNL     1       6.315  -0.808  12.906  1.00  0.00    -0.000 C 
BRANCH  24  25
ATOM     25  C   UNL     1       5.510  -2.125  12.919  1.00  0.00    -0.000 C 
BRANCH  25  26
ATOM     26  C   UNL     1       4.037  -2.004  13.355  1.00  0.00    -0.000 C 
BRANCH  26  27
ATOM     27  C   UNL     1       3.525  -0.558  13.506  1.00  0.00    -0.000 C 
BRANCH  27  28
ATOM     28  C   UNL     1       1.989  -0.474  13.525  1.00  0.00    -0.000 C 
BRANCH  28  29
ATOM     29  C   UNL     1       1.382  -1.254  14.705  1.00  0.00    -0.003 C 
ATOM     30  C   UNL     1       0.169  -0.546  15.313  1.00  0.00     0.004 C 
ENDBRANCH  28  29
ENDBRANCH  27  28
ENDBRANCH  26  27
ENDBRANCH  25  26
ENDBRANCH  24  25
ENDBRANCH  23  24
ENDBRANCH  22  23
ENDBRANCH  21  22
ENDBRANCH  20  21
ENDBRANCH  19  20
ENDBRANCH  18  19
ENDBRANCH  17  18
ENDBRANCH   1  17
TORSDOF 26
ENDMDL
