MODEL 1
REMARK VINA RESULT:   145.370      0.000      0.000
REMARK INTER + INTRA:         160.527
REMARK INTER:                 158.117
REMARK INTRA:                   2.410
REMARK UNBOUND:                 2.410
REMARK SMILES CC1(C)CC[C@]2(C(=O)[O-])CC[C@@]3(C)C(=CC[C@H]4[C@@]5(C)CC[C@H](O)C(C)(C)[C@H]5CC[C@]43C)[C@H]2C1
REMARK SMILES IDX 6 1 5 2 10 3 32 4 4 5 11 6 14 7 33 8 2 9 12 10 15 11 1 12
REMARK SMILES IDX 3 13 13 14 30 15 16 16 17 17 29 18 31 19 18 20 28 21 27 22
REMARK SMILES IDX 20 23 19 24 24 25 21 26 22 27 25 28 26 29 7 30 8 31 9 32
REMARK SMILES IDX 23 33
REMARK H PARENT 23 34
REMARK Flexibility Score: inf
ROOT
ATOM      1  C   UNL     1     -38.135  24.130 -20.234  1.00  0.00     0.017 C 
ATOM      2  C   UNL     1     -37.722  23.356 -18.959  1.00  0.00     0.014 C 
ATOM      3  C   UNL     1     -37.372  25.462 -20.294  1.00  0.00     0.014 C 
ATOM      4  C   UNL     1     -39.643  24.504 -20.109  1.00  0.00     0.028 C 
ATOM      5  C   UNL     1     -38.554  22.072 -18.779  1.00  0.00     0.007 C 
ATOM      6  C   UNL     1     -37.658  26.231 -21.592  1.00  0.00     0.013 C 
ATOM      7  C   UNL     1     -40.128  25.539 -21.145  1.00  0.00    -0.064 C 
ATOM      8  C   UNL     1     -40.540  23.239 -19.936  1.00  0.00     0.015 C 
ATOM      9  C   UNL     1     -40.087  22.326 -18.753  1.00  0.00    -0.035 C 
ATOM     10  C   UNL     1     -39.169  26.298 -22.089  1.00  0.00    -0.006 C 
ATOM     11  C   UNL     1     -41.419  25.920 -21.079  1.00  0.00    -0.027 C 
ATOM     12  C   UNL     1     -40.810  20.967 -18.878  1.00  0.00     0.011 C 
ATOM     13  C   UNL     1     -40.496  22.952 -17.396  1.00  0.00     0.011 C 
ATOM     14  C   UNL     1     -39.263  25.570 -23.464  1.00  0.00     0.017 C 
ATOM     15  C   UNL     1     -39.625  27.837 -22.249  1.00  0.00    -0.020 C 
ATOM     16  C   UNL     1     -42.057  27.006 -21.886  1.00  0.00     0.032 C 
ATOM     17  C   UNL     1     -41.132  27.938 -22.727  1.00  0.00     0.006 C 
ATOM     18  C   UNL     1     -39.471  28.586 -20.879  1.00  0.00     0.008 C 
ATOM     19  C   UNL     1     -38.698  28.532 -23.305  1.00  0.00     0.012 C 
ATOM     20  C   UNL     1     -41.705  29.444 -22.872  1.00  0.00    -0.025 C 
ATOM     21  C   UNL     1     -40.582  29.595 -20.536  1.00  0.00     0.005 C 
ATOM     22  C   UNL     1     -41.103  30.406 -21.758  1.00  0.00     0.003 C 
ATOM     23  C   UNL     1     -43.290  29.468 -22.889  1.00  0.00     0.010 C 
ATOM     24  C   UNL     1     -41.293  29.989 -24.288  1.00  0.00     0.012 C 
ATOM     25  C   UNL     1     -42.061  31.592 -21.330  1.00  0.00    -0.006 C 
ATOM     26  C   UNL     1     -44.028  29.886 -21.598  1.00  0.00     0.033 C 
ATOM     27  C   UNL     1     -43.392  31.025 -20.761  1.00  0.00     0.120 C 
ATOM     28  C   UNL     1     -42.334  32.556 -22.521  1.00  0.00     0.014 C 
ATOM     29  C   UNL     1     -41.394  32.474 -20.231  1.00  0.00     0.014 C 
ENDROOT
BRANCH   1  30
ATOM     30  C   UNL     1     -37.743  23.272 -21.439  1.00  0.00     0.048 C 
ATOM     31  O   UNL     1     -37.888  23.678 -22.620  1.00  0.00    -0.550 OA
ATOM     32  O   UNL     1     -37.309  21.965 -21.241  1.00  0.00    -0.550 OA
ENDBRANCH   1  30
BRANCH  27  33
ATOM     33  O   UNL     1     -44.320  32.068 -20.579  1.00  0.00    -0.393 OA
ATOM     34  H   UNL     1     -44.009  32.604 -19.802  1.00  0.00     0.210 HD
ENDBRANCH  27  33
TORSDOF 2
ENDMDL
MODEL 2
REMARK VINA RESULT:   146.353      9.787     13.735
REMARK INTER + INTRA:         161.596
REMARK INTER:                 159.189
REMARK INTRA:                   2.407
REMARK UNBOUND:                 2.410
REMARK SMILES CC1(C)CC[C@]2(C(=O)[O-])CC[C@@]3(C)C(=CC[C@H]4[C@@]5(C)CC[C@H](O)C(C)(C)[C@H]5CC[C@]43C)[C@H]2C1
REMARK SMILES IDX 6 1 5 2 10 3 32 4 4 5 11 6 14 7 33 8 2 9 12 10 15 11 1 12
REMARK SMILES IDX 3 13 13 14 30 15 16 16 17 17 29 18 31 19 18 20 28 21 27 22
REMARK SMILES IDX 20 23 19 24 24 25 21 26 22 27 25 28 26 29 7 30 8 31 9 32
REMARK SMILES IDX 23 33
REMARK H PARENT 23 34
REMARK Flexibility Score: inf
ROOT
ATOM      1  C   UNL     1     -32.108  32.178 -17.675  1.00  0.00     0.017 C 
ATOM      2  C   UNL     1     -32.828  33.418 -17.094  1.00  0.00     0.014 C 
ATOM      3  C   UNL     1     -33.037  30.958 -17.587  1.00  0.00     0.014 C 
ATOM      4  C   UNL     1     -30.886  31.854 -16.763  1.00  0.00     0.028 C 
ATOM      5  C   UNL     1     -31.896  34.642 -17.037  1.00  0.00     0.007 C 
ATOM      6  C   UNL     1     -32.420  29.715 -18.245  1.00  0.00     0.013 C 
ATOM      7  C   UNL     1     -30.249  30.473 -17.022  1.00  0.00    -0.064 C 
ATOM      8  C   UNL     1     -29.896  33.057 -16.675  1.00  0.00     0.015 C 
ATOM      9  C   UNL     1     -30.588  34.387 -16.238  1.00  0.00    -0.035 C 
ATOM     10  C   UNL     1     -30.885  29.414 -17.951  1.00  0.00    -0.006 C 
ATOM     11  C   UNL     1     -29.199  30.123 -16.254  1.00  0.00    -0.027 C 
ATOM     12  C   UNL     1     -29.614  35.556 -16.505  1.00  0.00     0.011 C 
ATOM     13  C   UNL     1     -30.891  34.367 -14.718  1.00  0.00     0.011 C 
ATOM     14  C   UNL     1     -30.103  29.507 -19.297  1.00  0.00     0.017 C 
ATOM     15  C   UNL     1     -30.726  27.936 -17.325  1.00  0.00    -0.020 C 
ATOM     16  C   UNL     1     -28.528  28.786 -16.239  1.00  0.00     0.032 C 
ATOM     17  C   UNL     1     -29.209  27.612 -17.006  1.00  0.00     0.006 C 
ATOM     18  C   UNL     1     -31.563  27.823 -16.003  1.00  0.00     0.008 C 
ATOM     19  C   UNL     1     -31.275  26.889 -18.355  1.00  0.00     0.012 C 
ATOM     20  C   UNL     1     -28.945  26.168 -16.326  1.00  0.00    -0.025 C 
ATOM     21  C   UNL     1     -30.913  27.020 -14.862  1.00  0.00     0.005 C 
ATOM     22  C   UNL     1     -30.124  25.766 -15.338  1.00  0.00     0.003 C 
ATOM     23  C   UNL     1     -27.526  26.102 -15.622  1.00  0.00     0.010 C 
ATOM     24  C   UNL     1     -28.859  25.097 -17.475  1.00  0.00     0.012 C 
ATOM     25  C   UNL     1     -29.680  24.839 -14.132  1.00  0.00    -0.006 C 
ATOM     26  C   UNL     1     -27.467  26.237 -14.085  1.00  0.00     0.033 C 
ATOM     27  C   UNL     1     -28.601  25.560 -13.275  1.00  0.00     0.120 C 
ATOM     28  C   UNL     1     -29.156  23.464 -14.638  1.00  0.00     0.014 C 
ATOM     29  C   UNL     1     -30.894  24.505 -13.214  1.00  0.00     0.014 C 
ENDROOT
BRANCH   1  30
ATOM     30  C   UNL     1     -31.803  32.471 -19.146  1.00  0.00     0.048 C 
ATOM     31  O   UNL     1     -31.748  33.645 -19.592  1.00  0.00    -0.550 OA
ATOM     32  O   UNL     1     -31.684  31.418 -20.047  1.00  0.00    -0.550 OA
ENDBRANCH   1  30
BRANCH  27  33
ATOM     33  O   UNL     1     -28.057  24.664 -12.335  1.00  0.00    -0.393 OA
ATOM     34  H   UNL     1     -28.740  24.533 -11.626  1.00  0.00     0.210 HD
ENDBRANCH  27  33
TORSDOF 2
ENDMDL
