MODEL 1
REMARK VINA RESULT:    -3.839      0.000      0.000
REMARK INTER + INTRA:          -4.861
REMARK INTER:                  -4.737
REMARK INTRA:                  -0.125
REMARK UNBOUND:                -0.125
REMARK SMILES CCCCCC(=O)[O-]
REMARK SMILES IDX 4 1 5 2 6 3 7 4 8 5 3 6 2 7 1 8
REMARK H PARENT
REMARK Flexibility Score: inf
ROOT
ATOM      1  C   UNL     1       7.210 124.973 109.838  1.00  0.00     0.006 C 
ENDROOT
BRANCH   1   2
ATOM      2  C   UNL     1       7.816 125.259 111.214  1.00  0.00     0.053 C 
BRANCH   2   3
ATOM      3  C   UNL     1       7.990 123.989 111.985  1.00  0.00     0.041 C 
ATOM      4  O   UNL     1       7.198 123.027 111.808  1.00  0.00    -0.550 OA
ATOM      5  O   UNL     1       9.058 123.849 112.864  1.00  0.00    -0.550 OA
ENDBRANCH   2   3
ENDBRANCH   1   2
BRANCH   1   6
ATOM      6  C   UNL     1       8.306 124.705 108.799  1.00  0.00     0.000 C 
BRANCH   6   7
ATOM      7  C   UNL     1       7.741 124.768 107.375  1.00  0.00    -0.003 C 
ATOM      8  C   UNL     1       6.469 125.609 107.323  1.00  0.00     0.004 C 
ENDBRANCH   6   7
ENDBRANCH   1   6
TORSDOF 4
ENDMDL
MODEL 2
REMARK VINA RESULT:    -3.545      1.235      1.283
REMARK INTER + INTRA:          -4.498
REMARK INTER:                  -4.394
REMARK INTRA:                  -0.105
REMARK UNBOUND:                -0.125
REMARK SMILES CCCCCC(=O)[O-]
REMARK SMILES IDX 4 1 5 2 6 3 7 4 8 5 3 6 2 7 1 8
REMARK H PARENT
REMARK Flexibility Score: inf
ROOT
ATOM      1  C   UNL     1       7.389 123.779 110.231  1.00  0.00     0.006 C 
ENDROOT
BRANCH   1   2
ATOM      2  C   UNL     1       6.639 124.311 111.455  1.00  0.00     0.053 C 
BRANCH   2   3
ATOM      3  C   UNL     1       7.424 124.055 112.703  1.00  0.00     0.041 C 
ATOM      4  O   UNL     1       8.264 123.118 112.742  1.00  0.00    -0.550 OA
ATOM      5  O   UNL     1       7.264 124.883 113.807  1.00  0.00    -0.550 OA
ENDBRANCH   2   3
ENDBRANCH   1   2
BRANCH   1   6
ATOM      6  C   UNL     1       8.029 124.925 109.437  1.00  0.00     0.000 C 
BRANCH   6   7
ATOM      7  C   UNL     1       8.024 124.622 107.934  1.00  0.00    -0.003 C 
ATOM      8  C   UNL     1       6.871 125.333 107.232  1.00  0.00     0.004 C 
ENDBRANCH   6   7
ENDBRANCH   1   6
TORSDOF 4
ENDMDL
MODEL 3
REMARK VINA RESULT:    -3.178      2.814      3.579
REMARK INTER + INTRA:          -4.046
REMARK INTER:                  -3.910
REMARK INTRA:                  -0.136
REMARK UNBOUND:                -0.125
REMARK SMILES CCCCCC(=O)[O-]
REMARK SMILES IDX 4 1 5 2 6 3 7 4 8 5 3 6 2 7 1 8
REMARK H PARENT
REMARK Flexibility Score: inf
ROOT
ATOM      1  C   UNL     1       5.225 123.119 112.090  1.00  0.00     0.006 C 
ENDROOT
BRANCH   1   2
ATOM      2  C   UNL     1       6.489 123.307 111.246  1.00  0.00     0.053 C 
BRANCH   2   3
ATOM      3  C   UNL     1       7.600 123.859 112.083  1.00  0.00     0.041 C 
ATOM      4  O   UNL     1       8.265 123.099 112.835  1.00  0.00    -0.550 OA
ATOM      5  O   UNL     1       7.934 125.205 111.995  1.00  0.00    -0.550 OA
ENDBRANCH   2   3
ENDBRANCH   1   2
BRANCH   1   6
ATOM      6  C   UNL     1       4.390 124.405 112.123  1.00  0.00     0.000 C 
BRANCH   6   7
ATOM      7  C   UNL     1       3.940 124.804 110.713  1.00  0.00    -0.003 C 
ATOM      8  C   UNL     1       2.681 125.665 110.759  1.00  0.00     0.004 C 
ENDBRANCH   6   7
ENDBRANCH   1   6
TORSDOF 4
ENDMDL
MODEL 4
REMARK VINA RESULT:    -3.158      2.712      3.642
REMARK INTER + INTRA:          -4.021
REMARK INTER:                  -3.890
REMARK INTRA:                  -0.131
REMARK UNBOUND:                -0.125
REMARK SMILES CCCCCC(=O)[O-]
REMARK SMILES IDX 4 1 5 2 6 3 7 4 8 5 3 6 2 7 1 8
REMARK H PARENT
REMARK Flexibility Score: inf
ROOT
ATOM      1  C   UNL     1       5.710 123.090 111.773  1.00  0.00     0.006 C 
ENDROOT
BRANCH   1   2
ATOM      2  C   UNL     1       6.636 124.289 111.549  1.00  0.00     0.053 C 
BRANCH   2   3
ATOM      3  C   UNL     1       8.039 123.948 111.942  1.00  0.00     0.041 C 
ATOM      4  O   UNL     1       9.011 124.503 111.366  1.00  0.00    -0.550 OA
ATOM      5  O   UNL     1       8.272 123.053 112.979  1.00  0.00    -0.550 OA
ENDBRANCH   2   3
ENDBRANCH   1   2
BRANCH   1   6
ATOM      6  C   UNL     1       4.355 123.540 112.332  1.00  0.00     0.000 C 
BRANCH   6   7
ATOM      7  C   UNL     1       4.017 124.964 111.875  1.00  0.00    -0.003 C 
ATOM      8  C   UNL     1       3.041 124.949 110.702  1.00  0.00     0.004 C 
ENDBRANCH   6   7
ENDBRANCH   1   6
TORSDOF 4
ENDMDL
MODEL 5
REMARK VINA RESULT:    -3.117      8.478      9.756
REMARK INTER + INTRA:          -3.970
REMARK INTER:                  -3.740
REMARK INTRA:                  -0.230
REMARK UNBOUND:                -0.125
REMARK SMILES CCCCCC(=O)[O-]
REMARK SMILES IDX 4 1 5 2 6 3 7 4 8 5 3 6 2 7 1 8
REMARK H PARENT
REMARK Flexibility Score: inf
ROOT
ATOM      1  C   UNL     1       4.944 131.258 115.615  1.00  0.00     0.006 C 
ENDROOT
BRANCH   1   2
ATOM      2  C   UNL     1       5.839 130.797 114.461  1.00  0.00     0.053 C 
BRANCH   2   3
ATOM      3  C   UNL     1       7.282 130.983 114.811  1.00  0.00     0.041 C 
ATOM      4  O   UNL     1       7.607 131.439 115.939  1.00  0.00    -0.550 OA
ATOM      5  O   UNL     1       8.270 130.605 113.910  1.00  0.00    -0.550 OA
ENDBRANCH   2   3
ENDBRANCH   1   2
BRANCH   1   6
ATOM      6  C   UNL     1       4.346 132.640 115.327  1.00  0.00     0.000 C 
BRANCH   6   7
ATOM      7  C   UNL     1       4.760 133.652 116.402  1.00  0.00    -0.003 C 
ATOM      8  C   UNL     1       5.792 134.639 115.863  1.00  0.00     0.004 C 
ENDBRANCH   6   7
ENDBRANCH   1   6
TORSDOF 4
ENDMDL
MODEL 6
REMARK VINA RESULT:    -3.074      2.173      3.023
REMARK INTER + INTRA:          -3.917
REMARK INTER:                  -3.745
REMARK INTRA:                  -0.172
REMARK UNBOUND:                -0.125
REMARK SMILES CCCCCC(=O)[O-]
REMARK SMILES IDX 4 1 5 2 6 3 7 4 8 5 3 6 2 7 1 8
REMARK H PARENT
REMARK Flexibility Score: inf
ROOT
ATOM      1  C   UNL     1       6.512 126.126 112.043  1.00  0.00     0.006 C 
ENDROOT
BRANCH   1   2
ATOM      2  C   UNL     1       7.266 125.172 111.113  1.00  0.00     0.053 C 
BRANCH   2   3
ATOM      3  C   UNL     1       7.823 124.018 111.886  1.00  0.00     0.041 C 
ATOM      4  O   UNL     1       7.145 122.967 112.031  1.00  0.00    -0.550 OA
ATOM      5  O   UNL     1       9.111 124.084 112.403  1.00  0.00    -0.550 OA
ENDBRANCH   2   3
ENDBRANCH   1   2
BRANCH   1   6
ATOM      6  C   UNL     1       5.002 125.866 111.991  1.00  0.00     0.000 C 
BRANCH   6   7
ATOM      7  C   UNL     1       4.580 125.359 110.607  1.00  0.00    -0.003 C 
ATOM      8  C   UNL     1       3.141 124.851 110.621  1.00  0.00     0.004 C 
ENDBRANCH   6   7
ENDBRANCH   1   6
TORSDOF 4
ENDMDL
MODEL 7
REMARK VINA RESULT:    -2.971      2.875      4.099
REMARK INTER + INTRA:          -3.790
REMARK INTER:                  -3.592
REMARK INTRA:                  -0.198
REMARK UNBOUND:                -0.125
REMARK SMILES CCCCCC(=O)[O-]
REMARK SMILES IDX 4 1 5 2 6 3 7 4 8 5 3 6 2 7 1 8
REMARK H PARENT
REMARK Flexibility Score: inf
ROOT
ATOM      1  C   UNL     1       5.711 125.052 111.637  1.00  0.00     0.006 C 
ENDROOT
BRANCH   1   2
ATOM      2  C   UNL     1       6.754 124.969 112.754  1.00  0.00     0.053 C 
BRANCH   2   3
ATOM      3  C   UNL     1       7.931 124.158 112.312  1.00  0.00     0.041 C 
ATOM      4  O   UNL     1       8.143 123.022 112.814  1.00  0.00    -0.550 OA
ATOM      5  O   UNL     1       8.767 124.635 111.310  1.00  0.00    -0.550 OA
ENDBRANCH   2   3
ENDBRANCH   1   2
BRANCH   1   6
ATOM      6  C   UNL     1       4.847 123.786 111.595  1.00  0.00     0.000 C 
BRANCH   6   7
ATOM      7  C   UNL     1       4.061 123.614 112.900  1.00  0.00    -0.003 C 
ATOM      8  C   UNL     1       4.123 122.172 113.395  1.00  0.00     0.004 C 
ENDBRANCH   6   7
ENDBRANCH   1   6
TORSDOF 4
ENDMDL
MODEL 8
REMARK VINA RESULT:    -2.957      3.209      4.170
REMARK INTER + INTRA:          -3.773
REMARK INTER:                  -3.665
REMARK INTRA:                  -0.108
REMARK UNBOUND:                -0.125
REMARK SMILES CCCCCC(=O)[O-]
REMARK SMILES IDX 4 1 5 2 6 3 7 4 8 5 3 6 2 7 1 8
REMARK H PARENT
REMARK Flexibility Score: inf
ROOT
ATOM      1  C   UNL     1       6.124 125.086 110.327  1.00  0.00     0.006 C 
ENDROOT
BRANCH   1   2
ATOM      2  C   UNL     1       7.497 124.824 109.702  1.00  0.00     0.053 C 
BRANCH   2   3
ATOM      3  C   UNL     1       7.433 124.977 108.215  1.00  0.00     0.041 C 
ATOM      4  O   UNL     1       6.385 125.407 107.666  1.00  0.00    -0.550 OA
ATOM      5  O   UNL     1       8.550 124.692 107.439  1.00  0.00    -0.550 OA
ENDBRANCH   2   3
ENDBRANCH   1   2
BRANCH   1   6
ATOM      6  C   UNL     1       5.781 124.014 111.368  1.00  0.00     0.000 C 
BRANCH   6   7
ATOM      7  C   UNL     1       4.293 124.062 111.738  1.00  0.00    -0.003 C 
ATOM      8  C   UNL     1       3.489 124.825 110.690  1.00  0.00     0.004 C 
ENDBRANCH   6   7
ENDBRANCH   1   6
TORSDOF 4
ENDMDL
MODEL 9
REMARK VINA RESULT:    -2.907      2.082      3.100
REMARK INTER + INTRA:          -3.712
REMARK INTER:                  -3.454
REMARK INTRA:                  -0.258
REMARK UNBOUND:                -0.125
REMARK SMILES CCCCCC(=O)[O-]
REMARK SMILES IDX 4 1 5 2 6 3 7 4 8 5 3 6 2 7 1 8
REMARK H PARENT
REMARK Flexibility Score: inf
ROOT
ATOM      1  C   UNL     1       5.253 125.158 110.776  1.00  0.00     0.006 C 
ENDROOT
BRANCH   1   2
ATOM      2  C   UNL     1       4.452 124.127 111.577  1.00  0.00     0.053 C 
BRANCH   2   3
ATOM      3  C   UNL     1       5.359 123.076 112.134  1.00  0.00     0.041 C 
ATOM      4  O   UNL     1       5.352 122.820 113.367  1.00  0.00    -0.550 OA
ATOM      5  O   UNL     1       6.178 122.343 111.283  1.00  0.00    -0.550 OA
ENDBRANCH   2   3
ENDBRANCH   1   2
BRANCH   1   6
ATOM      6  C   UNL     1       6.365 125.774 111.633  1.00  0.00     0.000 C 
BRANCH   6   7
ATOM      7  C   UNL     1       7.706 125.756 110.888  1.00  0.00    -0.003 C 
ATOM      8  C   UNL     1       7.577 125.060 109.537  1.00  0.00     0.004 C 
ENDBRANCH   6   7
ENDBRANCH   1   6
TORSDOF 4
ENDMDL
