MODEL 1
REMARK VINA RESULT:    -6.035      0.000      0.000
REMARK INTER + INTRA:          -7.453
REMARK INTER:                  -7.270
REMARK INTRA:                  -0.183
REMARK UNBOUND:                -0.183
REMARK SMILES O=c1c(O)c(-c2ccc(O)cc2O)oc2cc(O)cc(O)c12
REMARK SMILES IDX 5 1 3 2 2 3 1 4 22 5 20 6 19 7 17 8 16 9 15 10 14 11 6 12
REMARK SMILES IDX 8 13 7 14 9 15 11 16 12 17 10 18 13 20 4 22 21 24 18 26
REMARK H PARENT 10 19 13 21 4 23 21 25 18 27
REMARK Flexibility Score: inf
ROOT
ATOM      1  C   UNL     1     117.820  73.634  44.261  1.00  0.00     0.184 A 
ATOM      2  C   UNL     1     117.657  73.853  42.884  1.00  0.00     0.208 A 
ATOM      3  C   UNL     1     118.722  73.565  42.018  1.00  0.00     0.238 A 
ATOM      4  O   UNL     1     118.548  73.706  40.779  1.00  0.00    -0.285 OA
ATOM      5  C   UNL     1     119.948  73.088  42.544  1.00  0.00     0.111 A 
ATOM      6  C   UNL     1     121.108  72.800  41.763  1.00  0.00     0.134 A 
ATOM      7  C   UNL     1     122.225  72.217  42.375  1.00  0.00     0.093 A 
ATOM      8  C   UNL     1     122.246  71.971  43.750  1.00  0.00     0.123 A 
ATOM      9  C   UNL     1     121.142  72.302  44.529  1.00  0.00     0.094 A 
ATOM     10  C   UNL     1     119.999  72.850  43.943  1.00  0.00     0.146 A 
ATOM     11  O   UNL     1     118.962  73.137  44.721  1.00  0.00    -0.451 OA
ENDROOT
BRANCH   1  12
ATOM     12  C   UNL     1     116.741  73.941  45.223  1.00  0.00     0.063 A 
ATOM     13  C   UNL     1     116.001  75.124  47.218  1.00  0.00     0.047 A 
ATOM     14  C   UNL     1     116.983  74.857  46.262  1.00  0.00     0.020 A 
ATOM     15  C   UNL     1     114.765  74.475  47.155  1.00  0.00     0.119 A 
ATOM     16  C   UNL     1     114.512  73.560  46.126  1.00  0.00     0.093 A 
ATOM     17  C   UNL     1     115.486  73.292  45.156  1.00  0.00     0.130 A 
BRANCH  15  18
ATOM     18  O   UNL     1     113.796  74.748  48.118  1.00  0.00    -0.508 OA
ATOM     19  H   UNL     1     113.150  74.035  48.435  1.00  0.00     0.293 HD
ENDBRANCH  15  18
BRANCH  17  20
ATOM     20  O   UNL     1     115.167  72.397  44.132  1.00  0.00    -0.507 OA
ATOM     21  H   UNL     1     114.270  71.932  44.064  1.00  0.00     0.293 HD
ENDBRANCH  17  20
ENDBRANCH   1  12
BRANCH   2  22
ATOM     22  O   UNL     1     116.438  74.329  42.394  1.00  0.00    -0.502 OA
ATOM     23  H   UNL     1     116.382  75.022  41.657  1.00  0.00     0.293 HD
ENDBRANCH   2  22
BRANCH   6  24
ATOM     24  O   UNL     1     121.224  73.091  40.401  1.00  0.00    -0.507 OA
ATOM     25  H   UNL     1     121.231  72.403  39.664  1.00  0.00     0.293 HD
ENDBRANCH   6  24
BRANCH   8  26
ATOM     26  O   UNL     1     123.368  71.405  44.352  1.00  0.00    -0.508 OA
ATOM     27  H   UNL     1     123.885  70.654  43.911  1.00  0.00     0.293 HD
ENDBRANCH   8  26
TORSDOF 6
ENDMDL
MODEL 2
REMARK VINA RESULT:    -5.931      1.425      2.946
REMARK INTER + INTRA:          -7.327
REMARK INTER:                  -7.554
REMARK INTRA:                   0.227
REMARK UNBOUND:                -0.183
REMARK SMILES O=c1c(O)c(-c2ccc(O)cc2O)oc2cc(O)cc(O)c12
REMARK SMILES IDX 5 1 3 2 2 3 1 4 22 5 20 6 19 7 17 8 16 9 15 10 14 11 6 12
REMARK SMILES IDX 8 13 7 14 9 15 11 16 12 17 10 18 13 20 4 22 21 24 18 26
REMARK H PARENT 10 19 13 21 4 23 21 25 18 27
REMARK Flexibility Score: inf
ROOT
ATOM      1  C   UNL     1     117.961  73.551  44.563  1.00  0.00     0.184 A 
ATOM      2  C   UNL     1     118.926  73.548  45.581  1.00  0.00     0.208 A 
ATOM      3  C   UNL     1     120.264  73.283  45.250  1.00  0.00     0.238 A 
ATOM      4  O   UNL     1     121.134  73.342  46.158  1.00  0.00    -0.285 OA
ATOM      5  C   UNL     1     120.613  72.997  43.907  1.00  0.00     0.111 A 
ATOM      6  C   UNL     1     121.931  72.676  43.463  1.00  0.00     0.134 A 
ATOM      7  C   UNL     1     122.182  72.531  42.093  1.00  0.00     0.093 A 
ATOM      8  C   UNL     1     121.150  72.633  41.157  1.00  0.00     0.123 A 
ATOM      9  C   UNL     1     119.851  72.888  41.585  1.00  0.00     0.094 A 
ATOM     10  C   UNL     1     119.575  73.075  42.942  1.00  0.00     0.146 A 
ATOM     11  O   UNL     1     118.324  73.331  43.305  1.00  0.00    -0.451 OA
ENDROOT
BRANCH   1  12
ATOM     12  C   UNL     1     116.534  73.801  44.856  1.00  0.00     0.063 A 
ATOM     13  C   UNL     1     114.674  73.673  46.422  1.00  0.00     0.047 A 
ATOM     14  C   UNL     1     116.029  73.500  46.134  1.00  0.00     0.020 A 
ATOM     15  C   UNL     1     113.801  74.142  45.438  1.00  0.00     0.119 A 
ATOM     16  C   UNL     1     114.291  74.444  44.161  1.00  0.00     0.093 A 
ATOM     17  C   UNL     1     115.649  74.284  43.863  1.00  0.00     0.130 A 
BRANCH  15  18
ATOM     18  O   UNL     1     112.450  74.305  45.738  1.00  0.00    -0.508 OA
ATOM     19  H   UNL     1     111.939  75.130  45.447  1.00  0.00     0.293 HD
ENDBRANCH  15  18
BRANCH  17  20
ATOM     20  O   UNL     1     116.089  74.635  42.585  1.00  0.00    -0.507 OA
ATOM     21  H   UNL     1     116.902  75.216  42.421  1.00  0.00     0.293 HD
ENDBRANCH  17  20
ENDBRANCH   1  12
BRANCH   2  22
ATOM     22  O   UNL     1     118.552  73.829  46.898  1.00  0.00    -0.502 OA
ATOM     23  H   UNL     1     119.157  73.636  47.688  1.00  0.00     0.293 HD
ENDBRANCH   2  22
BRANCH   6  24
ATOM     24  O   UNL     1     123.014  72.462  44.321  1.00  0.00    -0.507 OA
ATOM     25  H   UNL     1     122.957  72.006  45.218  1.00  0.00     0.293 HD
ENDBRANCH   6  24
BRANCH   8  26
ATOM     26  O   UNL     1     121.406  72.471  39.797  1.00  0.00    -0.508 OA
ATOM     27  H   UNL     1     122.278  72.779  39.381  1.00  0.00     0.293 HD
ENDBRANCH   8  26
TORSDOF 6
ENDMDL
MODEL 3
REMARK VINA RESULT:    -5.854      1.443      1.938
REMARK INTER + INTRA:          -7.234
REMARK INTER:                  -6.984
REMARK INTRA:                  -0.251
REMARK UNBOUND:                -0.183
REMARK SMILES O=c1c(O)c(-c2ccc(O)cc2O)oc2cc(O)cc(O)c12
REMARK SMILES IDX 5 1 3 2 2 3 1 4 22 5 20 6 19 7 17 8 16 9 15 10 14 11 6 12
REMARK SMILES IDX 8 13 7 14 9 15 11 16 12 17 10 18 13 20 4 22 21 24 18 26
REMARK H PARENT 10 19 13 21 4 23 21 25 18 27
REMARK Flexibility Score: inf
ROOT
ATOM      1  C   UNL     1     117.950  73.382  43.947  1.00  0.00     0.184 A 
ATOM      2  C   UNL     1     118.349  73.650  42.628  1.00  0.00     0.208 A 
ATOM      3  C   UNL     1     119.635  73.271  42.215  1.00  0.00     0.238 A 
ATOM      4  O   UNL     1     119.964  73.459  41.015  1.00  0.00    -0.285 OA
ATOM      5  C   UNL     1     120.517  72.654  43.137  1.00  0.00     0.111 A 
ATOM      6  C   UNL     1     121.857  72.262  42.839  1.00  0.00     0.134 A 
ATOM      7  C   UNL     1     122.596  71.550  43.791  1.00  0.00     0.093 A 
ATOM      8  C   UNL     1     122.065  71.270  45.052  1.00  0.00     0.123 A 
ATOM      9  C   UNL     1     120.780  71.698  45.373  1.00  0.00     0.094 A 
ATOM     10  C   UNL     1     120.004  72.379  44.432  1.00  0.00     0.146 A 
ATOM     11  O   UNL     1     118.779  72.756  44.775  1.00  0.00    -0.451 OA
ENDROOT
BRANCH   1  12
ATOM     12  C   UNL     1     116.616  73.780  44.444  1.00  0.00     0.063 A 
ATOM     13  C   UNL     1     114.196  73.725  44.189  1.00  0.00     0.047 A 
ATOM     14  C   UNL     1     115.467  73.320  43.776  1.00  0.00     0.020 A 
ATOM     15  C   UNL     1     114.053  74.598  45.270  1.00  0.00     0.119 A 
ATOM     16  C   UNL     1     115.190  75.064  45.942  1.00  0.00     0.093 A 
ATOM     17  C   UNL     1     116.469  74.658  45.543  1.00  0.00     0.130 A 
BRANCH  15  18
ATOM     18  O   UNL     1     112.779  74.997  45.667  1.00  0.00    -0.508 OA
ATOM     19  H   UNL     1     111.977  74.386  45.567  1.00  0.00     0.293 HD
ENDBRANCH  15  18
BRANCH  17  20
ATOM     20  O   UNL     1     117.565  75.124  46.272  1.00  0.00    -0.507 OA
ATOM     21  H   UNL     1     117.897  74.678  47.118  1.00  0.00     0.293 HD
ENDBRANCH  17  20
ENDBRANCH   1  12
BRANCH   2  22
ATOM     22  O   UNL     1     117.459  74.265  41.742  1.00  0.00    -0.502 OA
ATOM     23  H   UNL     1     116.621  74.739  42.056  1.00  0.00     0.293 HD
ENDBRANCH   2  22
BRANCH   6  24
ATOM     24  O   UNL     1     122.513  72.571  41.644  1.00  0.00    -0.507 OA
ATOM     25  H   UNL     1     122.053  72.826  40.783  1.00  0.00     0.293 HD
ENDBRANCH   6  24
BRANCH   8  26
ATOM     26  O   UNL     1     122.814  70.574  45.999  1.00  0.00    -0.508 OA
ATOM     27  H   UNL     1     122.559  70.571  46.980  1.00  0.00     0.293 HD
ENDBRANCH   8  26
TORSDOF 6
ENDMDL
MODEL 4
REMARK VINA RESULT:    -5.748      4.297      7.577
REMARK INTER + INTRA:          -7.107
REMARK INTER:                  -6.755
REMARK INTRA:                  -0.352
REMARK UNBOUND:                -0.183
REMARK SMILES O=c1c(O)c(-c2ccc(O)cc2O)oc2cc(O)cc(O)c12
REMARK SMILES IDX 5 1 3 2 2 3 1 4 22 5 20 6 19 7 17 8 16 9 15 10 14 11 6 12
REMARK SMILES IDX 8 13 7 14 9 15 11 16 12 17 10 18 13 20 4 22 21 24 18 26
REMARK H PARENT 10 19 13 21 4 23 21 25 18 27
REMARK Flexibility Score: inf
ROOT
ATOM      1  C   UNL     1     121.661  70.097  45.187  1.00  0.00     0.184 A 
ATOM      2  C   UNL     1     122.574  70.047  46.251  1.00  0.00     0.208 A 
ATOM      3  C   UNL     1     122.493  68.988  47.168  1.00  0.00     0.238 A 
ATOM      4  O   UNL     1     123.353  68.916  48.084  1.00  0.00    -0.285 OA
ATOM      5  C   UNL     1     121.480  68.008  47.025  1.00  0.00     0.111 A 
ATOM      6  C   UNL     1     121.278  66.913  47.918  1.00  0.00     0.134 A 
ATOM      7  C   UNL     1     120.322  65.937  47.609  1.00  0.00     0.093 A 
ATOM      8  C   UNL     1     119.517  66.052  46.474  1.00  0.00     0.123 A 
ATOM      9  C   UNL     1     119.666  67.147  45.628  1.00  0.00     0.094 A 
ATOM     10  C   UNL     1     120.636  68.117  45.888  1.00  0.00     0.146 A 
ATOM     11  O   UNL     1     120.754  69.138  45.047  1.00  0.00    -0.451 OA
ENDROOT
BRANCH   1  12
ATOM     12  C   UNL     1     121.684  71.200  44.203  1.00  0.00     0.063 A 
ATOM     13  C   UNL     1     122.844  72.372  42.412  1.00  0.00     0.047 A 
ATOM     14  C   UNL     1     122.768  71.307  43.313  1.00  0.00     0.020 A 
ATOM     15  C   UNL     1     121.845  73.347  42.390  1.00  0.00     0.119 A 
ATOM     16  C   UNL     1     120.762  73.252  43.273  1.00  0.00     0.093 A 
ATOM     17  C   UNL     1     120.669  72.185  44.174  1.00  0.00     0.130 A 
BRANCH  15  18
ATOM     18  O   UNL     1     121.937  74.405  41.489  1.00  0.00    -0.508 OA
ATOM     19  H   UNL     1     121.234  75.134  41.453  1.00  0.00     0.293 HD
ENDBRANCH  15  18
BRANCH  17  20
ATOM     20  O   UNL     1     119.549  72.121  45.006  1.00  0.00    -0.507 OA
ATOM     21  H   UNL     1     119.094  71.252  45.254  1.00  0.00     0.293 HD
ENDBRANCH  17  20
ENDBRANCH   1  12
BRANCH   2  22
ATOM     22  O   UNL     1     123.561  71.029  46.370  1.00  0.00    -0.502 OA
ATOM     23  H   UNL     1     124.433  70.989  45.855  1.00  0.00     0.293 HD
ENDBRANCH   2  22
BRANCH   6  24
ATOM     24  O   UNL     1     121.966  66.753  49.124  1.00  0.00    -0.507 OA
ATOM     25  H   UNL     1     122.605  66.000  49.328  1.00  0.00     0.293 HD
ENDBRANCH   6  24
BRANCH   8  26
ATOM     26  O   UNL     1     118.557  65.084  46.184  1.00  0.00    -0.508 OA
ATOM     27  H   UNL     1     118.772  64.095  46.225  1.00  0.00     0.293 HD
ENDBRANCH   8  26
TORSDOF 6
ENDMDL
MODEL 5
REMARK VINA RESULT:    -5.688      1.574      6.465
REMARK INTER + INTRA:          -7.034
REMARK INTER:                  -6.618
REMARK INTRA:                  -0.417
REMARK UNBOUND:                -0.183
REMARK SMILES O=c1c(O)c(-c2ccc(O)cc2O)oc2cc(O)cc(O)c12
REMARK SMILES IDX 5 1 3 2 2 3 1 4 22 5 20 6 19 7 17 8 16 9 15 10 14 11 6 12
REMARK SMILES IDX 8 13 7 14 9 15 11 16 12 17 10 18 13 20 4 22 21 24 18 26
REMARK H PARENT 10 19 13 21 4 23 21 25 18 27
REMARK Flexibility Score: inf
ROOT
ATOM      1  C   UNL     1     119.009  72.959  44.011  1.00  0.00     0.184 A 
ATOM      2  C   UNL     1     118.532  73.785  42.981  1.00  0.00     0.208 A 
ATOM      3  C   UNL     1     117.235  74.312  43.076  1.00  0.00     0.238 A 
ATOM      4  O   UNL     1     116.836  75.099  42.179  1.00  0.00    -0.285 OA
ATOM      5  C   UNL     1     116.421  73.982  44.188  1.00  0.00     0.111 A 
ATOM      6  C   UNL     1     115.077  74.427  44.369  1.00  0.00     0.134 A 
ATOM      7  C   UNL     1     114.409  74.139  45.566  1.00  0.00     0.093 A 
ATOM      8  C   UNL     1     115.015  73.368  46.560  1.00  0.00     0.123 A 
ATOM      9  C   UNL     1     116.305  72.881  46.369  1.00  0.00     0.094 A 
ATOM     10  C   UNL     1     117.010  73.182  45.202  1.00  0.00     0.146 A 
ATOM     11  O   UNL     1     118.243  72.709  45.066  1.00  0.00    -0.451 OA
ENDROOT
BRANCH   1  12
ATOM     12  C   UNL     1     120.358  72.358  43.953  1.00  0.00     0.063 A 
ATOM     13  C   UNL     1     121.770  70.455  43.394  1.00  0.00     0.047 A 
ATOM     14  C   UNL     1     120.516  71.071  43.410  1.00  0.00     0.020 A 
ATOM     15  C   UNL     1     122.882  71.112  43.926  1.00  0.00     0.119 A 
ATOM     16  C   UNL     1     122.736  72.394  44.472  1.00  0.00     0.093 A 
ATOM     17  C   UNL     1     121.487  73.025  44.484  1.00  0.00     0.130 A 
BRANCH  15  18
ATOM     18  O   UNL     1     124.125  70.484  43.908  1.00  0.00    -0.508 OA
ATOM     19  H   UNL     1     124.343  69.723  44.540  1.00  0.00     0.293 HD
ENDBRANCH  15  18
BRANCH  17  20
ATOM     20  O   UNL     1     121.407  74.318  45.008  1.00  0.00    -0.507 OA
ATOM     21  H   UNL     1     120.963  74.528  45.892  1.00  0.00     0.293 HD
ENDBRANCH  17  20
ENDBRANCH   1  12
BRANCH   2  22
ATOM     22  O   UNL     1     119.356  74.089  41.893  1.00  0.00    -0.502 OA
ATOM     23  H   UNL     1     119.576  75.042  41.629  1.00  0.00     0.293 HD
ENDBRANCH   2  22
BRANCH   6  24
ATOM     24  O   UNL     1     114.348  75.125  43.401  1.00  0.00    -0.507 OA
ATOM     25  H   UNL     1     113.492  75.629  43.576  1.00  0.00     0.293 HD
ENDBRANCH   6  24
BRANCH   8  26
ATOM     26  O   UNL     1     114.338  73.074  47.742  1.00  0.00    -0.508 OA
ATOM     27  H   UNL     1     113.510  72.488  47.747  1.00  0.00     0.293 HD
ENDBRANCH   8  26
TORSDOF 6
ENDMDL
MODEL 6
REMARK VINA RESULT:    -5.628      1.779      6.655
REMARK INTER + INTRA:          -6.962
REMARK INTER:                  -6.667
REMARK INTRA:                  -0.296
REMARK UNBOUND:                -0.183
REMARK SMILES O=c1c(O)c(-c2ccc(O)cc2O)oc2cc(O)cc(O)c12
REMARK SMILES IDX 5 1 3 2 2 3 1 4 22 5 20 6 19 7 17 8 16 9 15 10 14 11 6 12
REMARK SMILES IDX 8 13 7 14 9 15 11 16 12 17 10 18 13 20 4 22 21 24 18 26
REMARK H PARENT 10 19 13 21 4 23 21 25 18 27
REMARK Flexibility Score: inf
ROOT
ATOM      1  C   UNL     1     117.349  73.862  44.245  1.00  0.00     0.184 A 
ATOM      2  C   UNL     1     116.203  74.374  43.618  1.00  0.00     0.208 A 
ATOM      3  C   UNL     1     115.011  74.470  44.351  1.00  0.00     0.238 A 
ATOM      4  O   UNL     1     114.003  74.986  43.802  1.00  0.00    -0.285 OA
ATOM      5  C   UNL     1     114.974  74.025  45.696  1.00  0.00     0.111 A 
ATOM      6  C   UNL     1     113.811  74.038  46.523  1.00  0.00     0.134 A 
ATOM      7  C   UNL     1     113.921  73.688  47.875  1.00  0.00     0.093 A 
ATOM      8  C   UNL     1     115.138  73.264  48.412  1.00  0.00     0.123 A 
ATOM      9  C   UNL     1     116.266  73.193  47.600  1.00  0.00     0.094 A 
ATOM     10  C   UNL     1     116.197  73.571  46.257  1.00  0.00     0.146 A 
ATOM     11  O   UNL     1     117.300  73.500  45.521  1.00  0.00    -0.451 OA
ENDROOT
BRANCH   1  12
ATOM     12  C   UNL     1     118.626  73.716  43.514  1.00  0.00     0.063 A 
ATOM     13  C   UNL     1     119.872  72.729  41.670  1.00  0.00     0.047 A 
ATOM     14  C   UNL     1     118.668  72.930  42.349  1.00  0.00     0.020 A 
ATOM     15  C   UNL     1     121.052  73.304  42.148  1.00  0.00     0.119 A 
ATOM     16  C   UNL     1     121.023  74.088  43.308  1.00  0.00     0.093 A 
ATOM     17  C   UNL     1     119.821  74.305  43.992  1.00  0.00     0.130 A 
BRANCH  15  18
ATOM     18  O   UNL     1     122.246  73.091  41.463  1.00  0.00    -0.508 OA
ATOM     19  H   UNL     1     122.332  72.368  40.759  1.00  0.00     0.293 HD
ENDBRANCH  15  18
BRANCH  17  20
ATOM     20  O   UNL     1     119.844  75.124  45.122  1.00  0.00    -0.507 OA
ATOM     21  H   UNL     1     119.331  75.995  45.184  1.00  0.00     0.293 HD
ENDBRANCH  17  20
ENDBRANCH   1  12
BRANCH   2  22
ATOM     22  O   UNL     1     116.267  74.802  42.288  1.00  0.00    -0.502 OA
ATOM     23  H   UNL     1     116.375  75.777  42.036  1.00  0.00     0.293 HD
ENDBRANCH   2  22
BRANCH   6  24
ATOM     24  O   UNL     1     112.530  74.357  46.064  1.00  0.00    -0.507 OA
ATOM     25  H   UNL     1     111.801  74.768  46.628  1.00  0.00     0.293 HD
ENDBRANCH   6  24
BRANCH   8  26
ATOM     26  O   UNL     1     115.234  72.903  49.754  1.00  0.00    -0.508 OA
ATOM     27  H   UNL     1     114.892  73.507  50.492  1.00  0.00     0.293 HD
ENDBRANCH   8  26
TORSDOF 6
ENDMDL
MODEL 7
REMARK VINA RESULT:    -5.551      2.929      6.421
REMARK INTER + INTRA:          -6.870
REMARK INTER:                  -6.455
REMARK INTRA:                  -0.415
REMARK UNBOUND:                -0.183
REMARK SMILES O=c1c(O)c(-c2ccc(O)cc2O)oc2cc(O)cc(O)c12
REMARK SMILES IDX 5 1 3 2 2 3 1 4 22 5 20 6 19 7 17 8 16 9 15 10 14 11 6 12
REMARK SMILES IDX 8 13 7 14 9 15 11 16 12 17 10 18 13 20 4 22 21 24 18 26
REMARK H PARENT 10 19 13 21 4 23 21 25 18 27
REMARK Flexibility Score: inf
ROOT
ATOM      1  C   UNL     1     121.890  71.219  45.144  1.00  0.00     0.184 A 
ATOM      2  C   UNL     1     122.796  71.420  44.092  1.00  0.00     0.208 A 
ATOM      3  C   UNL     1     122.356  72.071  42.929  1.00  0.00     0.238 A 
ATOM      4  O   UNL     1     123.189  72.302  42.015  1.00  0.00    -0.285 OA
ATOM      5  C   UNL     1     121.006  72.487  42.824  1.00  0.00     0.111 A 
ATOM      6  C   UNL     1     120.440  73.121  41.677  1.00  0.00     0.134 A 
ATOM      7  C   UNL     1     119.125  73.599  41.730  1.00  0.00     0.093 A 
ATOM      8  C   UNL     1     118.336  73.409  42.867  1.00  0.00     0.123 A 
ATOM      9  C   UNL     1     118.860  72.741  43.969  1.00  0.00     0.094 A 
ATOM     10  C   UNL     1     120.180  72.285  43.960  1.00  0.00     0.146 A 
ATOM     11  O   UNL     1     120.644  71.665  45.039  1.00  0.00    -0.451 OA
ENDROOT
BRANCH   1  12
ATOM     12  C   UNL     1     122.291  70.519  46.383  1.00  0.00     0.063 A 
ATOM     13  C   UNL     1     122.466  68.441  47.640  1.00  0.00     0.047 A 
ATOM     14  C   UNL     1     122.148  69.122  46.462  1.00  0.00     0.020 A 
ATOM     15  C   UNL     1     122.925  69.145  48.756  1.00  0.00     0.119 A 
ATOM     16  C   UNL     1     123.070  70.536  48.689  1.00  0.00     0.093 A 
ATOM     17  C   UNL     1     122.764  71.228  47.512  1.00  0.00     0.130 A 
BRANCH  15  18
ATOM     18  O   UNL     1     123.234  68.453  49.925  1.00  0.00    -0.508 OA
ATOM     19  H   UNL     1     122.898  67.511  50.087  1.00  0.00     0.293 HD
ENDBRANCH  15  18
BRANCH  17  20
ATOM     20  O   UNL     1     122.962  72.611  47.489  1.00  0.00    -0.507 OA
ATOM     21  H   UNL     1     123.854  73.044  47.693  1.00  0.00     0.293 HD
ENDBRANCH  17  20
ENDBRANCH   1  12
BRANCH   2  22
ATOM     22  O   UNL     1     124.121  70.995  44.222  1.00  0.00    -0.502 OA
ATOM     23  H   UNL     1     124.694  71.238  45.021  1.00  0.00     0.293 HD
ENDBRANCH   2  22
BRANCH   6  24
ATOM     24  O   UNL     1     121.112  73.279  40.461  1.00  0.00    -0.507 OA
ATOM     25  H   UNL     1     122.108  73.401  40.365  1.00  0.00     0.293 HD
ENDBRANCH   6  24
BRANCH   8  26
ATOM     26  O   UNL     1     117.023  73.875  42.905  1.00  0.00    -0.508 OA
ATOM     27  H   UNL     1     116.787  74.763  43.333  1.00  0.00     0.293 HD
ENDBRANCH   8  26
TORSDOF 6
ENDMDL
MODEL 8
REMARK VINA RESULT:    -5.545      3.554      5.917
REMARK INTER + INTRA:          -6.862
REMARK INTER:                  -6.550
REMARK INTRA:                  -0.313
REMARK UNBOUND:                -0.183
REMARK SMILES O=c1c(O)c(-c2ccc(O)cc2O)oc2cc(O)cc(O)c12
REMARK SMILES IDX 5 1 3 2 2 3 1 4 22 5 20 6 19 7 17 8 16 9 15 10 14 11 6 12
REMARK SMILES IDX 8 13 7 14 9 15 11 16 12 17 10 18 13 20 4 22 21 24 18 26
REMARK H PARENT 10 19 13 21 4 23 21 25 18 27
REMARK Flexibility Score: inf
ROOT
ATOM      1  C   UNL     1     120.717  70.355  45.237  1.00  0.00     0.184 A 
ATOM      2  C   UNL     1     122.028  70.499  44.757  1.00  0.00     0.208 A 
ATOM      3  C   UNL     1     122.325  71.565  43.895  1.00  0.00     0.238 A 
ATOM      4  O   UNL     1     123.515  71.723  43.517  1.00  0.00    -0.285 OA
ATOM      5  C   UNL     1     121.297  72.458  43.500  1.00  0.00     0.111 A 
ATOM      6  C   UNL     1     121.475  73.551  42.599  1.00  0.00     0.134 A 
ATOM      7  C   UNL     1     120.417  74.441  42.376  1.00  0.00     0.093 A 
ATOM      8  C   UNL     1     119.170  74.240  42.972  1.00  0.00     0.123 A 
ATOM      9  C   UNL     1     118.970  73.145  43.807  1.00  0.00     0.094 A 
ATOM     10  C   UNL     1     120.016  72.260  44.078  1.00  0.00     0.146 A 
ATOM     11  O   UNL     1     119.786  71.236  44.892  1.00  0.00    -0.451 OA
ENDROOT
BRANCH   1  12
ATOM     12  C   UNL     1     120.342  69.238  46.129  1.00  0.00     0.063 A 
ATOM     13  C   UNL     1     119.875  68.435  48.380  1.00  0.00     0.047 A 
ATOM     14  C   UNL     1     120.174  69.482  47.504  1.00  0.00     0.020 A 
ATOM     15  C   UNL     1     119.745  67.131  47.897  1.00  0.00     0.119 A 
ATOM     16  C   UNL     1     119.912  66.876  46.530  1.00  0.00     0.093 A 
ATOM     17  C   UNL     1     120.202  67.918  45.641  1.00  0.00     0.130 A 
BRANCH  15  18
ATOM     18  O   UNL     1     119.451  66.097  48.783  1.00  0.00    -0.508 OA
ATOM     19  H   UNL     1     118.577  66.069  49.294  1.00  0.00     0.293 HD
ENDBRANCH  15  18
BRANCH  17  20
ATOM     20  O   UNL     1     120.321  67.612  44.284  1.00  0.00    -0.507 OA
ATOM     21  H   UNL     1     119.886  66.803  43.860  1.00  0.00     0.293 HD
ENDBRANCH  17  20
ENDBRANCH   1  12
BRANCH   2  22
ATOM     22  O   UNL     1     123.020  69.600  45.160  1.00  0.00    -0.502 OA
ATOM     23  H   UNL     1     122.869  68.599  45.183  1.00  0.00     0.293 HD
ENDBRANCH   2  22
BRANCH   6  24
ATOM     24  O   UNL     1     122.651  73.788  41.882  1.00  0.00    -0.507 OA
ATOM     25  H   UNL     1     123.540  74.027  42.295  1.00  0.00     0.293 HD
ENDBRANCH   6  24
BRANCH   8  26
ATOM     26  O   UNL     1     118.119  75.123  42.732  1.00  0.00    -0.508 OA
ATOM     27  H   UNL     1     117.788  75.311  41.793  1.00  0.00     0.293 HD
ENDBRANCH   8  26
TORSDOF 6
ENDMDL
MODEL 9
REMARK VINA RESULT:    -5.472      1.742      7.008
REMARK INTER + INTRA:          -6.774
REMARK INTER:                  -6.408
REMARK INTRA:                  -0.366
REMARK UNBOUND:                -0.183
REMARK SMILES O=c1c(O)c(-c2ccc(O)cc2O)oc2cc(O)cc(O)c12
REMARK SMILES IDX 5 1 3 2 2 3 1 4 22 5 20 6 19 7 17 8 16 9 15 10 14 11 6 12
REMARK SMILES IDX 8 13 7 14 9 15 11 16 12 17 10 18 13 20 4 22 21 24 18 26
REMARK H PARENT 10 19 13 21 4 23 21 25 18 27
REMARK Flexibility Score: inf
ROOT
ATOM      1  C   UNL     1     118.976  73.150  44.913  1.00  0.00     0.184 A 
ATOM      2  C   UNL     1     118.911  73.492  46.273  1.00  0.00     0.208 A 
ATOM      3  C   UNL     1     117.690  73.929  46.807  1.00  0.00     0.238 A 
ATOM      4  O   UNL     1     117.623  74.176  48.039  1.00  0.00    -0.285 OA
ATOM      5  C   UNL     1     116.555  74.046  45.967  1.00  0.00     0.111 A 
ATOM      6  C   UNL     1     115.275  74.515  46.392  1.00  0.00     0.134 A 
ATOM      7  C   UNL     1     114.194  74.473  45.503  1.00  0.00     0.093 A 
ATOM      8  C   UNL     1     114.361  74.037  44.186  1.00  0.00     0.123 A 
ATOM      9  C   UNL     1     115.617  73.632  43.746  1.00  0.00     0.094 A 
ATOM     10  C   UNL     1     116.707  73.628  44.619  1.00  0.00     0.146 A 
ATOM     11  O   UNL     1     117.885  73.220  44.160  1.00  0.00    -0.451 OA
ENDROOT
BRANCH   1  12
ATOM     12  C   UNL     1     120.241  72.706  44.291  1.00  0.00     0.063 A 
ATOM     13  C   UNL     1     121.980  71.015  44.083  1.00  0.00     0.047 A 
ATOM     14  C   UNL     1     120.759  71.438  44.612  1.00  0.00     0.020 A 
ATOM     15  C   UNL     1     122.705  71.852  43.232  1.00  0.00     0.119 A 
ATOM     16  C   UNL     1     122.200  73.117  42.906  1.00  0.00     0.093 A 
ATOM     17  C   UNL     1     120.973  73.549  43.422  1.00  0.00     0.130 A 
BRANCH  15  18
ATOM     18  O   UNL     1     123.924  71.418  42.716  1.00  0.00    -0.508 OA
ATOM     19  H   UNL     1     124.803  71.804  43.038  1.00  0.00     0.293 HD
ENDBRANCH  15  18
BRANCH  17  20
ATOM     20  O   UNL     1     120.500  74.805  43.035  1.00  0.00    -0.507 OA
ATOM     21  H   UNL     1     121.098  75.617  42.949  1.00  0.00     0.293 HD
ENDBRANCH  17  20
ENDBRANCH   1  12
BRANCH   2  22
ATOM     22  O   UNL     1     120.048  73.372  47.077  1.00  0.00    -0.502 OA
ATOM     23  H   UNL     1     120.805  72.737  46.855  1.00  0.00     0.293 HD
ENDBRANCH   2  22
BRANCH   6  24
ATOM     24  O   UNL     1     115.023  75.055  47.656  1.00  0.00    -0.507 OA
ATOM     25  H   UNL     1     114.221  75.620  47.892  1.00  0.00     0.293 HD
ENDBRANCH   6  24
BRANCH   8  26
ATOM     26  O   UNL     1     113.282  74.013  43.305  1.00  0.00    -0.508 OA
ATOM     27  H   UNL     1     113.411  74.119  42.305  1.00  0.00     0.293 HD
ENDBRANCH   8  26
TORSDOF 6
ENDMDL
