MODEL 1
REMARK VINA RESULT:    -2.682      0.000      0.000
REMARK INTER + INTRA:          -3.236
REMARK INTER:                  -3.152
REMARK INTRA:                  -0.084
REMARK UNBOUND:                -0.084
REMARK SMILES CCCCC(=O)[O-]
REMARK SMILES IDX 4 1 5 2 6 3 7 4 3 5 2 6 1 7
REMARK H PARENT
REMARK Flexibility Score: inf
ROOT
ATOM      1  C   UNL     1      88.730  30.263  28.627  1.00  0.00     0.053 C 
ENDROOT
BRANCH   1   2
ATOM      2  C   UNL     1      87.283  30.111  28.977  1.00  0.00     0.041 C 
ATOM      3  O   UNL     1      86.653  31.069  29.499  1.00  0.00    -0.550 OA
ATOM      4  O   UNL     1      86.643  28.896  28.773  1.00  0.00    -0.550 OA
ENDBRANCH   1   2
BRANCH   1   5
ATOM      5  C   UNL     1      89.381  28.892  28.427  1.00  0.00     0.006 C 
BRANCH   5   6
ATOM      6  C   UNL     1      89.741  28.664  26.955  1.00  0.00    -0.003 C 
ATOM      7  C   UNL     1      89.779  29.980  26.186  1.00  0.00     0.004 C 
ENDBRANCH   5   6
ENDBRANCH   1   5
TORSDOF 3
ENDMDL
MODEL 2
REMARK VINA RESULT:    -2.652      2.011      2.193
REMARK INTER + INTRA:          -3.201
REMARK INTER:                  -3.117
REMARK INTRA:                  -0.085
REMARK UNBOUND:                -0.084
REMARK SMILES CCCCC(=O)[O-]
REMARK SMILES IDX 4 1 5 2 6 3 7 4 3 5 2 6 1 7
REMARK H PARENT
REMARK Flexibility Score: inf
ROOT
ATOM      1  C   UNL     1      88.134  28.907  28.955  1.00  0.00     0.053 C 
ENDROOT
BRANCH   1   2
ATOM      2  C   UNL     1      87.344  27.676  28.639  1.00  0.00     0.041 C 
ATOM      3  O   UNL     1      87.112  26.824  29.538  1.00  0.00    -0.550 OA
ATOM      4  O   UNL     1      86.908  27.444  27.341  1.00  0.00    -0.550 OA
ENDBRANCH   1   2
BRANCH   1   5
ATOM      5  C   UNL     1      89.535  28.817  28.344  1.00  0.00     0.006 C 
BRANCH   5   6
ATOM      6  C   UNL     1      89.599  29.560  27.004  1.00  0.00    -0.003 C 
ATOM      7  C   UNL     1      90.038  28.629  25.879  1.00  0.00     0.004 C 
ENDBRANCH   5   6
ENDBRANCH   1   5
TORSDOF 3
ENDMDL
MODEL 3
REMARK VINA RESULT:    -2.646      1.063      1.278
REMARK INTER + INTRA:          -3.194
REMARK INTER:                  -3.088
REMARK INTRA:                  -0.106
REMARK UNBOUND:                -0.084
REMARK SMILES CCCCC(=O)[O-]
REMARK SMILES IDX 4 1 5 2 6 3 7 4 3 5 2 6 1 7
REMARK H PARENT
REMARK Flexibility Score: inf
ROOT
ATOM      1  C   UNL     1      88.915  30.317  28.764  1.00  0.00     0.053 C 
ENDROOT
BRANCH   1   2
ATOM      2  C   UNL     1      87.478  30.692  28.579  1.00  0.00     0.041 C 
ATOM      3  O   UNL     1      86.662  30.560  29.529  1.00  0.00    -0.550 OA
ATOM      4  O   UNL     1      87.030  31.141  27.343  1.00  0.00    -0.550 OA
ENDBRANCH   1   2
BRANCH   1   5
ATOM      5  C   UNL     1      89.157  28.878  28.301  1.00  0.00     0.006 C 
BRANCH   5   6
ATOM      6  C   UNL     1      89.821  28.850  26.919  1.00  0.00    -0.003 C 
ATOM      7  C   UNL     1      88.811  28.506  25.829  1.00  0.00     0.004 C 
ENDBRANCH   5   6
ENDBRANCH   1   5
TORSDOF 3
ENDMDL
MODEL 4
REMARK VINA RESULT:    -2.456      2.693      3.063
REMARK INTER + INTRA:          -2.970
REMARK INTER:                  -2.878
REMARK INTRA:                  -0.091
REMARK UNBOUND:                -0.084
REMARK SMILES CCCCC(=O)[O-]
REMARK SMILES IDX 4 1 5 2 6 3 7 4 3 5 2 6 1 7
REMARK H PARENT
REMARK Flexibility Score: inf
ROOT
ATOM      1  C   UNL     1      87.430  28.958  28.875  1.00  0.00     0.053 C 
ENDROOT
BRANCH   1   2
ATOM      2  C   UNL     1      88.841  29.440  28.743  1.00  0.00     0.041 C 
ATOM      3  O   UNL     1      89.110  30.662  28.888  1.00  0.00    -0.550 OA
ATOM      4  O   UNL     1      89.851  28.548  28.409  1.00  0.00    -0.550 OA
ENDBRANCH   1   2
BRANCH   1   5
ATOM      5  C   UNL     1      87.403  27.465  29.213  1.00  0.00     0.006 C 
BRANCH   5   6
ATOM      6  C   UNL     1      86.410  26.717  28.315  1.00  0.00    -0.003 C 
ATOM      7  C   UNL     1      86.611  27.082  26.848  1.00  0.00     0.004 C 
ENDBRANCH   5   6
ENDBRANCH   1   5
TORSDOF 3
ENDMDL
MODEL 5
REMARK VINA RESULT:    -2.447      2.741      3.393
REMARK INTER + INTRA:          -2.960
REMARK INTER:                  -2.935
REMARK INTRA:                  -0.024
REMARK UNBOUND:                -0.084
REMARK SMILES CCCCC(=O)[O-]
REMARK SMILES IDX 4 1 5 2 6 3 7 4 3 5 2 6 1 7
REMARK H PARENT
REMARK Flexibility Score: inf
ROOT
ATOM      1  C   UNL     1      87.181  27.388  29.044  1.00  0.00     0.053 C 
ENDROOT
BRANCH   1   2
ATOM      2  C   UNL     1      86.242  26.408  28.413  1.00  0.00     0.041 C 
ATOM      3  O   UNL     1      86.372  26.096  27.200  1.00  0.00    -0.550 OA
ATOM      4  O   UNL     1      85.192  25.878  29.152  1.00  0.00    -0.550 OA
ENDBRANCH   1   2
BRANCH   1   5
ATOM      5  C   UNL     1      87.886  28.222  27.971  1.00  0.00     0.006 C 
BRANCH   5   6
ATOM      6  C   UNL     1      89.141  28.898  28.536  1.00  0.00    -0.003 C 
ATOM      7  C   UNL     1      88.922  30.395  28.727  1.00  0.00     0.004 C 
ENDBRANCH   5   6
ENDBRANCH   1   5
TORSDOF 3
ENDMDL
MODEL 6
REMARK VINA RESULT:    -2.398      2.150      2.742
REMARK INTER + INTRA:          -2.902
REMARK INTER:                  -2.825
REMARK INTRA:                  -0.077
REMARK UNBOUND:                -0.084
REMARK SMILES CCCCC(=O)[O-]
REMARK SMILES IDX 4 1 5 2 6 3 7 4 3 5 2 6 1 7
REMARK H PARENT
REMARK Flexibility Score: inf
ROOT
ATOM      1  C   UNL     1      87.438  27.365  29.247  1.00  0.00     0.053 C 
ENDROOT
BRANCH   1   2
ATOM      2  C   UNL     1      86.218  27.129  28.411  1.00  0.00     0.041 C 
ATOM      3  O   UNL     1      85.093  27.537  28.804  1.00  0.00    -0.550 OA
ATOM      4  O   UNL     1      86.317  26.416  27.224  1.00  0.00    -0.550 OA
ENDBRANCH   1   2
BRANCH   1   5
ATOM      5  C   UNL     1      87.895  28.821  29.130  1.00  0.00     0.006 C 
BRANCH   5   6
ATOM      6  C   UNL     1      89.332  28.904  28.603  1.00  0.00    -0.003 C 
ATOM      7  C   UNL     1      89.361  28.913  27.078  1.00  0.00     0.004 C 
ENDBRANCH   5   6
ENDBRANCH   1   5
TORSDOF 3
ENDMDL
MODEL 7
REMARK VINA RESULT:    -2.365      2.744      3.654
REMARK INTER + INTRA:          -2.863
REMARK INTER:                  -2.795
REMARK INTRA:                  -0.068
REMARK UNBOUND:                -0.084
REMARK SMILES CCCCC(=O)[O-]
REMARK SMILES IDX 4 1 5 2 6 3 7 4 3 5 2 6 1 7
REMARK H PARENT
REMARK Flexibility Score: inf
ROOT
ATOM      1  C   UNL     1      89.197  29.945  27.926  1.00  0.00     0.053 C 
ENDROOT
BRANCH   1   2
ATOM      2  C   UNL     1      89.464  29.557  26.506  1.00  0.00     0.041 C 
ATOM      3  O   UNL     1      90.178  28.552  26.246  1.00  0.00    -0.550 OA
ATOM      4  O   UNL     1      88.965  30.333  25.468  1.00  0.00    -0.550 OA
ENDBRANCH   1   2
BRANCH   1   5
ATOM      5  C   UNL     1      88.796  28.719  28.751  1.00  0.00     0.006 C 
BRANCH   5   6
ATOM      6  C   UNL     1      87.392  28.235  28.369  1.00  0.00    -0.003 C 
ATOM      7  C   UNL     1      86.991  27.009  29.183  1.00  0.00     0.004 C 
ENDBRANCH   5   6
ENDBRANCH   1   5
TORSDOF 3
ENDMDL
MODEL 8
REMARK VINA RESULT:    -2.326      9.290     10.211
REMARK INTER + INTRA:          -2.818
REMARK INTER:                  -2.762
REMARK INTRA:                  -0.056
REMARK UNBOUND:                -0.084
REMARK SMILES CCCCC(=O)[O-]
REMARK SMILES IDX 4 1 5 2 6 3 7 4 3 5 2 6 1 7
REMARK H PARENT
REMARK Flexibility Score: inf
ROOT
ATOM      1  C   UNL     1      89.859  38.985  24.179  1.00  0.00     0.053 C 
ENDROOT
BRANCH   1   2
ATOM      2  C   UNL     1      90.170  40.171  25.037  1.00  0.00     0.041 C 
ATOM      3  O   UNL     1      90.028  40.103  26.287  1.00  0.00    -0.550 OA
ATOM      4  O   UNL     1      90.569  41.366  24.453  1.00  0.00    -0.550 OA
ENDBRANCH   1   2
BRANCH   1   5
ATOM      5  C   UNL     1      88.913  38.028  24.909  1.00  0.00     0.006 C 
BRANCH   5   6
ATOM      6  C   UNL     1      89.164  36.577  24.482  1.00  0.00    -0.003 C 
ATOM      7  C   UNL     1      90.351  36.479  23.529  1.00  0.00     0.004 C 
ENDBRANCH   5   6
ENDBRANCH   1   5
TORSDOF 3
ENDMDL
MODEL 9
REMARK VINA RESULT:    -2.276      2.345      3.114
REMARK INTER + INTRA:          -2.758
REMARK INTER:                  -2.662
REMARK INTRA:                  -0.096
REMARK UNBOUND:                -0.084
REMARK SMILES CCCCC(=O)[O-]
REMARK SMILES IDX 4 1 5 2 6 3 7 4 3 5 2 6 1 7
REMARK H PARENT
REMARK Flexibility Score: inf
ROOT
ATOM      1  C   UNL     1      88.156  28.958  26.404  1.00  0.00     0.053 C 
ENDROOT
BRANCH   1   2
ATOM      2  C   UNL     1      87.862  30.373  26.015  1.00  0.00     0.041 C 
ATOM      3  O   UNL     1      88.397  30.873  24.990  1.00  0.00    -0.550 OA
ATOM      4  O   UNL     1      87.036  31.155  26.812  1.00  0.00    -0.550 OA
ENDBRANCH   1   2
BRANCH   1   5
ATOM      5  C   UNL     1      89.496  28.872  27.139  1.00  0.00     0.006 C 
BRANCH   5   6
ATOM      6  C   UNL     1      89.289  28.847  28.658  1.00  0.00    -0.003 C 
ATOM      7  C   UNL     1      87.924  28.270  29.019  1.00  0.00     0.004 C 
ENDBRANCH   5   6
ENDBRANCH   1   5
TORSDOF 3
ENDMDL
