MODEL 1
REMARK VINA RESULT:    -6.504      0.000      0.000
REMARK INTER + INTRA:         -16.285
REMARK INTER:                 -13.727
REMARK INTRA:                  -2.558
REMARK UNBOUND:                -2.558
REMARK SMILES CCC(=O)CCCCC[C@@H]1NC(=O)[C@H]2CCCCN2C(=O)[C@H]([C@@H](C)CC)NC(=O)[C@H](Cc2cn(OC)c3ccccc23)NC1=O
REMARK SMILES IDX 9 1 10 2 44 3 43 4 45 6 30 7 28 8 27 9 29 11 22 12 23 14
REMARK SMILES IDX 24 15 25 16 26 17 31 18 32 19 33 20 42 21 34 22 37 23 41 24
REMARK SMILES IDX 38 25 40 26 39 27 35 28 36 29 11 30 12 31 13 33 14 34 19 35
REMARK SMILES IDX 15 36 18 37 16 38 17 39 20 40 21 41 8 43 7 44 6 45 5 46 3 47
REMARK SMILES IDX 4 48 2 49 1 50
REMARK H PARENT 43 5 27 10 11 32
REMARK Flexibility Score: 80.00
ROOT
ATOM      1  C   UNL     1      16.934 -31.854  20.606  1.00  0.00     0.035 C 
ENDROOT
BRANCH   1   2
ATOM      2  C   UNL     1      17.304 -31.418  22.043  1.00  0.00     0.171 C 
BRANCH   2   3
ATOM      3  C   UNL     1      17.139 -32.531  23.040  1.00  0.00     0.243 C 
ATOM      4  N   UNL     1      18.064 -33.625  23.092  1.00  0.00    -0.342 N 
ATOM      5  H   UNL     1      18.648 -33.837  22.249  1.00  0.00     0.164 HD
ATOM      6  O   UNL     1      16.189 -32.474  23.871  1.00  0.00    -0.273 OA
BRANCH   4   7
ATOM      7  C   UNL     1      18.426 -34.233  24.373  1.00  0.00     0.175 C 
BRANCH   7   8
ATOM      8  C   UNL     1      19.404 -33.322  25.072  1.00  0.00     0.243 C 
ATOM      9  N   UNL     1      20.739 -33.161  24.569  1.00  0.00    -0.342 N 
ATOM     10  H   UNL     1      21.145 -33.923  23.984  1.00  0.00     0.164 HD
ATOM     11  O   UNL     1      19.008 -32.632  26.047  1.00  0.00    -0.273 OA
BRANCH   9  12
ATOM     12  C   UNL     1      21.566 -31.977  24.826  1.00  0.00     0.174 CG0
ATOM     13  G   UNL     1      22.085 -31.491  23.492  1.00  0.00     0.000 G0
BRANCH  12  14
ATOM     14  C   UNL     1      22.736 -32.340  25.791  1.00  0.00     0.018 C 
ATOM     15  C   UNL     1      22.601 -31.643  27.156  1.00  0.00     0.010 C 
BRANCH  14  16
ATOM     16  C   UNL     1      22.939 -33.864  25.967  1.00  0.00     0.002 C 
ATOM     17  C   UNL     1      24.242 -34.409  25.372  1.00  0.00     0.004 C 
ENDBRANCH  14  16
ENDBRANCH  12  14
ENDBRANCH   9  12
ENDBRANCH   7   8
BRANCH   7  18
ATOM     18  C   UNL     1      18.995 -35.649  24.179  1.00  0.00     0.073 C 
BRANCH  18  19
ATOM     19  C   UNL     1      19.111 -36.366  25.490  1.00  0.00    -0.016 A 
ATOM     20  C   UNL     1      20.293 -36.641  26.175  1.00  0.00     0.134 A 
ATOM     21  C   UNL     1      18.083 -36.819  26.301  1.00  0.00     0.006 A 
ATOM     22  N   UNL     1      20.005 -37.251  27.350  1.00  0.00    -0.191 N 
ATOM     23  C   UNL     1      18.668 -37.356  27.420  1.00  0.00     0.087 A 
ATOM     24  C   UNL     1      16.696 -36.804  26.133  1.00  0.00     0.011 A 
ATOM     25  C   UNL     1      17.911 -37.921  28.445  1.00  0.00     0.030 A 
ATOM     26  C   UNL     1      15.907 -37.371  27.149  1.00  0.00     0.001 A 
ATOM     27  C   UNL     1      16.513 -37.925  28.299  1.00  0.00     0.002 A 
BRANCH  22  28
ATOM     28  O   UNL     1      20.894 -37.711  28.305  1.00  0.00    -0.417 OA
ATOM     29  C   UNL     1      22.299 -37.715  28.090  1.00  0.00     0.313 C 
ENDBRANCH  22  28
ENDBRANCH  18  19
ENDBRANCH   7  18
ENDBRANCH   4   7
ENDBRANCH   2   3
BRANCH   2  30
ATOM     30  N   UNL     1      18.635 -30.804  22.172  1.00  0.00    -0.343 N 
ATOM     31  C   UNL     1      19.849 -31.222  21.512  1.00  0.00     0.243 C 
ATOM     32  H   UNL     1      18.714 -30.017  22.856  1.00  0.00     0.164 HD
ATOM     33  O   UNL     1      19.909 -32.321  20.904  1.00  0.00    -0.273 OA
BRANCH  31  34
ATOM     34  C   UNL     1      21.060 -30.318  21.522  1.00  0.00     0.174 C 
ATOM     35  N   UNL     1      21.646 -30.241  22.884  1.00  0.00    -0.329 N 
ATOM     36  C   UNL     1      20.665 -28.939  20.942  1.00  0.00     0.035 C 
ATOM     37  C   UNL     1      22.445 -29.072  23.300  1.00  0.00     0.120 C 
ATOM     38  C   UNL     1      21.734 -27.889  21.215  1.00  0.00     0.004 C 
ATOM     39  C   UNL     1      21.926 -27.757  22.721  1.00  0.00     0.022 C 
BRANCH  35  40
ATOM     40  C   UNL     1      22.072 -31.488  23.467  1.00  0.00     0.246 CG0
ATOM     41  O   UNL     1      22.866 -32.227  22.822  1.00  0.00    -0.272 OA
ATOM     42  G   UNL     1      21.556 -31.954  24.810  1.00  0.00     0.000 G0
ENDBRANCH  35  40
ENDBRANCH  31  34
ENDBRANCH   2  30
ENDBRANCH   1   2
BRANCH   1  43
ATOM     43  C   UNL     1      16.383 -33.285  20.495  1.00  0.00     0.003 C 
BRANCH  43  44
ATOM     44  C   UNL     1      14.863 -33.332  20.262  1.00  0.00     0.001 C 
BRANCH  44  45
ATOM     45  C   UNL     1      14.078 -32.476  21.273  1.00  0.00     0.008 C 
BRANCH  45  46
ATOM     46  C   UNL     1      13.140 -31.437  20.634  1.00  0.00     0.075 C 
BRANCH  46  47
ATOM     47  C   UNL     1      12.507 -30.498  21.639  1.00  0.00     0.132 C 
ATOM     48  O   UNL     1      11.291 -30.407  21.723  1.00  0.00    -0.300 OA
BRANCH  47  49
ATOM     49  C   UNL     1      13.373 -29.677  22.561  1.00  0.00     0.072 C 
ATOM     50  C   UNL     1      12.537 -28.994  23.638  1.00  0.00     0.012 C 
ENDBRANCH  47  49
ENDBRANCH  46  47
ENDBRANCH  45  46
ENDBRANCH  44  45
ENDBRANCH  43  44
ENDBRANCH   1  43
TORSDOF 12
ENDMDL
MODEL 2
REMARK VINA RESULT:    -6.283      2.439      7.371
REMARK INTER + INTRA:         -15.820
REMARK INTER:                 -12.195
REMARK INTRA:                  -3.626
REMARK UNBOUND:                -2.558
REMARK SMILES CCC(=O)CCCCC[C@@H]1NC(=O)[C@H]2CCCCN2C(=O)[C@H]([C@@H](C)CC)NC(=O)[C@H](Cc2cn(OC)c3ccccc23)NC1=O
REMARK SMILES IDX 9 1 10 2 44 3 43 4 45 6 30 7 28 8 27 9 29 11 22 12 23 14
REMARK SMILES IDX 24 15 25 16 26 17 31 18 32 19 33 20 42 21 34 22 37 23 41 24
REMARK SMILES IDX 38 25 40 26 39 27 35 28 36 29 11 30 12 31 13 33 14 34 19 35
REMARK SMILES IDX 15 36 18 37 16 38 17 39 20 40 21 41 8 43 7 44 6 45 5 46 3 47
REMARK SMILES IDX 4 48 2 49 1 50
REMARK H PARENT 43 5 27 10 11 32
REMARK Flexibility Score: 80.00
ROOT
ATOM      1  C   UNL     1      23.296 -30.254  25.917  1.00  0.00     0.035 C 
ENDROOT
BRANCH   1   2
ATOM      2  C   UNL     1      22.273 -31.318  26.376  1.00  0.00     0.171 C 
BRANCH   2   3
ATOM      3  C   UNL     1      20.899 -31.070  25.819  1.00  0.00     0.243 C 
ATOM      4  N   UNL     1      20.623 -31.231  24.421  1.00  0.00    -0.342 N 
ATOM      5  H   UNL     1      21.416 -31.193  23.740  1.00  0.00     0.164 HD
ATOM      6  O   UNL     1      19.964 -30.753  26.609  1.00  0.00    -0.273 OA
BRANCH   4   7
ATOM      7  C   UNL     1      19.332 -31.754  23.974  1.00  0.00     0.175 C 
BRANCH   7   8
ATOM      8  C   UNL     1      19.250 -33.211  24.356  1.00  0.00     0.243 C 
ATOM      9  N   UNL     1      20.044 -34.190  23.671  1.00  0.00    -0.342 N 
ATOM     10  H   UNL     1      20.369 -33.979  22.703  1.00  0.00     0.164 HD
ATOM     11  O   UNL     1      18.548 -33.545  25.345  1.00  0.00    -0.273 OA
BRANCH   9  12
ATOM     12  C   UNL     1      20.432 -35.477  24.259  1.00  0.00     0.174 CG0
ATOM     13  G   UNL     1      21.908 -35.667  23.994  1.00  0.00     0.000 G0
BRANCH  12  14
ATOM     14  C   UNL     1      19.590 -36.630  23.631  1.00  0.00     0.018 C 
ATOM     15  C   UNL     1      18.766 -37.390  24.684  1.00  0.00     0.010 C 
BRANCH  14  16
ATOM     16  C   UNL     1      18.693 -36.168  22.457  1.00  0.00     0.002 C 
ATOM     17  C   UNL     1      18.375 -37.258  21.428  1.00  0.00     0.004 C 
ENDBRANCH  14  16
ENDBRANCH  12  14
ENDBRANCH   9  12
ENDBRANCH   7   8
BRANCH   7  18
ATOM     18  C   UNL     1      19.136 -31.543  22.462  1.00  0.00     0.073 C 
BRANCH  18  19
ATOM     19  C   UNL     1      17.819 -32.094  22.008  1.00  0.00    -0.016 A 
ATOM     20  C   UNL     1      16.570 -31.786  22.543  1.00  0.00     0.134 A 
ATOM     21  C   UNL     1      17.580 -32.944  20.940  1.00  0.00     0.006 A 
ATOM     22  N   UNL     1      15.605 -32.429  21.843  1.00  0.00    -0.191 N 
ATOM     23  C   UNL     1      16.222 -33.128  20.877  1.00  0.00     0.087 A 
ATOM     24  C   UNL     1      18.448 -33.564  20.038  1.00  0.00     0.011 A 
ATOM     25  C   UNL     1      15.636 -33.948  19.913  1.00  0.00     0.030 A 
ATOM     26  C   UNL     1      17.886 -34.400  19.058  1.00  0.00     0.001 A 
ATOM     27  C   UNL     1      16.488 -34.590  18.997  1.00  0.00     0.002 A 
BRANCH  22  28
ATOM     28  O   UNL     1      14.240 -32.411  22.069  1.00  0.00    -0.417 OA
ATOM     29  C   UNL     1      13.615 -31.392  22.839  1.00  0.00     0.313 C 
ENDBRANCH  22  28
ENDBRANCH  18  19
ENDBRANCH   7  18
ENDBRANCH   4   7
ENDBRANCH   2   3
BRANCH   2  30
ATOM     30  N   UNL     1      22.685 -32.709  26.129  1.00  0.00    -0.343 N 
ATOM     31  C   UNL     1      23.330 -33.223  24.945  1.00  0.00     0.243 C 
ATOM     32  H   UNL     1      22.431 -33.403  26.869  1.00  0.00     0.164 HD
ATOM     33  O   UNL     1      23.411 -32.530  23.899  1.00  0.00    -0.273 OA
BRANCH  31  34
ATOM     34  C   UNL     1      23.946 -34.604  24.964  1.00  0.00     0.174 C 
ATOM     35  N   UNL     1      22.895 -35.647  25.051  1.00  0.00    -0.329 N 
ATOM     36  C   UNL     1      24.985 -34.677  26.108  1.00  0.00     0.035 C 
ATOM     37  C   UNL     1      23.192 -36.977  25.618  1.00  0.00     0.120 C 
ATOM     38  C   UNL     1      25.407 -36.112  26.391  1.00  0.00     0.004 C 
ATOM     39  C   UNL     1      24.178 -36.922  26.784  1.00  0.00     0.022 C 
BRANCH  35  40
ATOM     40  C   UNL     1      21.917 -35.659  23.993  1.00  0.00     0.246 CG0
ATOM     41  O   UNL     1      22.308 -35.787  22.799  1.00  0.00    -0.272 OA
ATOM     42  G   UNL     1      20.442 -35.477  24.271  1.00  0.00     0.000 G0
ENDBRANCH  35  40
ENDBRANCH  31  34
ENDBRANCH   2  30
ENDBRANCH   1   2
BRANCH   1  43
ATOM     43  C   UNL     1      22.696 -28.864  25.651  1.00  0.00     0.003 C 
BRANCH  43  44
ATOM     44  C   UNL     1      23.351 -28.140  24.462  1.00  0.00     0.001 C 
BRANCH  44  45
ATOM     45  C   UNL     1      22.582 -28.343  23.143  1.00  0.00     0.008 C 
BRANCH  45  46
ATOM     46  C   UNL     1      21.779 -27.115  22.679  1.00  0.00     0.075 C 
BRANCH  46  47
ATOM     47  C   UNL     1      21.483 -27.115  21.194  1.00  0.00     0.132 C 
ATOM     48  O   UNL     1      22.383 -27.280  20.382  1.00  0.00    -0.300 OA
BRANCH  47  49
ATOM     49  C   UNL     1      20.071 -26.927  20.702  1.00  0.00     0.072 C 
ATOM     50  C   UNL     1      19.207 -28.139  21.035  1.00  0.00     0.012 C 
ENDBRANCH  47  49
ENDBRANCH  46  47
ENDBRANCH  45  46
ENDBRANCH  44  45
ENDBRANCH  43  44
ENDBRANCH   1  43
TORSDOF 12
ENDMDL
MODEL 3
REMARK VINA RESULT:    -6.268      2.904      7.365
REMARK INTER + INTRA:         -15.788
REMARK INTER:                 -12.296
REMARK INTRA:                  -3.493
REMARK UNBOUND:                -2.558
REMARK SMILES CCC(=O)CCCCC[C@@H]1NC(=O)[C@H]2CCCCN2C(=O)[C@H]([C@@H](C)CC)NC(=O)[C@H](Cc2cn(OC)c3ccccc23)NC1=O
REMARK SMILES IDX 9 1 10 2 44 3 43 4 45 6 30 7 28 8 27 9 29 11 22 12 23 14
REMARK SMILES IDX 24 15 25 16 26 17 31 18 32 19 33 20 42 21 34 22 37 23 41 24
REMARK SMILES IDX 38 25 40 26 39 27 35 28 36 29 11 30 12 31 13 33 14 34 19 35
REMARK SMILES IDX 15 36 18 37 16 38 17 39 20 40 21 41 8 43 7 44 6 45 5 46 3 47
REMARK SMILES IDX 4 48 2 49 1 50
REMARK H PARENT 43 5 27 10 11 32
REMARK Flexibility Score: 80.00
ROOT
ATOM      1  C   UNL     1      18.966 -28.267  21.254  1.00  0.00     0.035 C 
ENDROOT
BRANCH   1   2
ATOM      2  C   UNL     1      18.968 -29.731  20.757  1.00  0.00     0.171 C 
BRANCH   2   3
ATOM      3  C   UNL     1      20.130 -30.517  21.297  1.00  0.00     0.243 C 
ATOM      4  N   UNL     1      20.255 -30.793  22.699  1.00  0.00    -0.342 N 
ATOM      5  H   UNL     1      19.745 -30.186  23.382  1.00  0.00     0.164 HD
ATOM      6  O   UNL     1      20.988 -30.976  20.491  1.00  0.00    -0.273 OA
BRANCH   4   7
ATOM      7  C   UNL     1      20.809 -32.066  23.160  1.00  0.00     0.175 C 
BRANCH   7   8
ATOM      8  C   UNL     1      19.937 -33.181  22.639  1.00  0.00     0.243 C 
ATOM      9  N   UNL     1      18.663 -33.452  23.240  1.00  0.00    -0.342 N 
ATOM     10  H   UNL     1      18.507 -33.161  24.229  1.00  0.00     0.164 HD
ATOM     11  O   UNL     1      20.298 -33.809  21.610  1.00  0.00    -0.273 OA
BRANCH   9  12
ATOM     12  C   UNL     1      17.558 -34.114  22.537  1.00  0.00     0.174 CG0
ATOM     13  G   UNL     1      16.282 -33.410  22.939  1.00  0.00     0.000 G0
BRANCH  12  14
ATOM     14  C   UNL     1      17.513 -35.627  22.913  1.00  0.00     0.018 C 
ATOM     15  C   UNL     1      18.041 -36.524  21.780  1.00  0.00     0.010 C 
BRANCH  14  16
ATOM     16  C   UNL     1      18.224 -35.951  24.250  1.00  0.00     0.002 C 
ATOM     17  C   UNL     1      18.887 -37.331  24.303  1.00  0.00     0.004 C 
ENDBRANCH  14  16
ENDBRANCH  12  14
ENDBRANCH   9  12
ENDBRANCH   7   8
BRANCH   7  18
ATOM     18  C   UNL     1      20.932 -32.099  24.694  1.00  0.00     0.073 C 
BRANCH  18  19
ATOM     19  C   UNL     1      22.344 -31.847  25.126  1.00  0.00    -0.016 A 
ATOM     20  C   UNL     1      23.436 -32.682  24.896  1.00  0.00     0.134 A 
ATOM     21  C   UNL     1      22.847 -30.722  25.758  1.00  0.00     0.006 A 
ATOM     22  N   UNL     1      24.561 -32.102  25.380  1.00  0.00    -0.191 N 
ATOM     23  C   UNL     1      24.198 -30.919  25.900  1.00  0.00     0.087 A 
ATOM     24  C   UNL     1      22.222 -29.561  26.218  1.00  0.00     0.011 A 
ATOM     25  C   UNL     1      25.017 -29.973  26.517  1.00  0.00     0.030 A 
ATOM     26  C   UNL     1      23.022 -28.591  26.848  1.00  0.00     0.001 A 
ATOM     27  C   UNL     1      24.412 -28.798  26.995  1.00  0.00     0.002 A 
BRANCH  22  28
ATOM     28  O   UNL     1      25.846 -32.614  25.377  1.00  0.00    -0.417 OA
ATOM     29  C   UNL     1      26.102 -34.012  25.367  1.00  0.00     0.313 C 
ENDBRANCH  22  28
ENDBRANCH  18  19
ENDBRANCH   7  18
ENDBRANCH   4   7
ENDBRANCH   2   3
BRANCH   2  30
ATOM     30  N   UNL     1      17.707 -30.455  20.984  1.00  0.00    -0.343 N 
ATOM     31  C   UNL     1      16.998 -30.588  22.234  1.00  0.00     0.243 C 
ATOM     32  H   UNL     1      17.319 -30.971  20.161  1.00  0.00     0.164 HD
ATOM     33  O   UNL     1      17.533 -30.251  23.320  1.00  0.00    -0.273 OA
BRANCH  31  34
ATOM     34  C   UNL     1      15.580 -31.112  22.241  1.00  0.00     0.174 C 
ATOM     35  N   UNL     1      15.559 -32.575  21.994  1.00  0.00    -0.329 N 
ATOM     36  C   UNL     1      14.738 -30.302  21.227  1.00  0.00     0.035 C 
ATOM     37  C   UNL     1      14.367 -33.230  21.421  1.00  0.00     0.120 C 
ATOM     38  C   UNL     1      13.399 -30.973  20.948  1.00  0.00     0.004 C 
ATOM     39  C   UNL     1      13.651 -32.366  20.383  1.00  0.00     0.022 C 
BRANCH  35  40
ATOM     40  C   UNL     1      16.293 -33.392  22.927  1.00  0.00     0.246 CG0
ATOM     41  O   UNL     1      15.881 -33.483  24.117  1.00  0.00    -0.272 OA
ATOM     42  G   UNL     1      17.566 -34.103  22.530  1.00  0.00     0.000 G0
ENDBRANCH  35  40
ENDBRANCH  31  34
ENDBRANCH   2  30
ENDBRANCH   1   2
BRANCH   1  43
ATOM     43  C   UNL     1      19.488 -27.245  20.230  1.00  0.00     0.003 C 
BRANCH  43  44
ATOM     44  C   UNL     1      19.862 -25.893  20.862  1.00  0.00     0.001 C 
BRANCH  44  45
ATOM     45  C   UNL     1      21.261 -25.405  20.440  1.00  0.00     0.008 C 
BRANCH  45  46
ATOM     46  C   UNL     1      22.425 -26.200  21.057  1.00  0.00     0.075 C 
BRANCH  46  47
ATOM     47  C   UNL     1      22.313 -26.370  22.557  1.00  0.00     0.132 C 
ATOM     48  O   UNL     1      22.104 -25.403  23.276  1.00  0.00    -0.300 OA
BRANCH  47  49
ATOM     49  C   UNL     1      22.439 -27.737  23.177  1.00  0.00     0.072 C 
ATOM     50  C   UNL     1      23.803 -28.352  22.880  1.00  0.00     0.012 C 
ENDBRANCH  47  49
ENDBRANCH  46  47
ENDBRANCH  45  46
ENDBRANCH  44  45
ENDBRANCH  43  44
ENDBRANCH   1  43
TORSDOF 12
ENDMDL
MODEL 4
REMARK VINA RESULT:    -6.255      2.137      7.018
REMARK INTER + INTRA:         -15.760
REMARK INTER:                 -13.728
REMARK INTRA:                  -2.032
REMARK UNBOUND:                -2.558
REMARK SMILES CCC(=O)CCCCC[C@@H]1NC(=O)[C@H]2CCCCN2C(=O)[C@H]([C@@H](C)CC)NC(=O)[C@H](Cc2cn(OC)c3ccccc23)NC1=O
REMARK SMILES IDX 9 1 10 2 44 3 43 4 45 6 30 7 28 8 27 9 29 11 22 12 23 14
REMARK SMILES IDX 24 15 25 16 26 17 31 18 32 19 33 20 42 21 34 22 37 23 41 24
REMARK SMILES IDX 38 25 40 26 39 27 35 28 36 29 11 30 12 31 13 33 14 34 19 35
REMARK SMILES IDX 15 36 18 37 16 38 17 39 20 40 21 41 8 43 7 44 6 45 5 46 3 47
REMARK SMILES IDX 4 48 2 49 1 50
REMARK H PARENT 43 5 27 10 11 32
REMARK Flexibility Score: 80.00
ROOT
ATOM      1  C   UNL     1      19.864 -33.733  24.887  1.00  0.00     0.035 C 
ENDROOT
BRANCH   1   2
ATOM      2  C   UNL     1      20.770 -33.366  23.689  1.00  0.00     0.171 C 
BRANCH   2   3
ATOM      3  C   UNL     1      19.983 -32.891  22.500  1.00  0.00     0.243 C 
ATOM      4  N   UNL     1      19.466 -31.555  22.435  1.00  0.00    -0.342 N 
ATOM      5  H   UNL     1      19.338 -31.017  23.324  1.00  0.00     0.164 HD
ATOM      6  O   UNL     1      19.812 -33.676  21.524  1.00  0.00    -0.273 OA
BRANCH   4   7
ATOM      7  C   UNL     1      19.418 -30.837  21.162  1.00  0.00     0.175 C 
BRANCH   7   8
ATOM      8  C   UNL     1      20.454 -29.742  21.194  1.00  0.00     0.243 C 
ATOM      9  N   UNL     1      20.873 -29.171  22.443  1.00  0.00    -0.342 N 
ATOM     10  H   UNL     1      20.224 -29.225  23.257  1.00  0.00     0.164 HD
ATOM     11  O   UNL     1      21.016 -29.398  20.122  1.00  0.00    -0.273 OA
BRANCH   9  12
ATOM     12  C   UNL     1      22.172 -28.518  22.642  1.00  0.00     0.174 CG0
ATOM     13  G   UNL     1      22.618 -28.822  24.054  1.00  0.00     0.000 G0
BRANCH  12  14
ATOM     14  C   UNL     1      22.041 -26.982  22.408  1.00  0.00     0.018 C 
ATOM     15  C   UNL     1      23.105 -26.450  21.432  1.00  0.00     0.010 C 
BRANCH  14  16
ATOM     16  C   UNL     1      20.623 -26.544  21.969  1.00  0.00     0.002 C 
ATOM     17  C   UNL     1      20.574 -25.756  20.656  1.00  0.00     0.004 C 
ENDBRANCH  14  16
ENDBRANCH  12  14
ENDBRANCH   9  12
ENDBRANCH   7   8
BRANCH   7  18
ATOM     18  C   UNL     1      18.008 -30.289  20.880  1.00  0.00     0.073 C 
BRANCH  18  19
ATOM     19  C   UNL     1      16.957 -31.281  21.275  1.00  0.00    -0.016 A 
ATOM     20  C   UNL     1      16.002 -31.114  22.275  1.00  0.00     0.134 A 
ATOM     21  C   UNL     1      16.685 -32.505  20.686  1.00  0.00     0.006 A 
ATOM     22  N   UNL     1      15.185 -32.194  22.310  1.00  0.00    -0.191 N 
ATOM     23  C   UNL     1      15.604 -33.032  21.347  1.00  0.00     0.087 A 
ATOM     24  C   UNL     1      17.306 -33.186  19.636  1.00  0.00     0.011 A 
ATOM     25  C   UNL     1      15.072 -34.276  21.011  1.00  0.00     0.030 A 
ATOM     26  C   UNL     1      16.794 -34.445  19.277  1.00  0.00     0.001 A 
ATOM     27  C   UNL     1      15.682 -34.985  19.962  1.00  0.00     0.002 A 
BRANCH  22  28
ATOM     28  O   UNL     1      14.130 -32.432  23.172  1.00  0.00    -0.417 OA
ATOM     29  C   UNL     1      13.234 -31.403  23.571  1.00  0.00     0.313 C 
ENDBRANCH  22  28
ENDBRANCH  18  19
ENDBRANCH   7  18
ENDBRANCH   4   7
ENDBRANCH   2   3
BRANCH   2  30
ATOM     30  N   UNL     1      21.847 -32.414  24.007  1.00  0.00    -0.343 N 
ATOM     31  C   UNL     1      21.886 -31.489  25.114  1.00  0.00     0.243 C 
ATOM     32  H   UNL     1      22.638 -32.370  23.325  1.00  0.00     0.164 HD
ATOM     33  O   UNL     1      20.862 -31.271  25.811  1.00  0.00    -0.273 OA
BRANCH  31  34
ATOM     34  C   UNL     1      23.180 -30.792  25.465  1.00  0.00     0.174 C 
ATOM     35  N   UNL     1      23.578 -29.850  24.389  1.00  0.00    -0.329 N 
ATOM     36  C   UNL     1      24.257 -31.856  25.784  1.00  0.00     0.035 C 
ATOM     37  C   UNL     1      24.991 -29.468  24.201  1.00  0.00     0.120 C 
ATOM     38  C   UNL     1      25.651 -31.246  25.831  1.00  0.00     0.004 C 
ATOM     39  C   UNL     1      25.962 -30.615  24.480  1.00  0.00     0.022 C 
BRANCH  35  40
ATOM     40  C   UNL     1      22.635 -28.809  24.070  1.00  0.00     0.246 CG0
ATOM     41  O   UNL     1      22.133 -28.129  25.007  1.00  0.00    -0.272 OA
ATOM     42  G   UNL     1      22.198 -28.541  22.648  1.00  0.00     0.000 G0
ENDBRANCH  35  40
ENDBRANCH  31  34
ENDBRANCH   2  30
ENDBRANCH   1   2
BRANCH   1  43
ATOM     43  C   UNL     1      19.608 -35.240  25.056  1.00  0.00     0.003 C 
BRANCH  43  44
ATOM     44  C   UNL     1      18.280 -35.702  24.433  1.00  0.00     0.001 C 
BRANCH  44  45
ATOM     45  C   UNL     1      17.121 -35.721  25.446  1.00  0.00     0.008 C 
BRANCH  45  46
ATOM     46  C   UNL     1      16.826 -37.106  26.050  1.00  0.00     0.075 C 
BRANCH  46  47
ATOM     47  C   UNL     1      17.447 -37.312  27.416  1.00  0.00     0.132 C 
ATOM     48  O   UNL     1      18.650 -37.493  27.529  1.00  0.00    -0.300 OA
BRANCH  47  49
ATOM     49  C   UNL     1      16.586 -37.279  28.653  1.00  0.00     0.072 C 
ATOM     50  C   UNL     1      17.360 -37.761  29.875  1.00  0.00     0.012 C 
ENDBRANCH  47  49
ENDBRANCH  46  47
ENDBRANCH  45  46
ENDBRANCH  44  45
ENDBRANCH  43  44
ENDBRANCH   1  43
TORSDOF 12
ENDMDL
MODEL 5
REMARK VINA RESULT:    -6.206      2.833      8.734
REMARK INTER + INTRA:         -15.657
REMARK INTER:                 -11.752
REMARK INTRA:                  -3.905
REMARK UNBOUND:                -2.558
REMARK SMILES CCC(=O)CCCCC[C@@H]1NC(=O)[C@H]2CCCCN2C(=O)[C@H]([C@@H](C)CC)NC(=O)[C@H](Cc2cn(OC)c3ccccc23)NC1=O
REMARK SMILES IDX 9 1 10 2 44 3 43 4 45 6 30 7 28 8 27 9 29 11 22 12 23 14
REMARK SMILES IDX 24 15 25 16 26 17 31 18 32 19 33 20 42 21 34 22 37 23 41 24
REMARK SMILES IDX 38 25 40 26 39 27 35 28 36 29 11 30 12 31 13 33 14 34 19 35
REMARK SMILES IDX 15 36 18 37 16 38 17 39 20 40 21 41 8 43 7 44 6 45 5 46 3 47
REMARK SMILES IDX 4 48 2 49 1 50
REMARK H PARENT 43 5 27 10 11 32
REMARK Flexibility Score: 80.00
ROOT
ATOM      1  C   UNL     1      24.765 -31.338  23.245  1.00  0.00     0.035 C 
ENDROOT
BRANCH   1   2
ATOM      2  C   UNL     1      23.539 -31.503  24.172  1.00  0.00     0.171 C 
BRANCH   2   3
ATOM      3  C   UNL     1      22.282 -30.946  23.564  1.00  0.00     0.243 C 
ATOM      4  N   UNL     1      21.662 -31.571  22.432  1.00  0.00    -0.342 N 
ATOM      5  H   UNL     1      22.236 -32.199  21.822  1.00  0.00     0.164 HD
ATOM      6  O   UNL     1      21.744 -29.931  24.091  1.00  0.00    -0.273 OA
BRANCH   4   7
ATOM      7  C   UNL     1      20.205 -31.600  22.304  1.00  0.00     0.175 C 
BRANCH   7   8
ATOM      8  C   UNL     1      19.654 -32.533  23.353  1.00  0.00     0.243 C 
ATOM      9  N   UNL     1      19.825 -33.953  23.229  1.00  0.00    -0.342 N 
ATOM     10  H   UNL     1      19.975 -34.354  22.278  1.00  0.00     0.164 HD
ATOM     11  O   UNL     1      19.124 -32.048  24.386  1.00  0.00    -0.273 OA
BRANCH   9  12
ATOM     12  C   UNL     1      19.806 -34.875  24.370  1.00  0.00     0.174 CG0
ATOM     13  G   UNL     1      20.990 -35.803  24.219  1.00  0.00     0.000 G0
BRANCH  12  14
ATOM     14  C   UNL     1      18.464 -35.669  24.395  1.00  0.00     0.018 C 
ATOM     15  C   UNL     1      17.748 -35.557  25.752  1.00  0.00     0.010 C 
BRANCH  14  16
ATOM     16  C   UNL     1      17.508 -35.301  23.234  1.00  0.00     0.002 C 
ATOM     17  C   UNL     1      16.240 -34.555  23.662  1.00  0.00     0.004 C 
ENDBRANCH  14  16
ENDBRANCH  12  14
ENDBRANCH   9  12
ENDBRANCH   7   8
BRANCH   7  18
ATOM     18  C   UNL     1      19.777 -32.011  20.884  1.00  0.00     0.073 C 
BRANCH  18  19
ATOM     19  C   UNL     1      18.299 -32.246  20.816  1.00  0.00    -0.016 A 
ATOM     20  C   UNL     1      17.304 -31.342  21.184  1.00  0.00     0.134 A 
ATOM     21  C   UNL     1      17.641 -33.356  20.312  1.00  0.00     0.006 A 
ATOM     22  N   UNL     1      16.086 -31.879  20.932  1.00  0.00    -0.191 N 
ATOM     23  C   UNL     1      16.296 -33.096  20.405  1.00  0.00     0.087 A 
ATOM     24  C   UNL     1      18.121 -34.561  19.793  1.00  0.00     0.011 A 
ATOM     25  C   UNL     1      15.339 -34.022  19.993  1.00  0.00     0.030 A 
ATOM     26  C   UNL     1      17.179 -35.516  19.373  1.00  0.00     0.001 A 
ATOM     27  C   UNL     1      15.795 -35.246  19.473  1.00  0.00     0.002 A 
BRANCH  22  28
ATOM     28  O   UNL     1      14.846 -31.318  21.178  1.00  0.00    -0.417 OA
ATOM     29  C   UNL     1      14.199 -31.440  22.438  1.00  0.00     0.313 C 
ENDBRANCH  22  28
ENDBRANCH  18  19
ENDBRANCH   7  18
ENDBRANCH   4   7
ENDBRANCH   2   3
BRANCH   2  30
ATOM     30  N   UNL     1      23.315 -32.877  24.649  1.00  0.00    -0.343 N 
ATOM     31  C   UNL     1      23.416 -34.090  23.873  1.00  0.00     0.243 C 
ATOM     32  H   UNL     1      22.995 -32.974  25.640  1.00  0.00     0.164 HD
ATOM     33  O   UNL     1      23.511 -34.051  22.620  1.00  0.00    -0.273 OA
BRANCH  31  34
ATOM     34  C   UNL     1      23.442 -35.430  24.574  1.00  0.00     0.174 C 
ATOM     35  N   UNL     1      22.111 -35.745  25.152  1.00  0.00    -0.329 N 
ATOM     36  C   UNL     1      24.585 -35.433  25.616  1.00  0.00     0.035 C 
ATOM     37  C   UNL     1      21.983 -36.661  26.302  1.00  0.00     0.120 C 
ATOM     38  C   UNL     1      24.468 -36.614  26.571  1.00  0.00     0.004 C 
ATOM     39  C   UNL     1      23.133 -36.532  27.300  1.00  0.00     0.022 C 
BRANCH  35  40
ATOM     40  C   UNL     1      21.008 -35.796  24.227  1.00  0.00     0.246 CG0
ATOM     41  O   UNL     1      21.057 -36.606  23.260  1.00  0.00    -0.272 OA
ATOM     42  G   UNL     1      19.817 -34.874  24.358  1.00  0.00     0.000 G0
ENDBRANCH  35  40
ENDBRANCH  31  34
ENDBRANCH   2  30
ENDBRANCH   1   2
BRANCH   1  43
ATOM     43  C   UNL     1      26.120 -31.337  23.972  1.00  0.00     0.003 C 
BRANCH  43  44
ATOM     44  C   UNL     1      27.204 -32.140  23.233  1.00  0.00     0.001 C 
BRANCH  44  45
ATOM     45  C   UNL     1      27.085 -33.657  23.466  1.00  0.00     0.008 C 
BRANCH  45  46
ATOM     46  C   UNL     1      27.717 -34.523  22.361  1.00  0.00     0.075 C 
BRANCH  46  47
ATOM     47  C   UNL     1      26.912 -35.762  22.031  1.00  0.00     0.132 C 
ATOM     48  O   UNL     1      26.402 -36.425  22.922  1.00  0.00    -0.300 OA
BRANCH  47  49
ATOM     49  C   UNL     1      26.718 -36.181  20.596  1.00  0.00     0.072 C 
ATOM     50  C   UNL     1      27.938 -35.831  19.751  1.00  0.00     0.012 C 
ENDBRANCH  47  49
ENDBRANCH  46  47
ENDBRANCH  45  46
ENDBRANCH  44  45
ENDBRANCH  43  44
ENDBRANCH   1  43
TORSDOF 12
ENDMDL
MODEL 6
REMARK VINA RESULT:    -6.112      2.826      7.242
REMARK INTER + INTRA:         -15.460
REMARK INTER:                 -12.622
REMARK INTRA:                  -2.837
REMARK UNBOUND:                -2.558
REMARK SMILES CCC(=O)CCCCC[C@@H]1NC(=O)[C@H]2CCCCN2C(=O)[C@H]([C@@H](C)CC)NC(=O)[C@H](Cc2cn(OC)c3ccccc23)NC1=O
REMARK SMILES IDX 9 1 10 2 44 3 43 4 45 6 30 7 28 8 27 9 29 11 22 12 23 14
REMARK SMILES IDX 24 15 25 16 26 17 31 18 32 19 33 20 42 21 34 22 37 23 41 24
REMARK SMILES IDX 38 25 40 26 39 27 35 28 36 29 11 30 12 31 13 33 14 34 19 35
REMARK SMILES IDX 15 36 18 37 16 38 17 39 20 40 21 41 8 43 7 44 6 45 5 46 3 47
REMARK SMILES IDX 4 48 2 49 1 50
REMARK H PARENT 43 5 27 10 11 32
REMARK Flexibility Score: 80.00
ROOT
ATOM      1  C   UNL     1      18.749 -28.423  21.243  1.00  0.00     0.035 C 
ENDROOT
BRANCH   1   2
ATOM      2  C   UNL     1      18.949 -29.870  20.735  1.00  0.00     0.171 C 
BRANCH   2   3
ATOM      3  C   UNL     1      20.194 -30.505  21.289  1.00  0.00     0.243 C 
ATOM      4  N   UNL     1      20.273 -30.915  22.660  1.00  0.00    -0.342 N 
ATOM      5  H   UNL     1      19.619 -30.487  23.356  1.00  0.00     0.164 HD
ATOM      6  O   UNL     1      21.172 -30.714  20.515  1.00  0.00    -0.273 OA
BRANCH   4   7
ATOM      7  C   UNL     1      21.012 -32.121  23.034  1.00  0.00     0.175 C 
BRANCH   7   8
ATOM      8  C   UNL     1      20.184 -33.323  22.658  1.00  0.00     0.243 C 
ATOM      9  N   UNL     1      18.986 -33.639  23.383  1.00  0.00    -0.342 N 
ATOM     10  H   UNL     1      18.891 -33.294  24.362  1.00  0.00     0.164 HD
ATOM     11  O   UNL     1      20.503 -33.993  21.642  1.00  0.00    -0.273 OA
BRANCH   9  12
ATOM     12  C   UNL     1      17.877 -34.418  22.819  1.00  0.00     0.174 CG0
ATOM     13  G   UNL     1      16.604 -33.647  23.084  1.00  0.00     0.000 G0
BRANCH  12  14
ATOM     14  C   UNL     1      17.829 -35.833  23.474  1.00  0.00     0.018 C 
ATOM     15  C   UNL     1      18.394 -36.922  22.546  1.00  0.00     0.010 C 
BRANCH  14  16
ATOM     16  C   UNL     1      18.504 -35.890  24.866  1.00  0.00     0.002 C 
ATOM     17  C   UNL     1      19.422 -37.097  25.083  1.00  0.00     0.004 C 
ENDBRANCH  14  16
ENDBRANCH  12  14
ENDBRANCH   9  12
ENDBRANCH   7   8
BRANCH   7  18
ATOM     18  C   UNL     1      21.374 -32.114  24.530  1.00  0.00     0.073 C 
BRANCH  18  19
ATOM     19  C   UNL     1      22.776 -32.595  24.746  1.00  0.00    -0.016 A 
ATOM     20  C   UNL     1      23.931 -31.818  24.682  1.00  0.00     0.134 A 
ATOM     21  C   UNL     1      23.187 -33.864  25.120  1.00  0.00     0.006 A 
ATOM     22  N   UNL     1      25.009 -32.580  24.989  1.00  0.00    -0.191 N 
ATOM     23  C   UNL     1      24.553 -33.815  25.252  1.00  0.00     0.087 A 
ATOM     24  C   UNL     1      22.470 -35.041  25.344  1.00  0.00     0.011 A 
ATOM     25  C   UNL     1      25.296 -34.939  25.609  1.00  0.00     0.030 A 
ATOM     26  C   UNL     1      23.194 -36.192  25.702  1.00  0.00     0.001 A 
ATOM     27  C   UNL     1      24.599 -36.139  25.834  1.00  0.00     0.002 A 
BRANCH  22  28
ATOM     28  O   UNL     1      26.337 -32.197  25.012  1.00  0.00    -0.417 OA
ATOM     29  C   UNL     1      26.844 -31.176  24.163  1.00  0.00     0.313 C 
ENDBRANCH  22  28
ENDBRANCH  18  19
ENDBRANCH   7  18
ENDBRANCH   4   7
ENDBRANCH   2   3
BRANCH   2  30
ATOM     30  N   UNL     1      17.789 -30.753  20.933  1.00  0.00    -0.343 N 
ATOM     31  C   UNL     1      16.963 -30.845  22.112  1.00  0.00     0.243 C 
ATOM     32  H   UNL     1      17.581 -31.420  20.155  1.00  0.00     0.164 HD
ATOM     33  O   UNL     1      17.309 -30.297  23.190  1.00  0.00    -0.273 OA
BRANCH  31  34
ATOM     34  C   UNL     1      15.645 -31.584  22.051  1.00  0.00     0.174 C 
ATOM     35  N   UNL     1      15.868 -33.050  21.977  1.00  0.00    -0.329 N 
ATOM     36  C   UNL     1      14.808 -31.027  20.876  1.00  0.00     0.035 C 
ATOM     37  C   UNL     1      14.855 -33.941  21.379  1.00  0.00     0.120 C 
ATOM     38  C   UNL     1      13.622 -31.927  20.556  1.00  0.00     0.004 C 
ATOM     39  C   UNL     1      14.137 -33.312  20.185  1.00  0.00     0.022 C 
BRANCH  35  40
ATOM     40  C   UNL     1      16.609 -33.639  23.064  1.00  0.00     0.246 CG0
ATOM     41  O   UNL     1      16.210 -33.456  24.247  1.00  0.00    -0.272 OA
ATOM     42  G   UNL     1      17.874 -34.431  22.826  1.00  0.00     0.000 G0
ENDBRANCH  35  40
ENDBRANCH  31  34
ENDBRANCH   2  30
ENDBRANCH   1   2
BRANCH   1  43
ATOM     43  C   UNL     1      19.518 -27.355  20.448  1.00  0.00     0.003 C 
BRANCH  43  44
ATOM     44  C   UNL     1      19.990 -26.177  21.318  1.00  0.00     0.001 C 
BRANCH  44  45
ATOM     45  C   UNL     1      20.641 -25.051  20.493  1.00  0.00     0.008 C 
BRANCH  45  46
ATOM     46  C   UNL     1      21.928 -24.474  21.110  1.00  0.00     0.075 C 
BRANCH  46  47
ATOM     47  C   UNL     1      23.084 -24.399  20.135  1.00  0.00     0.132 C 
ATOM     48  O   UNL     1      23.922 -23.515  20.233  1.00  0.00    -0.300 OA
BRANCH  47  49
ATOM     49  C   UNL     1      23.221 -25.428  19.042  1.00  0.00     0.072 C 
ATOM     50  C   UNL     1      23.553 -26.801  19.617  1.00  0.00     0.012 C 
ENDBRANCH  47  49
ENDBRANCH  46  47
ENDBRANCH  45  46
ENDBRANCH  44  45
ENDBRANCH  43  44
ENDBRANCH   1  43
TORSDOF 12
ENDMDL
MODEL 7
REMARK VINA RESULT:    -6.033      3.417      4.954
REMARK INTER + INTRA:         -15.293
REMARK INTER:                 -12.336
REMARK INTRA:                  -2.957
REMARK UNBOUND:                -2.558
REMARK SMILES CCC(=O)CCCCC[C@@H]1NC(=O)[C@H]2CCCCN2C(=O)[C@H]([C@@H](C)CC)NC(=O)[C@H](Cc2cn(OC)c3ccccc23)NC1=O
REMARK SMILES IDX 9 1 10 2 44 3 43 4 45 6 30 7 28 8 27 9 29 11 22 12 23 14
REMARK SMILES IDX 24 15 25 16 26 17 31 18 32 19 33 20 42 21 34 22 37 23 41 24
REMARK SMILES IDX 38 25 40 26 39 27 35 28 36 29 11 30 12 31 13 33 14 34 19 35
REMARK SMILES IDX 15 36 18 37 16 38 17 39 20 40 21 41 8 43 7 44 6 45 5 46 3 47
REMARK SMILES IDX 4 48 2 49 1 50
REMARK H PARENT 43 5 27 10 11 32
REMARK Flexibility Score: 80.00
ROOT
ATOM      1  C   UNL     1      18.225 -31.358  20.664  1.00  0.00     0.035 C 
ENDROOT
BRANCH   1   2
ATOM      2  C   UNL     1      18.656 -30.817  22.047  1.00  0.00     0.171 C 
BRANCH   2   3
ATOM      3  C   UNL     1      19.425 -31.832  22.846  1.00  0.00     0.243 C 
ATOM      4  N   UNL     1      20.660 -32.378  22.362  1.00  0.00    -0.342 N 
ATOM      5  H   UNL     1      20.864 -32.340  21.337  1.00  0.00     0.164 HD
ATOM      6  O   UNL     1      18.991 -32.176  23.982  1.00  0.00    -0.273 OA
BRANCH   4   7
ATOM      7  C   UNL     1      21.748 -32.690  23.288  1.00  0.00     0.175 C 
BRANCH   7   8
ATOM      8  C   UNL     1      22.038 -31.460  24.113  1.00  0.00     0.243 C 
ATOM      9  N   UNL     1      22.685 -30.323  23.524  1.00  0.00    -0.342 N 
ATOM     10  H   UNL     1      23.280 -30.471  22.680  1.00  0.00     0.164 HD
ATOM     11  O   UNL     1      21.621 -31.407  25.299  1.00  0.00    -0.273 OA
BRANCH   9  12
ATOM     12  C   UNL     1      22.553 -28.956  24.040  1.00  0.00     0.174 CG0
ATOM     13  G   UNL     1      22.674 -28.016  22.862  1.00  0.00     0.000 G0
BRANCH  12  14
ATOM     14  C   UNL     1      23.658 -28.675  25.104  1.00  0.00     0.018 C 
ATOM     15  C   UNL     1      23.067 -28.424  26.502  1.00  0.00     0.010 C 
BRANCH  14  16
ATOM     16  C   UNL     1      24.754 -29.767  25.157  1.00  0.00     0.002 C 
ATOM     17  C   UNL     1      24.920 -30.441  26.522  1.00  0.00     0.004 C 
ENDBRANCH  14  16
ENDBRANCH  12  14
ENDBRANCH   9  12
ENDBRANCH   7   8
BRANCH   7  18
ATOM     18  C   UNL     1      22.996 -33.188  22.538  1.00  0.00     0.073 C 
BRANCH  18  19
ATOM     19  C   UNL     1      23.992 -33.783  23.486  1.00  0.00    -0.016 A 
ATOM     20  C   UNL     1      23.788 -34.892  24.305  1.00  0.00     0.134 A 
ATOM     21  C   UNL     1      25.310 -33.401  23.678  1.00  0.00     0.006 A 
ATOM     22  N   UNL     1      24.927 -35.173  24.982  1.00  0.00    -0.191 N 
ATOM     23  C   UNL     1      25.843 -34.268  24.599  1.00  0.00     0.087 A 
ATOM     24  C   UNL     1      26.064 -32.366  23.122  1.00  0.00     0.011 A 
ATOM     25  C   UNL     1      27.163 -34.157  25.033  1.00  0.00     0.030 A 
ATOM     26  C   UNL     1      27.399 -32.227  23.544  1.00  0.00     0.001 A 
ATOM     27  C   UNL     1      27.943 -33.120  24.494  1.00  0.00     0.002 A 
BRANCH  22  28
ATOM     28  O   UNL     1      25.134 -36.175  25.912  1.00  0.00    -0.417 OA
ATOM     29  C   UNL     1      25.692 -37.433  25.556  1.00  0.00     0.313 C 
ENDBRANCH  22  28
ENDBRANCH  18  19
ENDBRANCH   7  18
ENDBRANCH   4   7
ENDBRANCH   2   3
BRANCH   2  30
ATOM     30  N   UNL     1      19.383 -29.538  22.004  1.00  0.00    -0.343 N 
ATOM     31  C   UNL     1      20.530 -29.221  21.187  1.00  0.00     0.243 C 
ATOM     32  H   UNL     1      19.064 -28.805  22.678  1.00  0.00     0.164 HD
ATOM     33  O   UNL     1      21.152 -30.122  20.568  1.00  0.00    -0.273 OA
BRANCH  31  34
ATOM     34  C   UNL     1      20.977 -27.784  21.044  1.00  0.00     0.174 C 
ATOM     35  N   UNL     1      21.536 -27.279  22.323  1.00  0.00    -0.329 N 
ATOM     36  C   UNL     1      19.796 -26.939  20.509  1.00  0.00     0.035 C 
ATOM     37  C   UNL     1      21.536 -25.836  22.632  1.00  0.00     0.120 C 
ATOM     38  C   UNL     1      20.070 -25.447  20.644  1.00  0.00     0.004 C 
ATOM     39  C   UNL     1      20.292 -25.114  22.114  1.00  0.00     0.022 C 
BRANCH  35  40
ATOM     40  C   UNL     1      22.664 -27.999  22.856  1.00  0.00     0.246 CG0
ATOM     41  O   UNL     1      23.792 -27.867  22.304  1.00  0.00    -0.272 OA
ATOM     42  G   UNL     1      22.523 -28.943  24.029  1.00  0.00     0.000 G0
ENDBRANCH  35  40
ENDBRANCH  31  34
ENDBRANCH   2  30
ENDBRANCH   1   2
BRANCH   1  43
ATOM     43  C   UNL     1      16.773 -31.860  20.599  1.00  0.00     0.003 C 
BRANCH  43  44
ATOM     44  C   UNL     1      16.534 -33.128  21.435  1.00  0.00     0.001 C 
BRANCH  44  45
ATOM     45  C   UNL     1      15.044 -33.505  21.532  1.00  0.00     0.008 C 
BRANCH  45  46
ATOM     46  C   UNL     1      14.107 -32.624  20.686  1.00  0.00     0.075 C 
BRANCH  46  47
ATOM     47  C   UNL     1      13.359 -31.587  21.497  1.00  0.00     0.132 C 
ATOM     48  O   UNL     1      12.436 -30.959  21.000  1.00  0.00    -0.300 OA
BRANCH  47  49
ATOM     49  C   UNL     1      13.735 -31.332  22.934  1.00  0.00     0.072 C 
ATOM     50  C   UNL     1      13.055 -30.076  23.467  1.00  0.00     0.012 C 
ENDBRANCH  47  49
ENDBRANCH  46  47
ENDBRANCH  45  46
ENDBRANCH  44  45
ENDBRANCH  43  44
ENDBRANCH   1  43
TORSDOF 12
ENDMDL
MODEL 8
REMARK VINA RESULT:    -5.971      5.222      9.775
REMARK INTER + INTRA:         -15.161
REMARK INTER:                 -11.922
REMARK INTRA:                  -3.240
REMARK UNBOUND:                -2.558
REMARK SMILES CCC(=O)CCCCC[C@@H]1NC(=O)[C@H]2CCCCN2C(=O)[C@H]([C@@H](C)CC)NC(=O)[C@H](Cc2cn(OC)c3ccccc23)NC1=O
REMARK SMILES IDX 9 1 10 2 44 3 43 4 45 6 30 7 28 8 27 9 29 11 22 12 23 14
REMARK SMILES IDX 24 15 25 16 26 17 31 18 32 19 33 20 42 21 34 22 37 23 41 24
REMARK SMILES IDX 38 25 40 26 39 27 35 28 36 29 11 30 12 31 13 33 14 34 19 35
REMARK SMILES IDX 15 36 18 37 16 38 17 39 20 40 21 41 8 43 7 44 6 45 5 46 3 47
REMARK SMILES IDX 4 48 2 49 1 50
REMARK H PARENT 43 5 27 10 11 32
REMARK Flexibility Score: 80.00
ROOT
ATOM      1  C   UNL     1      23.558 -25.409  28.236  1.00  0.00     0.035 C 
ENDROOT
BRANCH   1   2
ATOM      2  C   UNL     1      24.289 -25.720  26.910  1.00  0.00     0.171 C 
BRANCH   2   3
ATOM      3  C   UNL     1      24.284 -27.187  26.583  1.00  0.00     0.243 C 
ATOM      4  N   UNL     1      23.099 -27.840  26.109  1.00  0.00    -0.342 N 
ATOM      5  H   UNL     1      22.168 -27.402  26.299  1.00  0.00     0.164 HD
ATOM      6  O   UNL     1      25.359 -27.843  26.692  1.00  0.00    -0.273 OA
BRANCH   4   7
ATOM      7  C   UNL     1      23.186 -28.909  25.114  1.00  0.00     0.175 C 
BRANCH   7   8
ATOM      8  C   UNL     1      23.258 -28.280  23.745  1.00  0.00     0.243 C 
ATOM      9  N   UNL     1      22.205 -27.423  23.280  1.00  0.00    -0.342 N 
ATOM     10  H   UNL     1      21.254 -27.534  23.694  1.00  0.00     0.164 HD
ATOM     11  O   UNL     1      24.296 -28.440  23.052  1.00  0.00    -0.273 OA
BRANCH   9  12
ATOM     12  C   UNL     1      22.391 -26.392  22.253  1.00  0.00     0.174 CG0
ATOM     13  G   UNL     1      21.733 -25.129  22.759  1.00  0.00     0.000 G0
BRANCH  12  14
ATOM     14  C   UNL     1      21.760 -26.857  20.905  1.00  0.00     0.018 C 
ATOM     15  C   UNL     1      22.798 -26.928  19.771  1.00  0.00     0.010 C 
BRANCH  14  16
ATOM     16  C   UNL     1      20.976 -28.187  21.018  1.00  0.00     0.002 C 
ATOM     17  C   UNL     1      19.481 -28.077  20.703  1.00  0.00     0.004 C 
ENDBRANCH  14  16
ENDBRANCH  12  14
ENDBRANCH   9  12
ENDBRANCH   7   8
BRANCH   7  18
ATOM     18  C   UNL     1      22.005 -29.887  25.238  1.00  0.00     0.073 C 
BRANCH  18  19
ATOM     19  C   UNL     1      22.122 -31.001  24.243  1.00  0.00    -0.016 A 
ATOM     20  C   UNL     1      23.214 -31.853  24.086  1.00  0.00     0.134 A 
ATOM     21  C   UNL     1      21.159 -31.444  23.351  1.00  0.00     0.006 A 
ATOM     22  N   UNL     1      22.940 -32.772  23.129  1.00  0.00    -0.191 N 
ATOM     23  C   UNL     1      21.697 -32.519  22.689  1.00  0.00     0.087 A 
ATOM     24  C   UNL     1      19.870 -30.981  23.075  1.00  0.00     0.011 A 
ATOM     25  C   UNL     1      20.989 -33.201  21.700  1.00  0.00     0.030 A 
ATOM     26  C   UNL     1      19.134 -31.648  22.080  1.00  0.00     0.001 A 
ATOM     27  C   UNL     1      19.692 -32.752  21.398  1.00  0.00     0.002 A 
BRANCH  22  28
ATOM     28  O   UNL     1      23.767 -33.774  22.657  1.00  0.00    -0.417 OA
ATOM     29  C   UNL     1      24.829 -33.513  21.749  1.00  0.00     0.313 C 
ENDBRANCH  22  28
ENDBRANCH  18  19
ENDBRANCH   7  18
ENDBRANCH   4   7
ENDBRANCH   2   3
BRANCH   2  30
ATOM     30  N   UNL     1      23.821 -24.934  25.756  1.00  0.00    -0.343 N 
ATOM     31  C   UNL     1      22.492 -24.414  25.545  1.00  0.00     0.243 C 
ATOM     32  H   UNL     1      24.515 -24.789  24.988  1.00  0.00     0.164 HD
ATOM     33  O   UNL     1      21.531 -24.781  26.267  1.00  0.00    -0.273 OA
BRANCH  31  34
ATOM     34  C   UNL     1      22.250 -23.388  24.461  1.00  0.00     0.174 C 
ATOM     35  N   UNL     1      22.514 -23.969  23.121  1.00  0.00    -0.329 N 
ATOM     36  C   UNL     1      23.092 -22.126  24.763  1.00  0.00     0.035 C 
ATOM     37  C   UNL     1      22.884 -23.107  21.981  1.00  0.00     0.120 C 
ATOM     38  C   UNL     1      23.148 -21.190  23.563  1.00  0.00     0.004 C 
ATOM     39  C   UNL     1      23.770 -21.930  22.386  1.00  0.00     0.022 C 
BRANCH  35  40
ATOM     40  C   UNL     1      21.734 -25.126  22.760  1.00  0.00     0.246 CG0
ATOM     41  O   UNL     1      20.480 -25.087  22.902  1.00  0.00    -0.272 OA
ATOM     42  G   UNL     1      22.382 -26.397  22.261  1.00  0.00     0.000 G0
ENDBRANCH  35  40
ENDBRANCH  31  34
ENDBRANCH   2  30
ENDBRANCH   1   2
BRANCH   1  43
ATOM     43  C   UNL     1      24.369 -24.560  29.229  1.00  0.00     0.003 C 
BRANCH  43  44
ATOM     44  C   UNL     1      25.887 -24.644  28.997  1.00  0.00     0.001 C 
BRANCH  44  45
ATOM     45  C   UNL     1      26.529 -25.863  29.685  1.00  0.00     0.008 C 
BRANCH  45  46
ATOM     46  C   UNL     1      25.760 -26.379  30.913  1.00  0.00     0.075 C 
BRANCH  46  47
ATOM     47  C   UNL     1      25.565 -27.881  30.917  1.00  0.00     0.132 C 
ATOM     48  O   UNL     1      24.738 -28.397  31.653  1.00  0.00    -0.300 OA
BRANCH  47  49
ATOM     49  C   UNL     1      26.380 -28.752  29.996  1.00  0.00     0.072 C 
ATOM     50  C   UNL     1      27.478 -29.485  30.760  1.00  0.00     0.012 C 
ENDBRANCH  47  49
ENDBRANCH  46  47
ENDBRANCH  45  46
ENDBRANCH  44  45
ENDBRANCH  43  44
ENDBRANCH   1  43
TORSDOF 12
ENDMDL
MODEL 9
REMARK VINA RESULT:    -5.924      3.065      8.878
REMARK INTER + INTRA:         -15.062
REMARK INTER:                 -11.643
REMARK INTRA:                  -3.419
REMARK UNBOUND:                -2.558
REMARK SMILES CCC(=O)CCCCC[C@@H]1NC(=O)[C@H]2CCCCN2C(=O)[C@H]([C@@H](C)CC)NC(=O)[C@H](Cc2cn(OC)c3ccccc23)NC1=O
REMARK SMILES IDX 9 1 10 2 44 3 43 4 45 6 30 7 28 8 27 9 29 11 22 12 23 14
REMARK SMILES IDX 24 15 25 16 26 17 31 18 32 19 33 20 42 21 34 22 37 23 41 24
REMARK SMILES IDX 38 25 40 26 39 27 35 28 36 29 11 30 12 31 13 33 14 34 19 35
REMARK SMILES IDX 15 36 18 37 16 38 17 39 20 40 21 41 8 43 7 44 6 45 5 46 3 47
REMARK SMILES IDX 4 48 2 49 1 50
REMARK H PARENT 43 5 27 10 11 32
REMARK Flexibility Score: 80.00
ROOT
ATOM      1  C   UNL     1      23.756 -30.225  26.036  1.00  0.00     0.035 C 
ENDROOT
BRANCH   1   2
ATOM      2  C   UNL     1      22.621 -31.171  26.492  1.00  0.00     0.171 C 
BRANCH   2   3
ATOM      3  C   UNL     1      21.302 -30.833  25.852  1.00  0.00     0.243 C 
ATOM      4  N   UNL     1      21.082 -31.037  24.450  1.00  0.00    -0.342 N 
ATOM      5  H   UNL     1      21.908 -31.099  23.810  1.00  0.00     0.164 HD
ATOM      6  O   UNL     1      20.362 -30.399  26.577  1.00  0.00    -0.273 OA
BRANCH   4   7
ATOM      7  C   UNL     1      19.773 -31.468  23.959  1.00  0.00     0.175 C 
BRANCH   7   8
ATOM      8  C   UNL     1      19.531 -32.882  24.426  1.00  0.00     0.243 C 
ATOM      9  N   UNL     1      20.267 -33.974  23.856  1.00  0.00    -0.342 N 
ATOM     10  H   UNL     1      20.665 -33.860  22.899  1.00  0.00     0.164 HD
ATOM     11  O   UNL     1      18.745 -33.082  25.388  1.00  0.00    -0.273 OA
BRANCH   9  12
ATOM     12  C   UNL     1      20.496 -35.247  24.548  1.00  0.00     0.174 CG0
ATOM     13  G   UNL     1      21.951 -35.609  24.356  1.00  0.00     0.000 G0
BRANCH  12  14
ATOM     14  C   UNL     1      19.557 -36.350  23.969  1.00  0.00     0.018 C 
ATOM     15  C   UNL     1      18.682 -36.998  25.056  1.00  0.00     0.010 C 
BRANCH  14  16
ATOM     16  C   UNL     1      18.692 -35.860  22.783  1.00  0.00     0.002 C 
ATOM     17  C   UNL     1      17.262 -35.455  23.158  1.00  0.00     0.004 C 
ENDBRANCH  14  16
ENDBRANCH  12  14
ENDBRANCH   9  12
ENDBRANCH   7   8
BRANCH   7  18
ATOM     18  C   UNL     1      19.682 -31.344  22.428  1.00  0.00     0.073 C 
BRANCH  18  19
ATOM     19  C   UNL     1      18.323 -31.740  21.936  1.00  0.00    -0.016 A 
ATOM     20  C   UNL     1      17.106 -31.215  22.368  1.00  0.00     0.134 A 
ATOM     21  C   UNL     1      18.017 -32.633  20.922  1.00  0.00     0.006 A 
ATOM     22  N   UNL     1      16.094 -31.772  21.661  1.00  0.00    -0.191 N 
ATOM     23  C   UNL     1      16.651 -32.628  20.789  1.00  0.00     0.087 A 
ATOM     24  C   UNL     1      18.829 -33.442  20.125  1.00  0.00     0.011 A 
ATOM     25  C   UNL     1      16.001 -33.435  19.856  1.00  0.00     0.030 A 
ATOM     26  C   UNL     1      18.202 -34.270  19.177  1.00  0.00     0.001 A 
ATOM     27  C   UNL     1      16.795 -34.265  19.045  1.00  0.00     0.002 A 
BRANCH  22  28
ATOM     28  O   UNL     1      14.737 -31.543  21.801  1.00  0.00    -0.417 OA
ATOM     29  C   UNL     1      14.022 -31.929  22.967  1.00  0.00     0.313 C 
ENDBRANCH  22  28
ENDBRANCH  18  19
ENDBRANCH   7  18
ENDBRANCH   4   7
ENDBRANCH   2   3
BRANCH   2  30
ATOM     30  N   UNL     1      22.917 -32.603  26.333  1.00  0.00    -0.343 N 
ATOM     31  C   UNL     1      23.563 -33.234  25.206  1.00  0.00     0.243 C 
ATOM     32  H   UNL     1      22.572 -33.232  27.094  1.00  0.00     0.164 HD
ATOM     33  O   UNL     1      23.749 -32.606  24.133  1.00  0.00    -0.273 OA
BRANCH  31  34
ATOM     34  C   UNL     1      24.054 -34.659  25.322  1.00  0.00     0.174 C 
ATOM     35  N   UNL     1      22.911 -35.599  25.435  1.00  0.00    -0.329 N 
ATOM     36  C   UNL     1      25.052 -34.755  26.501  1.00  0.00     0.035 C 
ATOM     37  C   UNL     1      23.074 -36.915  26.085  1.00  0.00     0.120 C 
ATOM     38  C   UNL     1      25.336 -36.203  26.877  1.00  0.00     0.004 C 
ATOM     39  C   UNL     1      24.030 -36.878  27.277  1.00  0.00     0.022 C 
BRANCH  35  40
ATOM     40  C   UNL     1      21.964 -35.588  24.350  1.00  0.00     0.246 CG0
ATOM     41  O   UNL     1      22.369 -35.841  23.181  1.00  0.00    -0.272 OA
ATOM     42  G   UNL     1      20.510 -35.237  24.567  1.00  0.00     0.000 G0
ENDBRANCH  35  40
ENDBRANCH  31  34
ENDBRANCH   2  30
ENDBRANCH   1   2
BRANCH   1  43
ATOM     43  C   UNL     1      23.907 -28.953  26.886  1.00  0.00     0.003 C 
BRANCH  43  44
ATOM     44  C   UNL     1      25.360 -28.459  26.984  1.00  0.00     0.001 C 
BRANCH  44  45
ATOM     45  C   UNL     1      26.295 -29.486  27.649  1.00  0.00     0.008 C 
BRANCH  45  46
ATOM     46  C   UNL     1      27.228 -28.897  28.722  1.00  0.00     0.075 C 
BRANCH  46  47
ATOM     47  C   UNL     1      26.663 -28.979  30.124  1.00  0.00     0.132 C 
ATOM     48  O   UNL     1      27.259 -29.592  30.997  1.00  0.00    -0.300 OA
BRANCH  47  49
ATOM     49  C   UNL     1      25.367 -28.288  30.460  1.00  0.00     0.072 C 
ATOM     50  C   UNL     1      25.602 -27.090  31.375  1.00  0.00     0.012 C 
ENDBRANCH  47  49
ENDBRANCH  46  47
ENDBRANCH  45  46
ENDBRANCH  44  45
ENDBRANCH  43  44
ENDBRANCH   1  43
TORSDOF 12
ENDMDL
