MODEL 1
REMARK VINA RESULT:   145.627      0.000      0.000
REMARK INTER + INTRA:         171.536
REMARK INTER:                 171.167
REMARK INTRA:                   0.369
REMARK UNBOUND:                 0.369
REMARK SMILES CC1(C)CC[C@]2(C(=O)[O-])CC[C@]3(C)C(=CC[C@@H]4[C@]5(C)CC[C@H](O)[C@@](C)(CO)[C@H]5CC[C@@]43C)[C@@H]2C1
REMARK SMILES IDX 6 1 5 2 10 3 33 4 4 5 11 6 14 7 34 8 2 9 12 10 15 11 1 12
REMARK SMILES IDX 3 13 13 14 31 15 16 16 17 17 30 18 32 19 18 20 29 21 28 22
REMARK SMILES IDX 20 23 19 24 24 25 21 26 22 27 25 28 7 29 8 30 9 31 26 32
REMARK SMILES IDX 27 33 23 35
REMARK H PARENT 27 34 23 36
REMARK Flexibility Score: inf
ROOT
ATOM      1  C   UNL     1     -32.032  30.561 -18.034  1.00  0.00     0.017 C 
ATOM      2  C   UNL     1     -30.675  30.314 -17.287  1.00  0.00     0.014 C 
ATOM      3  C   UNL     1     -32.551  31.957 -17.631  1.00  0.00     0.014 C 
ATOM      4  C   UNL     1     -33.096  29.480 -17.637  1.00  0.00     0.028 C 
ATOM      5  C   UNL     1     -30.469  28.841 -16.913  1.00  0.00     0.007 C 
ATOM      6  C   UNL     1     -33.879  32.299 -18.310  1.00  0.00     0.013 C 
ATOM      7  C   UNL     1     -34.550  29.862 -17.941  1.00  0.00    -0.064 C 
ATOM      8  C   UNL     1     -32.928  29.050 -16.160  1.00  0.00     0.015 C 
ATOM      9  C   UNL     1     -31.559  28.336 -15.917  1.00  0.00    -0.035 C 
ATOM     10  C   UNL     1     -35.056  31.304 -18.002  1.00  0.00    -0.006 C 
ATOM     11  C   UNL     1     -35.430  28.852 -18.022  1.00  0.00    -0.027 C 
ATOM     12  C   UNL     1     -31.728  26.810 -16.095  1.00  0.00     0.011 C 
ATOM     13  C   UNL     1     -31.102  28.601 -14.465  1.00  0.00     0.011 C 
ATOM     14  C   UNL     1     -35.572  31.642 -16.570  1.00  0.00     0.017 C 
ATOM     15  C   UNL     1     -36.246  31.422 -19.094  1.00  0.00    -0.020 C 
ATOM     16  C   UNL     1     -36.895  29.006 -18.293  1.00  0.00     0.032 C 
ATOM     17  C   UNL     1     -37.431  30.419 -18.725  1.00  0.00     0.006 C 
ATOM     18  C   UNL     1     -35.740  31.064 -20.535  1.00  0.00     0.008 C 
ATOM     19  C   UNL     1     -36.740  32.907 -19.108  1.00  0.00     0.012 C 
ATOM     20  C   UNL     1     -38.602  30.300 -19.818  1.00  0.00    -0.025 C 
ATOM     21  C   UNL     1     -36.847  30.942 -21.603  1.00  0.00     0.005 C 
ATOM     22  C   UNL     1     -37.942  29.924 -21.202  1.00  0.00     0.006 C 
ATOM     23  C   UNL     1     -39.641  29.188 -19.416  1.00  0.00     0.010 C 
ATOM     24  C   UNL     1     -39.418  31.640 -19.864  1.00  0.00     0.012 C 
ATOM     25  C   UNL     1     -38.936  29.509 -22.365  1.00  0.00     0.020 C 
ATOM     26  C   UNL     1     -40.632  28.830 -20.539  1.00  0.00     0.033 C 
ATOM     27  C   UNL     1     -39.911  28.408 -21.830  1.00  0.00     0.123 C 
ATOM     28  C   UNL     1     -38.125  28.888 -23.542  1.00  0.00     0.017 C 
ENDROOT
BRANCH   1  29
ATOM     29  C   UNL     1     -31.760  30.544 -19.538  1.00  0.00     0.048 C 
ATOM     30  O   UNL     1     -31.856  31.588 -20.237  1.00  0.00    -0.550 OA
ATOM     31  O   UNL     1     -31.386  29.357 -20.159  1.00  0.00    -0.550 OA
ENDBRANCH   1  29
BRANCH  25  32
ATOM     32  C   UNL     1     -39.740  30.715 -22.947  1.00  0.00     0.165 C 
BRANCH  32  33
ATOM     33  O   UNL     1     -41.111  30.417 -23.041  1.00  0.00    -0.396 OA
ATOM     34  H   UNL     1     -41.560  31.216 -23.421  1.00  0.00     0.210 HD
ENDBRANCH  32  33
ENDBRANCH  25  32
BRANCH  27  35
ATOM     35  O   UNL     1     -39.208  27.210 -21.594  1.00  0.00    -0.392 OA
ATOM     36  H   UNL     1     -39.089  26.764 -22.474  1.00  0.00     0.210 HD
ENDBRANCH  27  35
TORSDOF 4
ENDMDL
MODEL 2
REMARK VINA RESULT:   146.548      6.019      8.362
REMARK INTER + INTRA:         172.618
REMARK INTER:                 172.938
REMARK INTRA:                  -0.320
REMARK UNBOUND:                 0.369
REMARK SMILES CC1(C)CC[C@]2(C(=O)[O-])CC[C@]3(C)C(=CC[C@@H]4[C@]5(C)CC[C@H](O)[C@@](C)(CO)[C@H]5CC[C@@]43C)[C@@H]2C1
REMARK SMILES IDX 6 1 5 2 10 3 33 4 4 5 11 6 14 7 34 8 2 9 12 10 15 11 1 12
REMARK SMILES IDX 3 13 13 14 31 15 16 16 17 17 30 18 32 19 18 20 29 21 28 22
REMARK SMILES IDX 20 23 19 24 24 25 21 26 22 27 25 28 7 29 8 30 9 31 26 32
REMARK SMILES IDX 27 33 23 35
REMARK H PARENT 27 34 23 36
REMARK Flexibility Score: inf
ROOT
ATOM      1  C   UNL     1     -28.648  25.805 -15.903  1.00  0.00     0.017 C 
ATOM      2  C   UNL     1     -28.025  24.408 -16.252  1.00  0.00     0.014 C 
ATOM      3  C   UNL     1     -29.934  25.562 -15.085  1.00  0.00     0.014 C 
ATOM      4  C   UNL     1     -29.006  26.601 -17.206  1.00  0.00     0.028 C 
ATOM      5  C   UNL     1     -27.325  24.401 -17.617  1.00  0.00     0.007 C 
ATOM      6  C   UNL     1     -30.624  26.870 -14.691  1.00  0.00     0.013 C 
ATOM      7  C   UNL     1     -30.003  27.749 -17.007  1.00  0.00    -0.064 C 
ATOM      8  C   UNL     1     -29.469  25.646 -18.331  1.00  0.00     0.015 C 
ATOM      9  C   UNL     1     -28.323  24.683 -18.783  1.00  0.00    -0.035 C 
ATOM     10  C   UNL     1     -31.054  27.782 -15.896  1.00  0.00    -0.006 C 
ATOM     11  C   UNL     1     -30.019  28.699 -17.955  1.00  0.00    -0.027 C 
ATOM     12  C   UNL     1     -27.548  25.315 -19.961  1.00  0.00     0.011 C 
ATOM     13  C   UNL     1     -28.943  23.356 -19.273  1.00  0.00     0.011 C 
ATOM     14  C   UNL     1     -32.345  27.152 -16.503  1.00  0.00     0.017 C 
ATOM     15  C   UNL     1     -31.314  29.311 -15.431  1.00  0.00    -0.020 C 
ATOM     16  C   UNL     1     -30.922  29.893 -17.963  1.00  0.00     0.032 C 
ATOM     17  C   UNL     1     -31.778  30.193 -16.679  1.00  0.00     0.006 C 
ATOM     18  C   UNL     1     -30.014  29.958 -14.838  1.00  0.00     0.008 C 
ATOM     19  C   UNL     1     -32.404  29.294 -14.309  1.00  0.00     0.012 C 
ATOM     20  C   UNL     1     -31.901  31.771 -16.402  1.00  0.00    -0.025 C 
ATOM     21  C   UNL     1     -30.107  31.475 -14.566  1.00  0.00     0.005 C 
ATOM     22  C   UNL     1     -30.521  32.274 -15.825  1.00  0.00     0.006 C 
ATOM     23  C   UNL     1     -32.229  32.553 -17.727  1.00  0.00     0.010 C 
ATOM     24  C   UNL     1     -33.112  32.044 -15.442  1.00  0.00     0.012 C 
ATOM     25  C   UNL     1     -30.335  33.845 -15.718  1.00  0.00     0.020 C 
ATOM     26  C   UNL     1     -32.093  34.081 -17.596  1.00  0.00     0.033 C 
ATOM     27  C   UNL     1     -30.699  34.493 -17.095  1.00  0.00     0.123 C 
ATOM     28  C   UNL     1     -28.840  34.171 -15.424  1.00  0.00     0.017 C 
ENDROOT
BRANCH   1  29
ATOM     29  C   UNL     1     -27.646  26.574 -15.042  1.00  0.00     0.048 C 
ATOM     30  O   UNL     1     -27.037  27.586 -15.484  1.00  0.00    -0.550 OA
ATOM     31  O   UNL     1     -27.399  26.164 -13.736  1.00  0.00    -0.550 OA
ENDBRANCH   1  29
BRANCH  25  32
ATOM     32  C   UNL     1     -31.179  34.487 -14.572  1.00  0.00     0.165 C 
BRANCH  32  33
ATOM     33  O   UNL     1     -31.296  35.879 -14.741  1.00  0.00    -0.396 OA
ATOM     34  H   UNL     1     -30.760  36.308 -14.024  1.00  0.00     0.210 HD
ENDBRANCH  32  33
ENDBRANCH  25  32
BRANCH  27  35
ATOM     35  O   UNL     1     -29.739  34.144 -18.064  1.00  0.00    -0.392 OA
ATOM     36  H   UNL     1     -29.258  33.345 -17.724  1.00  0.00     0.210 HD
ENDBRANCH  27  35
TORSDOF 4
ENDMDL
MODEL 3
REMARK VINA RESULT:   146.568      2.900      5.610
REMARK INTER + INTRA:         172.641
REMARK INTER:                 171.526
REMARK INTRA:                   1.116
REMARK UNBOUND:                 0.369
REMARK SMILES CC1(C)CC[C@]2(C(=O)[O-])CC[C@]3(C)C(=CC[C@@H]4[C@]5(C)CC[C@H](O)[C@@](C)(CO)[C@H]5CC[C@@]43C)[C@@H]2C1
REMARK SMILES IDX 6 1 5 2 10 3 33 4 4 5 11 6 14 7 34 8 2 9 12 10 15 11 1 12
REMARK SMILES IDX 3 13 13 14 31 15 16 16 17 17 30 18 32 19 18 20 29 21 28 22
REMARK SMILES IDX 20 23 19 24 24 25 21 26 22 27 25 28 7 29 8 30 9 31 26 32
REMARK SMILES IDX 27 33 23 35
REMARK H PARENT 27 34 23 36
REMARK Flexibility Score: inf
ROOT
ATOM      1  C   UNL     1     -36.580  29.072 -18.202  1.00  0.00     0.017 C 
ATOM      2  C   UNL     1     -35.247  29.206 -17.385  1.00  0.00     0.014 C 
ATOM      3  C   UNL     1     -36.339  28.064 -19.346  1.00  0.00     0.014 C 
ATOM      4  C   UNL     1     -37.005  30.453 -18.811  1.00  0.00     0.028 C 
ATOM      5  C   UNL     1     -35.039  30.619 -16.826  1.00  0.00     0.007 C 
ATOM      6  C   UNL     1     -37.585  27.860 -20.209  1.00  0.00     0.013 C 
ATOM      7  C   UNL     1     -38.011  30.367 -19.966  1.00  0.00    -0.064 C 
ATOM      8  C   UNL     1     -35.767  31.291 -19.208  1.00  0.00     0.015 C 
ATOM      9  C   UNL     1     -34.907  31.680 -17.962  1.00  0.00    -0.035 C 
ATOM     10  C   UNL     1     -38.135  29.160 -20.898  1.00  0.00    -0.006 C 
ATOM     11  C   UNL     1     -38.714  31.478 -20.231  1.00  0.00    -0.027 C 
ATOM     12  C   UNL     1     -35.367  33.051 -17.419  1.00  0.00     0.011 C 
ATOM     13  C   UNL     1     -33.428  31.806 -18.389  1.00  0.00     0.011 C 
ATOM     14  C   UNL     1     -37.205  29.457 -22.114  1.00  0.00     0.017 C 
ATOM     15  C   UNL     1     -39.674  28.988 -21.370  1.00  0.00    -0.020 C 
ATOM     16  C   UNL     1     -39.731  31.614 -21.321  1.00  0.00     0.032 C 
ATOM     17  C   UNL     1     -40.180  30.319 -22.092  1.00  0.00     0.006 C 
ATOM     18  C   UNL     1     -40.620  28.711 -20.150  1.00  0.00     0.008 C 
ATOM     19  C   UNL     1     -39.747  27.756 -22.332  1.00  0.00     0.012 C 
ATOM     20  C   UNL     1     -41.744  30.357 -22.455  1.00  0.00    -0.025 C 
ATOM     21  C   UNL     1     -42.129  28.743 -20.473  1.00  0.00     0.005 C 
ATOM     22  C   UNL     1     -42.559  30.076 -21.134  1.00  0.00     0.006 C 
ATOM     23  C   UNL     1     -42.156  31.761 -23.034  1.00  0.00     0.010 C 
ATOM     24  C   UNL     1     -42.043  29.326 -23.600  1.00  0.00     0.012 C 
ATOM     25  C   UNL     1     -44.125  30.316 -21.209  1.00  0.00     0.020 C 
ATOM     26  C   UNL     1     -43.679  31.962 -23.149  1.00  0.00     0.033 C 
ATOM     27  C   UNL     1     -44.391  31.738 -21.805  1.00  0.00     0.123 C 
ATOM     28  C   UNL     1     -44.723  30.289 -19.770  1.00  0.00     0.017 C 
ENDROOT
BRANCH   1  29
ATOM     29  C   UNL     1     -37.658  28.521 -17.269  1.00  0.00     0.048 C 
ATOM     30  O   UNL     1     -37.362  27.868 -16.233  1.00  0.00    -0.550 OA
ATOM     31  O   UNL     1     -39.000  28.748 -17.555  1.00  0.00    -0.550 OA
ENDBRANCH   1  29
BRANCH  25  32
ATOM     32  C   UNL     1     -44.875  29.226 -22.039  1.00  0.00     0.165 C 
BRANCH  32  33
ATOM     33  O   UNL     1     -45.085  29.649 -23.364  1.00  0.00    -0.396 OA
ATOM     34  H   UNL     1     -45.246  28.835 -23.911  1.00  0.00     0.210 HD
ENDBRANCH  32  33
ENDBRANCH  25  32
BRANCH  27  35
ATOM     35  O   UNL     1     -43.980  32.731 -20.895  1.00  0.00    -0.392 OA
ATOM     36  H   UNL     1     -43.925  32.302 -20.000  1.00  0.00     0.210 HD
ENDBRANCH  27  35
TORSDOF 4
ENDMDL
MODEL 4
REMARK VINA RESULT:   148.190      5.205      9.354
REMARK INTER + INTRA:         174.548
REMARK INTER:                 174.585
REMARK INTRA:                  -0.037
REMARK UNBOUND:                 0.369
REMARK SMILES CC1(C)CC[C@]2(C(=O)[O-])CC[C@]3(C)C(=CC[C@@H]4[C@]5(C)CC[C@H](O)[C@@](C)(CO)[C@H]5CC[C@@]43C)[C@@H]2C1
REMARK SMILES IDX 6 1 5 2 10 3 33 4 4 5 11 6 14 7 34 8 2 9 12 10 15 11 1 12
REMARK SMILES IDX 3 13 13 14 31 15 16 16 17 17 30 18 32 19 18 20 29 21 28 22
REMARK SMILES IDX 20 23 19 24 24 25 21 26 22 27 25 28 7 29 8 30 9 31 26 32
REMARK SMILES IDX 27 33 23 35
REMARK H PARENT 27 34 23 36
REMARK Flexibility Score: inf
ROOT
ATOM      1  C   UNL     1     -31.340  22.217 -13.663  1.00  0.00     0.017 C 
ATOM      2  C   UNL     1     -31.777  21.040 -12.722  1.00  0.00     0.014 C 
ATOM      3  C   UNL     1     -29.811  22.134 -13.851  1.00  0.00     0.014 C 
ATOM      4  C   UNL     1     -31.709  23.605 -13.033  1.00  0.00     0.028 C 
ATOM      5  C   UNL     1     -32.963  21.415 -11.824  1.00  0.00     0.007 C 
ATOM      6  C   UNL     1     -29.278  23.245 -14.759  1.00  0.00     0.013 C 
ATOM      7  C   UNL     1     -30.954  24.803 -13.623  1.00  0.00    -0.064 C 
ATOM      8  C   UNL     1     -31.581  23.568 -11.492  1.00  0.00     0.015 C 
ATOM      9  C   UNL     1     -32.609  22.581 -10.849  1.00  0.00    -0.035 C 
ATOM     10  C   UNL     1     -29.564  24.706 -14.257  1.00  0.00    -0.006 C 
ATOM     11  C   UNL     1     -31.510  26.010 -13.441  1.00  0.00    -0.027 C 
ATOM     12  C   UNL     1     -33.905  23.340 -10.488  1.00  0.00     0.011 C 
ATOM     13  C   UNL     1     -32.010  22.007  -9.545  1.00  0.00     0.011 C 
ATOM     14  C   UNL     1     -28.547  24.999 -13.112  1.00  0.00     0.017 C 
ATOM     15  C   UNL     1     -29.428  25.791 -15.450  1.00  0.00    -0.020 C 
ATOM     16  C   UNL     1     -30.932  27.306 -13.920  1.00  0.00     0.032 C 
ATOM     17  C   UNL     1     -29.696  27.261 -14.889  1.00  0.00     0.006 C 
ATOM     18  C   UNL     1     -30.463  25.515 -16.596  1.00  0.00     0.008 C 
ATOM     19  C   UNL     1     -27.990  25.664 -16.053  1.00  0.00     0.012 C 
ATOM     20  C   UNL     1     -29.768  28.422 -15.998  1.00  0.00    -0.025 C 
ATOM     21  C   UNL     1     -30.553  26.617 -17.673  1.00  0.00     0.005 C 
ATOM     22  C   UNL     1     -30.854  28.009 -17.066  1.00  0.00     0.006 C 
ATOM     23  C   UNL     1     -30.170  29.798 -15.350  1.00  0.00     0.010 C 
ATOM     24  C   UNL     1     -28.344  28.648 -16.616  1.00  0.00     0.012 C 
ATOM     25  C   UNL     1     -31.270  29.125 -18.113  1.00  0.00     0.020 C 
ATOM     26  C   UNL     1     -30.524  30.889 -16.379  1.00  0.00     0.033 C 
ATOM     27  C   UNL     1     -31.636  30.435 -17.338  1.00  0.00     0.123 C 
ATOM     28  C   UNL     1     -32.542  28.663 -18.884  1.00  0.00     0.017 C 
ENDROOT
BRANCH   1  29
ATOM     29  C   UNL     1     -32.022  22.025 -15.017  1.00  0.00     0.048 C 
ATOM     30  O   UNL     1     -32.200  20.877 -15.508  1.00  0.00    -0.550 OA
ATOM     31  O   UNL     1     -32.470  23.132 -15.729  1.00  0.00    -0.550 OA
ENDBRANCH   1  29
BRANCH  25  32
ATOM     32  C   UNL     1     -30.165  29.412 -19.178  1.00  0.00     0.165 C 
BRANCH  32  33
ATOM     33  O   UNL     1     -30.586  29.034 -20.466  1.00  0.00    -0.396 OA
ATOM     34  H   UNL     1     -29.773  28.948 -21.028  1.00  0.00     0.210 HD
ENDBRANCH  32  33
ENDBRANCH  25  32
BRANCH  27  35
ATOM     35  O   UNL     1     -32.827  30.249 -16.608  1.00  0.00    -0.392 OA
ATOM     36  H   UNL     1     -33.547  30.725 -17.099  1.00  0.00     0.210 HD
ENDBRANCH  27  35
TORSDOF 4
ENDMDL
MODEL 5
REMARK VINA RESULT:   148.399      6.513      9.659
REMARK INTER + INTRA:         174.794
REMARK INTER:                 174.928
REMARK INTRA:                  -0.134
REMARK UNBOUND:                 0.369
REMARK SMILES CC1(C)CC[C@]2(C(=O)[O-])CC[C@]3(C)C(=CC[C@@H]4[C@]5(C)CC[C@H](O)[C@@](C)(CO)[C@H]5CC[C@@]43C)[C@@H]2C1
REMARK SMILES IDX 6 1 5 2 10 3 33 4 4 5 11 6 14 7 34 8 2 9 12 10 15 11 1 12
REMARK SMILES IDX 3 13 13 14 31 15 16 16 17 17 30 18 32 19 18 20 29 21 28 22
REMARK SMILES IDX 20 23 19 24 24 25 21 26 22 27 25 28 7 29 8 30 9 31 26 32
REMARK SMILES IDX 27 33 23 35
REMARK H PARENT 27 34 23 36
REMARK Flexibility Score: inf
ROOT
ATOM      1  C   UNL     1     -30.890  23.698 -14.005  1.00  0.00     0.017 C 
ATOM      2  C   UNL     1     -30.763  22.223 -13.485  1.00  0.00     0.014 C 
ATOM      3  C   UNL     1     -31.615  23.662 -15.367  1.00  0.00     0.014 C 
ATOM      4  C   UNL     1     -29.477  24.352 -14.188  1.00  0.00     0.028 C 
ATOM      5  C   UNL     1     -29.474  21.990 -12.686  1.00  0.00     0.007 C 
ATOM      6  C   UNL     1     -31.792  25.059 -15.965  1.00  0.00     0.013 C 
ATOM      7  C   UNL     1     -29.452  25.593 -15.090  1.00  0.00    -0.064 C 
ATOM      8  C   UNL     1     -28.435  23.305 -14.648  1.00  0.00     0.015 C 
ATOM      9  C   UNL     1     -28.200  22.205 -13.562  1.00  0.00    -0.035 C 
ATOM     10  C   UNL     1     -30.456  25.847 -16.216  1.00  0.00    -0.006 C 
ATOM     11  C   UNL     1     -28.402  26.416 -14.946  1.00  0.00    -0.027 C 
ATOM     12  C   UNL     1     -27.029  22.621 -12.644  1.00  0.00     0.011 C 
ATOM     13  C   UNL     1     -27.816  20.882 -14.259  1.00  0.00     0.011 C 
ATOM     14  C   UNL     1     -29.815  25.253 -17.508  1.00  0.00     0.017 C 
ATOM     15  C   UNL     1     -30.714  27.438 -16.372  1.00  0.00    -0.020 C 
ATOM     16  C   UNL     1     -28.176  27.669 -15.735  1.00  0.00     0.032 C 
ATOM     17  C   UNL     1     -29.336  28.192 -16.656  1.00  0.00     0.006 C 
ATOM     18  C   UNL     1     -31.339  28.047 -15.068  1.00  0.00     0.008 C 
ATOM     19  C   UNL     1     -31.731  27.647 -17.542  1.00  0.00     0.012 C 
ATOM     20  C   UNL     1     -29.415  29.797 -16.658  1.00  0.00    -0.025 C 
ATOM     21  C   UNL     1     -31.423  29.588 -15.045  1.00  0.00     0.005 C 
ATOM     22  C   UNL     1     -30.048  30.256 -15.287  1.00  0.00     0.006 C 
ATOM     23  C   UNL     1     -27.984  30.433 -16.810  1.00  0.00     0.010 C 
ATOM     24  C   UNL     1     -30.226  30.284 -17.909  1.00  0.00     0.012 C 
ATOM     25  C   UNL     1     -29.987  31.808 -14.968  1.00  0.00     0.020 C 
ATOM     26  C   UNL     1     -27.947  31.950 -16.548  1.00  0.00     0.033 C 
ATOM     27  C   UNL     1     -28.516  32.308 -15.165  1.00  0.00     0.123 C 
ATOM     28  C   UNL     1     -30.370  32.047 -13.477  1.00  0.00     0.017 C 
ENDROOT
BRANCH   1  29
ATOM     29  C   UNL     1     -31.740  24.484 -13.007  1.00  0.00     0.048 C 
ATOM     30  O   UNL     1     -32.777  23.988 -12.489  1.00  0.00    -0.550 OA
ATOM     31  O   UNL     1     -31.365  25.774 -12.646  1.00  0.00    -0.550 OA
ENDBRANCH   1  29
BRANCH  25  32
ATOM     32  C   UNL     1     -30.971  32.653 -15.837  1.00  0.00     0.165 C 
BRANCH  32  33
ATOM     33  O   UNL     1     -30.953  34.008 -15.459  1.00  0.00    -0.396 OA
ATOM     34  H   UNL     1     -31.274  34.056 -14.521  1.00  0.00     0.210 HD
ENDBRANCH  32  33
ENDBRANCH  25  32
BRANCH  27  35
ATOM     35  O   UNL     1     -27.682  31.765 -14.169  1.00  0.00    -0.392 OA
ATOM     36  H   UNL     1     -27.004  31.204 -14.629  1.00  0.00     0.210 HD
ENDBRANCH  27  35
TORSDOF 4
ENDMDL
