MODEL 1
REMARK VINA RESULT:    -5.087      0.000      0.000
REMARK INTER + INTRA:         -14.867
REMARK INTER:                 -11.628
REMARK INTRA:                  -3.239
REMARK UNBOUND:                -3.239
REMARK SMILES CCCCCCCCCCCCCCCCCCCCCCCC(=O)[O-]
REMARK SMILES IDX 13 1 14 2 15 3 16 4 17 5 18 6 19 7 20 8 21 9 22 10 23 11
REMARK SMILES IDX 24 12 25 13 26 14 12 15 11 16 10 17 9 18 8 19 7 20 6 21 5 22
REMARK SMILES IDX 4 23 3 24 2 25 1 26
REMARK H PARENT
REMARK Flexibility Score: inf
ROOT
ATOM      1  C   UNL     1       4.094   9.299  14.938  1.00  0.00     0.000 C 
ENDROOT
BRANCH   1   2
ATOM      2  C   UNL     1       2.909   8.832  14.082  1.00  0.00     0.000 C 
BRANCH   2   3
ATOM      3  C   UNL     1       3.010   9.391  12.655  1.00  0.00     0.000 C 
BRANCH   3   4
ATOM      4  C   UNL     1       2.480   8.415  11.589  1.00  0.00     0.000 C 
BRANCH   4   5
ATOM      5  C   UNL     1       3.230   7.070  11.500  1.00  0.00     0.000 C 
BRANCH   5   6
ATOM      6  C   UNL     1       4.573   7.124  10.750  1.00  0.00     0.000 C 
BRANCH   6   7
ATOM      7  C   UNL     1       4.482   7.899   9.426  1.00  0.00     0.000 C 
BRANCH   7   8
ATOM      8  C   UNL     1       5.311   9.196   9.438  1.00  0.00     0.000 C 
BRANCH   8   9
ATOM      9  C   UNL     1       6.347   9.298  10.577  1.00  0.00     0.000 C 
BRANCH   9  10
ATOM     10  C   UNL     1       7.760   8.806  10.220  1.00  0.00     0.006 C 
BRANCH  10  11
ATOM     11  C   UNL     1       8.362   7.887  11.291  1.00  0.00     0.053 C 
BRANCH  11  12
ATOM     12  C   UNL     1       8.494   6.488  10.776  1.00  0.00     0.041 C 
ATOM     13  O   UNL     1       9.357   5.712  11.268  1.00  0.00    -0.550 OA
ATOM     14  O   UNL     1       7.665   6.040   9.756  1.00  0.00    -0.550 OA
ENDBRANCH  11  12
ENDBRANCH  10  11
ENDBRANCH   9  10
ENDBRANCH   8   9
ENDBRANCH   7   8
ENDBRANCH   6   7
ENDBRANCH   5   6
ENDBRANCH   4   5
ENDBRANCH   3   4
ENDBRANCH   2   3
ENDBRANCH   1   2
BRANCH   1  15
ATOM     15  C   UNL     1       3.660   9.841  16.311  1.00  0.00     0.000 C 
BRANCH  15  16
ATOM     16  C   UNL     1       2.242   9.428  16.755  1.00  0.00     0.000 C 
BRANCH  16  17
ATOM     17  C   UNL     1       2.174   8.174  17.649  1.00  0.00     0.000 C 
BRANCH  17  18
ATOM     18  C   UNL     1       1.876   6.863  16.902  1.00  0.00    -0.000 C 
BRANCH  18  19
ATOM     19  C   UNL     1       2.189   5.613  17.744  1.00  0.00    -0.000 C 
BRANCH  19  20
ATOM     20  C   UNL     1       3.462   4.888  17.280  1.00  0.00    -0.000 C 
BRANCH  20  21
ATOM     21  C   UNL     1       4.747   5.578  17.771  1.00  0.00    -0.000 C 
BRANCH  21  22
ATOM     22  C   UNL     1       5.450   6.371  16.657  1.00  0.00    -0.000 C 
BRANCH  22  23
ATOM     23  C   UNL     1       5.409   5.646  15.300  1.00  0.00    -0.000 C 
BRANCH  23  24
ATOM     24  C   UNL     1       5.969   6.506  14.155  1.00  0.00    -0.000 C 
BRANCH  24  25
ATOM     25  C   UNL     1       7.496   6.660  14.219  1.00  0.00    -0.003 C 
ATOM     26  C   UNL     1       8.165   5.337  14.578  1.00  0.00     0.004 C 
ENDBRANCH  24  25
ENDBRANCH  23  24
ENDBRANCH  22  23
ENDBRANCH  21  22
ENDBRANCH  20  21
ENDBRANCH  19  20
ENDBRANCH  18  19
ENDBRANCH  17  18
ENDBRANCH  16  17
ENDBRANCH  15  16
ENDBRANCH   1  15
TORSDOF 22
ENDMDL
MODEL 2
REMARK VINA RESULT:    -4.673      1.711      5.689
REMARK INTER + INTRA:         -13.921
REMARK INTER:                 -10.902
REMARK INTRA:                  -3.019
REMARK UNBOUND:                -3.239
REMARK SMILES CCCCCCCCCCCCCCCCCCCCCCCC(=O)[O-]
REMARK SMILES IDX 13 1 14 2 15 3 16 4 17 5 18 6 19 7 20 8 21 9 22 10 23 11
REMARK SMILES IDX 24 12 25 13 26 14 12 15 11 16 10 17 9 18 8 19 7 20 6 21 5 22
REMARK SMILES IDX 4 23 3 24 2 25 1 26
REMARK H PARENT
REMARK Flexibility Score: inf
ROOT
ATOM      1  C   UNL     1       3.223   4.874  17.219  1.00  0.00     0.000 C 
ENDROOT
BRANCH   1   2
ATOM      2  C   UNL     1       1.989   5.713  17.578  1.00  0.00     0.000 C 
BRANCH   2   3
ATOM      3  C   UNL     1       2.077   6.226  19.022  1.00  0.00     0.000 C 
BRANCH   3   4
ATOM      4  C   UNL     1       2.230   7.755  19.110  1.00  0.00     0.000 C 
BRANCH   4   5
ATOM      5  C   UNL     1       1.877   8.525  17.820  1.00  0.00     0.000 C 
BRANCH   5   6
ATOM      6  C   UNL     1       3.075   9.166  17.099  1.00  0.00     0.000 C 
BRANCH   6   7
ATOM      7  C   UNL     1       2.738   9.604  15.664  1.00  0.00     0.000 C 
BRANCH   7   8
ATOM      8  C   UNL     1       2.086   8.481  14.838  1.00  0.00     0.000 C 
BRANCH   8   9
ATOM      9  C   UNL     1       2.302   8.581  13.313  1.00  0.00     0.000 C 
BRANCH   9  10
ATOM     10  C   UNL     1       3.516   9.421  12.879  1.00  0.00     0.006 C 
BRANCH  10  11
ATOM     11  C   UNL     1       4.534   8.621  12.056  1.00  0.00     0.053 C 
BRANCH  11  12
ATOM     12  C   UNL     1       3.846   7.810  11.004  1.00  0.00     0.041 C 
ATOM     13  O   UNL     1       3.361   8.374   9.987  1.00  0.00    -0.550 OA
ATOM     14  O   UNL     1       3.741   6.432  11.145  1.00  0.00    -0.550 OA
ENDBRANCH  11  12
ENDBRANCH  10  11
ENDBRANCH   9  10
ENDBRANCH   8   9
ENDBRANCH   7   8
ENDBRANCH   6   7
ENDBRANCH   5   6
ENDBRANCH   4   5
ENDBRANCH   3   4
ENDBRANCH   2   3
ENDBRANCH   1   2
BRANCH   1  15
ATOM     15  C   UNL     1       4.520   5.431  17.830  1.00  0.00     0.000 C 
BRANCH  15  16
ATOM     16  C   UNL     1       5.290   6.422  16.934  1.00  0.00     0.000 C 
BRANCH  16  17
ATOM     17  C   UNL     1       4.930   6.367  15.436  1.00  0.00     0.000 C 
BRANCH  17  18
ATOM     18  C   UNL     1       5.990   5.703  14.540  1.00  0.00    -0.000 C 
BRANCH  18  19
ATOM     19  C   UNL     1       7.429   5.993  15.004  1.00  0.00    -0.000 C 
BRANCH  19  20
ATOM     20  C   UNL     1       8.474   5.687  13.919  1.00  0.00    -0.000 C 
BRANCH  20  21
ATOM     21  C   UNL     1       8.243   6.495  12.630  1.00  0.00    -0.000 C 
BRANCH  21  22
ATOM     22  C   UNL     1       9.012   5.920  11.430  1.00  0.00    -0.000 C 
BRANCH  22  23
ATOM     23  C   UNL     1       8.464   6.422  10.082  1.00  0.00    -0.000 C 
BRANCH  23  24
ATOM     24  C   UNL     1       7.356   7.474  10.252  1.00  0.00    -0.000 C 
BRANCH  24  25
ATOM     25  C   UNL     1       7.870   8.912  10.088  1.00  0.00    -0.003 C 
ATOM     26  C   UNL     1       6.817   9.798   9.432  1.00  0.00     0.004 C 
ENDBRANCH  24  25
ENDBRANCH  23  24
ENDBRANCH  22  23
ENDBRANCH  21  22
ENDBRANCH  20  21
ENDBRANCH  19  20
ENDBRANCH  18  19
ENDBRANCH  17  18
ENDBRANCH  16  17
ENDBRANCH  15  16
ENDBRANCH   1  15
TORSDOF 22
ENDMDL
MODEL 3
REMARK VINA RESULT:    -4.646      1.122      3.788
REMARK INTER + INTRA:         -13.861
REMARK INTER:                 -10.468
REMARK INTRA:                  -3.393
REMARK UNBOUND:                -3.239
REMARK SMILES CCCCCCCCCCCCCCCCCCCCCCCC(=O)[O-]
REMARK SMILES IDX 13 1 14 2 15 3 16 4 17 5 18 6 19 7 20 8 21 9 22 10 23 11
REMARK SMILES IDX 24 12 25 13 26 14 12 15 11 16 10 17 9 18 8 19 7 20 6 21 5 22
REMARK SMILES IDX 4 23 3 24 2 25 1 26
REMARK H PARENT
REMARK Flexibility Score: inf
ROOT
ATOM      1  C   UNL     1       3.786   6.748  10.972  1.00  0.00     0.000 C 
ENDROOT
BRANCH   1   2
ATOM      2  C   UNL     1       4.755   7.261   9.897  1.00  0.00     0.000 C 
BRANCH   2   3
ATOM      3  C   UNL     1       4.153   8.457   9.144  1.00  0.00     0.000 C 
BRANCH   3   4
ATOM      4  C   UNL     1       5.040   9.714   9.207  1.00  0.00     0.000 C 
BRANCH   4   5
ATOM      5  C   UNL     1       5.702   9.982  10.574  1.00  0.00     0.000 C 
BRANCH   5   6
ATOM      6  C   UNL     1       7.235  10.120  10.536  1.00  0.00     0.000 C 
BRANCH   6   7
ATOM      7  C   UNL     1       7.955   8.877  11.084  1.00  0.00     0.000 C 
BRANCH   7   8
ATOM      8  C   UNL     1       7.077   8.056  12.044  1.00  0.00     0.000 C 
BRANCH   8   9
ATOM      9  C   UNL     1       7.795   6.882  12.743  1.00  0.00     0.000 C 
BRANCH   9  10
ATOM     10  C   UNL     1       9.190   6.545  12.188  1.00  0.00     0.006 C 
BRANCH  10  11
ATOM     11  C   UNL     1       9.214   5.243  11.377  1.00  0.00     0.053 C 
BRANCH  11  12
ATOM     12  C   UNL     1       9.039   5.524   9.918  1.00  0.00     0.041 C 
ATOM     13  O   UNL     1       7.882   5.609   9.424  1.00  0.00    -0.550 OA
ATOM     14  O   UNL     1      10.151   5.694   9.103  1.00  0.00    -0.550 OA
ENDBRANCH  11  12
ENDBRANCH  10  11
ENDBRANCH   9  10
ENDBRANCH   8   9
ENDBRANCH   7   8
ENDBRANCH   6   7
ENDBRANCH   5   6
ENDBRANCH   4   5
ENDBRANCH   3   4
ENDBRANCH   2   3
ENDBRANCH   1   2
BRANCH   1  15
ATOM     15  C   UNL     1       2.492   7.576  11.051  1.00  0.00     0.000 C 
BRANCH  15  16
ATOM     16  C   UNL     1       2.371   8.479  12.295  1.00  0.00     0.000 C 
BRANCH  16  17
ATOM     17  C   UNL     1       3.053   7.938  13.566  1.00  0.00     0.000 C 
BRANCH  17  18
ATOM     18  C   UNL     1       4.098   8.879  14.191  1.00  0.00    -0.000 C 
BRANCH  18  19
ATOM     19  C   UNL     1       3.648   9.454  15.546  1.00  0.00    -0.000 C 
BRANCH  19  20
ATOM     20  C   UNL     1       2.565   8.599  16.223  1.00  0.00    -0.000 C 
BRANCH  20  21
ATOM     21  C   UNL     1       2.724   8.546  17.752  1.00  0.00    -0.000 C 
BRANCH  21  22
ATOM     22  C   UNL     1       2.729   7.107  18.293  1.00  0.00    -0.000 C 
BRANCH  22  23
ATOM     23  C   UNL     1       2.640   6.055  17.172  1.00  0.00    -0.000 C 
BRANCH  23  24
ATOM     24  C   UNL     1       3.915   5.205  17.060  1.00  0.00    -0.000 C 
BRANCH  24  25
ATOM     25  C   UNL     1       5.148   6.030  16.660  1.00  0.00    -0.003 C 
ATOM     26  C   UNL     1       5.567   5.728  15.226  1.00  0.00     0.004 C 
ENDBRANCH  24  25
ENDBRANCH  23  24
ENDBRANCH  22  23
ENDBRANCH  21  22
ENDBRANCH  20  21
ENDBRANCH  19  20
ENDBRANCH  18  19
ENDBRANCH  17  18
ENDBRANCH  16  17
ENDBRANCH  15  16
ENDBRANCH   1  15
TORSDOF 22
ENDMDL
MODEL 4
REMARK VINA RESULT:    -4.589      2.979      6.823
REMARK INTER + INTRA:         -13.729
REMARK INTER:                 -10.608
REMARK INTRA:                  -3.122
REMARK UNBOUND:                -3.239
REMARK SMILES CCCCCCCCCCCCCCCCCCCCCCCC(=O)[O-]
REMARK SMILES IDX 13 1 14 2 15 3 16 4 17 5 18 6 19 7 20 8 21 9 22 10 23 11
REMARK SMILES IDX 24 12 25 13 26 14 12 15 11 16 10 17 9 18 8 19 7 20 6 21 5 22
REMARK SMILES IDX 4 23 3 24 2 25 1 26
REMARK H PARENT
REMARK Flexibility Score: inf
ROOT
ATOM      1  C   UNL     1       5.049   6.900  10.077  1.00  0.00     0.000 C 
ENDROOT
BRANCH   1   2
ATOM      2  C   UNL     1       4.100   6.793  11.278  1.00  0.00     0.000 C 
BRANCH   2   3
ATOM      3  C   UNL     1       2.634   6.809  10.821  1.00  0.00     0.000 C 
BRANCH   3   4
ATOM      4  C   UNL     1       1.946   8.166  11.057  1.00  0.00     0.000 C 
BRANCH   4   5
ATOM      5  C   UNL     1       1.967   8.668  12.515  1.00  0.00     0.000 C 
BRANCH   5   6
ATOM      6  C   UNL     1       2.981   9.789  12.801  1.00  0.00     0.000 C 
BRANCH   6   7
ATOM      7  C   UNL     1       3.255   9.973  14.303  1.00  0.00     0.000 C 
BRANCH   7   8
ATOM      8  C   UNL     1       2.031   9.640  15.175  1.00  0.00     0.000 C 
BRANCH   8   9
ATOM      9  C   UNL     1       2.216   9.897  16.685  1.00  0.00     0.000 C 
BRANCH   9  10
ATOM     10  C   UNL     1       2.922   8.769  17.458  1.00  0.00     0.006 C 
BRANCH  10  11
ATOM     11  C   UNL     1       2.208   7.417  17.329  1.00  0.00     0.053 C 
BRANCH  11  12
ATOM     12  C   UNL     1       2.599   6.502  18.446  1.00  0.00     0.041 C 
ATOM     13  O   UNL     1       2.862   6.971  19.586  1.00  0.00    -0.550 OA
ATOM     14  O   UNL     1       2.672   5.132  18.230  1.00  0.00    -0.550 OA
ENDBRANCH  11  12
ENDBRANCH  10  11
ENDBRANCH   9  10
ENDBRANCH   8   9
ENDBRANCH   7   8
ENDBRANCH   6   7
ENDBRANCH   5   6
ENDBRANCH   4   5
ENDBRANCH   3   4
ENDBRANCH   2   3
ENDBRANCH   1   2
BRANCH   1  15
ATOM     15  C   UNL     1       4.827   8.182   9.257  1.00  0.00     0.000 C 
BRANCH  15  16
ATOM     16  C   UNL     1       5.370   9.473   9.904  1.00  0.00     0.000 C 
BRANCH  16  17
ATOM     17  C   UNL     1       6.563  10.120   9.174  1.00  0.00     0.000 C 
BRANCH  17  18
ATOM     18  C   UNL     1       7.894  10.077   9.945  1.00  0.00    -0.000 C 
BRANCH  18  19
ATOM     19  C   UNL     1       7.826   9.194  11.204  1.00  0.00    -0.000 C 
BRANCH  19  20
ATOM     20  C   UNL     1       8.557   7.853  11.028  1.00  0.00    -0.000 C 
BRANCH  20  21
ATOM     21  C   UNL     1       7.789   6.675  11.653  1.00  0.00    -0.000 C 
BRANCH  21  22
ATOM     22  C   UNL     1       8.363   6.257  13.017  1.00  0.00    -0.000 C 
BRANCH  22  23
ATOM     23  C   UNL     1       7.277   6.131  14.100  1.00  0.00    -0.000 C 
BRANCH  23  24
ATOM     24  C   UNL     1       6.285   7.305  14.080  1.00  0.00    -0.000 C 
BRANCH  24  25
ATOM     25  C   UNL     1       5.033   7.041  14.930  1.00  0.00    -0.003 C 
ATOM     26  C   UNL     1       5.175   5.748  15.726  1.00  0.00     0.004 C 
ENDBRANCH  24  25
ENDBRANCH  23  24
ENDBRANCH  22  23
ENDBRANCH  21  22
ENDBRANCH  20  21
ENDBRANCH  19  20
ENDBRANCH  18  19
ENDBRANCH  17  18
ENDBRANCH  16  17
ENDBRANCH  15  16
ENDBRANCH   1  15
TORSDOF 22
ENDMDL
MODEL 5
REMARK VINA RESULT:    -4.567      1.682      4.905
REMARK INTER + INTRA:         -13.680
REMARK INTER:                 -10.767
REMARK INTRA:                  -2.912
REMARK UNBOUND:                -3.239
REMARK SMILES CCCCCCCCCCCCCCCCCCCCCCCC(=O)[O-]
REMARK SMILES IDX 13 1 14 2 15 3 16 4 17 5 18 6 19 7 20 8 21 9 22 10 23 11
REMARK SMILES IDX 24 12 25 13 26 14 12 15 11 16 10 17 9 18 8 19 7 20 6 21 5 22
REMARK SMILES IDX 4 23 3 24 2 25 1 26
REMARK H PARENT
REMARK Flexibility Score: inf
ROOT
ATOM      1  C   UNL     1       4.558   7.453  10.128  1.00  0.00     0.000 C 
ENDROOT
BRANCH   1   2
ATOM      2  C   UNL     1       4.272   8.519   9.061  1.00  0.00     0.000 C 
BRANCH   2   3
ATOM      3  C   UNL     1       5.228   9.712   9.209  1.00  0.00     0.000 C 
BRANCH   3   4
ATOM      4  C   UNL     1       5.840   9.820  10.617  1.00  0.00     0.000 C 
BRANCH   4   5
ATOM      5  C   UNL     1       7.357  10.098  10.654  1.00  0.00     0.000 C 
BRANCH   5   6
ATOM      6  C   UNL     1       8.213   8.953  11.222  1.00  0.00     0.000 C 
BRANCH   6   7
ATOM      7  C   UNL     1       8.287   7.742  10.277  1.00  0.00     0.000 C 
BRANCH   7   8
ATOM      8  C   UNL     1       7.968   6.414  10.985  1.00  0.00     0.000 C 
BRANCH   8   9
ATOM      9  C   UNL     1       8.933   6.035  12.128  1.00  0.00     0.000 C 
BRANCH   9  10
ATOM     10  C   UNL     1       8.256   5.674  13.462  1.00  0.00     0.006 C 
BRANCH  10  11
ATOM     11  C   UNL     1       7.542   6.865  14.113  1.00  0.00     0.053 C 
BRANCH  11  12
ATOM     12  C   UNL     1       6.123   6.519  14.438  1.00  0.00     0.041 C 
ATOM     13  O   UNL     1       5.745   6.461  15.639  1.00  0.00    -0.550 OA
ATOM     14  O   UNL     1       5.217   6.264  13.416  1.00  0.00    -0.550 OA
ENDBRANCH  11  12
ENDBRANCH  10  11
ENDBRANCH   9  10
ENDBRANCH   8   9
ENDBRANCH   7   8
ENDBRANCH   6   7
ENDBRANCH   5   6
ENDBRANCH   4   5
ENDBRANCH   3   4
ENDBRANCH   2   3
ENDBRANCH   1   2
BRANCH   1  15
ATOM     15  C   UNL     1       3.276   6.897  10.772  1.00  0.00     0.000 C 
BRANCH  15  16
ATOM     16  C   UNL     1       2.119   7.909  10.899  1.00  0.00     0.000 C 
BRANCH  16  17
ATOM     17  C   UNL     1       1.945   8.534  12.296  1.00  0.00     0.000 C 
BRANCH  17  18
ATOM     18  C   UNL     1       3.139   9.372  12.784  1.00  0.00    -0.000 C 
BRANCH  18  19
ATOM     19  C   UNL     1       3.443   9.163  14.278  1.00  0.00    -0.000 C 
BRANCH  19  20
ATOM     20  C   UNL     1       2.610   8.030  14.900  1.00  0.00    -0.000 C 
BRANCH  20  21
ATOM     21  C   UNL     1       1.910   8.457  16.202  1.00  0.00    -0.000 C 
BRANCH  21  22
ATOM     22  C   UNL     1       2.881   8.535  17.393  1.00  0.00    -0.000 C 
BRANCH  22  23
ATOM     23  C   UNL     1       2.232   8.083  18.713  1.00  0.00    -0.000 C 
BRANCH  23  24
ATOM     24  C   UNL     1       2.777   6.734  19.207  1.00  0.00    -0.000 C 
BRANCH  24  25
ATOM     25  C   UNL     1       2.293   5.549  18.357  1.00  0.00    -0.003 C 
ATOM     26  C   UNL     1       3.440   4.950  17.550  1.00  0.00     0.004 C 
ENDBRANCH  24  25
ENDBRANCH  23  24
ENDBRANCH  22  23
ENDBRANCH  21  22
ENDBRANCH  20  21
ENDBRANCH  19  20
ENDBRANCH  18  19
ENDBRANCH  17  18
ENDBRANCH  16  17
ENDBRANCH  15  16
ENDBRANCH   1  15
TORSDOF 22
ENDMDL
MODEL 6
REMARK VINA RESULT:    -4.560      2.122      4.814
REMARK INTER + INTRA:         -13.663
REMARK INTER:                 -11.016
REMARK INTRA:                  -2.647
REMARK UNBOUND:                -3.239
REMARK SMILES CCCCCCCCCCCCCCCCCCCCCCCC(=O)[O-]
REMARK SMILES IDX 13 1 14 2 15 3 16 4 17 5 18 6 19 7 20 8 21 9 22 10 23 11
REMARK SMILES IDX 24 12 25 13 26 14 12 15 11 16 10 17 9 18 8 19 7 20 6 21 5 22
REMARK SMILES IDX 4 23 3 24 2 25 1 26
REMARK H PARENT
REMARK Flexibility Score: inf
ROOT
ATOM      1  C   UNL     1       5.921   5.841  14.437  1.00  0.00     0.000 C 
ENDROOT
BRANCH   1   2
ATOM      2  C   UNL     1       7.445   5.737  14.292  1.00  0.00     0.000 C 
BRANCH   2   3
ATOM      3  C   UNL     1       7.984   6.841  13.371  1.00  0.00     0.000 C 
BRANCH   3   4
ATOM      4  C   UNL     1       8.263   6.348  11.940  1.00  0.00     0.000 C 
BRANCH   4   5
ATOM      5  C   UNL     1       8.448   7.460  10.887  1.00  0.00     0.000 C 
BRANCH   5   6
ATOM      6  C   UNL     1       8.291   8.894  11.423  1.00  0.00     0.000 C 
BRANCH   6   7
ATOM      7  C   UNL     1       6.991   9.565  10.950  1.00  0.00     0.000 C 
BRANCH   7   8
ATOM      8  C   UNL     1       6.588   9.144   9.526  1.00  0.00     0.000 C 
BRANCH   8   9
ATOM      9  C   UNL     1       5.232   9.697   9.040  1.00  0.00     0.000 C 
BRANCH   9  10
ATOM     10  C   UNL     1       4.115   8.649   8.894  1.00  0.00     0.006 C 
BRANCH  10  11
ATOM     11  C   UNL     1       4.128   7.598  10.012  1.00  0.00     0.053 C 
BRANCH  11  12
ATOM     12  C   UNL     1       2.788   7.505  10.669  1.00  0.00     0.041 C 
ATOM     13  O   UNL     1       2.303   8.506  11.263  1.00  0.00    -0.550 OA
ATOM     14  O   UNL     1       2.073   6.315  10.625  1.00  0.00    -0.550 OA
ENDBRANCH  11  12
ENDBRANCH  10  11
ENDBRANCH   9  10
ENDBRANCH   8   9
ENDBRANCH   7   8
ENDBRANCH   6   7
ENDBRANCH   5   6
ENDBRANCH   4   5
ENDBRANCH   3   4
ENDBRANCH   2   3
ENDBRANCH   1   2
BRANCH   1  15
ATOM     15  C   UNL     1       5.271   6.666  13.314  1.00  0.00     0.000 C 
BRANCH  15  16
ATOM     16  C   UNL     1       4.832   8.088  13.720  1.00  0.00     0.000 C 
BRANCH  16  17
ATOM     17  C   UNL     1       4.042   8.178  15.040  1.00  0.00     0.000 C 
BRANCH  17  18
ATOM     18  C   UNL     1       2.626   8.764  14.908  1.00  0.00    -0.000 C 
BRANCH  18  19
ATOM     19  C   UNL     1       2.409  10.004  15.794  1.00  0.00    -0.000 C 
BRANCH  19  20
ATOM     20  C   UNL     1       3.075   9.871  17.173  1.00  0.00    -0.000 C 
BRANCH  20  21
ATOM     21  C   UNL     1       2.058   9.913  18.327  1.00  0.00    -0.000 C 
BRANCH  21  22
ATOM     22  C   UNL     1       1.923   8.558  19.040  1.00  0.00    -0.000 C 
BRANCH  22  23
ATOM     23  C   UNL     1       2.833   7.476  18.429  1.00  0.00    -0.000 C 
BRANCH  23  24
ATOM     24  C   UNL     1       2.244   6.063  18.569  1.00  0.00    -0.000 C 
BRANCH  24  25
ATOM     25  C   UNL     1       3.021   5.013  17.760  1.00  0.00    -0.003 C 
ATOM     26  C   UNL     1       4.513   5.325  17.748  1.00  0.00     0.004 C 
ENDBRANCH  24  25
ENDBRANCH  23  24
ENDBRANCH  22  23
ENDBRANCH  21  22
ENDBRANCH  20  21
ENDBRANCH  19  20
ENDBRANCH  18  19
ENDBRANCH  17  18
ENDBRANCH  16  17
ENDBRANCH  15  16
ENDBRANCH   1  15
TORSDOF 22
ENDMDL
MODEL 7
REMARK VINA RESULT:    -4.489      1.234      4.069
REMARK INTER + INTRA:         -13.500
REMARK INTER:                 -11.116
REMARK INTRA:                  -2.385
REMARK UNBOUND:                -3.239
REMARK SMILES CCCCCCCCCCCCCCCCCCCCCCCC(=O)[O-]
REMARK SMILES IDX 13 1 14 2 15 3 16 4 17 5 18 6 19 7 20 8 21 9 22 10 23 11
REMARK SMILES IDX 24 12 25 13 26 14 12 15 11 16 10 17 9 18 8 19 7 20 6 21 5 22
REMARK SMILES IDX 4 23 3 24 2 25 1 26
REMARK H PARENT
REMARK Flexibility Score: inf
ROOT
ATOM      1  C   UNL     1       4.132   4.878  17.060  1.00  0.00     0.000 C 
ENDROOT
BRANCH   1   2
ATOM      2  C   UNL     1       5.085   6.002  16.632  1.00  0.00     0.000 C 
BRANCH   2   3
ATOM      3  C   UNL     1       5.187   6.081  15.102  1.00  0.00     0.000 C 
BRANCH   3   4
ATOM      4  C   UNL     1       6.522   5.539  14.560  1.00  0.00     0.000 C 
BRANCH   4   5
ATOM      5  C   UNL     1       7.545   6.614  14.140  1.00  0.00     0.000 C 
BRANCH   5   6
ATOM      6  C   UNL     1       7.014   7.662  13.146  1.00  0.00     0.000 C 
BRANCH   6   7
ATOM      7  C   UNL     1       8.127   8.284  12.287  1.00  0.00     0.000 C 
BRANCH   7   8
ATOM      8  C   UNL     1       7.599   8.888  10.975  1.00  0.00     0.000 C 
BRANCH   8   9
ATOM      9  C   UNL     1       6.800   7.915  10.082  1.00  0.00     0.000 C 
BRANCH   9  10
ATOM     10  C   UNL     1       6.960   6.426  10.434  1.00  0.00     0.006 C 
BRANCH  10  11
ATOM     11  C   UNL     1       7.910   5.685   9.485  1.00  0.00     0.053 C 
BRANCH  11  12
ATOM     12  C   UNL     1       9.284   5.596  10.072  1.00  0.00     0.041 C 
ATOM     13  O   UNL     1      10.295   5.592   9.319  1.00  0.00    -0.550 OA
ATOM     14  O   UNL     1       9.448   5.519  11.449  1.00  0.00    -0.550 OA
ENDBRANCH  11  12
ENDBRANCH  10  11
ENDBRANCH   9  10
ENDBRANCH   8   9
ENDBRANCH   7   8
ENDBRANCH   6   7
ENDBRANCH   5   6
ENDBRANCH   4   5
ENDBRANCH   3   4
ENDBRANCH   2   3
ENDBRANCH   1   2
BRANCH   1  15
ATOM     15  C   UNL     1       3.104   5.336  18.108  1.00  0.00     0.000 C 
BRANCH  15  16
ATOM     16  C   UNL     1       2.281   6.579  17.714  1.00  0.00     0.000 C 
BRANCH  16  17
ATOM     17  C   UNL     1       2.642   7.872  18.471  1.00  0.00     0.000 C 
BRANCH  17  18
ATOM     18  C   UNL     1       2.092   9.164  17.844  1.00  0.00    -0.000 C 
BRANCH  18  19
ATOM     19  C   UNL     1       3.199  10.065  17.267  1.00  0.00    -0.000 C 
BRANCH  19  20
ATOM     20  C   UNL     1       4.081   9.336  16.241  1.00  0.00    -0.000 C 
BRANCH  20  21
ATOM     21  C   UNL     1       3.487   9.368  14.822  1.00  0.00    -0.000 C 
BRANCH  21  22
ATOM     22  C   UNL     1       2.417   8.283  14.609  1.00  0.00    -0.000 C 
BRANCH  22  23
ATOM     23  C   UNL     1       2.208   7.946  13.122  1.00  0.00    -0.000 C 
BRANCH  23  24
ATOM     24  C   UNL     1       3.530   7.879  12.340  1.00  0.00    -0.000 C 
BRANCH  24  25
ATOM     25  C   UNL     1       3.499   6.842  11.208  1.00  0.00    -0.003 C 
ATOM     26  C   UNL     1       2.099   6.718  10.616  1.00  0.00     0.004 C 
ENDBRANCH  24  25
ENDBRANCH  23  24
ENDBRANCH  22  23
ENDBRANCH  21  22
ENDBRANCH  20  21
ENDBRANCH  19  20
ENDBRANCH  18  19
ENDBRANCH  17  18
ENDBRANCH  16  17
ENDBRANCH  15  16
ENDBRANCH   1  15
TORSDOF 22
ENDMDL
MODEL 8
REMARK VINA RESULT:    -4.324      2.139      7.374
REMARK INTER + INTRA:         -13.125
REMARK INTER:                 -10.925
REMARK INTRA:                  -2.200
REMARK UNBOUND:                -3.239
REMARK SMILES CCCCCCCCCCCCCCCCCCCCCCCC(=O)[O-]
REMARK SMILES IDX 13 1 14 2 15 3 16 4 17 5 18 6 19 7 20 8 21 9 22 10 23 11
REMARK SMILES IDX 24 12 25 13 26 14 12 15 11 16 10 17 9 18 8 19 7 20 6 21 5 22
REMARK SMILES IDX 4 23 3 24 2 25 1 26
REMARK H PARENT
REMARK Flexibility Score: inf
ROOT
ATOM      1  C   UNL     1       7.981   5.558  14.426  1.00  0.00     0.000 C 
ENDROOT
BRANCH   1   2
ATOM      2  C   UNL     1       7.011   6.588  15.020  1.00  0.00     0.000 C 
BRANCH   2   3
ATOM      3  C   UNL     1       5.601   5.997  15.157  1.00  0.00     0.000 C 
BRANCH   3   4
ATOM      4  C   UNL     1       5.342   5.375  16.541  1.00  0.00     0.000 C 
BRANCH   4   5
ATOM      5  C   UNL     1       3.895   4.899  16.787  1.00  0.00     0.000 C 
BRANCH   5   6
ATOM      6  C   UNL     1       3.246   5.435  18.075  1.00  0.00     0.000 C 
BRANCH   6   7
ATOM      7  C   UNL     1       1.878   6.091  17.821  1.00  0.00     0.000 C 
BRANCH   7   8
ATOM      8  C   UNL     1       1.950   7.239  16.800  1.00  0.00     0.000 C 
BRANCH   8   9
ATOM      9  C   UNL     1       2.677   8.508  17.293  1.00  0.00     0.000 C 
BRANCH   9  10
ATOM     10  C   UNL     1       3.969   8.856  16.533  1.00  0.00     0.006 C 
BRANCH  10  11
ATOM     11  C   UNL     1       3.802  10.046  15.580  1.00  0.00     0.053 C 
BRANCH  11  12
ATOM     12  C   UNL     1       3.318   9.588  14.240  1.00  0.00     0.041 C 
ATOM     13  O   UNL     1       4.140   9.382  13.307  1.00  0.00    -0.550 OA
ATOM     14  O   UNL     1       1.961   9.388  14.021  1.00  0.00    -0.550 OA
ENDBRANCH  11  12
ENDBRANCH  10  11
ENDBRANCH   9  10
ENDBRANCH   8   9
ENDBRANCH   7   8
ENDBRANCH   6   7
ENDBRANCH   5   6
ENDBRANCH   4   5
ENDBRANCH   3   4
ENDBRANCH   2   3
ENDBRANCH   1   2
BRANCH   1  15
ATOM     15  C   UNL     1       8.259   5.796  12.931  1.00  0.00     0.000 C 
BRANCH  15  16
ATOM     16  C   UNL     1       7.496   6.982  12.307  1.00  0.00     0.000 C 
BRANCH  16  17
ATOM     17  C   UNL     1       8.340   8.247  12.058  1.00  0.00     0.000 C 
BRANCH  17  18
ATOM     18  C   UNL     1       8.245   8.818  10.633  1.00  0.00    -0.000 C 
BRANCH  18  19
ATOM     19  C   UNL     1       7.216   9.956  10.513  1.00  0.00    -0.000 C 
BRANCH  19  20
ATOM     20  C   UNL     1       6.387   9.873   9.221  1.00  0.00    -0.000 C 
BRANCH  20  21
ATOM     21  C   UNL     1       4.880   9.724   9.494  1.00  0.00    -0.000 C 
BRANCH  21  22
ATOM     22  C   UNL     1       4.329   8.367   9.027  1.00  0.00    -0.000 C 
BRANCH  22  23
ATOM     23  C   UNL     1       4.928   7.186   9.811  1.00  0.00    -0.000 C 
BRANCH  23  24
ATOM     24  C   UNL     1       4.102   6.825  11.056  1.00  0.00    -0.000 C 
BRANCH  24  25
ATOM     25  C   UNL     1       2.600   6.701  10.758  1.00  0.00    -0.003 C 
ATOM     26  C   UNL     1       1.913   8.060  10.837  1.00  0.00     0.004 C 
ENDBRANCH  24  25
ENDBRANCH  23  24
ENDBRANCH  22  23
ENDBRANCH  21  22
ENDBRANCH  20  21
ENDBRANCH  19  20
ENDBRANCH  18  19
ENDBRANCH  17  18
ENDBRANCH  16  17
ENDBRANCH  15  16
ENDBRANCH   1  15
TORSDOF 22
ENDMDL
MODEL 9
REMARK VINA RESULT:    -4.256      1.679      4.988
REMARK INTER + INTRA:         -12.967
REMARK INTER:                 -10.268
REMARK INTRA:                  -2.700
REMARK UNBOUND:                -3.239
REMARK SMILES CCCCCCCCCCCCCCCCCCCCCCCC(=O)[O-]
REMARK SMILES IDX 13 1 14 2 15 3 16 4 17 5 18 6 19 7 20 8 21 9 22 10 23 11
REMARK SMILES IDX 24 12 25 13 26 14 12 15 11 16 10 17 9 18 8 19 7 20 6 21 5 22
REMARK SMILES IDX 4 23 3 24 2 25 1 26
REMARK H PARENT
REMARK Flexibility Score: inf
ROOT
ATOM      1  C   UNL     1       2.007   6.214  19.152  1.00  0.00     0.000 C 
ENDROOT
BRANCH   1   2
ATOM      2  C   UNL     1       2.740   7.544  19.372  1.00  0.00     0.000 C 
BRANCH   2   3
ATOM      3  C   UNL     1       1.876   8.728  18.913  1.00  0.00     0.000 C 
BRANCH   3   4
ATOM      4  C   UNL     1       2.604   9.656  17.923  1.00  0.00     0.000 C 
BRANCH   4   5
ATOM      5  C   UNL     1       3.657   8.967  17.031  1.00  0.00     0.000 C 
BRANCH   5   6
ATOM      6  C   UNL     1       3.498   9.226  15.523  1.00  0.00     0.000 C 
BRANCH   6   7
ATOM      7  C   UNL     1       2.450   8.309  14.871  1.00  0.00     0.000 C 
BRANCH   7   8
ATOM      8  C   UNL     1       2.299   8.559  13.360  1.00  0.00     0.000 C 
BRANCH   8   9
ATOM      9  C   UNL     1       2.969   7.506  12.453  1.00  0.00     0.000 C 
BRANCH   9  10
ATOM     10  C   UNL     1       3.130   7.920  10.980  1.00  0.00     0.006 C 
BRANCH  10  11
ATOM     11  C   UNL     1       4.537   7.650  10.432  1.00  0.00     0.053 C 
BRANCH  11  12
ATOM     12  C   UNL     1       4.876   8.617   9.342  1.00  0.00     0.041 C 
ATOM     13  O   UNL     1       5.842   9.415   9.483  1.00  0.00    -0.550 OA
ATOM     14  O   UNL     1       4.129   8.638   8.172  1.00  0.00    -0.550 OA
ENDBRANCH  11  12
ENDBRANCH  10  11
ENDBRANCH   9  10
ENDBRANCH   8   9
ENDBRANCH   7   8
ENDBRANCH   6   7
ENDBRANCH   5   6
ENDBRANCH   4   5
ENDBRANCH   3   4
ENDBRANCH   2   3
ENDBRANCH   1   2
BRANCH   1  15
ATOM     15  C   UNL     1       1.888   5.838  17.665  1.00  0.00     0.000 C 
BRANCH  15  16
ATOM     16  C   UNL     1       2.982   4.886  17.143  1.00  0.00     0.000 C 
BRANCH  16  17
ATOM     17  C   UNL     1       4.318   5.560  16.777  1.00  0.00     0.000 C 
BRANCH  17  18
ATOM     18  C   UNL     1       5.142   4.825  15.706  1.00  0.00    -0.000 C 
BRANCH  18  19
ATOM     19  C   UNL     1       5.612   5.754  14.573  1.00  0.00    -0.000 C 
BRANCH  19  20
ATOM     20  C   UNL     1       6.761   6.680  15.002  1.00  0.00    -0.000 C 
BRANCH  20  21
ATOM     21  C   UNL     1       7.764   6.944  13.865  1.00  0.00    -0.000 C 
BRANCH  21  22
ATOM     22  C   UNL     1       7.069   7.322  12.546  1.00  0.00    -0.000 C 
BRANCH  22  23
ATOM     23  C   UNL     1       8.071   7.682  11.434  1.00  0.00    -0.000 C 
BRANCH  23  24
ATOM     24  C   UNL     1       8.062   6.665  10.281  1.00  0.00    -0.000 C 
BRANCH  24  25
ATOM     25  C   UNL     1       9.141   5.582  10.435  1.00  0.00    -0.003 C 
ATOM     26  C   UNL     1      10.125   5.622   9.271  1.00  0.00     0.004 C 
ENDBRANCH  24  25
ENDBRANCH  23  24
ENDBRANCH  22  23
ENDBRANCH  21  22
ENDBRANCH  20  21
ENDBRANCH  19  20
ENDBRANCH  18  19
ENDBRANCH  17  18
ENDBRANCH  16  17
ENDBRANCH  15  16
ENDBRANCH   1  15
TORSDOF 22
ENDMDL
