MODEL 1
REMARK VINA RESULT:    -4.401      0.000      0.000
REMARK INTER + INTRA:          -8.438
REMARK INTER:                  -6.974
REMARK INTRA:                  -1.463
REMARK UNBOUND:                -1.463
REMARK SMILES CCCCCCCCCCCC(=O)[O-]
REMARK SMILES IDX 7 1 8 2 9 3 10 4 11 5 12 6 13 7 14 8 6 9 5 10 4 11 3 12 2 13
REMARK SMILES IDX 1 14
REMARK H PARENT
REMARK Flexibility Score: inf
ROOT
ATOM      1  C   UNL     1      14.111 -16.621  38.556  1.00  0.00     0.000 C 
ENDROOT
BRANCH   1   2
ATOM      2  C   UNL     1      14.886 -17.281  37.410  1.00  0.00     0.000 C 
BRANCH   2   3
ATOM      3  C   UNL     1      14.964 -16.353  36.192  1.00  0.00     0.000 C 
BRANCH   3   4
ATOM      4  C   UNL     1      16.418 -15.961  35.891  1.00  0.00     0.006 C 
BRANCH   4   5
ATOM      5  C   UNL     1      16.548 -14.491  35.469  1.00  0.00     0.053 C 
BRANCH   5   6
ATOM      6  C   UNL     1      17.929 -13.965  35.711  1.00  0.00     0.041 C 
ATOM      7  O   UNL     1      18.486 -14.132  36.828  1.00  0.00    -0.550 OA
ATOM      8  O   UNL     1      18.589 -13.261  34.712  1.00  0.00    -0.550 OA
ENDBRANCH   5   6
ENDBRANCH   4   5
ENDBRANCH   3   4
ENDBRANCH   2   3
ENDBRANCH   1   2
BRANCH   1   9
ATOM      9  C   UNL     1      15.021 -16.372  39.765  1.00  0.00     0.000 C 
BRANCH   9  10
ATOM     10  C   UNL     1      15.063 -14.879  40.123  1.00  0.00    -0.000 C 
BRANCH  10  11
ATOM     11  C   UNL     1      15.806 -14.033  39.074  1.00  0.00    -0.000 C 
BRANCH  11  12
ATOM     12  C   UNL     1      15.053 -12.775  38.596  1.00  0.00    -0.000 C 
BRANCH  12  13
ATOM     13  C   UNL     1      13.879 -13.046  37.640  1.00  0.00    -0.003 C 
ATOM     14  C   UNL     1      12.517 -12.782  38.281  1.00  0.00     0.004 C 
ENDBRANCH  12  13
ENDBRANCH  11  12
ENDBRANCH  10  11
ENDBRANCH   9  10
ENDBRANCH   1   9
TORSDOF 10
ENDMDL
MODEL 2
REMARK VINA RESULT:    -4.366      1.147      3.297
REMARK INTER + INTRA:          -8.382
REMARK INTER:                  -7.007
REMARK INTRA:                  -1.375
REMARK UNBOUND:                -1.463
REMARK SMILES CCCCCCCCCCCC(=O)[O-]
REMARK SMILES IDX 7 1 8 2 9 3 10 4 11 5 12 6 13 7 14 8 6 9 5 10 4 11 3 12 2 13
REMARK SMILES IDX 1 14
REMARK H PARENT
REMARK Flexibility Score: inf
ROOT
ATOM      1  C   UNL     1      15.365 -14.704  39.888  1.00  0.00     0.000 C 
ENDROOT
BRANCH   1   2
ATOM      2  C   UNL     1      15.850 -13.542  39.015  1.00  0.00     0.000 C 
BRANCH   2   3
ATOM      3  C   UNL     1      15.071 -13.481  37.696  1.00  0.00     0.000 C 
BRANCH   3   4
ATOM      4  C   UNL     1      15.864 -12.721  36.623  1.00  0.00     0.006 C 
BRANCH   4   5
ATOM      5  C   UNL     1      16.438 -13.659  35.552  1.00  0.00     0.053 C 
BRANCH   5   6
ATOM      6  C   UNL     1      17.928 -13.775  35.657  1.00  0.00     0.041 C 
ATOM      7  O   UNL     1      18.454 -14.271  36.688  1.00  0.00    -0.550 OA
ATOM      8  O   UNL     1      18.735 -13.307  34.629  1.00  0.00    -0.550 OA
ENDBRANCH   5   6
ENDBRANCH   4   5
ENDBRANCH   3   4
ENDBRANCH   2   3
ENDBRANCH   1   2
BRANCH   1   9
ATOM      9  C   UNL     1      14.001 -15.219  39.412  1.00  0.00     0.000 C 
BRANCH   9  10
ATOM     10  C   UNL     1      13.945 -16.754  39.461  1.00  0.00    -0.000 C 
BRANCH  10  11
ATOM     11  C   UNL     1      15.324 -17.396  39.694  1.00  0.00    -0.000 C 
BRANCH  11  12
ATOM     12  C   UNL     1      15.934 -18.099  38.464  1.00  0.00    -0.000 C 
BRANCH  12  13
ATOM     13  C   UNL     1      16.543 -17.156  37.412  1.00  0.00    -0.003 C 
ATOM     14  C   UNL     1      15.667 -17.006  36.169  1.00  0.00     0.004 C 
ENDBRANCH  12  13
ENDBRANCH  11  12
ENDBRANCH  10  11
ENDBRANCH   9  10
ENDBRANCH   1   9
TORSDOF 10
ENDMDL
MODEL 3
REMARK VINA RESULT:    -4.355      2.269      4.438
REMARK INTER + INTRA:          -8.364
REMARK INTER:                  -7.239
REMARK INTRA:                  -1.125
REMARK UNBOUND:                -1.463
REMARK SMILES CCCCCCCCCCCC(=O)[O-]
REMARK SMILES IDX 7 1 8 2 9 3 10 4 11 5 12 6 13 7 14 8 6 9 5 10 4 11 3 12 2 13
REMARK SMILES IDX 1 14
REMARK H PARENT
REMARK Flexibility Score: inf
ROOT
ATOM      1  C   UNL     1      15.880 -13.828  39.844  1.00  0.00     0.000 C 
ENDROOT
BRANCH   1   2
ATOM      2  C   UNL     1      15.149 -15.024  40.463  1.00  0.00     0.000 C 
BRANCH   2   3
ATOM      3  C   UNL     1      13.928 -15.418  39.624  1.00  0.00     0.000 C 
BRANCH   3   4
ATOM      4  C   UNL     1      13.985 -16.902  39.232  1.00  0.00     0.006 C 
BRANCH   4   5
ATOM      5  C   UNL     1      15.424 -17.434  39.182  1.00  0.00     0.053 C 
BRANCH   5   6
ATOM      6  C   UNL     1      15.997 -17.352  37.800  1.00  0.00     0.041 C 
ATOM      7  O   UNL     1      15.302 -16.905  36.850  1.00  0.00    -0.550 OA
ATOM      8  O   UNL     1      17.289 -17.800  37.556  1.00  0.00    -0.550 OA
ENDBRANCH   5   6
ENDBRANCH   4   5
ENDBRANCH   3   4
ENDBRANCH   2   3
ENDBRANCH   1   2
BRANCH   1   9
ATOM      9  C   UNL     1      15.203 -13.381  38.543  1.00  0.00     0.000 C 
BRANCH   9  10
ATOM     10  C   UNL     1      16.169 -13.491  37.353  1.00  0.00    -0.000 C 
BRANCH  10  11
ATOM     11  C   UNL     1      17.501 -14.167  37.725  1.00  0.00    -0.000 C 
BRANCH  11  12
ATOM     12  C   UNL     1      18.426 -14.490  36.534  1.00  0.00    -0.000 C 
BRANCH  12  13
ATOM     13  C   UNL     1      17.917 -14.001  35.167  1.00  0.00    -0.003 C 
ATOM     14  C   UNL     1      18.993 -13.285  34.352  1.00  0.00     0.004 C 
ENDBRANCH  12  13
ENDBRANCH  11  12
ENDBRANCH  10  11
ENDBRANCH   9  10
ENDBRANCH   1   9
TORSDOF 10
ENDMDL
MODEL 4
REMARK VINA RESULT:    -4.270     10.371     12.423
REMARK INTER + INTRA:          -8.230
REMARK INTER:                  -7.290
REMARK INTRA:                  -0.939
REMARK UNBOUND:                -1.463
REMARK SMILES CCCCCCCCCCCC(=O)[O-]
REMARK SMILES IDX 7 1 8 2 9 3 10 4 11 5 12 6 13 7 14 8 6 9 5 10 4 11 3 12 2 13
REMARK SMILES IDX 1 14
REMARK H PARENT
REMARK Flexibility Score: inf
ROOT
ATOM      1  C   UNL     1      21.685 -25.132  33.195  1.00  0.00     0.000 C 
ENDROOT
BRANCH   1   2
ATOM      2  C   UNL     1      20.216 -24.966  33.603  1.00  0.00     0.000 C 
BRANCH   2   3
ATOM      3  C   UNL     1      19.647 -23.642  33.080  1.00  0.00     0.000 C 
BRANCH   3   4
ATOM      4  C   UNL     1      20.677 -22.511  33.209  1.00  0.00     0.006 C 
BRANCH   4   5
ATOM      5  C   UNL     1      20.091 -21.144  32.827  1.00  0.00     0.053 C 
BRANCH   5   6
ATOM      6  C   UNL     1      20.933 -20.447  31.803  1.00  0.00     0.041 C 
ATOM      7  O   UNL     1      20.390 -19.765  30.893  1.00  0.00    -0.550 OA
ATOM      8  O   UNL     1      22.315 -20.576  31.834  1.00  0.00    -0.550 OA
ENDBRANCH   5   6
ENDBRANCH   4   5
ENDBRANCH   3   4
ENDBRANCH   2   3
ENDBRANCH   1   2
BRANCH   1   9
ATOM      9  C   UNL     1      22.382 -26.185  34.065  1.00  0.00     0.000 C 
BRANCH   9  10
ATOM     10  C   UNL     1      23.780 -26.511  33.519  1.00  0.00    -0.000 C 
BRANCH  10  11
ATOM     11  C   UNL     1      24.860 -25.535  34.018  1.00  0.00    -0.000 C 
BRANCH  11  12
ATOM     12  C   UNL     1      25.535 -24.690  32.918  1.00  0.00    -0.000 C 
BRANCH  12  13
ATOM     13  C   UNL     1      24.825 -23.365  32.590  1.00  0.00    -0.003 C 
ATOM     14  C   UNL     1      24.413 -22.585  33.838  1.00  0.00     0.004 C 
ENDBRANCH  12  13
ENDBRANCH  11  12
ENDBRANCH  10  11
ENDBRANCH   9  10
ENDBRANCH   1   9
TORSDOF 10
ENDMDL
MODEL 5
REMARK VINA RESULT:    -4.245     10.409     12.127
REMARK INTER + INTRA:          -8.190
REMARK INTER:                  -7.299
REMARK INTRA:                  -0.891
REMARK UNBOUND:                -1.463
REMARK SMILES CCCCCCCCCCCC(=O)[O-]
REMARK SMILES IDX 7 1 8 2 9 3 10 4 11 5 12 6 13 7 14 8 6 9 5 10 4 11 3 12 2 13
REMARK SMILES IDX 1 14
REMARK H PARENT
REMARK Flexibility Score: inf
ROOT
ATOM      1  C   UNL     1      21.620 -25.088  32.850  1.00  0.00     0.000 C 
ENDROOT
BRANCH   1   2
ATOM      2  C   UNL     1      22.103 -25.948  34.023  1.00  0.00     0.000 C 
BRANCH   2   3
ATOM      3  C   UNL     1      23.632 -26.058  34.032  1.00  0.00     0.000 C 
BRANCH   3   4
ATOM      4  C   UNL     1      24.229 -25.540  32.716  1.00  0.00     0.006 C 
BRANCH   4   5
ATOM      5  C   UNL     1      25.345 -24.513  32.948  1.00  0.00     0.053 C 
BRANCH   5   6
ATOM      6  C   UNL     1      24.823 -23.109  32.910  1.00  0.00     0.041 C 
ATOM      7  O   UNL     1      24.621 -22.536  31.807  1.00  0.00    -0.550 OA
ATOM      8  O   UNL     1      24.591 -22.422  34.094  1.00  0.00    -0.550 OA
ENDBRANCH   5   6
ENDBRANCH   4   5
ENDBRANCH   3   4
ENDBRANCH   2   3
ENDBRANCH   1   2
BRANCH   1   9
ATOM      9  C   UNL     1      20.124 -24.774  32.976  1.00  0.00     0.000 C 
BRANCH   9  10
ATOM     10  C   UNL     1      19.886 -23.260  33.080  1.00  0.00    -0.000 C 
BRANCH  10  11
ATOM     11  C   UNL     1      21.191 -22.459  33.234  1.00  0.00    -0.000 C 
BRANCH  11  12
ATOM     12  C   UNL     1      21.080 -20.958  32.899  1.00  0.00    -0.000 C 
BRANCH  12  13
ATOM     13  C   UNL     1      19.937 -20.590  31.938  1.00  0.00    -0.003 C 
ATOM     14  C   UNL     1      20.373 -19.625  30.836  1.00  0.00     0.004 C 
ENDBRANCH  12  13
ENDBRANCH  11  12
ENDBRANCH  10  11
ENDBRANCH   9  10
ENDBRANCH   1   9
TORSDOF 10
ENDMDL
MODEL 6
REMARK VINA RESULT:    -4.239      2.727      5.003
REMARK INTER + INTRA:          -8.180
REMARK INTER:                  -6.629
REMARK INTRA:                  -1.551
REMARK UNBOUND:                -1.463
REMARK SMILES CCCCCCCCCCCC(=O)[O-]
REMARK SMILES IDX 7 1 8 2 9 3 10 4 11 5 12 6 13 7 14 8 6 9 5 10 4 11 3 12 2 13
REMARK SMILES IDX 1 14
REMARK H PARENT
REMARK Flexibility Score: inf
ROOT
ATOM      1  C   UNL     1      14.818 -12.973  38.612  1.00  0.00     0.000 C 
ENDROOT
BRANCH   1   2
ATOM      2  C   UNL     1      15.963 -13.704  39.323  1.00  0.00     0.000 C 
BRANCH   2   3
ATOM      3  C   UNL     1      15.434 -14.878  40.155  1.00  0.00     0.000 C 
BRANCH   3   4
ATOM      4  C   UNL     1      14.012 -15.263  39.723  1.00  0.00     0.006 C 
BRANCH   4   5
ATOM      5  C   UNL     1      13.981 -16.578  38.931  1.00  0.00     0.053 C 
BRANCH   5   6
ATOM      6  C   UNL     1      13.188 -16.446  37.667  1.00  0.00     0.041 C 
ATOM      7  O   UNL     1      12.376 -15.493  37.524  1.00  0.00    -0.550 OA
ATOM      8  O   UNL     1      13.321 -17.394  36.661  1.00  0.00    -0.550 OA
ENDBRANCH   5   6
ENDBRANCH   4   5
ENDBRANCH   3   4
ENDBRANCH   2   3
ENDBRANCH   1   2
BRANCH   1   9
ATOM      9  C   UNL     1      15.004 -13.005  37.091  1.00  0.00     0.000 C 
BRANCH   9  10
ATOM     10  C   UNL     1      16.443 -13.397  36.721  1.00  0.00    -0.000 C 
BRANCH  10  11
ATOM     11  C   UNL     1      16.514 -14.325  35.495  1.00  0.00    -0.000 C 
BRANCH  11  12
ATOM     12  C   UNL     1      16.529 -15.833  35.816  1.00  0.00    -0.000 C 
BRANCH  12  13
ATOM     13  C   UNL     1      17.250 -16.211  37.122  1.00  0.00    -0.003 C 
ATOM     14  C   UNL     1      17.266 -17.717  37.378  1.00  0.00     0.004 C 
ENDBRANCH  12  13
ENDBRANCH  11  12
ENDBRANCH  10  11
ENDBRANCH   9  10
ENDBRANCH   1   9
TORSDOF 10
ENDMDL
MODEL 7
REMARK VINA RESULT:    -4.224      3.095      5.122
REMARK INTER + INTRA:          -8.156
REMARK INTER:                  -6.464
REMARK INTRA:                  -1.693
REMARK UNBOUND:                -1.463
REMARK SMILES CCCCCCCCCCCC(=O)[O-]
REMARK SMILES IDX 7 1 8 2 9 3 10 4 11 5 12 6 13 7 14 8 6 9 5 10 4 11 3 12 2 13
REMARK SMILES IDX 1 14
REMARK H PARENT
REMARK Flexibility Score: inf
ROOT
ATOM      1  C   UNL     1      15.895 -13.829  39.276  1.00  0.00     0.000 C 
ENDROOT
BRANCH   1   2
ATOM      2  C   UNL     1      15.107 -15.025  39.822  1.00  0.00     0.000 C 
BRANCH   2   3
ATOM      3  C   UNL     1      13.738 -15.140  39.140  1.00  0.00     0.000 C 
BRANCH   3   4
ATOM      4  C   UNL     1      13.410 -16.602  38.808  1.00  0.00     0.006 C 
BRANCH   4   5
ATOM      5  C   UNL     1      14.146 -17.586  39.727  1.00  0.00     0.053 C 
BRANCH   5   6
ATOM      6  C   UNL     1      14.400 -18.897  39.047  1.00  0.00     0.041 C 
ATOM      7  O   UNL     1      15.482 -19.512  39.239  1.00  0.00    -0.550 OA
ATOM      8  O   UNL     1      13.455 -19.422  38.176  1.00  0.00    -0.550 OA
ENDBRANCH   5   6
ENDBRANCH   4   5
ENDBRANCH   3   4
ENDBRANCH   2   3
ENDBRANCH   1   2
BRANCH   1   9
ATOM      9  C   UNL     1      15.228 -13.256  38.020  1.00  0.00     0.000 C 
BRANCH   9  10
ATOM     10  C   UNL     1      16.254 -13.055  36.895  1.00  0.00    -0.000 C 
BRANCH  10  11
ATOM     11  C   UNL     1      16.861 -14.378  36.395  1.00  0.00    -0.000 C 
BRANCH  11  12
ATOM     12  C   UNL     1      15.842 -15.404  35.858  1.00  0.00    -0.000 C 
BRANCH  12  13
ATOM     13  C   UNL     1      16.152 -16.870  36.206  1.00  0.00    -0.003 C 
ATOM     14  C   UNL     1      17.176 -17.011  37.331  1.00  0.00     0.004 C 
ENDBRANCH  12  13
ENDBRANCH  11  12
ENDBRANCH  10  11
ENDBRANCH   9  10
ENDBRANCH   1   9
TORSDOF 10
ENDMDL
MODEL 8
REMARK VINA RESULT:    -4.075      1.398      3.705
REMARK INTER + INTRA:          -7.921
REMARK INTER:                  -6.719
REMARK INTRA:                  -1.202
REMARK UNBOUND:                -1.463
REMARK SMILES CCCCCCCCCCCC(=O)[O-]
REMARK SMILES IDX 7 1 8 2 9 3 10 4 11 5 12 6 13 7 14 8 6 9 5 10 4 11 3 12 2 13
REMARK SMILES IDX 1 14
REMARK H PARENT
REMARK Flexibility Score: inf
ROOT
ATOM      1  C   UNL     1      14.059 -13.389  37.681  1.00  0.00     0.000 C 
ENDROOT
BRANCH   1   2
ATOM      2  C   UNL     1      15.152 -12.850  38.611  1.00  0.00     0.000 C 
BRANCH   2   3
ATOM      3  C   UNL     1      16.143 -13.954  38.994  1.00  0.00     0.000 C 
BRANCH   3   4
ATOM      4  C   UNL     1      16.508 -14.813  37.775  1.00  0.00     0.006 C 
BRANCH   4   5
ATOM      5  C   UNL     1      17.773 -14.308  37.066  1.00  0.00     0.053 C 
BRANCH   5   6
ATOM      6  C   UNL     1      17.508 -13.972  35.631  1.00  0.00     0.041 C 
ATOM      7  O   UNL     1      16.381 -14.210  35.121  1.00  0.00    -0.550 OA
ATOM      8  O   UNL     1      18.516 -13.427  34.847  1.00  0.00    -0.550 OA
ENDBRANCH   5   6
ENDBRANCH   4   5
ENDBRANCH   3   4
ENDBRANCH   2   3
ENDBRANCH   1   2
BRANCH   1   9
ATOM      9  C   UNL     1      12.703 -13.438  38.394  1.00  0.00     0.000 C 
BRANCH   9  10
ATOM     10  C   UNL     1      12.155 -14.873  38.434  1.00  0.00    -0.000 C 
BRANCH  10  11
ATOM     11  C   UNL     1      12.892 -15.767  39.447  1.00  0.00    -0.000 C 
BRANCH  11  12
ATOM     12  C   UNL     1      13.643 -16.967  38.835  1.00  0.00    -0.000 C 
BRANCH  12  13
ATOM     13  C   UNL     1      14.870 -17.440  39.634  1.00  0.00    -0.003 C 
ATOM     14  C   UNL     1      15.341 -18.836  39.229  1.00  0.00     0.004 C 
ENDBRANCH  12  13
ENDBRANCH  11  12
ENDBRANCH  10  11
ENDBRANCH   9  10
ENDBRANCH   1   9
TORSDOF 10
ENDMDL
MODEL 9
REMARK VINA RESULT:    -4.068      1.989      3.235
REMARK INTER + INTRA:          -7.910
REMARK INTER:                  -6.488
REMARK INTRA:                  -1.423
REMARK UNBOUND:                -1.463
REMARK SMILES CCCCCCCCCCCC(=O)[O-]
REMARK SMILES IDX 7 1 8 2 9 3 10 4 11 5 12 6 13 7 14 8 6 9 5 10 4 11 3 12 2 13
REMARK SMILES IDX 1 14
REMARK H PARENT
REMARK Flexibility Score: inf
ROOT
ATOM      1  C   UNL     1      15.994 -14.003  39.463  1.00  0.00     0.000 C 
ENDROOT
BRANCH   1   2
ATOM      2  C   UNL     1      15.093 -13.111  38.602  1.00  0.00     0.000 C 
BRANCH   2   3
ATOM      3  C   UNL     1      15.526 -13.146  37.132  1.00  0.00     0.000 C 
BRANCH   3   4
ATOM      4  C   UNL     1      16.603 -14.216  36.901  1.00  0.00     0.006 C 
BRANCH   4   5
ATOM      5  C   UNL     1      16.325 -15.060  35.649  1.00  0.00     0.053 C 
BRANCH   5   6
ATOM      6  C   UNL     1      16.081 -16.497  35.992  1.00  0.00     0.041 C 
ATOM      7  O   UNL     1      15.022 -17.068  35.618  1.00  0.00    -0.550 OA
ATOM      8  O   UNL     1      17.008 -17.198  36.752  1.00  0.00    -0.550 OA
ENDBRANCH   5   6
ENDBRANCH   4   5
ENDBRANCH   3   4
ENDBRANCH   2   3
ENDBRANCH   1   2
BRANCH   1   9
ATOM      9  C   UNL     1      15.162 -14.984  40.298  1.00  0.00     0.000 C 
BRANCH   9  10
ATOM     10  C   UNL     1      14.844 -16.256  39.498  1.00  0.00    -0.000 C 
BRANCH  10  11
ATOM     11  C   UNL     1      13.347 -16.400  39.173  1.00  0.00    -0.000 C 
BRANCH  11  12
ATOM     12  C   UNL     1      12.407 -15.515  40.016  1.00  0.00    -0.000 C 
BRANCH  12  13
ATOM     13  C   UNL     1      11.642 -14.440  39.224  1.00  0.00    -0.003 C 
ATOM     14  C   UNL     1      11.800 -14.591  37.712  1.00  0.00     0.004 C 
ENDBRANCH  12  13
ENDBRANCH  11  12
ENDBRANCH  10  11
ENDBRANCH   9  10
ENDBRANCH   1   9
TORSDOF 10
ENDMDL
