MODEL 1
REMARK VINA RESULT:    -5.166      0.000      0.000
REMARK INTER + INTRA:          -6.332
REMARK INTER:                  -6.222
REMARK INTRA:                  -0.110
REMARK UNBOUND:                -0.110
REMARK SMILES COC(=O)c1cc(O)c(O)c(O)c1
REMARK SMILES IDX 5 1 13 2 11 3 9 4 7 5 6 6 3 7 4 8 2 9 1 10 12 11 8 13 10 15
REMARK H PARENT 12 12 8 14 10 16
REMARK Flexibility Score: inf
ROOT
ATOM      1  C   UNL     1      20.543   8.403  29.763  1.00  0.00     0.067 A 
ATOM      2  C   UNL     1      19.851   8.390  28.540  1.00  0.00     0.066 A 
ATOM      3  C   UNL     1      20.516   8.674  27.339  1.00  0.00     0.162 A 
ATOM      4  C   UNL     1      21.888   8.977  27.353  1.00  0.00     0.200 A 
ATOM      5  C   UNL     1      22.585   8.992  28.568  1.00  0.00     0.162 A 
ATOM      6  C   UNL     1      21.916   8.707  29.766  1.00  0.00     0.066 A 
ENDROOT
BRANCH   1   7
ATOM      7  C   UNL     1      19.834   8.101  31.026  1.00  0.00     0.338 C 
ATOM      8  O   UNL     1      20.399   8.308  32.135  1.00  0.00    -0.246 OA
BRANCH   7   9
ATOM      9  O   UNL     1      18.533   7.585  30.989  1.00  0.00    -0.465 OA
ATOM     10  C   UNL     1      18.177   6.359  31.615  1.00  0.00     0.282 C 
ENDBRANCH   7   9
ENDBRANCH   1   7
BRANCH   3  11
ATOM     11  O   UNL     1      19.818   8.658  26.132  1.00  0.00    -0.504 OA
ATOM     12  H   UNL     1      20.260   8.367  25.267  1.00  0.00     0.293 HD
ENDBRANCH   3  11
BRANCH   5  13
ATOM     13  O   UNL     1      23.946   9.292  28.576  1.00  0.00    -0.504 OA
ATOM     14  H   UNL     1      24.637   8.637  28.227  1.00  0.00     0.293 HD
ENDBRANCH   5  13
BRANCH   4  15
ATOM     15  O   UNL     1      22.571   9.264  26.171  1.00  0.00    -0.502 OA
ATOM     16  H   UNL     1      23.492   9.687  26.169  1.00  0.00     0.293 HD
ENDBRANCH   4  15
TORSDOF 5
ENDMDL
MODEL 2
REMARK VINA RESULT:    -5.138      0.074      2.327
REMARK INTER + INTRA:          -6.300
REMARK INTER:                  -6.186
REMARK INTRA:                  -0.114
REMARK UNBOUND:                -0.110
REMARK SMILES COC(=O)c1cc(O)c(O)c(O)c1
REMARK SMILES IDX 5 1 13 2 11 3 9 4 7 5 6 6 3 7 4 8 2 9 1 10 12 11 8 13 10 15
REMARK H PARENT 12 12 8 14 10 16
REMARK Flexibility Score: inf
ROOT
ATOM      1  C   UNL     1      20.584   8.436  29.776  1.00  0.00     0.067 A 
ATOM      2  C   UNL     1      21.946   8.779  29.781  1.00  0.00     0.066 A 
ATOM      3  C   UNL     1      22.617   9.062  28.582  1.00  0.00     0.162 A 
ATOM      4  C   UNL     1      21.924   9.002  27.362  1.00  0.00     0.200 A 
ATOM      5  C   UNL     1      20.565   8.660  27.348  1.00  0.00     0.162 A 
ATOM      6  C   UNL     1      19.899   8.379  28.549  1.00  0.00     0.066 A 
ENDROOT
BRANCH   1   7
ATOM      7  C   UNL     1      19.883   8.140  31.046  1.00  0.00     0.338 C 
ATOM      8  O   UNL     1      20.461   8.343  32.150  1.00  0.00    -0.246 OA
BRANCH   7   9
ATOM      9  O   UNL     1      18.579   7.634  31.021  1.00  0.00    -0.465 OA
ATOM     10  C   UNL     1      18.246   6.348  31.530  1.00  0.00     0.282 C 
ENDBRANCH   7   9
ENDBRANCH   1   7
BRANCH   3  11
ATOM     11  O   UNL     1      23.969   9.401  28.600  1.00  0.00    -0.504 OA
ATOM     12  H   UNL     1      24.456   9.685  27.758  1.00  0.00     0.293 HD
ENDBRANCH   3  11
BRANCH   5  13
ATOM     13  O   UNL     1      19.882   8.603  26.135  1.00  0.00    -0.504 OA
ATOM     14  H   UNL     1      19.708   7.721  25.665  1.00  0.00     0.293 HD
ENDBRANCH   5  13
BRANCH   4  15
ATOM     15  O   UNL     1      22.569   9.278  26.156  1.00  0.00    -0.502 OA
ATOM     16  H   UNL     1      23.487   9.706  26.122  1.00  0.00     0.293 HD
ENDBRANCH   4  15
TORSDOF 5
ENDMDL
MODEL 3
REMARK VINA RESULT:    -5.127     17.830     18.897
REMARK INTER + INTRA:          -6.286
REMARK INTER:                  -6.194
REMARK INTRA:                  -0.092
REMARK UNBOUND:                -0.110
REMARK SMILES COC(=O)c1cc(O)c(O)c(O)c1
REMARK SMILES IDX 5 1 13 2 11 3 9 4 7 5 6 6 3 7 4 8 2 9 1 10 12 11 8 13 10 15
REMARK H PARENT 12 12 8 14 10 16
REMARK Flexibility Score: inf
ROOT
ATOM      1  C   UNL     1      21.312  -5.923  18.305  1.00  0.00     0.067 A 
ATOM      2  C   UNL     1      20.125  -5.834  17.559  1.00  0.00     0.066 A 
ATOM      3  C   UNL     1      19.736  -6.879  16.708  1.00  0.00     0.162 A 
ATOM      4  C   UNL     1      20.538  -8.026  16.597  1.00  0.00     0.200 A 
ATOM      5  C   UNL     1      21.723  -8.123  17.338  1.00  0.00     0.162 A 
ATOM      6  C   UNL     1      22.107  -7.076  18.187  1.00  0.00     0.066 A 
ENDROOT
BRANCH   1   7
ATOM      7  C   UNL     1      21.715  -4.816  19.202  1.00  0.00     0.338 C 
ATOM      8  O   UNL     1      21.457  -3.621  18.888  1.00  0.00    -0.246 OA
BRANCH   7   9
ATOM      9  O   UNL     1      22.382  -5.097  20.399  1.00  0.00    -0.465 OA
ATOM     10  C   UNL     1      22.133  -4.380  21.603  1.00  0.00     0.282 C 
ENDBRANCH   7   9
ENDBRANCH   1   7
BRANCH   3  11
ATOM     11  O   UNL     1      18.555  -6.780  15.972  1.00  0.00    -0.504 OA
ATOM     12  H   UNL     1      18.439  -7.260  15.088  1.00  0.00     0.293 HD
ENDBRANCH   3  11
BRANCH   5  13
ATOM     13  O   UNL     1      22.515  -9.264  17.224  1.00  0.00    -0.504 OA
ATOM     14  H   UNL     1      22.217 -10.065  16.679  1.00  0.00     0.293 HD
ENDBRANCH   5  13
BRANCH   4  15
ATOM     15  O   UNL     1      20.172  -9.078  15.756  1.00  0.00    -0.502 OA
ATOM     16  H   UNL     1      20.653  -9.264  14.884  1.00  0.00     0.293 HD
ENDBRANCH   4  15
TORSDOF 5
ENDMDL
MODEL 4
REMARK VINA RESULT:    -5.054     17.884     19.055
REMARK INTER + INTRA:          -6.198
REMARK INTER:                  -6.106
REMARK INTRA:                  -0.092
REMARK UNBOUND:                -0.110
REMARK SMILES COC(=O)c1cc(O)c(O)c(O)c1
REMARK SMILES IDX 5 1 13 2 11 3 9 4 7 5 6 6 3 7 4 8 2 9 1 10 12 11 8 13 10 15
REMARK H PARENT 12 12 8 14 10 16
REMARK Flexibility Score: inf
ROOT
ATOM      1  C   UNL     1      21.343  -5.969  18.278  1.00  0.00     0.067 A 
ATOM      2  C   UNL     1      22.124  -7.130  18.158  1.00  0.00     0.066 A 
ATOM      3  C   UNL     1      21.739  -8.164  17.292  1.00  0.00     0.162 A 
ATOM      4  C   UNL     1      20.562  -8.041  16.536  1.00  0.00     0.200 A 
ATOM      5  C   UNL     1      19.778  -6.886  16.650  1.00  0.00     0.162 A 
ATOM      6  C   UNL     1      20.167  -5.856  17.517  1.00  0.00     0.066 A 
ENDROOT
BRANCH   1   7
ATOM      7  C   UNL     1      21.757  -4.882  19.194  1.00  0.00     0.338 C 
ATOM      8  O   UNL     1      21.536  -3.678  18.889  1.00  0.00    -0.246 OA
BRANCH   7   9
ATOM      9  O   UNL     1      22.394  -5.192  20.400  1.00  0.00    -0.465 OA
ATOM     10  C   UNL     1      22.148  -4.476  21.604  1.00  0.00     0.282 C 
ENDBRANCH   7   9
ENDBRANCH   1   7
BRANCH   3  11
ATOM     11  O   UNL     1      22.522  -9.312  17.181  1.00  0.00    -0.504 OA
ATOM     12  H   UNL     1      22.357 -10.126  17.763  1.00  0.00     0.293 HD
ENDBRANCH   3  11
BRANCH   5  13
ATOM     13  O   UNL     1      18.611  -6.770  15.896  1.00  0.00    -0.504 OA
ATOM     14  H   UNL     1      17.796  -6.282  16.252  1.00  0.00     0.293 HD
ENDBRANCH   5  13
BRANCH   4  15
ATOM     15  O   UNL     1      20.158  -9.057  15.668  1.00  0.00    -0.502 OA
ATOM     16  H   UNL     1      20.733  -9.870  15.485  1.00  0.00     0.293 HD
ENDBRANCH   4  15
TORSDOF 5
ENDMDL
MODEL 5
REMARK VINA RESULT:    -4.734     16.610     17.799
REMARK INTER + INTRA:          -5.813
REMARK INTER:                  -5.702
REMARK INTRA:                  -0.112
REMARK UNBOUND:                -0.110
REMARK SMILES COC(=O)c1cc(O)c(O)c(O)c1
REMARK SMILES IDX 5 1 13 2 11 3 9 4 7 5 6 6 3 7 4 8 2 9 1 10 12 11 8 13 10 15
REMARK H PARENT 12 12 8 14 10 16
REMARK Flexibility Score: inf
ROOT
ATOM      1  C   UNL     1      21.794  -6.157  18.388  1.00  0.00     0.067 A 
ATOM      2  C   UNL     1      22.083  -5.944  19.747  1.00  0.00     0.066 A 
ATOM      3  C   UNL     1      22.124  -4.644  20.273  1.00  0.00     0.162 A 
ATOM      4  C   UNL     1      21.876  -3.543  19.438  1.00  0.00     0.200 A 
ATOM      5  C   UNL     1      21.587  -3.747  18.083  1.00  0.00     0.162 A 
ATOM      6  C   UNL     1      21.547  -5.048  17.561  1.00  0.00     0.066 A 
ENDROOT
BRANCH   1   7
ATOM      7  C   UNL     1      21.751  -7.531  17.841  1.00  0.00     0.338 C 
ATOM      8  O   UNL     1      22.344  -8.471  18.441  1.00  0.00    -0.246 OA
BRANCH   7   9
ATOM      9  O   UNL     1      21.053  -7.789  16.656  1.00  0.00    -0.465 OA
ATOM     10  C   UNL     1      19.669  -8.118  16.638  1.00  0.00     0.282 C 
ENDBRANCH   7   9
ENDBRANCH   1   7
BRANCH   3  11
ATOM     11  O   UNL     1      22.412  -4.445  21.623  1.00  0.00    -0.504 OA
ATOM     12  H   UNL     1      23.323  -4.663  22.009  1.00  0.00     0.293 HD
ENDBRANCH   3  11
BRANCH   5  13
ATOM     13  O   UNL     1      21.341  -2.650  17.258  1.00  0.00    -0.504 OA
ATOM     14  H   UNL     1      22.070  -1.984  17.030  1.00  0.00     0.293 HD
ENDBRANCH   5  13
BRANCH   4  15
ATOM     15  O   UNL     1      21.913  -2.241  19.938  1.00  0.00    -0.502 OA
ATOM     16  H   UNL     1      21.488  -1.991  20.823  1.00  0.00     0.293 HD
ENDBRANCH   4  15
TORSDOF 5
ENDMDL
MODEL 6
REMARK VINA RESULT:    -4.654      1.987      4.956
REMARK INTER + INTRA:          -5.717
REMARK INTER:                  -5.615
REMARK INTRA:                  -0.102
REMARK UNBOUND:                -0.110
REMARK SMILES COC(=O)c1cc(O)c(O)c(O)c1
REMARK SMILES IDX 5 1 13 2 11 3 9 4 7 5 6 6 3 7 4 8 2 9 1 10 12 11 8 13 10 15
REMARK H PARENT 12 12 8 14 10 16
REMARK Flexibility Score: inf
ROOT
ATOM      1  C   UNL     1      19.901   8.101  30.379  1.00  0.00     0.067 A 
ATOM      2  C   UNL     1      18.703   7.366  30.358  1.00  0.00     0.066 A 
ATOM      3  C   UNL     1      18.420   6.434  31.367  1.00  0.00     0.162 A 
ATOM      4  C   UNL     1      19.339   6.230  32.409  1.00  0.00     0.200 A 
ATOM      5  C   UNL     1      20.534   6.959  32.437  1.00  0.00     0.162 A 
ATOM      6  C   UNL     1      20.813   7.889  31.426  1.00  0.00     0.066 A 
ENDROOT
BRANCH   1   7
ATOM      7  C   UNL     1      20.192   9.084  29.310  1.00  0.00     0.338 C 
ATOM      8  O   UNL     1      20.857  10.124  29.571  1.00  0.00    -0.246 OA
BRANCH   7   9
ATOM      9  O   UNL     1      19.727   8.857  28.010  1.00  0.00    -0.465 OA
ATOM     10  C   UNL     1      20.601   8.739  26.893  1.00  0.00     0.282 C 
ENDBRANCH   7   9
ENDBRANCH   1   7
BRANCH   3  11
ATOM     11  O   UNL     1      17.228   5.710  31.336  1.00  0.00    -0.504 OA
ATOM     12  H   UNL     1      16.573   5.734  32.109  1.00  0.00     0.293 HD
ENDBRANCH   3  11
BRANCH   5  13
ATOM     13  O   UNL     1      21.443   6.752  33.474  1.00  0.00    -0.504 OA
ATOM     14  H   UNL     1      21.281   6.053  34.189  1.00  0.00     0.293 HD
ENDBRANCH   5  13
BRANCH   4  15
ATOM     15  O   UNL     1      19.079   5.307  33.424  1.00  0.00    -0.502 OA
ATOM     16  H   UNL     1      18.143   4.973  33.622  1.00  0.00     0.293 HD
ENDBRANCH   4  15
TORSDOF 5
ENDMDL
MODEL 7
REMARK VINA RESULT:    -4.654      1.972      5.468
REMARK INTER + INTRA:          -5.716
REMARK INTER:                  -5.612
REMARK INTRA:                  -0.104
REMARK UNBOUND:                -0.110
REMARK SMILES COC(=O)c1cc(O)c(O)c(O)c1
REMARK SMILES IDX 5 1 13 2 11 3 9 4 7 5 6 6 3 7 4 8 2 9 1 10 12 11 8 13 10 15
REMARK H PARENT 12 12 8 14 10 16
REMARK Flexibility Score: inf
ROOT
ATOM      1  C   UNL     1      19.944   8.104  30.403  1.00  0.00     0.067 A 
ATOM      2  C   UNL     1      20.856   7.873  31.446  1.00  0.00     0.066 A 
ATOM      3  C   UNL     1      20.570   6.937  32.451  1.00  0.00     0.162 A 
ATOM      4  C   UNL     1      19.361   6.223  32.419  1.00  0.00     0.200 A 
ATOM      5  C   UNL     1      18.447   6.448  31.382  1.00  0.00     0.162 A 
ATOM      6  C   UNL     1      18.737   7.383  30.379  1.00  0.00     0.066 A 
ENDROOT
BRANCH   1   7
ATOM      7  C   UNL     1      20.254   9.092  29.346  1.00  0.00     0.338 C 
ATOM      8  O   UNL     1      20.982  10.090  29.605  1.00  0.00    -0.246 OA
BRANCH   7   9
ATOM      9  O   UNL     1      19.738   8.919  28.056  1.00  0.00    -0.465 OA
ATOM     10  C   UNL     1      20.568   8.735  26.916  1.00  0.00     0.282 C 
ENDBRANCH   7   9
ENDBRANCH   1   7
BRANCH   3  11
ATOM     11  O   UNL     1      21.483   6.716  33.482  1.00  0.00    -0.504 OA
ATOM     12  H   UNL     1      21.193   6.333  34.374  1.00  0.00     0.293 HD
ENDBRANCH   3  11
BRANCH   5  13
ATOM     13  O   UNL     1      17.249   5.735  31.354  1.00  0.00    -0.504 OA
ATOM     14  H   UNL     1      16.395   6.147  30.996  1.00  0.00     0.293 HD
ENDBRANCH   5  13
BRANCH   4  15
ATOM     15  O   UNL     1      19.054   5.288  33.408  1.00  0.00    -0.502 OA
ATOM     16  H   UNL     1      19.772   4.806  33.936  1.00  0.00     0.293 HD
ENDBRANCH   4  15
TORSDOF 5
ENDMDL
MODEL 8
REMARK VINA RESULT:    -4.531      7.371      9.604
REMARK INTER + INTRA:          -5.568
REMARK INTER:                  -5.452
REMARK INTRA:                  -0.116
REMARK UNBOUND:                -0.110
REMARK SMILES COC(=O)c1cc(O)c(O)c(O)c1
REMARK SMILES IDX 5 1 13 2 11 3 9 4 7 5 6 6 3 7 4 8 2 9 1 10 12 11 8 13 10 15
REMARK H PARENT 12 12 8 14 10 16
REMARK Flexibility Score: inf
ROOT
ATOM      1  C   UNL     1      28.328   5.193  25.002  1.00  0.00     0.067 A 
ATOM      2  C   UNL     1      27.281   5.949  25.556  1.00  0.00     0.066 A 
ATOM      3  C   UNL     1      25.963   5.471  25.529  1.00  0.00     0.162 A 
ATOM      4  C   UNL     1      25.682   4.225  24.943  1.00  0.00     0.200 A 
ATOM      5  C   UNL     1      26.720   3.466  24.390  1.00  0.00     0.162 A 
ATOM      6  C   UNL     1      28.036   3.948  24.419  1.00  0.00     0.066 A 
ENDROOT
BRANCH   1   7
ATOM      7  C   UNL     1      29.717   5.705  25.035  1.00  0.00     0.338 C 
ATOM      8  O   UNL     1      30.619   5.133  24.362  1.00  0.00    -0.246 OA
BRANCH   7   9
ATOM      9  O   UNL     1      30.029   6.824  25.815  1.00  0.00    -0.465 OA
ATOM     10  C   UNL     1      30.626   6.719  27.102  1.00  0.00     0.282 C 
ENDBRANCH   7   9
ENDBRANCH   1   7
BRANCH   3  11
ATOM     11  O   UNL     1      24.932   6.230  26.081  1.00  0.00    -0.504 OA
ATOM     12  H   UNL     1      25.085   7.177  26.406  1.00  0.00     0.293 HD
ENDBRANCH   3  11
BRANCH   5  13
ATOM     13  O   UNL     1      26.436   2.230  23.810  1.00  0.00    -0.504 OA
ATOM     14  H   UNL     1      26.852   1.948  22.930  1.00  0.00     0.293 HD
ENDBRANCH   5  13
BRANCH   4  15
ATOM     15  O   UNL     1      24.378   3.729  24.904  1.00  0.00    -0.502 OA
ATOM     16  H   UNL     1      23.775   3.734  25.717  1.00  0.00     0.293 HD
ENDBRANCH   4  15
TORSDOF 5
ENDMDL
MODEL 9
REMARK VINA RESULT:    -4.523      1.591      2.681
REMARK INTER + INTRA:          -5.558
REMARK INTER:                  -5.442
REMARK INTRA:                  -0.116
REMARK UNBOUND:                -0.110
REMARK SMILES COC(=O)c1cc(O)c(O)c(O)c1
REMARK SMILES IDX 5 1 13 2 11 3 9 4 7 5 6 6 3 7 4 8 2 9 1 10 12 11 8 13 10 15
REMARK H PARENT 12 12 8 14 10 16
REMARK Flexibility Score: inf
ROOT
ATOM      1  C   UNL     1      21.969   8.924  29.776  1.00  0.00     0.067 A 
ATOM      2  C   UNL     1      20.605   8.590  29.748  1.00  0.00     0.066 A 
ATOM      3  C   UNL     1      19.923   8.473  28.528  1.00  0.00     0.162 A 
ATOM      4  C   UNL     1      20.607   8.690  27.320  1.00  0.00     0.200 A 
ATOM      5  C   UNL     1      21.967   9.023  27.340  1.00  0.00     0.162 A 
ATOM      6  C   UNL     1      22.644   9.139  28.562  1.00  0.00     0.066 A 
ENDROOT
BRANCH   1   7
ATOM      7  C   UNL     1      22.681   9.046  31.068  1.00  0.00     0.338 C 
ATOM      8  O   UNL     1      23.942   9.096  31.094  1.00  0.00    -0.246 OA
BRANCH   7   9
ATOM      9  O   UNL     1      21.954   9.104  32.262  1.00  0.00    -0.465 OA
ATOM     10  C   UNL     1      21.995   8.069  33.237  1.00  0.00     0.282 C 
ENDBRANCH   7   9
ENDBRANCH   1   7
BRANCH   3  11
ATOM     11  O   UNL     1      18.569   8.141  28.512  1.00  0.00    -0.504 OA
ATOM     12  H   UNL     1      18.245   7.218  28.777  1.00  0.00     0.293 HD
ENDBRANCH   3  11
BRANCH   5  13
ATOM     13  O   UNL     1      22.641   9.237  26.139  1.00  0.00    -0.504 OA
ATOM     14  H   UNL     1      23.491   9.788  26.098  1.00  0.00     0.293 HD
ENDBRANCH   5  13
BRANCH   4  15
ATOM     15  O   UNL     1      19.950   8.579  26.094  1.00  0.00    -0.502 OA
ATOM     16  H   UNL     1      20.101   9.238  25.340  1.00  0.00     0.293 HD
ENDBRANCH   4  15
TORSDOF 5
ENDMDL
