MODEL 1
REMARK VINA RESULT:    50.233      0.000      0.000
REMARK INTER + INTRA:          60.616
REMARK INTER:                  60.512
REMARK INTRA:                   0.105
REMARK UNBOUND:                 0.105
REMARK SMILES O=c1c(O)c(-c2ccc(O)cc2O)oc2cc(O)cc(O)c12
REMARK SMILES IDX 5 1 3 2 2 3 1 4 22 5 20 6 19 7 17 8 16 9 15 10 14 11 6 12
REMARK SMILES IDX 8 13 7 14 9 15 11 16 12 17 10 18 13 20 4 22 21 24 18 26
REMARK H PARENT 10 19 13 21 4 23 21 25 18 27
REMARK Flexibility Score: inf
ROOT
ATOM      1  C   UNL     1      18.067  21.695  11.582  1.00  0.00     0.184 A 
ATOM      2  C   UNL     1      17.813  21.499  10.213  1.00  0.00     0.208 A 
ATOM      3  C   UNL     1      18.863  21.082   9.382  1.00  0.00     0.238 A 
ATOM      4  O   UNL     1      18.648  20.905   8.152  1.00  0.00    -0.285 OA
ATOM      5  C   UNL     1      20.143  20.863   9.933  1.00  0.00     0.111 A 
ATOM      6  C   UNL     1      21.254  20.442   9.166  1.00  0.00     0.134 A 
ATOM      7  C   UNL     1      22.495  20.242   9.789  1.00  0.00     0.093 A 
ATOM      8  C   UNL     1      22.644  20.458  11.164  1.00  0.00     0.123 A 
ATOM      9  C   UNL     1      21.551  20.875  11.925  1.00  0.00     0.094 A 
ATOM     10  C   UNL     1      20.307  21.080  11.323  1.00  0.00     0.146 A 
ATOM     11  O   UNL     1      19.285  21.479  12.071  1.00  0.00    -0.451 OA
ENDROOT
BRANCH   1  12
ATOM     12  C   UNL     1      17.005  22.150  12.504  1.00  0.00     0.063 A 
ATOM     13  C   UNL     1      14.646  22.203  13.104  1.00  0.00     0.047 A 
ATOM     14  C   UNL     1      15.677  21.744  12.281  1.00  0.00     0.020 A 
ATOM     15  C   UNL     1      14.925  23.078  14.157  1.00  0.00     0.119 A 
ATOM     16  C   UNL     1      16.242  23.491  14.388  1.00  0.00     0.093 A 
ATOM     17  C   UNL     1      17.286  23.029  13.576  1.00  0.00     0.130 A 
BRANCH  15  18
ATOM     18  O   UNL     1      13.886  23.531  14.967  1.00  0.00    -0.508 OA
ATOM     19  H   UNL     1      13.261  22.887  15.437  1.00  0.00     0.293 HD
ENDBRANCH  15  18
BRANCH  17  20
ATOM     20  O   UNL     1      18.586  23.444  13.874  1.00  0.00    -0.507 OA
ATOM     21  H   UNL     1      19.010  24.266  13.464  1.00  0.00     0.293 HD
ENDBRANCH  17  20
ENDBRANCH   1  12
BRANCH   2  22
ATOM     22  O   UNL     1      16.527  21.701   9.704  1.00  0.00    -0.502 OA
ATOM     23  H   UNL     1      15.859  20.947   9.606  1.00  0.00     0.293 HD
ENDBRANCH   2  22
BRANCH   6  24
ATOM     24  O   UNL     1      21.136  20.217   7.794  1.00  0.00    -0.507 OA
ATOM     25  H   UNL     1      21.318  19.307   7.384  1.00  0.00     0.293 HD
ENDBRANCH   6  24
BRANCH   8  26
ATOM     26  O   UNL     1      23.877  20.261  11.784  1.00  0.00    -0.508 OA
ATOM     27  H   UNL     1      24.279  20.958  12.400  1.00  0.00     0.293 HD
ENDBRANCH   8  26
TORSDOF 6
ENDMDL
MODEL 2
REMARK VINA RESULT:    51.565      9.818     11.650
REMARK INTER + INTRA:          62.221
REMARK INTER:                  62.285
REMARK INTRA:                  -0.064
REMARK UNBOUND:                 0.105
REMARK SMILES O=c1c(O)c(-c2ccc(O)cc2O)oc2cc(O)cc(O)c12
REMARK SMILES IDX 5 1 3 2 2 3 1 4 22 5 20 6 19 7 17 8 16 9 15 10 14 11 6 12
REMARK SMILES IDX 8 13 7 14 9 15 11 16 12 17 10 18 13 20 4 22 21 24 18 26
REMARK H PARENT 10 19 13 21 4 23 21 25 18 27
REMARK Flexibility Score: inf
ROOT
ATOM      1  C   UNL     1      20.905  15.017   2.300  1.00  0.00     0.184 A 
ATOM      2  C   UNL     1      21.528  14.894   1.046  1.00  0.00     0.208 A 
ATOM      3  C   UNL     1      22.895  14.585   0.996  1.00  0.00     0.238 A 
ATOM      4  O   UNL     1      23.466  14.474  -0.124  1.00  0.00    -0.285 OA
ATOM      5  C   UNL     1      23.612  14.399   2.197  1.00  0.00     0.111 A 
ATOM      6  C   UNL     1      24.991  14.084   2.234  1.00  0.00     0.134 A 
ATOM      7  C   UNL     1      25.631  13.910   3.470  1.00  0.00     0.093 A 
ATOM      8  C   UNL     1      24.919  14.047   4.667  1.00  0.00     0.123 A 
ATOM      9  C   UNL     1      23.559  14.359   4.635  1.00  0.00     0.094 A 
ATOM     10  C   UNL     1      22.903  14.536   3.414  1.00  0.00     0.146 A 
ATOM     11  O   UNL     1      21.608  14.834   3.414  1.00  0.00    -0.451 OA
ENDROOT
BRANCH   1  12
ATOM     12  C   UNL     1      19.471  15.358   2.417  1.00  0.00     0.063 A 
ATOM     13  C   UNL     1      17.190  15.077   1.617  1.00  0.00     0.047 A 
ATOM     14  C   UNL     1      18.543  14.734   1.566  1.00  0.00     0.020 A 
ATOM     15  C   UNL     1      16.746  16.051   2.514  1.00  0.00     0.119 A 
ATOM     16  C   UNL     1      17.661  16.681   3.365  1.00  0.00     0.093 A 
ATOM     17  C   UNL     1      19.018  16.339   3.330  1.00  0.00     0.130 A 
BRANCH  15  18
ATOM     18  O   UNL     1      15.394  16.386   2.551  1.00  0.00    -0.508 OA
ATOM     19  H   UNL     1      14.724  15.832   3.071  1.00  0.00     0.293 HD
ENDBRANCH  15  18
BRANCH  17  20
ATOM     20  O   UNL     1      19.882  16.972   4.226  1.00  0.00    -0.507 OA
ATOM     21  H   UNL     1      19.831  17.960   4.438  1.00  0.00     0.293 HD
ENDBRANCH  17  20
ENDBRANCH   1  12
BRANCH   2  22
ATOM     22  O   UNL     1      20.783  15.061  -0.125  1.00  0.00    -0.502 OA
ATOM     23  H   UNL     1      20.148  15.838  -0.256  1.00  0.00     0.293 HD
ENDBRANCH   2  22
BRANCH   6  24
ATOM     24  O   UNL     1      25.727  13.940   1.058  1.00  0.00    -0.507 OA
ATOM     25  H   UNL     1      26.696  13.641   1.067  1.00  0.00     0.293 HD
ENDBRANCH   6  24
BRANCH   8  26
ATOM     26  O   UNL     1      25.555  13.875   5.895  1.00  0.00    -0.508 OA
ATOM     27  H   UNL     1      25.431  14.535   6.654  1.00  0.00     0.293 HD
ENDBRANCH   8  26
TORSDOF 6
ENDMDL
