MODEL 1
REMARK VINA RESULT:    -3.403      0.000      0.000
REMARK INTER + INTRA:          -3.840
REMARK INTER:                  -3.800
REMARK INTRA:                  -0.040
REMARK UNBOUND:                -0.040
REMARK SMILES CCCC(=O)[O-]
REMARK SMILES IDX 3 1 4 2 5 3 6 4 2 5 1 6
REMARK H PARENT
REMARK Flexibility Score: inf
ROOT
ATOM      1  C   UNL     1      10.317  53.900  23.704  1.00  0.00     0.052 C 
ENDROOT
BRANCH   1   2
ATOM      2  C   UNL     1       9.646  52.564  23.701  1.00  0.00     0.041 C 
ATOM      3  O   UNL     1      10.288  51.534  23.360  1.00  0.00    -0.550 OA
ATOM      4  O   UNL     1       8.328  52.445  24.122  1.00  0.00    -0.550 OA
ENDBRANCH   1   2
BRANCH   1   5
ATOM      5  C   UNL     1       9.874  54.719  24.919  1.00  0.00     0.003 C 
ATOM      6  C   UNL     1      10.890  54.614  26.054  1.00  0.00     0.004 C 
ENDBRANCH   1   5
TORSDOF 2
ENDMDL
MODEL 2
REMARK VINA RESULT:    -3.337      2.204      3.253
REMARK INTER + INTRA:          -3.766
REMARK INTER:                  -3.721
REMARK INTRA:                  -0.045
REMARK UNBOUND:                -0.040
REMARK SMILES CCCC(=O)[O-]
REMARK SMILES IDX 3 1 4 2 5 3 6 4 2 5 1 6
REMARK H PARENT
REMARK Flexibility Score: inf
ROOT
ATOM      1  C   UNL     1       9.506  54.500  24.000  1.00  0.00     0.052 C 
ENDROOT
BRANCH   1   2
ATOM      2  C   UNL     1       9.840  54.633  25.452  1.00  0.00     0.041 C 
ATOM      3  O   UNL     1       8.932  54.876  26.291  1.00  0.00    -0.550 OA
ATOM      4  O   UNL     1      11.145  54.441  25.887  1.00  0.00    -0.550 OA
ENDBRANCH   1   2
BRANCH   1   5
ATOM      5  C   UNL     1      10.539  53.619  23.292  1.00  0.00     0.003 C 
ATOM      6  C   UNL     1      10.130  52.149  23.332  1.00  0.00     0.004 C 
ENDBRANCH   1   5
TORSDOF 2
ENDMDL
MODEL 3
REMARK VINA RESULT:    -3.203      4.395      4.807
REMARK INTER + INTRA:          -3.617
REMARK INTER:                  -3.555
REMARK INTRA:                  -0.062
REMARK UNBOUND:                -0.040
REMARK SMILES CCCC(=O)[O-]
REMARK SMILES IDX 3 1 4 2 5 3 6 4 2 5 1 6
REMARK H PARENT
REMARK Flexibility Score: inf
ROOT
ATOM      1  C   UNL     1       8.047  55.106  21.519  1.00  0.00     0.052 C 
ENDROOT
BRANCH   1   2
ATOM      2  C   UNL     1       7.159  54.318  20.609  1.00  0.00     0.041 C 
ATOM      3  O   UNL     1       7.323  54.372  19.360  1.00  0.00    -0.550 OA
ATOM      4  O   UNL     1       6.182  53.485  21.138  1.00  0.00    -0.550 OA
ENDBRANCH   1   2
BRANCH   1   5
ATOM      5  C   UNL     1       7.718  56.599  21.426  1.00  0.00     0.003 C 
ATOM      6  C   UNL     1       6.413  56.922  22.149  1.00  0.00     0.004 C 
ENDBRANCH   1   5
TORSDOF 2
ENDMDL
MODEL 4
REMARK VINA RESULT:    -3.174      2.627      3.247
REMARK INTER + INTRA:          -3.585
REMARK INTER:                  -3.561
REMARK INTRA:                  -0.024
REMARK UNBOUND:                -0.040
REMARK SMILES CCCC(=O)[O-]
REMARK SMILES IDX 3 1 4 2 5 3 6 4 2 5 1 6
REMARK H PARENT
REMARK Flexibility Score: inf
ROOT
ATOM      1  C   UNL     1       8.637  54.991  23.592  1.00  0.00     0.052 C 
ENDROOT
BRANCH   1   2
ATOM      2  C   UNL     1       9.923  54.299  23.918  1.00  0.00     0.041 C 
ATOM      3  O   UNL     1      10.623  53.798  22.998  1.00  0.00    -0.550 OA
ATOM      4  O   UNL     1      10.374  54.249  25.231  1.00  0.00    -0.550 OA
ENDBRANCH   1   2
BRANCH   1   5
ATOM      5  C   UNL     1       8.388  54.973  22.082  1.00  0.00     0.003 C 
ATOM      6  C   UNL     1       7.930  56.342  21.583  1.00  0.00     0.004 C 
ENDBRANCH   1   5
TORSDOF 2
ENDMDL
MODEL 5
REMARK VINA RESULT:    -3.146      1.868      2.263
REMARK INTER + INTRA:          -3.554
REMARK INTER:                  -3.482
REMARK INTRA:                  -0.072
REMARK UNBOUND:                -0.040
REMARK SMILES CCCC(=O)[O-]
REMARK SMILES IDX 3 1 4 2 5 3 6 4 2 5 1 6
REMARK H PARENT
REMARK Flexibility Score: inf
ROOT
ATOM      1  C   UNL     1      10.182  54.057  23.056  1.00  0.00     0.052 C 
ENDROOT
BRANCH   1   2
ATOM      2  C   UNL     1       8.765  54.350  22.676  1.00  0.00     0.041 C 
ATOM      3  O   UNL     1       8.489  55.387  22.014  1.00  0.00    -0.550 OA
ATOM      4  O   UNL     1       7.755  53.457  23.007  1.00  0.00    -0.550 OA
ENDBRANCH   1   2
BRANCH   1   5
ATOM      5  C   UNL     1      10.298  53.852  24.569  1.00  0.00     0.003 C 
ATOM      6  C   UNL     1       9.925  55.125  25.326  1.00  0.00     0.004 C 
ENDBRANCH   1   5
TORSDOF 2
ENDMDL
MODEL 6
REMARK VINA RESULT:    -3.128      2.392      3.100
REMARK INTER + INTRA:          -3.534
REMARK INTER:                  -3.493
REMARK INTRA:                  -0.041
REMARK UNBOUND:                -0.040
REMARK SMILES CCCC(=O)[O-]
REMARK SMILES IDX 3 1 4 2 5 3 6 4 2 5 1 6
REMARK H PARENT
REMARK Flexibility Score: inf
ROOT
ATOM      1  C   UNL     1       9.303  54.379  23.491  1.00  0.00     0.052 C 
ENDROOT
BRANCH   1   2
ATOM      2  C   UNL     1       8.288  54.579  22.410  1.00  0.00     0.041 C 
ATOM      3  O   UNL     1       8.413  55.529  21.592  1.00  0.00    -0.550 OA
ATOM      4  O   UNL     1       7.230  53.690  22.275  1.00  0.00    -0.550 OA
ENDBRANCH   1   2
BRANCH   1   5
ATOM      5  C   UNL     1      10.436  53.474  23.000  1.00  0.00     0.003 C 
ATOM      6  C   UNL     1      10.174  52.016  23.369  1.00  0.00     0.004 C 
ENDBRANCH   1   5
TORSDOF 2
ENDMDL
MODEL 7
REMARK VINA RESULT:    -3.113      4.680      5.635
REMARK INTER + INTRA:          -3.517
REMARK INTER:                  -3.469
REMARK INTRA:                  -0.048
REMARK UNBOUND:                -0.040
REMARK SMILES CCCC(=O)[O-]
REMARK SMILES IDX 3 1 4 2 5 3 6 4 2 5 1 6
REMARK H PARENT
REMARK Flexibility Score: inf
ROOT
ATOM      1  C   UNL     1       7.626  56.027  21.509  1.00  0.00     0.052 C 
ENDROOT
BRANCH   1   2
ATOM      2  C   UNL     1       6.330  56.233  22.226  1.00  0.00     0.041 C 
ATOM      3  O   UNL     1       5.769  57.361  22.210  1.00  0.00    -0.550 OA
ATOM      4  O   UNL     1       5.714  55.168  22.870  1.00  0.00    -0.550 OA
ENDBRANCH   1   2
BRANCH   1   5
ATOM      5  C   UNL     1       7.733  54.589  20.997  1.00  0.00     0.003 C 
ATOM      6  C   UNL     1       7.132  54.456  19.599  1.00  0.00     0.004 C 
ENDBRANCH   1   5
TORSDOF 2
ENDMDL
MODEL 8
REMARK VINA RESULT:    -3.090      4.376      5.362
REMARK INTER + INTRA:          -3.491
REMARK INTER:                  -3.479
REMARK INTRA:                  -0.011
REMARK UNBOUND:                -0.040
REMARK SMILES CCCC(=O)[O-]
REMARK SMILES IDX 3 1 4 2 5 3 6 4 2 5 1 6
REMARK H PARENT
REMARK Flexibility Score: inf
ROOT
ATOM      1  C   UNL     1       7.302  55.627  20.809  1.00  0.00     0.052 C 
ENDROOT
BRANCH   1   2
ATOM      2  C   UNL     1       8.049  55.369  22.078  1.00  0.00     0.041 C 
ATOM      3  O   UNL     1       7.968  56.183  23.037  1.00  0.00    -0.550 OA
ATOM      4  O   UNL     1       8.797  54.207  22.224  1.00  0.00    -0.550 OA
ENDBRANCH   1   2
BRANCH   1   5
ATOM      5  C   UNL     1       7.248  54.359  19.953  1.00  0.00     0.003 C 
ATOM      6  C   UNL     1       6.816  54.677  18.524  1.00  0.00     0.004 C 
ENDBRANCH   1   5
TORSDOF 2
ENDMDL
MODEL 9
REMARK VINA RESULT:    -3.029      3.189      3.619
REMARK INTER + INTRA:          -3.423
REMARK INTER:                  -3.381
REMARK INTRA:                  -0.042
REMARK UNBOUND:                -0.040
REMARK SMILES CCCC(=O)[O-]
REMARK SMILES IDX 3 1 4 2 5 3 6 4 2 5 1 6
REMARK H PARENT
REMARK Flexibility Score: inf
ROOT
ATOM      1  C   UNL     1       8.371  55.442  21.912  1.00  0.00     0.052 C 
ENDROOT
BRANCH   1   2
ATOM      2  C   UNL     1       7.357  54.584  21.224  1.00  0.00     0.041 C 
ATOM      3  O   UNL     1       7.221  54.643  19.973  1.00  0.00    -0.550 OA
ATOM      4  O   UNL     1       6.594  53.683  21.957  1.00  0.00    -0.550 OA
ENDBRANCH   1   2
BRANCH   1   5
ATOM      5  C   UNL     1       8.815  54.795  23.226  1.00  0.00     0.003 C 
ATOM      6  C   UNL     1      10.122  54.025  23.047  1.00  0.00     0.004 C 
ENDBRANCH   1   5
TORSDOF 2
ENDMDL
