MODEL 1
REMARK VINA RESULT:    -3.704      0.000      0.000
REMARK INTER + INTRA:          -6.723
REMARK INTER:                  -5.869
REMARK INTRA:                  -0.854
REMARK UNBOUND:                -0.854
REMARK SMILES CCCCCCCCCCCC(=O)[O-]
REMARK SMILES IDX 7 1 8 2 9 3 10 4 11 5 12 6 13 7 14 8 6 9 5 10 4 11 3 12 2 13
REMARK SMILES IDX 1 14
REMARK H PARENT
REMARK Flexibility Score: inf
ROOT
ATOM      1  C   UNL     1      -9.286  16.119 -12.776  1.00  0.00     0.000 C 
ENDROOT
BRANCH   1   2
ATOM      2  C   UNL     1      -8.170  15.409 -11.989  1.00  0.00     0.000 C 
BRANCH   2   3
ATOM      3  C   UNL     1      -7.845  13.977 -12.461  1.00  0.00     0.000 C 
BRANCH   3   4
ATOM      4  C   UNL     1      -7.587  13.828 -13.974  1.00  0.00     0.006 C 
BRANCH   4   5
ATOM      5  C   UNL     1      -8.411  12.721 -14.651  1.00  0.00     0.053 C 
BRANCH   5   6
ATOM      6  C   UNL     1      -9.488  13.283 -15.528  1.00  0.00     0.041 C 
ATOM      7  O   UNL     1      -9.311  14.378 -16.125  1.00  0.00    -0.550 OA
ATOM      8  O   UNL     1     -10.671  12.580 -15.713  1.00  0.00    -0.550 OA
ENDBRANCH   5   6
ENDBRANCH   4   5
ENDBRANCH   3   4
ENDBRANCH   2   3
ENDBRANCH   1   2
BRANCH   1   9
ATOM      9  C   UNL     1      -8.866  17.504 -13.289  1.00  0.00     0.000 C 
BRANCH   9  10
ATOM     10  C   UNL     1      -8.463  17.440 -14.770  1.00  0.00    -0.000 C 
BRANCH  10  11
ATOM     11  C   UNL     1      -7.618  18.648 -15.215  1.00  0.00    -0.000 C 
BRANCH  11  12
ATOM     12  C   UNL     1      -6.326  18.873 -14.407  1.00  0.00    -0.000 C 
BRANCH  12  13
ATOM     13  C   UNL     1      -6.076  20.350 -14.076  1.00  0.00    -0.003 C 
ATOM     14  C   UNL     1      -6.830  20.766 -12.816  1.00  0.00     0.004 C 
ENDBRANCH  12  13
ENDBRANCH  11  12
ENDBRANCH  10  11
ENDBRANCH   9  10
ENDBRANCH   1   9
TORSDOF 10
ENDMDL
MODEL 2
REMARK VINA RESULT:    -3.700      3.172      6.034
REMARK INTER + INTRA:          -6.717
REMARK INTER:                  -5.686
REMARK INTRA:                  -1.030
REMARK UNBOUND:                -0.854
REMARK SMILES CCCCCCCCCCCC(=O)[O-]
REMARK SMILES IDX 7 1 8 2 9 3 10 4 11 5 12 6 13 7 14 8 6 9 5 10 4 11 3 12 2 13
REMARK SMILES IDX 1 14
REMARK H PARENT
REMARK Flexibility Score: inf
ROOT
ATOM      1  C   UNL     1      -9.276  15.814 -12.907  1.00  0.00     0.000 C 
ENDROOT
BRANCH   1   2
ATOM      2  C   UNL     1      -9.043  17.327 -13.063  1.00  0.00     0.000 C 
BRANCH   2   3
ATOM      3  C   UNL     1      -8.313  17.748 -14.355  1.00  0.00     0.000 C 
BRANCH   3   4
ATOM      4  C   UNL     1      -6.776  17.805 -14.250  1.00  0.00     0.006 C 
BRANCH   4   5
ATOM      5  C   UNL     1      -6.181  19.210 -14.439  1.00  0.00     0.053 C 
BRANCH   5   6
ATOM      6  C   UNL     1      -6.986  20.258 -13.734  1.00  0.00     0.041 C 
ATOM      7  O   UNL     1      -6.914  20.377 -12.483  1.00  0.00    -0.550 OA
ATOM      8  O   UNL     1      -7.790  21.125 -14.463  1.00  0.00    -0.550 OA
ENDBRANCH   5   6
ENDBRANCH   4   5
ENDBRANCH   3   4
ENDBRANCH   2   3
ENDBRANCH   1   2
BRANCH   1   9
ATOM      9  C   UNL     1      -8.124  15.104 -12.179  1.00  0.00     0.000 C 
BRANCH   9  10
ATOM     10  C   UNL     1      -7.750  13.797 -12.892  1.00  0.00    -0.000 C 
BRANCH  10  11
ATOM     11  C   UNL     1      -7.055  14.028 -14.247  1.00  0.00    -0.000 C 
BRANCH  11  12
ATOM     12  C   UNL     1      -7.609  13.191 -15.415  1.00  0.00    -0.000 C 
BRANCH  12  13
ATOM     13  C   UNL     1      -9.007  13.639 -15.863  1.00  0.00    -0.003 C 
ATOM     14  C   UNL     1     -10.013  12.496 -15.752  1.00  0.00     0.004 C 
ENDBRANCH  12  13
ENDBRANCH  11  12
ENDBRANCH  10  11
ENDBRANCH   9  10
ENDBRANCH   1   9
TORSDOF 10
ENDMDL
MODEL 3
REMARK VINA RESULT:    -3.687      2.164      5.826
REMARK INTER + INTRA:          -6.697
REMARK INTER:                  -5.867
REMARK INTRA:                  -0.830
REMARK UNBOUND:                -0.854
REMARK SMILES CCCCCCCCCCCC(=O)[O-]
REMARK SMILES IDX 7 1 8 2 9 3 10 4 11 5 12 6 13 7 14 8 6 9 5 10 4 11 3 12 2 13
REMARK SMILES IDX 1 14
REMARK H PARENT
REMARK Flexibility Score: inf
ROOT
ATOM      1  C   UNL     1      -6.355  15.548 -15.236  1.00  0.00     0.000 C 
ENDROOT
BRANCH   1   2
ATOM      2  C   UNL     1      -7.411  16.409 -15.950  1.00  0.00     0.000 C 
BRANCH   2   3
ATOM      3  C   UNL     1      -7.326  17.922 -15.663  1.00  0.00     0.000 C 
BRANCH   3   4
ATOM      4  C   UNL     1      -7.229  18.302 -14.172  1.00  0.00     0.006 C 
BRANCH   4   5
ATOM      5  C   UNL     1      -8.585  18.414 -13.457  1.00  0.00     0.053 C 
BRANCH   5   6
ATOM      6  C   UNL     1      -9.017  17.106 -12.868  1.00  0.00     0.041 C 
ATOM      7  O   UNL     1     -10.134  16.612 -13.175  1.00  0.00    -0.550 OA
ATOM      8  O   UNL     1      -8.172  16.418 -12.008  1.00  0.00    -0.550 OA
ENDBRANCH   5   6
ENDBRANCH   4   5
ENDBRANCH   3   4
ENDBRANCH   2   3
ENDBRANCH   1   2
BRANCH   1   9
ATOM      9  C   UNL     1      -6.307  14.105 -15.759  1.00  0.00     0.000 C 
BRANCH   9  10
ATOM     10  C   UNL     1      -6.595  13.104 -14.631  1.00  0.00    -0.000 C 
BRANCH  10  11
ATOM     11  C   UNL     1      -7.860  13.454 -13.826  1.00  0.00    -0.000 C 
BRANCH  11  12
ATOM     12  C   UNL     1      -9.166  13.483 -14.642  1.00  0.00    -0.000 C 
BRANCH  12  13
ATOM     13  C   UNL     1      -9.412  12.186 -15.424  1.00  0.00    -0.003 C 
ATOM     14  C   UNL     1     -10.768  12.215 -16.124  1.00  0.00     0.004 C 
ENDBRANCH  12  13
ENDBRANCH  11  12
ENDBRANCH  10  11
ENDBRANCH   9  10
ENDBRANCH   1   9
TORSDOF 10
ENDMDL
MODEL 4
REMARK VINA RESULT:    -3.461      2.968      5.507
REMARK INTER + INTRA:          -6.339
REMARK INTER:                  -5.212
REMARK INTRA:                  -1.127
REMARK UNBOUND:                -0.854
REMARK SMILES CCCCCCCCCCCC(=O)[O-]
REMARK SMILES IDX 7 1 8 2 9 3 10 4 11 5 12 6 13 7 14 8 6 9 5 10 4 11 3 12 2 13
REMARK SMILES IDX 1 14
REMARK H PARENT
REMARK Flexibility Score: inf
ROOT
ATOM      1  C   UNL     1      -7.975  15.389 -15.968  1.00  0.00     0.000 C 
ENDROOT
BRANCH   1   2
ATOM      2  C   UNL     1      -6.445  15.553 -15.976  1.00  0.00     0.000 C 
BRANCH   2   3
ATOM      3  C   UNL     1      -5.902  16.675 -15.067  1.00  0.00     0.000 C 
BRANCH   3   4
ATOM      4  C   UNL     1      -6.699  17.994 -15.106  1.00  0.00     0.006 C 
BRANCH   4   5
ATOM      5  C   UNL     1      -6.075  19.135 -14.286  1.00  0.00     0.053 C 
BRANCH   5   6
ATOM      6  C   UNL     1      -7.118  20.021 -13.678  1.00  0.00     0.041 C 
ATOM      7  O   UNL     1      -7.001  20.411 -12.486  1.00  0.00    -0.550 OA
ATOM      8  O   UNL     1      -8.202  20.443 -14.437  1.00  0.00    -0.550 OA
ENDBRANCH   5   6
ENDBRANCH   4   5
ENDBRANCH   3   4
ENDBRANCH   2   3
ENDBRANCH   1   2
BRANCH   1   9
ATOM      9  C   UNL     1      -8.418  13.930 -15.784  1.00  0.00     0.000 C 
BRANCH   9  10
ATOM     10  C   UNL     1      -8.892  13.679 -14.345  1.00  0.00    -0.000 C 
BRANCH  10  11
ATOM     11  C   UNL     1      -7.811  13.992 -13.293  1.00  0.00    -0.000 C 
BRANCH  11  12
ATOM     12  C   UNL     1      -8.174  15.110 -12.298  1.00  0.00    -0.000 C 
BRANCH  12  13
ATOM     13  C   UNL     1      -9.385  15.941 -12.746  1.00  0.00    -0.003 C 
ATOM     14  C   UNL     1      -9.189  17.418 -12.420  1.00  0.00     0.004 C 
ENDBRANCH  12  13
ENDBRANCH  11  12
ENDBRANCH  10  11
ENDBRANCH   9  10
ENDBRANCH   1   9
TORSDOF 10
ENDMDL
MODEL 5
REMARK VINA RESULT:    -3.460      2.044      3.191
REMARK INTER + INTRA:          -6.336
REMARK INTER:                  -5.290
REMARK INTRA:                  -1.046
REMARK UNBOUND:                -0.854
REMARK SMILES CCCCCCCCCCCC(=O)[O-]
REMARK SMILES IDX 7 1 8 2 9 3 10 4 11 5 12 6 13 7 14 8 6 9 5 10 4 11 3 12 2 13
REMARK SMILES IDX 1 14
REMARK H PARENT
REMARK Flexibility Score: inf
ROOT
ATOM      1  C   UNL     1      -8.487  15.174 -16.072  1.00  0.00     0.000 C 
ENDROOT
BRANCH   1   2
ATOM      2  C   UNL     1      -7.937  13.828 -15.568  1.00  0.00     0.000 C 
BRANCH   2   3
ATOM      3  C   UNL     1      -7.320  13.860 -14.155  1.00  0.00     0.000 C 
BRANCH   3   4
ATOM      4  C   UNL     1      -8.316  14.140 -13.011  1.00  0.00     0.006 C 
BRANCH   4   5
ATOM      5  C   UNL     1      -8.035  15.432 -12.229  1.00  0.00     0.053 C 
BRANCH   5   6
ATOM      6  C   UNL     1      -9.071  16.483 -12.493  1.00  0.00     0.041 C 
ATOM      7  O   UNL     1     -10.113  16.196 -13.139  1.00  0.00    -0.550 OA
ATOM      8  O   UNL     1      -8.900  17.768 -11.996  1.00  0.00    -0.550 OA
ENDBRANCH   5   6
ENDBRANCH   4   5
ENDBRANCH   3   4
ENDBRANCH   2   3
ENDBRANCH   1   2
BRANCH   1   9
ATOM      9  C   UNL     1      -7.487  16.328 -15.907  1.00  0.00     0.000 C 
BRANCH   9  10
ATOM     10  C   UNL     1      -8.210  17.682 -15.891  1.00  0.00    -0.000 C 
BRANCH  10  11
ATOM     11  C   UNL     1      -7.415  18.779 -15.160  1.00  0.00    -0.000 C 
BRANCH  11  12
ATOM     12  C   UNL     1      -8.257  19.960 -14.641  1.00  0.00    -0.000 C 
BRANCH  12  13
ATOM     13  C   UNL     1      -7.568  20.735 -13.510  1.00  0.00    -0.003 C 
ATOM     14  C   UNL     1      -6.066  20.470 -13.496  1.00  0.00     0.004 C 
ENDBRANCH  12  13
ENDBRANCH  11  12
ENDBRANCH  10  11
ENDBRANCH   9  10
ENDBRANCH   1   9
TORSDOF 10
ENDMDL
MODEL 6
REMARK VINA RESULT:    -3.408      2.933      5.913
REMARK INTER + INTRA:          -6.255
REMARK INTER:                  -5.383
REMARK INTRA:                  -0.872
REMARK UNBOUND:                -0.854
REMARK SMILES CCCCCCCCCCCC(=O)[O-]
REMARK SMILES IDX 7 1 8 2 9 3 10 4 11 5 12 6 13 7 14 8 6 9 5 10 4 11 3 12 2 13
REMARK SMILES IDX 1 14
REMARK H PARENT
REMARK Flexibility Score: inf
ROOT
ATOM      1  C   UNL     1      -7.871  13.706 -12.399  1.00  0.00     0.000 C 
ENDROOT
BRANCH   1   2
ATOM      2  C   UNL     1      -7.809  15.227 -12.622  1.00  0.00     0.000 C 
BRANCH   2   3
ATOM      3  C   UNL     1      -9.166  15.904 -12.901  1.00  0.00     0.000 C 
BRANCH   3   4
ATOM      4  C   UNL     1      -9.105  17.134 -13.829  1.00  0.00     0.006 C 
BRANCH   4   5
ATOM      5  C   UNL     1      -8.871  18.467 -13.099  1.00  0.00     0.053 C 
BRANCH   5   6
ATOM      6  C   UNL     1      -7.847  19.312 -13.793  1.00  0.00     0.041 C 
ATOM      7  O   UNL     1      -6.620  19.127 -13.575  1.00  0.00    -0.550 OA
ATOM      8  O   UNL     1      -8.246  20.280 -14.705  1.00  0.00    -0.550 OA
ENDBRANCH   5   6
ENDBRANCH   4   5
ENDBRANCH   3   4
ENDBRANCH   2   3
ENDBRANCH   1   2
BRANCH   1   9
ATOM      9  C   UNL     1      -7.155  12.911 -13.501  1.00  0.00     0.000 C 
BRANCH   9  10
ATOM     10  C   UNL     1      -6.560  13.853 -14.558  1.00  0.00    -0.000 C 
BRANCH  10  11
ATOM     11  C   UNL     1      -6.966  13.478 -15.995  1.00  0.00    -0.000 C 
BRANCH  11  12
ATOM     12  C   UNL     1      -8.124  12.468 -16.103  1.00  0.00    -0.000 C 
BRANCH  12  13
ATOM     13  C   UNL     1      -9.504  13.139 -16.124  1.00  0.00    -0.003 C 
ATOM     14  C   UNL     1     -10.615  12.122 -15.880  1.00  0.00     0.004 C 
ENDBRANCH  12  13
ENDBRANCH  11  12
ENDBRANCH  10  11
ENDBRANCH   9  10
ENDBRANCH   1   9
TORSDOF 10
ENDMDL
MODEL 7
REMARK VINA RESULT:    -3.372      2.628      5.247
REMARK INTER + INTRA:          -6.196
REMARK INTER:                  -4.725
REMARK INTRA:                  -1.472
REMARK UNBOUND:                -0.854
REMARK SMILES CCCCCCCCCCCC(=O)[O-]
REMARK SMILES IDX 7 1 8 2 9 3 10 4 11 5 12 6 13 7 14 8 6 9 5 10 4 11 3 12 2 13
REMARK SMILES IDX 1 14
REMARK H PARENT
REMARK Flexibility Score: inf
ROOT
ATOM      1  C   UNL     1      -8.837  14.194 -15.671  1.00  0.00     0.000 C 
ENDROOT
BRANCH   1   2
ATOM      2  C   UNL     1      -8.268  15.550 -16.125  1.00  0.00     0.000 C 
BRANCH   2   3
ATOM      3  C   UNL     1      -6.781  15.782 -15.791  1.00  0.00     0.000 C 
BRANCH   3   4
ATOM      4  C   UNL     1      -6.318  17.251 -15.847  1.00  0.00     0.006 C 
BRANCH   4   5
ATOM      5  C   UNL     1      -6.193  17.929 -14.472  1.00  0.00     0.053 C 
BRANCH   5   6
ATOM      6  C   UNL     1      -7.270  18.947 -14.251  1.00  0.00     0.041 C 
ATOM      7  O   UNL     1      -7.315  19.596 -13.173  1.00  0.00    -0.550 OA
ATOM      8  O   UNL     1      -8.202  19.202 -15.248  1.00  0.00    -0.550 OA
ENDBRANCH   5   6
ENDBRANCH   4   5
ENDBRANCH   3   4
ENDBRANCH   2   3
ENDBRANCH   1   2
BRANCH   1   9
ATOM      9  C   UNL     1      -7.748  13.134 -15.449  1.00  0.00     0.000 C 
BRANCH   9  10
ATOM     10  C   UNL     1      -7.755  12.637 -13.996  1.00  0.00    -0.000 C 
BRANCH  10  11
ATOM     11  C   UNL     1      -7.147  13.653 -13.011  1.00  0.00    -0.000 C 
BRANCH  11  12
ATOM     12  C   UNL     1      -8.161  14.356 -12.090  1.00  0.00    -0.000 C 
BRANCH  12  13
ATOM     13  C   UNL     1      -8.185  15.879 -12.277  1.00  0.00    -0.003 C 
ATOM     14  C   UNL     1      -9.564  16.357 -12.722  1.00  0.00     0.004 C 
ENDBRANCH  12  13
ENDBRANCH  11  12
ENDBRANCH  10  11
ENDBRANCH   9  10
ENDBRANCH   1   9
TORSDOF 10
ENDMDL
MODEL 8
REMARK VINA RESULT:    -3.353      2.272      5.286
REMARK INTER + INTRA:          -6.166
REMARK INTER:                  -5.032
REMARK INTRA:                  -1.134
REMARK UNBOUND:                -0.854
REMARK SMILES CCCCCCCCCCCC(=O)[O-]
REMARK SMILES IDX 7 1 8 2 9 3 10 4 11 5 12 6 13 7 14 8 6 9 5 10 4 11 3 12 2 13
REMARK SMILES IDX 1 14
REMARK H PARENT
REMARK Flexibility Score: inf
ROOT
ATOM      1  C   UNL     1      -6.066  16.879 -14.631  1.00  0.00     0.000 C 
ENDROOT
BRANCH   1   2
ATOM      2  C   UNL     1      -5.876  18.406 -14.629  1.00  0.00     0.000 C 
BRANCH   2   3
ATOM      3  C   UNL     1      -7.093  19.219 -15.115  1.00  0.00     0.000 C 
BRANCH   3   4
ATOM      4  C   UNL     1      -8.466  18.649 -14.707  1.00  0.00     0.006 C 
BRANCH   4   5
ATOM      5  C   UNL     1      -8.740  18.677 -13.195  1.00  0.00     0.053 C 
BRANCH   5   6
ATOM      6  C   UNL     1      -9.157  17.335 -12.676  1.00  0.00     0.041 C 
ATOM      7  O   UNL     1     -10.090  16.702 -13.237  1.00  0.00    -0.550 OA
ATOM      8  O   UNL     1      -8.493  16.769 -11.596  1.00  0.00    -0.550 OA
ENDBRANCH   5   6
ENDBRANCH   4   5
ENDBRANCH   3   4
ENDBRANCH   2   3
ENDBRANCH   1   2
BRANCH   1   9
ATOM      9  C   UNL     1      -5.927  16.261 -16.030  1.00  0.00     0.000 C 
BRANCH   9  10
ATOM     10  C   UNL     1      -6.703  14.940 -16.125  1.00  0.00    -0.000 C 
BRANCH  10  11
ATOM     11  C   UNL     1      -8.206  15.103 -15.831  1.00  0.00    -0.000 C 
BRANCH  11  12
ATOM     12  C   UNL     1      -8.838  13.965 -15.007  1.00  0.00    -0.000 C 
BRANCH  12  13
ATOM     13  C   UNL     1      -7.798  13.120 -14.258  1.00  0.00    -0.003 C 
ATOM     14  C   UNL     1      -7.620  13.611 -12.824  1.00  0.00     0.004 C 
ENDBRANCH  12  13
ENDBRANCH  11  12
ENDBRANCH  10  11
ENDBRANCH   9  10
ENDBRANCH   1   9
TORSDOF 10
ENDMDL
MODEL 9
REMARK VINA RESULT:    -3.340      2.166      2.931
REMARK INTER + INTRA:          -6.146
REMARK INTER:                  -5.136
REMARK INTRA:                  -1.010
REMARK UNBOUND:                -0.854
REMARK SMILES CCCCCCCCCCCC(=O)[O-]
REMARK SMILES IDX 7 1 8 2 9 3 10 4 11 5 12 6 13 7 14 8 6 9 5 10 4 11 3 12 2 13
REMARK SMILES IDX 1 14
REMARK H PARENT
REMARK Flexibility Score: inf
ROOT
ATOM      1  C   UNL     1      -8.788  16.665 -14.714  1.00  0.00     0.000 C 
ENDROOT
BRANCH   1   2
ATOM      2  C   UNL     1      -8.106  16.088 -15.967  1.00  0.00     0.000 C 
BRANCH   2   3
ATOM      3  C   UNL     1      -7.730  14.595 -15.880  1.00  0.00     0.000 C 
BRANCH   3   4
ATOM      4  C   UNL     1      -8.756  13.703 -15.154  1.00  0.00     0.006 C 
BRANCH   4   5
ATOM      5  C   UNL     1      -8.133  12.649 -14.224  1.00  0.00     0.053 C 
BRANCH   5   6
ATOM      6  C   UNL     1      -7.186  13.263 -13.238  1.00  0.00     0.041 C 
ATOM      7  O   UNL     1      -5.961  12.973 -13.274  1.00  0.00    -0.550 OA
ATOM      8  O   UNL     1      -7.651  14.178 -12.304  1.00  0.00    -0.550 OA
ENDBRANCH   5   6
ENDBRANCH   4   5
ENDBRANCH   3   4
ENDBRANCH   2   3
ENDBRANCH   1   2
BRANCH   1   9
ATOM      9  C   UNL     1      -7.812  17.411 -13.793  1.00  0.00     0.000 C 
BRANCH   9  10
ATOM     10  C   UNL     1      -8.519  18.564 -13.065  1.00  0.00    -0.000 C 
BRANCH  10  11
ATOM     11  C   UNL     1      -8.049  19.952 -13.540  1.00  0.00    -0.000 C 
BRANCH  11  12
ATOM     12  C   UNL     1      -6.759  19.951 -14.381  1.00  0.00    -0.000 C 
BRANCH  12  13
ATOM     13  C   UNL     1      -7.007  20.288 -15.858  1.00  0.00    -0.003 C 
ATOM     14  C   UNL     1      -8.489  20.535 -16.125  1.00  0.00     0.004 C 
ENDBRANCH  12  13
ENDBRANCH  11  12
ENDBRANCH  10  11
ENDBRANCH   9  10
ENDBRANCH   1   9
TORSDOF 10
ENDMDL
