MODEL 1
REMARK VINA RESULT:    -5.042      0.000      0.000
REMARK INTER + INTRA:          -7.446
REMARK INTER:                  -7.695
REMARK INTRA:                   0.249
REMARK UNBOUND:                 0.249
REMARK SMILES CC1=CCC[C@H](C)C(=O)C[C@@H](C(C)C)C(=O)C1
REMARK SMILES IDX 8 1 9 2 6 3 7 4 5 5 4 6 3 7 2 8 1 9 10 11 11 12 15 13 16 14
REMARK SMILES IDX 17 15 12 17 13 18 14 19
REMARK H PARENT
REMARK Flexibility Score: 70.00
ROOT
ATOM      1  C   UNL     1     -19.190  36.295  14.513  1.00  0.00     0.136 C 
ATOM      2  O   UNL     1     -20.145  36.555  15.227  1.00  0.00    -0.299 OA
ENDROOT
BRANCH   1   3
ATOM      3  C   UNL     1     -19.448  35.480  13.254  1.00  0.00     0.053 C 
ATOM      4  C   UNL     1     -20.000  36.404  12.164  1.00  0.00     0.016 C 
BRANCH   3   5
ATOM      5  C   UNL     1     -18.232  34.687  12.716  1.00  0.00     0.015 C 
BRANCH   5   6
ATOM      6  C   UNL     1     -17.591  35.298  11.450  1.00  0.00     0.028 C 
BRANCH   6   7
ATOM      7  C   UNL     1     -16.224  35.862  11.763  1.00  0.00    -0.028 C 
ATOM      8  C   UNL     1     -15.953  37.150  12.073  1.00  0.00    -0.070 CG0
ATOM      9  C   UNL     1     -14.515  37.530  12.318  1.00  0.00     0.039 C 
ATOM     10  G   UNL     1     -17.027  38.214  12.206  1.00  0.00     0.000 G0
ENDBRANCH   6   7
ENDBRANCH   5   6
ENDBRANCH   3   5
ENDBRANCH   1   3
BRANCH   1  11
ATOM     11  C   UNL     1     -17.841  36.906  14.848  1.00  0.00     0.087 C 
BRANCH  11  12
ATOM     12  C   UNL     1     -17.768  38.463  14.745  1.00  0.00     0.066 C 
BRANCH  12  13
ATOM     13  C   UNL     1     -16.985  38.948  13.530  1.00  0.00     0.140 C 
ATOM     14  O   UNL     1     -16.348  39.988  13.592  1.00  0.00    -0.299 OA
BRANCH  13  15
ATOM     15  C   UNL     1     -17.024  38.216  12.211  1.00  0.00     0.106 CG0
ATOM     16  G   UNL     1     -15.946  37.156  12.084  1.00  0.00     0.000 G0
ENDBRANCH  13  15
ENDBRANCH  12  13
BRANCH  12  17
ATOM     17  C   UNL     1     -17.325  39.194  16.055  1.00  0.00    -0.006 C 
ATOM     18  C   UNL     1     -18.199  38.785  17.254  1.00  0.00     0.008 C 
ATOM     19  C   UNL     1     -15.840  39.020  16.413  1.00  0.00     0.008 C 
ENDBRANCH  12  17
ENDBRANCH  11  12
ENDBRANCH   1  11
TORSDOF 1
ENDMDL
MODEL 2
REMARK VINA RESULT:    -4.940      1.844      3.536
REMARK INTER + INTRA:          -7.290
REMARK INTER:                  -7.435
REMARK INTRA:                   0.144
REMARK UNBOUND:                 0.249
REMARK SMILES CC1=CCC[C@H](C)C(=O)C[C@@H](C(C)C)C(=O)C1
REMARK SMILES IDX 8 1 9 2 6 3 7 4 5 5 4 6 3 7 2 8 1 9 10 11 11 12 15 13 16 14
REMARK SMILES IDX 17 15 12 17 13 18 14 19
REMARK H PARENT
REMARK Flexibility Score: 70.00
ROOT
ATOM      1  C   UNL     1     -17.728  34.915  12.588  1.00  0.00     0.136 C 
ATOM      2  O   UNL     1     -16.860  34.073  12.750  1.00  0.00    -0.299 OA
ENDROOT
BRANCH   1   3
ATOM      3  C   UNL     1     -17.746  35.669  11.267  1.00  0.00     0.053 C 
ATOM      4  C   UNL     1     -19.117  35.495  10.608  1.00  0.00     0.016 C 
BRANCH   3   5
ATOM      5  C   UNL     1     -17.384  37.172  11.356  1.00  0.00     0.015 C 
BRANCH   5   6
ATOM      6  C   UNL     1     -15.951  37.447  11.865  1.00  0.00     0.028 C 
BRANCH   6   7
ATOM      7  C   UNL     1     -15.948  38.591  12.854  1.00  0.00    -0.028 C 
ATOM      8  C   UNL     1     -16.296  38.509  14.158  1.00  0.00    -0.070 CG0
ATOM      9  C   UNL     1     -16.264  39.774  14.978  1.00  0.00     0.039 C 
ATOM     10  G   UNL     1     -16.690  37.207  14.831  1.00  0.00     0.000 G0
ENDBRANCH   6   7
ENDBRANCH   5   6
ENDBRANCH   3   5
ENDBRANCH   1   3
BRANCH   1  11
ATOM     11  C   UNL     1     -18.809  35.061  13.645  1.00  0.00     0.087 C 
BRANCH  11  12
ATOM     12  C   UNL     1     -19.126  36.528  14.078  1.00  0.00     0.066 C 
BRANCH  12  13
ATOM     13  C   UNL     1     -18.156  37.068  15.123  1.00  0.00     0.140 C 
ATOM     14  O   UNL     1     -18.579  37.466  16.198  1.00  0.00    -0.299 OA
BRANCH  13  15
ATOM     15  C   UNL     1     -16.678  37.196  14.850  1.00  0.00     0.106 CG0
ATOM     16  G   UNL     1     -16.306  38.501  14.169  1.00  0.00     0.000 G0
ENDBRANCH  13  15
ENDBRANCH  12  13
BRANCH  12  17
ATOM     17  C   UNL     1     -20.617  36.795  14.472  1.00  0.00    -0.006 C 
ATOM     18  C   UNL     1     -21.538  36.777  13.239  1.00  0.00     0.008 C 
ATOM     19  C   UNL     1     -21.172  35.850  15.550  1.00  0.00     0.008 C 
ENDBRANCH  12  17
ENDBRANCH  11  12
ENDBRANCH   1  11
TORSDOF 1
ENDMDL
MODEL 3
REMARK VINA RESULT:    -4.876      2.126      5.242
REMARK INTER + INTRA:          -7.192
REMARK INTER:                  -8.109
REMARK INTRA:                   0.917
REMARK UNBOUND:                 0.249
REMARK SMILES CC1=CCC[C@H](C)C(=O)C[C@@H](C(C)C)C(=O)C1
REMARK SMILES IDX 8 1 9 2 6 3 7 4 5 5 4 6 3 7 2 8 1 9 10 11 11 12 15 13 16 14
REMARK SMILES IDX 17 15 12 17 13 18 14 19
REMARK H PARENT
REMARK Flexibility Score: 70.00
ROOT
ATOM      1  C   UNL     1     -15.336  37.579  12.621  1.00  0.00     0.136 C 
ATOM      2  O   UNL     1     -14.259  37.003  12.638  1.00  0.00    -0.299 OA
ENDROOT
BRANCH   1   3
ATOM      3  C   UNL     1     -15.501  38.800  13.512  1.00  0.00     0.053 C 
ATOM      4  C   UNL     1     -14.655  39.948  12.952  1.00  0.00     0.016 C 
BRANCH   3   5
ATOM      5  C   UNL     1     -16.959  39.270  13.732  1.00  0.00     0.015 C 
BRANCH   5   6
ATOM      6  C   UNL     1     -17.498  39.011  15.157  1.00  0.00     0.028 C 
BRANCH   6   7
ATOM      7  C   UNL     1     -18.815  38.272  15.102  1.00  0.00    -0.028 C 
ATOM      8  C   UNL     1     -18.967  36.938  14.937  1.00  0.00    -0.070 CG0
ATOM      9  C   UNL     1     -20.370  36.389  14.870  1.00  0.00     0.039 C 
ATOM     10  G   UNL     1     -17.797  35.976  14.842  1.00  0.00     0.000 G0
ENDBRANCH   6   7
ENDBRANCH   5   6
ENDBRANCH   3   5
ENDBRANCH   1   3
BRANCH   1  11
ATOM     11  C   UNL     1     -16.387  37.129  11.621  1.00  0.00     0.087 C 
BRANCH  11  12
ATOM     12  C   UNL     1     -17.702  36.561  12.244  1.00  0.00     0.066 C 
BRANCH  12  13
ATOM     13  C   UNL     1     -17.452  35.608  13.408  1.00  0.00     0.140 C 
ATOM     14  O   UNL     1     -17.001  34.493  13.195  1.00  0.00    -0.299 OA
BRANCH  13  15
ATOM     15  C   UNL     1     -17.810  35.972  14.828  1.00  0.00     0.106 CG0
ATOM     16  G   UNL     1     -18.971  36.944  14.922  1.00  0.00     0.000 G0
ENDBRANCH  13  15
ENDBRANCH  12  13
BRANCH  12  17
ATOM     17  C   UNL     1     -18.722  35.970  11.214  1.00  0.00    -0.006 C 
ATOM     18  C   UNL     1     -18.953  36.930  10.034  1.00  0.00     0.008 C 
ATOM     19  C   UNL     1     -18.356  34.573  10.684  1.00  0.00     0.008 C 
ENDBRANCH  12  17
ENDBRANCH  11  12
ENDBRANCH   1  11
TORSDOF 1
ENDMDL
MODEL 4
REMARK VINA RESULT:    -4.839      1.889      5.035
REMARK INTER + INTRA:          -7.136
REMARK INTER:                  -7.483
REMARK INTRA:                   0.347
REMARK UNBOUND:                 0.249
REMARK SMILES CC1=CCC[C@H](C)C(=O)C[C@@H](C(C)C)C(=O)C1
REMARK SMILES IDX 8 1 9 2 6 3 7 4 5 5 4 6 3 7 2 8 1 9 10 11 11 12 15 13 16 14
REMARK SMILES IDX 17 15 12 17 13 18 14 19
REMARK H PARENT
REMARK Flexibility Score: 70.00
ROOT
ATOM      1  C   UNL     1     -15.573  36.920  12.785  1.00  0.00     0.136 C 
ATOM      2  O   UNL     1     -15.155  36.483  11.724  1.00  0.00    -0.299 OA
ENDROOT
BRANCH   1   3
ATOM      3  C   UNL     1     -15.098  38.299  13.219  1.00  0.00     0.053 C 
ATOM      4  C   UNL     1     -14.019  38.787  12.248  1.00  0.00     0.016 C 
BRANCH   3   5
ATOM      5  C   UNL     1     -16.208  39.368  13.364  1.00  0.00     0.015 C 
BRANCH   5   6
ATOM      6  C   UNL     1     -16.287  40.010  14.767  1.00  0.00     0.028 C 
BRANCH   6   7
ATOM      7  C   UNL     1     -16.692  38.984  15.800  1.00  0.00    -0.028 C 
ATOM      8  C   UNL     1     -17.812  38.227  15.764  1.00  0.00    -0.070 CG0
ATOM      9  C   UNL     1     -18.063  37.281  16.913  1.00  0.00     0.039 C 
ATOM     10  G   UNL     1     -18.806  38.270  14.619  1.00  0.00     0.000 G0
ENDBRANCH   6   7
ENDBRANCH   5   6
ENDBRANCH   3   5
ENDBRANCH   1   3
BRANCH   1  11
ATOM     11  C   UNL     1     -16.634  36.131  13.531  1.00  0.00     0.087 C 
BRANCH  11  12
ATOM     12  C   UNL     1     -18.090  36.288  12.989  1.00  0.00     0.066 C 
BRANCH  12  13
ATOM     13  C   UNL     1     -19.049  36.891  14.010  1.00  0.00     0.140 C 
ATOM     14  O   UNL     1     -20.070  36.293  14.312  1.00  0.00    -0.299 OA
BRANCH  13  15
ATOM     15  C   UNL     1     -18.814  38.250  14.620  1.00  0.00     0.106 CG0
ATOM     16  G   UNL     1     -17.809  38.230  15.757  1.00  0.00     0.000 G0
ENDBRANCH  13  15
ENDBRANCH  12  13
BRANCH  12  17
ATOM     17  C   UNL     1     -18.686  35.011  12.310  1.00  0.00    -0.006 C 
ATOM     18  C   UNL     1     -18.833  35.195  10.789  1.00  0.00     0.008 C 
ATOM     19  C   UNL     1     -17.916  33.713  12.604  1.00  0.00     0.008 C 
ENDBRANCH  12  17
ENDBRANCH  11  12
ENDBRANCH   1  11
TORSDOF 1
ENDMDL
MODEL 5
REMARK VINA RESULT:    -4.659      1.668      3.840
REMARK INTER + INTRA:          -6.862
REMARK INTER:                  -7.303
REMARK INTRA:                   0.441
REMARK UNBOUND:                 0.249
REMARK SMILES CC1=CCC[C@H](C)C(=O)C[C@@H](C(C)C)C(=O)C1
REMARK SMILES IDX 8 1 9 2 6 3 7 4 5 5 4 6 3 7 2 8 1 9 10 11 11 12 15 13 16 14
REMARK SMILES IDX 17 15 12 17 13 18 14 19
REMARK H PARENT
REMARK Flexibility Score: 70.00
ROOT
ATOM      1  C   UNL     1     -18.003  37.625  16.100  1.00  0.00     0.136 C 
ATOM      2  O   UNL     1     -18.451  37.298  17.188  1.00  0.00    -0.299 OA
ENDROOT
BRANCH   1   3
ATOM      3  C   UNL     1     -17.763  39.106  15.849  1.00  0.00     0.053 C 
ATOM      4  C   UNL     1     -17.897  39.868  17.171  1.00  0.00     0.016 C 
BRANCH   3   5
ATOM      5  C   UNL     1     -16.418  39.454  15.167  1.00  0.00     0.015 C 
BRANCH   5   6
ATOM      6  C   UNL     1     -16.520  39.658  13.638  1.00  0.00     0.028 C 
BRANCH   6   7
ATOM      7  C   UNL     1     -15.757  38.580  12.905  1.00  0.00    -0.028 C 
ATOM      8  C   UNL     1     -16.304  37.543  12.231  1.00  0.00    -0.070 CG0
ATOM      9  C   UNL     1     -15.372  36.543  11.593  1.00  0.00     0.039 C 
ATOM     10  G   UNL     1     -17.802  37.357  12.071  1.00  0.00     0.000 G0
ENDBRANCH   6   7
ENDBRANCH   5   6
ENDBRANCH   3   5
ENDBRANCH   1   3
BRANCH   1  11
ATOM     11  C   UNL     1     -17.589  36.537  15.125  1.00  0.00     0.087 C 
BRANCH  11  12
ATOM     12  C   UNL     1     -18.719  36.023  14.177  1.00  0.00     0.066 C 
BRANCH  12  13
ATOM     13  C   UNL     1     -18.337  36.081  12.702  1.00  0.00     0.140 C 
ATOM     14  O   UNL     1     -18.393  35.071  12.019  1.00  0.00    -0.299 OA
BRANCH  13  15
ATOM     15  C   UNL     1     -17.817  37.344  12.061  1.00  0.00     0.106 CG0
ATOM     16  G   UNL     1     -16.321  37.530  12.234  1.00  0.00     0.000 G0
ENDBRANCH  13  15
ENDBRANCH  12  13
BRANCH  12  17
ATOM     17  C   UNL     1     -20.134  36.638  14.438  1.00  0.00    -0.006 C 
ATOM     18  C   UNL     1     -20.948  36.754  13.137  1.00  0.00     0.008 C 
ATOM     19  C   UNL     1     -20.962  35.904  15.505  1.00  0.00     0.008 C 
ENDBRANCH  12  17
ENDBRANCH  11  12
ENDBRANCH   1  11
TORSDOF 1
ENDMDL
MODEL 6
REMARK VINA RESULT:    -4.588     16.819     19.263
REMARK INTER + INTRA:          -6.753
REMARK INTER:                  -7.094
REMARK INTRA:                   0.342
REMARK UNBOUND:                 0.249
REMARK SMILES CC1=CCC[C@H](C)C(=O)C[C@@H](C(C)C)C(=O)C1
REMARK SMILES IDX 8 1 9 2 6 3 7 4 5 5 4 6 3 7 2 8 1 9 10 11 11 12 15 13 16 14
REMARK SMILES IDX 17 15 12 17 13 18 14 19
REMARK H PARENT
REMARK Flexibility Score: 70.00
ROOT
ATOM      1  C   UNL     1     -26.845  22.711  14.608  1.00  0.00     0.136 C 
ATOM      2  O   UNL     1     -26.109  23.470  15.218  1.00  0.00    -0.299 OA
ENDROOT
BRANCH   1   3
ATOM      3  C   UNL     1     -27.486  21.570  15.383  1.00  0.00     0.053 C 
ATOM      4  C   UNL     1     -28.100  22.122  16.673  1.00  0.00     0.016 C 
BRANCH   3   5
ATOM      5  C   UNL     1     -28.539  20.746  14.601  1.00  0.00     0.015 C 
BRANCH   5   6
ATOM      6  C   UNL     1     -29.991  20.956  15.087  1.00  0.00     0.028 C 
BRANCH   6   7
ATOM      7  C   UNL     1     -30.972  20.661  13.976  1.00  0.00    -0.028 C 
ATOM      8  C   UNL     1     -31.419  21.549  13.060  1.00  0.00    -0.070 CG0
ATOM      9  C   UNL     1     -32.431  21.072  12.048  1.00  0.00     0.039 C 
ATOM     10  G   UNL     1     -30.935  22.986  12.992  1.00  0.00     0.000 G0
ENDBRANCH   6   7
ENDBRANCH   5   6
ENDBRANCH   3   5
ENDBRANCH   1   3
BRANCH   1  11
ATOM     11  C   UNL     1     -27.179  23.026  13.160  1.00  0.00     0.087 C 
BRANCH  11  12
ATOM     12  C   UNL     1     -28.449  23.909  12.944  1.00  0.00     0.066 C 
BRANCH  12  13
ATOM     13  C   UNL     1     -29.600  23.154  12.288  1.00  0.00     0.140 C 
ATOM     14  O   UNL     1     -29.470  22.709  11.159  1.00  0.00    -0.299 OA
BRANCH  13  15
ATOM     15  C   UNL     1     -30.938  22.993  12.966  1.00  0.00     0.106 CG0
ATOM     16  G   UNL     1     -31.395  21.549  13.052  1.00  0.00     0.000 G0
ENDBRANCH  13  15
ENDBRANCH  12  13
BRANCH  12  17
ATOM     17  C   UNL     1     -28.188  25.289  12.255  1.00  0.00    -0.006 C 
ATOM     18  C   UNL     1     -27.611  25.114  10.840  1.00  0.00     0.008 C 
ATOM     19  C   UNL     1     -29.412  26.220  12.205  1.00  0.00     0.008 C 
ENDBRANCH  12  17
ENDBRANCH  11  12
ENDBRANCH   1  11
TORSDOF 1
ENDMDL
MODEL 7
REMARK VINA RESULT:    -4.481      1.544      3.986
REMARK INTER + INTRA:          -6.590
REMARK INTER:                  -7.331
REMARK INTRA:                   0.741
REMARK UNBOUND:                 0.249
REMARK SMILES CC1=CCC[C@H](C)C(=O)C[C@@H](C(C)C)C(=O)C1
REMARK SMILES IDX 8 1 9 2 6 3 7 4 5 5 4 6 3 7 2 8 1 9 10 11 11 12 15 13 16 14
REMARK SMILES IDX 17 15 12 17 13 18 14 19
REMARK H PARENT
REMARK Flexibility Score: 70.00
ROOT
ATOM      1  C   UNL     1     -19.937  36.727  14.769  1.00  0.00     0.136 C 
ATOM      2  O   UNL     1     -20.693  36.001  15.395  1.00  0.00    -0.299 OA
ENDROOT
BRANCH   1   3
ATOM      3  C   UNL     1     -19.212  37.824  15.534  1.00  0.00     0.053 C 
ATOM      4  C   UNL     1     -18.532  37.213  16.762  1.00  0.00     0.016 C 
BRANCH   3   5
ATOM      5  C   UNL     1     -18.189  38.643  14.709  1.00  0.00     0.015 C 
BRANCH   5   6
ATOM      6  C   UNL     1     -16.736  38.541  15.226  1.00  0.00     0.028 C 
BRANCH   6   7
ATOM      7  C   UNL     1     -15.755  38.859  14.122  1.00  0.00    -0.028 C 
ATOM      8  C   UNL     1     -15.354  38.006  13.152  1.00  0.00    -0.070 CG0
ATOM      9  C   UNL     1     -14.333  38.497  12.156  1.00  0.00     0.039 C 
ATOM     10  G   UNL     1     -15.899  36.597  13.009  1.00  0.00     0.000 G0
ENDBRANCH   6   7
ENDBRANCH   5   6
ENDBRANCH   3   5
ENDBRANCH   1   3
BRANCH   1  11
ATOM     11  C   UNL     1     -19.665  36.410  13.309  1.00  0.00     0.087 C 
BRANCH  11  12
ATOM     12  C   UNL     1     -18.344  35.624  13.030  1.00  0.00     0.066 C 
BRANCH  12  13
ATOM     13  C   UNL     1     -17.252  36.488  12.409  1.00  0.00     0.140 C 
ATOM     14  O   UNL     1     -17.469  37.086  11.366  1.00  0.00    -0.299 OA
BRANCH  13  15
ATOM     15  C   UNL     1     -15.870  36.580  13.006  1.00  0.00     0.106 CG0
ATOM     16  G   UNL     1     -15.369  38.006  13.139  1.00  0.00     0.000 G0
ENDBRANCH  13  15
ENDBRANCH  12  13
BRANCH  12  17
ATOM     17  C   UNL     1     -18.526  34.272  12.264  1.00  0.00    -0.006 C 
ATOM     18  C   UNL     1     -18.814  34.503  10.771  1.00  0.00     0.008 C 
ATOM     19  C   UNL     1     -17.355  33.287  12.421  1.00  0.00     0.008 C 
ENDBRANCH  12  17
ENDBRANCH  11  12
ENDBRANCH   1  11
TORSDOF 1
ENDMDL
MODEL 8
REMARK VINA RESULT:    -4.441     16.836     18.912
REMARK INTER + INTRA:          -6.529
REMARK INTER:                  -6.863
REMARK INTRA:                   0.334
REMARK UNBOUND:                 0.249
REMARK SMILES CC1=CCC[C@H](C)C(=O)C[C@@H](C(C)C)C(=O)C1
REMARK SMILES IDX 8 1 9 2 6 3 7 4 5 5 4 6 3 7 2 8 1 9 10 11 11 12 15 13 16 14
REMARK SMILES IDX 17 15 12 17 13 18 14 19
REMARK H PARENT
REMARK Flexibility Score: 70.00
ROOT
ATOM      1  C   UNL     1     -28.934  24.773  12.568  1.00  0.00     0.136 C 
ATOM      2  O   UNL     1     -29.752  25.662  12.744  1.00  0.00    -0.299 OA
ENDROOT
BRANCH   1   3
ATOM      3  C   UNL     1     -28.913  24.088  11.210  1.00  0.00     0.053 C 
ATOM      4  C   UNL     1     -27.499  24.174  10.626  1.00  0.00     0.016 C 
BRANCH   3   5
ATOM      5  C   UNL     1     -29.407  22.620  11.199  1.00  0.00     0.015 C 
BRANCH   5   6
ATOM      6  C   UNL     1     -30.862  22.441  11.686  1.00  0.00     0.028 C 
BRANCH   6   7
ATOM      7  C   UNL     1     -30.975  21.236  12.593  1.00  0.00    -0.028 C 
ATOM      8  C   UNL     1     -30.593  21.185  13.889  1.00  0.00    -0.070 CG0
ATOM      9  C   UNL     1     -30.750  19.875  14.620  1.00  0.00     0.039 C 
ATOM     10  G   UNL     1     -30.040  22.383  14.639  1.00  0.00     0.000 G0
ENDBRANCH   6   7
ENDBRANCH   5   6
ENDBRANCH   3   5
ENDBRANCH   1   3
BRANCH   1  11
ATOM     11  C   UNL     1     -27.909  24.500  13.654  1.00  0.00     0.087 C 
BRANCH  11  12
ATOM     12  C   UNL     1     -27.559  22.994  13.881  1.00  0.00     0.066 C 
BRANCH  12  13
ATOM     13  C   UNL     1     -28.529  22.289  14.823  1.00  0.00     0.140 C 
ATOM     14  O   UNL     1     -28.100  21.582  15.721  1.00  0.00    -0.299 OA
BRANCH  13  15
ATOM     15  C   UNL     1     -30.024  22.377  14.641  1.00  0.00     0.106 CG0
ATOM     16  G   UNL     1     -30.605  21.198  13.883  1.00  0.00     0.000 G0
ENDBRANCH  13  15
ENDBRANCH  12  13
BRANCH  12  17
ATOM     17  C   UNL     1     -26.068  22.710  14.259  1.00  0.00    -0.006 C 
ATOM     18  C   UNL     1     -25.135  22.892  13.049  1.00  0.00     0.008 C 
ATOM     19  C   UNL     1     -25.543  23.530  15.449  1.00  0.00     0.008 C 
ENDBRANCH  12  17
ENDBRANCH  11  12
ENDBRANCH   1  11
TORSDOF 1
ENDMDL
MODEL 9
REMARK VINA RESULT:    -4.370      1.562      2.611
REMARK INTER + INTRA:          -6.421
REMARK INTER:                  -6.951
REMARK INTRA:                   0.530
REMARK UNBOUND:                 0.249
REMARK SMILES CC1=CCC[C@H](C)C(=O)C[C@@H](C(C)C)C(=O)C1
REMARK SMILES IDX 8 1 9 2 6 3 7 4 5 5 4 6 3 7 2 8 1 9 10 11 11 12 15 13 16 14
REMARK SMILES IDX 17 15 12 17 13 18 14 19
REMARK H PARENT
REMARK Flexibility Score: 70.00
ROOT
ATOM      1  C   UNL     1     -18.884  37.080  15.021  1.00  0.00     0.136 C 
ATOM      2  O   UNL     1     -18.351  36.645  16.030  1.00  0.00    -0.299 OA
ENDROOT
BRANCH   1   3
ATOM      3  C   UNL     1     -19.969  36.234  14.372  1.00  0.00     0.053 C 
ATOM      4  C   UNL     1     -21.091  35.993  15.387  1.00  0.00     0.016 C 
BRANCH   3   5
ATOM      5  C   UNL     1     -20.554  36.800  13.055  1.00  0.00     0.015 C 
BRANCH   5   6
ATOM      6  C   UNL     1     -19.954  36.172  11.777  1.00  0.00     0.028 C 
BRANCH   6   7
ATOM      7  C   UNL     1     -19.006  35.049  12.130  1.00  0.00    -0.028 C 
ATOM      8  C   UNL     1     -17.660  35.146  12.203  1.00  0.00    -0.070 CG0
ATOM      9  C   UNL     1     -16.879  33.899  12.535  1.00  0.00     0.039 C 
ATOM     10  G   UNL     1     -16.908  36.447  11.991  1.00  0.00     0.000 G0
ENDBRANCH   6   7
ENDBRANCH   5   6
ENDBRANCH   3   5
ENDBRANCH   1   3
BRANCH   1  11
ATOM     11  C   UNL     1     -18.533  38.483  14.558  1.00  0.00     0.087 C 
BRANCH  11  12
ATOM     12  C   UNL     1     -17.358  38.575  13.534  1.00  0.00     0.066 C 
BRANCH  12  13
ATOM     13  C   UNL     1     -16.680  37.234  13.276  1.00  0.00     0.140 C 
ATOM     14  O   UNL     1     -15.889  36.786  14.091  1.00  0.00    -0.299 OA
BRANCH  13  15
ATOM     15  C   UNL     1     -16.902  36.459  12.001  1.00  0.00     0.106 CG0
ATOM     16  G   UNL     1     -17.652  35.157  12.214  1.00  0.00     0.000 G0
ENDBRANCH  13  15
ENDBRANCH  12  13
BRANCH  12  17
ATOM     17  C   UNL     1     -16.318  39.710  13.817  1.00  0.00    -0.006 C 
ATOM     18  C   UNL     1     -16.016  39.835  15.321  1.00  0.00     0.008 C 
ATOM     19  C   UNL     1     -15.002  39.581  13.032  1.00  0.00     0.008 C 
ENDBRANCH  12  17
ENDBRANCH  11  12
ENDBRANCH   1  11
TORSDOF 1
ENDMDL
