MODEL 1
REMARK VINA RESULT:    -4.857      0.000      0.000
REMARK INTER + INTRA:          -4.999
REMARK INTER:                  -4.999
REMARK INTRA:                   0.000
REMARK UNBOUND:                 0.000
REMARK SMILES Nc1ncnc2nc[nH]c12
REMARK SMILES IDX 8 1 7 2 6 3 5 4 4 5 3 6 2 7 10 8 9 9 1 11
REMARK H PARENT 9 10 1 12 1 13
REMARK Flexibility Score: inf
ROOT
ATOM      1  C   UNL     1     -15.673 -31.459 -13.049  1.00  0.00     0.199 A 
ATOM      2  N   UNL     1     -15.623 -30.759 -11.883  1.00  0.00    -0.217 NA
ATOM      3  C   UNL     1     -15.119 -29.578 -12.279  1.00  0.00     0.182 A 
ATOM      4  N   UNL     1     -14.863 -28.504 -11.494  1.00  0.00    -0.215 NA
ATOM      5  C   UNL     1     -14.347 -27.383 -12.082  1.00  0.00     0.226 A 
ATOM      6  N   UNL     1     -14.097 -27.357 -13.432  1.00  0.00    -0.217 NA
ATOM      7  C   UNL     1     -14.354 -28.440 -14.224  1.00  0.00     0.152 A 
ATOM      8  C   UNL     1     -14.880 -29.574 -13.610  1.00  0.00     0.127 A 
ATOM      9  N   UNL     1     -15.225 -30.761 -14.124  1.00  0.00    -0.340 N 
ATOM     10  H   UNL     1     -15.167 -31.086 -15.114  1.00  0.00     0.168 HD
ENDROOT
BRANCH   7  11
ATOM     11  N   UNL     1     -14.085 -28.390 -15.627  1.00  0.00    -0.382 N 
ATOM     12  H   UNL     1     -13.834 -29.263 -16.141  1.00  0.00     0.158 HD
ATOM     13  H   UNL     1     -14.135 -27.493 -16.158  1.00  0.00     0.158 HD
ENDBRANCH   7  11
TORSDOF 1
ENDMDL
MODEL 2
REMARK VINA RESULT:    -4.734      1.255      3.084
REMARK INTER + INTRA:          -4.872
REMARK INTER:                  -4.872
REMARK INTRA:                   0.000
REMARK UNBOUND:                 0.000
REMARK SMILES Nc1ncnc2nc[nH]c12
REMARK SMILES IDX 8 1 7 2 6 3 5 4 4 5 3 6 2 7 10 8 9 9 1 11
REMARK H PARENT 9 10 1 12 1 13
REMARK Flexibility Score: inf
ROOT
ATOM      1  C   UNL     1     -15.015 -27.476 -13.766  1.00  0.00     0.199 A 
ATOM      2  N   UNL     1     -14.660 -27.386 -12.456  1.00  0.00    -0.217 NA
ATOM      3  C   UNL     1     -14.833 -28.647 -12.024  1.00  0.00     0.182 A 
ATOM      4  N   UNL     1     -14.618 -29.109 -10.770  1.00  0.00    -0.215 NA
ATOM      5  C   UNL     1     -14.852 -30.433 -10.521  1.00  0.00     0.226 A 
ATOM      6  N   UNL     1     -15.295 -31.262 -11.521  1.00  0.00    -0.217 NA
ATOM      7  C   UNL     1     -15.513 -30.797 -12.786  1.00  0.00     0.152 A 
ATOM      8  C   UNL     1     -15.270 -29.447 -13.025  1.00  0.00     0.127 A 
ATOM      9  N   UNL     1     -15.393 -28.724 -14.145  1.00  0.00    -0.340 N 
ATOM     10  H   UNL     1     -15.705 -29.035 -15.091  1.00  0.00     0.168 HD
ENDROOT
BRANCH   7  11
ATOM     11  N   UNL     1     -15.974 -31.679 -13.812  1.00  0.00    -0.382 N 
ATOM     12  H   UNL     1     -16.400 -31.290 -14.682  1.00  0.00     0.158 HD
ATOM     13  H   UNL     1     -15.895 -32.715 -13.713  1.00  0.00     0.158 HD
ENDBRANCH   7  11
TORSDOF 1
ENDMDL
MODEL 3
REMARK VINA RESULT:    -4.588      1.412      2.712
REMARK INTER + INTRA:          -4.722
REMARK INTER:                  -4.722
REMARK INTRA:                   0.000
REMARK UNBOUND:                 0.000
REMARK SMILES Nc1ncnc2nc[nH]c12
REMARK SMILES IDX 8 1 7 2 6 3 5 4 4 5 3 6 2 7 10 8 9 9 1 11
REMARK H PARENT 9 10 1 12 1 13
REMARK Flexibility Score: inf
ROOT
ATOM      1  C   UNL     1     -14.365 -28.974  -9.915  1.00  0.00     0.199 A 
ATOM      2  N   UNL     1     -14.162 -27.680 -10.282  1.00  0.00    -0.217 NA
ATOM      3  C   UNL     1     -14.499 -27.694 -11.583  1.00  0.00     0.182 A 
ATOM      4  N   UNL     1     -14.475 -26.642 -12.436  1.00  0.00    -0.215 NA
ATOM      5  C   UNL     1     -14.857 -26.853 -13.732  1.00  0.00     0.226 A 
ATOM      6  N   UNL     1     -15.250 -28.101 -14.148  1.00  0.00    -0.217 NA
ATOM      7  C   UNL     1     -15.274 -29.163 -13.288  1.00  0.00     0.152 A 
ATOM      8  C   UNL     1     -14.883 -28.932 -11.972  1.00  0.00     0.127 A 
ATOM      9  N   UNL     1     -14.807 -29.765 -10.927  1.00  0.00    -0.340 N 
ATOM     10  H   UNL     1     -15.030 -30.784 -10.886  1.00  0.00     0.168 HD
ENDROOT
BRANCH   7  11
ATOM     11  N   UNL     1     -15.687 -30.453 -13.743  1.00  0.00    -0.382 N 
ATOM     12  H   UNL     1     -16.177 -31.104 -13.091  1.00  0.00     0.158 HD
ATOM     13  H   UNL     1     -15.509 -30.766 -14.723  1.00  0.00     0.158 HD
ENDBRANCH   7  11
TORSDOF 1
ENDMDL
MODEL 4
REMARK VINA RESULT:    -4.586      1.405      1.690
REMARK INTER + INTRA:          -4.720
REMARK INTER:                  -4.720
REMARK INTRA:                   0.000
REMARK UNBOUND:                 0.000
REMARK SMILES Nc1ncnc2nc[nH]c12
REMARK SMILES IDX 8 1 7 2 6 3 5 4 4 5 3 6 2 7 10 8 9 9 1 11
REMARK H PARENT 9 10 1 12 1 13
REMARK Flexibility Score: inf
ROOT
ATOM      1  C   UNL     1     -15.652 -32.205 -13.271  1.00  0.00     0.199 A 
ATOM      2  N   UNL     1     -15.228 -32.199 -11.978  1.00  0.00    -0.217 NA
ATOM      3  C   UNL     1     -15.066 -30.887 -11.737  1.00  0.00     0.182 A 
ATOM      4  N   UNL     1     -14.649 -30.323 -10.578  1.00  0.00    -0.215 NA
ATOM      5  C   UNL     1     -14.546 -28.960 -10.524  1.00  0.00     0.226 A 
ATOM      6  N   UNL     1     -14.855 -28.194 -11.620  1.00  0.00    -0.217 NA
ATOM      7  C   UNL     1     -15.275 -28.761 -12.789  1.00  0.00     0.152 A 
ATOM      8  C   UNL     1     -15.376 -30.150 -12.829  1.00  0.00     0.127 A 
ATOM      9  N   UNL     1     -15.753 -30.968 -13.820  1.00  0.00    -0.340 N 
ATOM     10  H   UNL     1     -16.054 -30.724 -14.789  1.00  0.00     0.168 HD
ENDROOT
BRANCH   7  11
ATOM     11  N   UNL     1     -15.591 -27.944 -13.918  1.00  0.00    -0.382 N 
ATOM     12  H   UNL     1     -16.350 -27.230 -13.848  1.00  0.00     0.158 HD
ATOM     13  H   UNL     1     -15.078 -28.042 -14.821  1.00  0.00     0.158 HD
ENDBRANCH   7  11
TORSDOF 1
ENDMDL
MODEL 5
REMARK VINA RESULT:    -4.446      1.655      3.845
REMARK INTER + INTRA:          -4.576
REMARK INTER:                  -4.576
REMARK INTRA:                   0.000
REMARK UNBOUND:                 0.000
REMARK SMILES Nc1ncnc2nc[nH]c12
REMARK SMILES IDX 8 1 7 2 6 3 5 4 4 5 3 6 2 7 10 8 9 9 1 11
REMARK H PARENT 9 10 1 12 1 13
REMARK Flexibility Score: inf
ROOT
ATOM      1  C   UNL     1     -14.783 -27.105 -13.532  1.00  0.00     0.199 A 
ATOM      2  N   UNL     1     -14.998 -28.437 -13.704  1.00  0.00    -0.217 NA
ATOM      3  C   UNL     1     -14.906 -28.907 -12.449  1.00  0.00     0.182 A 
ATOM      4  N   UNL     1     -15.042 -30.196 -12.055  1.00  0.00    -0.215 NA
ATOM      5  C   UNL     1     -14.914 -30.482 -10.724  1.00  0.00     0.226 A 
ATOM      6  N   UNL     1     -14.652 -29.483  -9.819  1.00  0.00    -0.217 NA
ATOM      7  C   UNL     1     -14.514 -28.183 -10.215  1.00  0.00     0.152 A 
ATOM      8  C   UNL     1     -14.648 -27.908 -11.574  1.00  0.00     0.127 A 
ATOM      9  N   UNL     1     -14.565 -26.750 -12.240  1.00  0.00    -0.340 N 
ATOM     10  H   UNL     1     -14.378 -25.793 -11.866  1.00  0.00     0.168 HD
ENDROOT
BRANCH   7  11
ATOM     11  N   UNL     1     -14.242 -27.160  -9.255  1.00  0.00    -0.382 N 
ATOM     12  H   UNL     1     -13.313 -26.685  -9.249  1.00  0.00     0.158 HD
ATOM     13  H   UNL     1     -14.957 -26.872  -8.551  1.00  0.00     0.158 HD
ENDBRANCH   7  11
TORSDOF 1
ENDMDL
MODEL 6
REMARK VINA RESULT:    -4.444      1.279      2.596
REMARK INTER + INTRA:          -4.574
REMARK INTER:                  -4.574
REMARK INTRA:                   0.000
REMARK UNBOUND:                 0.000
REMARK SMILES Nc1ncnc2nc[nH]c12
REMARK SMILES IDX 8 1 7 2 6 3 5 4 4 5 3 6 2 7 10 8 9 9 1 11
REMARK H PARENT 9 10 1 12 1 13
REMARK Flexibility Score: inf
ROOT
ATOM      1  C   UNL     1     -15.451 -30.938 -12.144  1.00  0.00     0.199 A 
ATOM      2  N   UNL     1     -15.710 -30.384 -13.360  1.00  0.00    -0.217 NA
ATOM      3  C   UNL     1     -15.344 -29.104 -13.176  1.00  0.00     0.182 A 
ATOM      4  N   UNL     1     -15.401 -28.107 -14.090  1.00  0.00    -0.215 NA
ATOM      5  C   UNL     1     -14.981 -26.861 -13.714  1.00  0.00     0.226 A 
ATOM      6  N   UNL     1     -14.517 -26.637 -12.442  1.00  0.00    -0.217 NA
ATOM      7  C   UNL     1     -14.460 -27.642 -11.518  1.00  0.00     0.152 A 
ATOM      8  C   UNL     1     -14.891 -28.905 -11.916  1.00  0.00     0.127 A 
ATOM      9  N   UNL     1     -14.949 -30.059 -11.240  1.00  0.00    -0.340 N 
ATOM     10  H   UNL     1     -14.676 -30.250 -10.250  1.00  0.00     0.168 HD
ENDROOT
BRANCH   7  11
ATOM     11  N   UNL     1     -13.973 -27.385 -10.199  1.00  0.00    -0.382 N 
ATOM     12  H   UNL     1     -13.960 -28.151  -9.490  1.00  0.00     0.158 HD
ATOM     13  H   UNL     1     -13.627 -26.441  -9.922  1.00  0.00     0.158 HD
ENDBRANCH   7  11
TORSDOF 1
ENDMDL
MODEL 7
REMARK VINA RESULT:    -4.429      1.386      3.830
REMARK INTER + INTRA:          -4.558
REMARK INTER:                  -4.558
REMARK INTRA:                   0.000
REMARK UNBOUND:                 0.000
REMARK SMILES Nc1ncnc2nc[nH]c12
REMARK SMILES IDX 8 1 7 2 6 3 5 4 4 5 3 6 2 7 10 8 9 9 1 11
REMARK H PARENT 9 10 1 12 1 13
REMARK Flexibility Score: inf
ROOT
ATOM      1  C   UNL     1     -14.524 -26.669 -12.832  1.00  0.00     0.199 A 
ATOM      2  N   UNL     1     -15.331 -27.328 -13.707  1.00  0.00    -0.217 NA
ATOM      3  C   UNL     1     -15.434 -28.543 -13.141  1.00  0.00     0.182 A 
ATOM      4  N   UNL     1     -16.137 -29.599 -13.616  1.00  0.00    -0.215 NA
ATOM      5  C   UNL     1     -16.121 -30.761 -12.895  1.00  0.00     0.226 A 
ATOM      6  N   UNL     1     -15.408 -30.846 -11.725  1.00  0.00    -0.217 NA
ATOM      7  C   UNL     1     -14.699 -29.781 -11.245  1.00  0.00     0.152 A 
ATOM      8  C   UNL     1     -14.725 -28.605 -11.990  1.00  0.00     0.127 A 
ATOM      9  N   UNL     1     -14.136 -27.422 -11.772  1.00  0.00    -0.340 N 
ATOM     10  H   UNL     1     -13.522 -27.135 -10.978  1.00  0.00     0.168 HD
ENDROOT
BRANCH   7  11
ATOM     11  N   UNL     1     -13.964 -29.892 -10.025  1.00  0.00    -0.382 N 
ATOM     12  H   UNL     1     -12.931 -29.742 -10.022  1.00  0.00     0.158 HD
ATOM     13  H   UNL     1     -14.439 -30.122  -9.124  1.00  0.00     0.158 HD
ENDBRANCH   7  11
TORSDOF 1
ENDMDL
MODEL 8
REMARK VINA RESULT:    -4.387      1.508      3.313
REMARK INTER + INTRA:          -4.515
REMARK INTER:                  -4.515
REMARK INTRA:                   0.000
REMARK UNBOUND:                 0.000
REMARK SMILES Nc1ncnc2nc[nH]c12
REMARK SMILES IDX 8 1 7 2 6 3 5 4 4 5 3 6 2 7 10 8 9 9 1 11
REMARK H PARENT 9 10 1 12 1 13
REMARK Flexibility Score: inf
ROOT
ATOM      1  C   UNL     1     -14.297 -27.381 -10.220  1.00  0.00     0.199 A 
ATOM      2  N   UNL     1     -14.396 -28.561  -9.550  1.00  0.00    -0.217 NA
ATOM      3  C   UNL     1     -14.752 -29.414 -10.526  1.00  0.00     0.182 A 
ATOM      4  N   UNL     1     -14.985 -30.742 -10.393  1.00  0.00    -0.215 NA
ATOM      5  C   UNL     1     -15.340 -31.449 -11.509  1.00  0.00     0.226 A 
ATOM      6  N   UNL     1     -15.456 -30.822 -12.724  1.00  0.00    -0.217 NA
ATOM      7  C   UNL     1     -15.221 -29.483 -12.859  1.00  0.00     0.152 A 
ATOM      8  C   UNL     1     -14.860 -28.776 -11.714  1.00  0.00     0.127 A 
ATOM      9  N   UNL     1     -14.575 -27.479 -11.545  1.00  0.00    -0.340 N 
ATOM     10  H   UNL     1     -14.565 -26.715 -12.255  1.00  0.00     0.168 HD
ENDROOT
BRANCH   7  11
ATOM     11  N   UNL     1     -15.347 -28.851 -14.134  1.00  0.00    -0.382 N 
ATOM     12  H   UNL     1     -15.107 -29.377 -15.003  1.00  0.00     0.158 HD
ATOM     13  H   UNL     1     -15.678 -27.865 -14.221  1.00  0.00     0.158 HD
ENDBRANCH   7  11
TORSDOF 1
ENDMDL
MODEL 9
REMARK VINA RESULT:    -4.292      7.782      8.849
REMARK INTER + INTRA:          -4.417
REMARK INTER:                  -4.417
REMARK INTRA:                   0.000
REMARK UNBOUND:                 0.000
REMARK SMILES Nc1ncnc2nc[nH]c12
REMARK SMILES IDX 8 1 7 2 6 3 5 4 4 5 3 6 2 7 10 8 9 9 1 11
REMARK H PARENT 9 10 1 12 1 13
REMARK Flexibility Score: inf
ROOT
ATOM      1  C   UNL     1     -11.149 -31.623  -8.935  1.00  0.00     0.199 A 
ATOM      2  N   UNL     1     -10.843 -31.050  -7.739  1.00  0.00    -0.217 NA
ATOM      3  C   UNL     1     -10.462 -32.108  -7.004  1.00  0.00     0.182 A 
ATOM      4  N   UNL     1     -10.051 -32.090  -5.713  1.00  0.00    -0.215 NA
ATOM      5  C   UNL     1      -9.701 -33.277  -5.131  1.00  0.00     0.226 A 
ATOM      6  N   UNL     1      -9.770 -34.449  -5.842  1.00  0.00    -0.217 NA
ATOM      7  C   UNL     1     -10.184 -34.468  -7.144  1.00  0.00     0.152 A 
ATOM      8  C   UNL     1     -10.537 -33.252  -7.723  1.00  0.00     0.127 A 
ATOM      9  N   UNL     1     -10.972 -32.968  -8.957  1.00  0.00    -0.340 N 
ATOM     10  H   UNL     1     -11.139 -33.619  -9.756  1.00  0.00     0.168 HD
ENDROOT
BRANCH   7  11
ATOM     11  N   UNL     1     -10.248 -35.700  -7.865  1.00  0.00    -0.382 N 
ATOM     12  H   UNL     1     -10.559 -36.572  -7.382  1.00  0.00     0.158 HD
ATOM     13  H   UNL     1      -9.987 -35.753  -8.874  1.00  0.00     0.158 HD
ENDBRANCH   7  11
TORSDOF 1
ENDMDL
