MODEL 1
REMARK VINA RESULT:    -3.768      0.000      0.000
REMARK INTER + INTRA:          -5.433
REMARK INTER:                  -4.980
REMARK INTRA:                  -0.453
REMARK UNBOUND:                -0.453
REMARK SMILES C=C[C@H](O)CCCCC
REMARK SMILES IDX 6 1 7 2 8 3 9 4 5 5 3 6 2 7 1 8 4 9
REMARK H PARENT 4 10
REMARK Flexibility Score: inf
ROOT
ATOM      1  C   UNL     1     119.620 132.103 128.290  1.00  0.00     0.003 C 
ENDROOT
BRANCH   1   2
ATOM      2  C   UNL     1     118.988 133.503 128.268  1.00  0.00    -0.000 C 
BRANCH   2   3
ATOM      3  C   UNL     1     119.311 134.276 126.979  1.00  0.00    -0.003 C 
ATOM      4  C   UNL     1     118.157 134.268 125.978  1.00  0.00     0.004 C 
ENDBRANCH   2   3
ENDBRANCH   1   2
BRANCH   1   5
ATOM      5  C   UNL     1     120.832 132.064 129.231  1.00  0.00     0.036 C 
BRANCH   5   6
ATOM      6  C   UNL     1     122.147 131.834 128.457  1.00  0.00     0.136 C 
BRANCH   6   7
ATOM      7  C   UNL     1     122.933 133.118 128.323  1.00  0.00    -0.004 C 
ATOM      8  C   UNL     1     122.592 134.224 128.990  1.00  0.00     0.007 C 
ENDBRANCH   6   7
BRANCH   6   9
ATOM      9  O   UNL     1     121.893 131.291 127.184  1.00  0.00    -0.389 OA
ATOM     10  H   UNL     1     122.397 131.830 126.519  1.00  0.00     0.211 HD
ENDBRANCH   6   9
ENDBRANCH   5   6
ENDBRANCH   1   5
TORSDOF 6
ENDMDL
MODEL 2
REMARK VINA RESULT:    -3.757     16.126     16.902
REMARK INTER + INTRA:          -5.419
REMARK INTER:                  -5.097
REMARK INTRA:                  -0.322
REMARK UNBOUND:                -0.453
REMARK SMILES C=C[C@H](O)CCCCC
REMARK SMILES IDX 6 1 7 2 8 3 9 4 5 5 3 6 2 7 1 8 4 9
REMARK H PARENT 4 10
REMARK Flexibility Score: inf
ROOT
ATOM      1  C   UNL     1     124.826 120.016 118.697  1.00  0.00     0.003 C 
ENDROOT
BRANCH   1   2
ATOM      2  C   UNL     1     124.618 119.627 120.169  1.00  0.00    -0.000 C 
BRANCH   2   3
ATOM      3  C   UNL     1     123.865 118.295 120.326  1.00  0.00    -0.003 C 
ATOM      4  C   UNL     1     124.715 117.085 119.940  1.00  0.00     0.004 C 
ENDBRANCH   2   3
ENDBRANCH   1   2
BRANCH   1   5
ATOM      5  C   UNL     1     126.134 120.799 118.517  1.00  0.00     0.036 C 
BRANCH   5   6
ATOM      6  C   UNL     1     127.341 120.031 119.096  1.00  0.00     0.136 C 
BRANCH   6   7
ATOM      7  C   UNL     1     128.538 120.939 119.258  1.00  0.00    -0.004 C 
ATOM      8  C   UNL     1     128.408 122.266 119.337  1.00  0.00     0.007 C 
ENDBRANCH   6   7
BRANCH   6   9
ATOM      9  O   UNL     1     127.676 118.933 118.283  1.00  0.00    -0.389 OA
ATOM     10  H   UNL     1     128.660 118.807 118.337  1.00  0.00     0.211 HD
ENDBRANCH   6   9
ENDBRANCH   5   6
ENDBRANCH   1   5
TORSDOF 6
ENDMDL
MODEL 3
REMARK VINA RESULT:    -3.744     13.561     14.554
REMARK INTER + INTRA:          -5.401
REMARK INTER:                  -4.846
REMARK INTRA:                  -0.556
REMARK UNBOUND:                -0.453
REMARK SMILES C=C[C@H](O)CCCCC
REMARK SMILES IDX 6 1 7 2 8 3 9 4 5 5 3 6 2 7 1 8 4 9
REMARK H PARENT 4 10
REMARK Flexibility Score: inf
ROOT
ATOM      1  C   UNL     1     114.419 120.739 133.551  1.00  0.00     0.003 C 
ENDROOT
BRANCH   1   2
ATOM      2  C   UNL     1     115.702 119.991 133.943  1.00  0.00    -0.000 C 
BRANCH   2   3
ATOM      3  C   UNL     1     116.973 120.802 133.644  1.00  0.00    -0.003 C 
ATOM      4  C   UNL     1     117.608 120.435 132.302  1.00  0.00     0.004 C 
ENDBRANCH   2   3
ENDBRANCH   1   2
BRANCH   1   5
ATOM      5  C   UNL     1     113.873 120.227 132.211  1.00  0.00     0.036 C 
BRANCH   5   6
ATOM      6  C   UNL     1     113.862 121.337 131.140  1.00  0.00     0.136 C 
BRANCH   6   7
ATOM      7  C   UNL     1     114.581 120.893 129.887  1.00  0.00    -0.004 C 
ATOM      8  C   UNL     1     114.696 119.602 129.563  1.00  0.00     0.007 C 
ENDBRANCH   6   7
BRANCH   6   9
ATOM      9  O   UNL     1     114.442 122.519 131.634  1.00  0.00    -0.389 OA
ATOM     10  H   UNL     1     114.103 122.659 132.558  1.00  0.00     0.211 HD
ENDBRANCH   6   9
ENDBRANCH   5   6
ENDBRANCH   1   5
TORSDOF 6
ENDMDL
MODEL 4
REMARK VINA RESULT:    -3.704     11.859     13.303
REMARK INTER + INTRA:          -5.348
REMARK INTER:                  -4.880
REMARK INTRA:                  -0.468
REMARK UNBOUND:                -0.453
REMARK SMILES C=C[C@H](O)CCCCC
REMARK SMILES IDX 6 1 7 2 8 3 9 4 5 5 3 6 2 7 1 8 4 9
REMARK H PARENT 4 10
REMARK Flexibility Score: inf
ROOT
ATOM      1  C   UNL     1     114.847 120.834 131.125  1.00  0.00     0.003 C 
ENDROOT
BRANCH   1   2
ATOM      2  C   UNL     1     113.944 120.327 132.259  1.00  0.00    -0.000 C 
BRANCH   2   3
ATOM      3  C   UNL     1     114.318 120.927 133.624  1.00  0.00    -0.003 C 
ATOM      4  C   UNL     1     115.809 121.243 133.743  1.00  0.00     0.004 C 
ENDBRANCH   2   3
ENDBRANCH   1   2
BRANCH   1   5
ATOM      5  C   UNL     1     114.029 121.589 130.068  1.00  0.00     0.036 C 
BRANCH   5   6
ATOM      6  C   UNL     1     114.192 123.117 130.207  1.00  0.00     0.136 C 
BRANCH   6   7
ATOM      7  C   UNL     1     115.549 123.471 130.769  1.00  0.00    -0.004 C 
ATOM      8  C   UNL     1     116.134 124.644 130.508  1.00  0.00     0.007 C 
ENDBRANCH   6   7
BRANCH   6   9
ATOM      9  O   UNL     1     113.179 123.660 131.018  1.00  0.00    -0.389 OA
ATOM     10  H   UNL     1     112.330 123.627 130.502  1.00  0.00     0.211 HD
ENDBRANCH   6   9
ENDBRANCH   5   6
ENDBRANCH   1   5
TORSDOF 6
ENDMDL
MODEL 5
REMARK VINA RESULT:    -3.691      2.563      4.342
REMARK INTER + INTRA:          -5.330
REMARK INTER:                  -5.040
REMARK INTRA:                  -0.291
REMARK UNBOUND:                -0.453
REMARK SMILES C=C[C@H](O)CCCCC
REMARK SMILES IDX 6 1 7 2 8 3 9 4 5 5 3 6 2 7 1 8 4 9
REMARK H PARENT 4 10
REMARK Flexibility Score: inf
ROOT
ATOM      1  C   UNL     1     120.596 131.739 128.003  1.00  0.00     0.003 C 
ENDROOT
BRANCH   1   2
ATOM      2  C   UNL     1     122.053 131.305 128.226  1.00  0.00    -0.000 C 
BRANCH   2   3
ATOM      3  C   UNL     1     123.049 132.458 128.023  1.00  0.00    -0.003 C 
ATOM      4  C   UNL     1     122.368 133.824 127.958  1.00  0.00     0.004 C 
ENDBRANCH   2   3
ENDBRANCH   1   2
BRANCH   1   5
ATOM      5  C   UNL     1     119.694 131.234 129.138  1.00  0.00     0.036 C 
BRANCH   5   6
ATOM      6  C   UNL     1     120.302 130.004 129.845  1.00  0.00     0.136 C 
BRANCH   6   7
ATOM      7  C   UNL     1     119.627 128.729 129.398  1.00  0.00    -0.004 C 
ATOM      8  C   UNL     1     118.335 128.493 129.644  1.00  0.00     0.007 C 
ENDBRANCH   6   7
BRANCH   6   9
ATOM      9  O   UNL     1     120.212 130.132 131.243  1.00  0.00    -0.389 OA
ATOM     10  H   UNL     1     119.641 130.922 131.438  1.00  0.00     0.211 HD
ENDBRANCH   6   9
ENDBRANCH   5   6
ENDBRANCH   1   5
TORSDOF 6
ENDMDL
MODEL 6
REMARK VINA RESULT:    -3.674     12.862     14.174
REMARK INTER + INTRA:          -5.309
REMARK INTER:                  -5.094
REMARK INTRA:                  -0.215
REMARK UNBOUND:                -0.453
REMARK SMILES C=C[C@H](O)CCCCC
REMARK SMILES IDX 6 1 7 2 8 3 9 4 5 5 3 6 2 7 1 8 4 9
REMARK H PARENT 4 10
REMARK Flexibility Score: inf
ROOT
ATOM      1  C   UNL     1     113.981 120.482 132.186  1.00  0.00     0.003 C 
ENDROOT
BRANCH   1   2
ATOM      2  C   UNL     1     114.377 120.839 133.627  1.00  0.00    -0.000 C 
BRANCH   2   3
ATOM      3  C   UNL     1     115.599 120.045 134.117  1.00  0.00    -0.003 C 
ATOM      4  C   UNL     1     116.864 120.899 134.202  1.00  0.00     0.004 C 
ENDBRANCH   2   3
ENDBRANCH   1   2
BRANCH   1   5
ATOM      5  C   UNL     1     114.633 121.445 131.184  1.00  0.00     0.036 C 
BRANCH   5   6
ATOM      6  C   UNL     1     113.591 122.371 130.523  1.00  0.00     0.136 C 
BRANCH   6   7
ATOM      7  C   UNL     1     113.753 122.389 129.021  1.00  0.00    -0.004 C 
ATOM      8  C   UNL     1     114.148 121.308 128.343  1.00  0.00     0.007 C 
ENDBRANCH   6   7
BRANCH   6   9
ATOM      9  O   UNL     1     113.685 123.679 131.033  1.00  0.00    -0.389 OA
ATOM     10  H   UNL     1     113.890 124.285 130.273  1.00  0.00     0.211 HD
ENDBRANCH   6   9
ENDBRANCH   5   6
ENDBRANCH   1   5
TORSDOF 6
ENDMDL
MODEL 7
REMARK VINA RESULT:    -3.632     13.915     14.453
REMARK INTER + INTRA:          -5.252
REMARK INTER:                  -5.064
REMARK INTRA:                  -0.189
REMARK UNBOUND:                -0.453
REMARK SMILES C=C[C@H](O)CCCCC
REMARK SMILES IDX 6 1 7 2 8 3 9 4 5 5 3 6 2 7 1 8 4 9
REMARK H PARENT 4 10
REMARK Flexibility Score: inf
ROOT
ATOM      1  C   UNL     1     114.982 120.165 129.916  1.00  0.00     0.003 C 
ENDROOT
BRANCH   1   2
ATOM      2  C   UNL     1     114.360 119.888 128.539  1.00  0.00    -0.000 C 
BRANCH   2   3
ATOM      3  C   UNL     1     114.515 121.073 127.572  1.00  0.00    -0.003 C 
ATOM      4  C   UNL     1     113.789 120.853 126.245  1.00  0.00     0.004 C 
ENDBRANCH   2   3
ENDBRANCH   1   2
BRANCH   1   5
ATOM      5  C   UNL     1     114.130 121.163 130.713  1.00  0.00     0.036 C 
BRANCH   5   6
ATOM      6  C   UNL     1     114.063 120.787 132.208  1.00  0.00     0.136 C 
BRANCH   6   7
ATOM      7  C   UNL     1     115.446 120.667 132.803  1.00  0.00    -0.004 C 
ATOM      8  C   UNL     1     115.662 120.034 133.959  1.00  0.00     0.007 C 
ENDBRANCH   6   7
BRANCH   6   9
ATOM      9  O   UNL     1     113.353 119.587 132.393  1.00  0.00    -0.389 OA
ATOM     10  H   UNL     1     113.632 118.957 131.677  1.00  0.00     0.211 HD
ENDBRANCH   6   9
ENDBRANCH   5   6
ENDBRANCH   1   5
TORSDOF 6
ENDMDL
MODEL 8
REMARK VINA RESULT:    -3.597     13.770     14.652
REMARK INTER + INTRA:          -5.207
REMARK INTER:                  -4.957
REMARK INTRA:                  -0.250
REMARK UNBOUND:                -0.453
REMARK SMILES C=C[C@H](O)CCCCC
REMARK SMILES IDX 6 1 7 2 8 3 9 4 5 5 3 6 2 7 1 8 4 9
REMARK H PARENT 4 10
REMARK Flexibility Score: inf
ROOT
ATOM      1  C   UNL     1     113.999 121.727 130.243  1.00  0.00     0.003 C 
ENDROOT
BRANCH   1   2
ATOM      2  C   UNL     1     114.353 120.987 128.944  1.00  0.00    -0.000 C 
BRANCH   2   3
ATOM      3  C   UNL     1     114.753 119.523 129.188  1.00  0.00    -0.003 C 
ATOM      4  C   UNL     1     115.586 118.938 128.048  1.00  0.00     0.004 C 
ENDBRANCH   2   3
ENDBRANCH   1   2
BRANCH   1   5
ATOM      5  C   UNL     1     114.882 121.249 131.404  1.00  0.00     0.036 C 
BRANCH   5   6
ATOM      6  C   UNL     1     114.039 120.853 132.634  1.00  0.00     0.136 C 
BRANCH   6   7
ATOM      7  C   UNL     1     114.904 120.710 133.865  1.00  0.00    -0.004 C 
ATOM      8  C   UNL     1     115.919 119.842 133.914  1.00  0.00     0.007 C 
ENDBRANCH   6   7
BRANCH   6   9
ATOM      9  O   UNL     1     113.336 119.657 132.398  1.00  0.00    -0.389 OA
ATOM     10  H   UNL     1     113.832 119.148 131.703  1.00  0.00     0.211 HD
ENDBRANCH   6   9
ENDBRANCH   5   6
ENDBRANCH   1   5
TORSDOF 6
ENDMDL
MODEL 9
REMARK VINA RESULT:    -3.501     13.235     13.861
REMARK INTER + INTRA:          -5.080
REMARK INTER:                  -4.905
REMARK INTRA:                  -0.175
REMARK UNBOUND:                -0.453
REMARK SMILES C=C[C@H](O)CCCCC
REMARK SMILES IDX 6 1 7 2 8 3 9 4 5 5 3 6 2 7 1 8 4 9
REMARK H PARENT 4 10
REMARK Flexibility Score: inf
ROOT
ATOM      1  C   UNL     1     114.413 119.933 129.511  1.00  0.00     0.003 C 
ENDROOT
BRANCH   1   2
ATOM      2  C   UNL     1     114.580 120.187 128.005  1.00  0.00    -0.000 C 
BRANCH   2   3
ATOM      3  C   UNL     1     114.139 121.600 127.591  1.00  0.00    -0.003 C 
ATOM      4  C   UNL     1     113.836 121.711 126.097  1.00  0.00     0.004 C 
ENDBRANCH   2   3
ENDBRANCH   1   2
BRANCH   1   5
ATOM      5  C   UNL     1     114.089 121.237 130.253  1.00  0.00     0.036 C 
BRANCH   5   6
ATOM      6  C   UNL     1     114.910 121.371 131.553  1.00  0.00     0.136 C 
BRANCH   6   7
ATOM      7  C   UNL     1     114.186 120.743 132.722  1.00  0.00    -0.004 C 
ATOM      8  C   UNL     1     114.658 120.826 133.969  1.00  0.00     0.007 C 
ENDBRANCH   6   7
BRANCH   6   9
ATOM      9  O   UNL     1     115.194 122.720 131.832  1.00  0.00    -0.389 OA
ATOM     10  H   UNL     1     114.971 122.885 132.787  1.00  0.00     0.211 HD
ENDBRANCH   6   9
ENDBRANCH   5   6
ENDBRANCH   1   5
TORSDOF 6
ENDMDL
