MODEL 1
REMARK VINA RESULT:     1.876      0.000      0.000
REMARK INTER + INTRA:           2.052
REMARK INTER:                   2.918
REMARK INTRA:                  -0.867
REMARK UNBOUND:                -0.867
REMARK SMILES COc1cc(CNC(=O)CCCCC=CC(C)C)ccc1O
REMARK SMILES IDX 11 1 12 2 13 3 14 4 15 5 16 6 17 7 18 8 10 9 8 10 9 11 7 12
REMARK SMILES IDX 6 14 5 15 4 16 19 17 3 18 20 19 21 20 2 21 1 22 22 23
REMARK H PARENT 7 13 22 24
REMARK Flexibility Score: inf
ROOT
ATOM      1  C   UNL     1     -11.682  -4.414  16.776  1.00  0.00     0.010 C 
ENDROOT
BRANCH   1   2
ATOM      2  C   UNL     1     -10.178  -4.624  16.526  1.00  0.00     0.005 C 
BRANCH   2   3
ATOM      3  C   UNL     1      -9.654  -6.013  16.932  1.00  0.00     0.027 C 
BRANCH   3   4
ATOM      4  C   UNL     1     -10.376  -6.585  18.126  1.00  0.00    -0.031 C 
ATOM      5  C   UNL     1      -9.712  -7.057  19.195  1.00  0.00    -0.028 C 
BRANCH   5   6
ATOM      6  C   UNL     1     -10.448  -7.652  20.379  1.00  0.00     0.005 C 
ATOM      7  C   UNL     1      -9.493  -8.495  21.235  1.00  0.00     0.012 C 
ATOM      8  C   UNL     1     -11.085  -6.547  21.227  1.00  0.00     0.012 C 
ENDBRANCH   5   6
ENDBRANCH   3   4
ENDBRANCH   2   3
ENDBRANCH   1   2
BRANCH   1   9
ATOM      9  C   UNL     1     -12.270  -3.260  15.953  1.00  0.00     0.100 C 
BRANCH   9  10
ATOM     10  C   UNL     1     -13.521  -2.759  16.606  1.00  0.00     0.220 C 
ATOM     11  O   UNL     1     -14.278  -1.976  15.976  1.00  0.00    -0.275 OA
ATOM     12  N   UNL     1     -13.810  -3.103  17.966  1.00  0.00    -0.352 N 
ATOM     13  H   UNL     1     -13.197  -3.795  18.453  1.00  0.00     0.163 HD
BRANCH  12  14
ATOM     14  C   UNL     1     -14.780  -2.363  18.767  1.00  0.00     0.151 C 
BRANCH  14  15
ATOM     15  C   UNL     1     -14.266  -2.222  20.176  1.00  0.00    -0.025 A 
ATOM     16  C   UNL     1     -15.089  -1.693  21.186  1.00  0.00     0.056 A 
ATOM     17  C   UNL     1     -12.935  -2.539  20.468  1.00  0.00     0.009 A 
ATOM     18  C   UNL     1     -14.587  -1.499  22.489  1.00  0.00     0.160 A 
ATOM     19  C   UNL     1     -12.434  -2.357  21.759  1.00  0.00     0.050 A 
ATOM     20  C   UNL     1     -13.257  -1.842  22.769  1.00  0.00     0.157 A 
BRANCH  18  21
ATOM     21  O   UNL     1     -15.374  -0.970  23.523  1.00  0.00    -0.493 OA
ATOM     22  C   UNL     1     -15.396   0.403  23.893  1.00  0.00     0.278 C 
ENDBRANCH  18  21
BRANCH  20  23
ATOM     23  O   UNL     1     -12.760  -1.666  24.057  1.00  0.00    -0.504 OA
ATOM     24  H   UNL     1     -12.910  -2.360  24.783  1.00  0.00     0.293 HD
ENDBRANCH  20  23
ENDBRANCH  14  15
ENDBRANCH  12  14
ENDBRANCH   9  10
ENDBRANCH   1   9
TORSDOF 10
ENDMDL
MODEL 2
REMARK VINA RESULT:     2.218      2.932      7.273
REMARK INTER + INTRA:           2.584
REMARK INTER:                   3.454
REMARK INTRA:                  -0.871
REMARK UNBOUND:                -0.867
REMARK SMILES COc1cc(CNC(=O)CCCCC=CC(C)C)ccc1O
REMARK SMILES IDX 11 1 12 2 13 3 14 4 15 5 16 6 17 7 18 8 10 9 8 10 9 11 7 12
REMARK SMILES IDX 6 14 5 15 4 16 19 17 3 18 20 19 21 20 2 21 1 22 22 23
REMARK H PARENT 7 13 22 24
REMARK Flexibility Score: inf
ROOT
ATOM      1  C   UNL     1     -14.584  -2.075  20.906  1.00  0.00     0.010 C 
ENDROOT
BRANCH   1   2
ATOM      2  C   UNL     1     -15.522  -2.383  19.725  1.00  0.00     0.005 C 
BRANCH   2   3
ATOM      3  C   UNL     1     -15.398  -1.405  18.544  1.00  0.00     0.027 C 
BRANCH   3   4
ATOM      4  C   UNL     1     -14.699  -2.012  17.353  1.00  0.00    -0.031 C 
ATOM      5  C   UNL     1     -15.138  -3.143  16.775  1.00  0.00    -0.028 C 
BRANCH   5   6
ATOM      6  C   UNL     1     -14.412  -3.757  15.594  1.00  0.00     0.005 C 
ATOM      7  C   UNL     1     -12.900  -3.528  15.717  1.00  0.00     0.012 C 
ATOM      8  C   UNL     1     -14.716  -5.255  15.497  1.00  0.00     0.012 C 
ENDBRANCH   5   6
ENDBRANCH   3   4
ENDBRANCH   2   3
ENDBRANCH   1   2
BRANCH   1   9
ATOM      9  C   UNL     1     -13.111  -2.372  20.594  1.00  0.00     0.100 C 
BRANCH   9  10
ATOM     10  C   UNL     1     -12.548  -3.290  21.636  1.00  0.00     0.220 C 
ATOM     11  O   UNL     1     -12.270  -2.836  22.776  1.00  0.00    -0.275 OA
ATOM     12  N   UNL     1     -12.254  -4.653  21.311  1.00  0.00    -0.352 N 
ATOM     13  H   UNL     1     -12.541  -5.022  20.376  1.00  0.00     0.163 HD
BRANCH  12  14
ATOM     14  C   UNL     1     -11.374  -5.477  22.132  1.00  0.00     0.151 C 
BRANCH  14  15
ATOM     15  C   UNL     1     -10.646  -6.464  21.258  1.00  0.00    -0.025 A 
ATOM     16  C   UNL     1     -10.676  -6.335  19.859  1.00  0.00     0.056 A 
ATOM     17  C   UNL     1     -10.003  -7.565  21.835  1.00  0.00     0.009 A 
ATOM     18  C   UNL     1     -10.049  -7.295  19.038  1.00  0.00     0.160 A 
ATOM     19  C   UNL     1      -9.374  -8.515  21.027  1.00  0.00     0.050 A 
ATOM     20  C   UNL     1      -9.393  -8.381  19.633  1.00  0.00     0.157 A 
BRANCH  18  21
ATOM     21  O   UNL     1     -10.061  -7.205  17.638  1.00  0.00    -0.493 OA
ATOM     22  C   UNL     1      -9.413  -6.180  16.894  1.00  0.00     0.278 C 
ENDBRANCH  18  21
BRANCH  20  23
ATOM     23  O   UNL     1      -8.761  -9.325  18.829  1.00  0.00    -0.504 OA
ATOM     24  H   UNL     1      -9.286 -10.043  18.341  1.00  0.00     0.293 HD
ENDBRANCH  20  23
ENDBRANCH  14  15
ENDBRANCH  12  14
ENDBRANCH   9  10
ENDBRANCH   1   9
TORSDOF 10
ENDMDL
MODEL 3
REMARK VINA RESULT:     2.268      5.594     10.652
REMARK INTER + INTRA:           2.661
REMARK INTER:                   3.255
REMARK INTRA:                  -0.594
REMARK UNBOUND:                -0.867
REMARK SMILES COc1cc(CNC(=O)CCCCC=CC(C)C)ccc1O
REMARK SMILES IDX 11 1 12 2 13 3 14 4 15 5 16 6 17 7 18 8 10 9 8 10 9 11 7 12
REMARK SMILES IDX 6 14 5 15 4 16 19 17 3 18 20 19 21 20 2 21 1 22 22 23
REMARK H PARENT 7 13 22 24
REMARK Flexibility Score: inf
ROOT
ATOM      1  C   UNL     1     -15.936   4.612  19.393  1.00  0.00     0.010 C 
ENDROOT
BRANCH   1   2
ATOM      2  C   UNL     1     -15.751   5.341  20.737  1.00  0.00     0.005 C 
BRANCH   2   3
ATOM      3  C   UNL     1     -16.330   6.766  20.771  1.00  0.00     0.027 C 
BRANCH   3   4
ATOM      4  C   UNL     1     -17.790   6.796  21.148  1.00  0.00    -0.031 C 
ATOM      5  C   UNL     1     -18.671   7.581  20.505  1.00  0.00    -0.028 C 
BRANCH   5   6
ATOM      6  C   UNL     1     -20.131   7.621  20.910  1.00  0.00     0.005 C 
ATOM      7  C   UNL     1     -20.996   8.125  19.747  1.00  0.00     0.012 C 
ATOM      8  C   UNL     1     -20.602   6.235  21.360  1.00  0.00     0.012 C 
ENDBRANCH   5   6
ENDBRANCH   3   4
ENDBRANCH   2   3
ENDBRANCH   1   2
BRANCH   1   9
ATOM      9  C   UNL     1     -14.900   3.503  19.166  1.00  0.00     0.100 C 
BRANCH   9  10
ATOM     10  C   UNL     1     -15.348   2.614  18.047  1.00  0.00     0.220 C 
ATOM     11  O   UNL     1     -15.025   2.897  16.864  1.00  0.00    -0.275 OA
ATOM     12  N   UNL     1     -16.205   1.498  18.313  1.00  0.00    -0.352 N 
ATOM     13  H   UNL     1     -16.418   1.251  19.306  1.00  0.00     0.163 HD
BRANCH  12  14
ATOM     14  C   UNL     1     -16.972   0.837  17.262  1.00  0.00     0.151 C 
BRANCH  14  15
ATOM     15  C   UNL     1     -16.402  -0.534  17.010  1.00  0.00    -0.025 A 
ATOM     16  C   UNL     1     -15.447  -1.082  17.883  1.00  0.00     0.056 A 
ATOM     17  C   UNL     1     -16.760  -1.236  15.853  1.00  0.00     0.009 A 
ATOM     18  C   UNL     1     -14.864  -2.336  17.612  1.00  0.00     0.160 A 
ATOM     19  C   UNL     1     -16.192  -2.483  15.582  1.00  0.00     0.050 A 
ATOM     20  C   UNL     1     -15.249  -3.035  16.459  1.00  0.00     0.157 A 
BRANCH  18  21
ATOM     21  O   UNL     1     -13.905  -2.915  18.456  1.00  0.00    -0.493 OA
ATOM     22  C   UNL     1     -13.599  -2.447  19.764  1.00  0.00     0.278 C 
ENDBRANCH  18  21
BRANCH  20  23
ATOM     23  O   UNL     1     -14.689  -4.281  16.192  1.00  0.00    -0.504 OA
ATOM     24  H   UNL     1     -15.163  -5.141  16.447  1.00  0.00     0.293 HD
ENDBRANCH  20  23
ENDBRANCH  14  15
ENDBRANCH  12  14
ENDBRANCH   9  10
ENDBRANCH   1   9
TORSDOF 10
ENDMDL
MODEL 4
REMARK VINA RESULT:     2.342      3.668      7.604
REMARK INTER + INTRA:           2.776
REMARK INTER:                   3.484
REMARK INTRA:                  -0.708
REMARK UNBOUND:                -0.867
REMARK SMILES COc1cc(CNC(=O)CCCCC=CC(C)C)ccc1O
REMARK SMILES IDX 11 1 12 2 13 3 14 4 15 5 16 6 17 7 18 8 10 9 8 10 9 11 7 12
REMARK SMILES IDX 6 14 5 15 4 16 19 17 3 18 20 19 21 20 2 21 1 22 22 23
REMARK H PARENT 7 13 22 24
REMARK Flexibility Score: inf
ROOT
ATOM      1  C   UNL     1     -16.604   1.352  17.895  1.00  0.00     0.010 C 
ENDROOT
BRANCH   1   2
ATOM      2  C   UNL     1     -15.467   2.333  17.558  1.00  0.00     0.005 C 
BRANCH   2   3
ATOM      3  C   UNL     1     -14.702   2.863  18.783  1.00  0.00     0.027 C 
BRANCH   3   4
ATOM      4  C   UNL     1     -15.391   4.029  19.445  1.00  0.00    -0.031 C 
ATOM      5  C   UNL     1     -14.918   4.584  20.574  1.00  0.00    -0.028 C 
BRANCH   5   6
ATOM      6  C   UNL     1     -15.635   5.740  21.244  1.00  0.00     0.005 C 
ATOM      7  C   UNL     1     -14.714   6.964  21.330  1.00  0.00     0.012 C 
ATOM      8  C   UNL     1     -16.916   6.092  20.481  1.00  0.00     0.012 C 
ENDBRANCH   5   6
ENDBRANCH   3   4
ENDBRANCH   2   3
ENDBRANCH   1   2
BRANCH   1   9
ATOM      9  C   UNL     1     -16.889   0.355  16.763  1.00  0.00     0.100 C 
BRANCH   9  10
ATOM     10  C   UNL     1     -16.154  -0.925  17.019  1.00  0.00     0.220 C 
ATOM     11  O   UNL     1     -16.236  -1.863  16.185  1.00  0.00    -0.275 OA
ATOM     12  N   UNL     1     -15.433  -1.108  18.243  1.00  0.00    -0.352 N 
ATOM     13  H   UNL     1     -15.334  -0.299  18.897  1.00  0.00     0.163 HD
BRANCH  12  14
ATOM     14  C   UNL     1     -15.028  -2.427  18.718  1.00  0.00     0.151 C 
BRANCH  14  15
ATOM     15  C   UNL     1     -14.420  -2.304  20.090  1.00  0.00    -0.025 A 
ATOM     16  C   UNL     1     -15.177  -1.804  21.163  1.00  0.00     0.056 A 
ATOM     17  C   UNL     1     -13.068  -2.608  20.284  1.00  0.00     0.009 A 
ATOM     18  C   UNL     1     -14.590  -1.626  22.432  1.00  0.00     0.160 A 
ATOM     19  C   UNL     1     -12.482  -2.441  21.541  1.00  0.00     0.050 A 
ATOM     20  C   UNL     1     -13.240  -1.955  22.614  1.00  0.00     0.157 A 
BRANCH  18  21
ATOM     21  O   UNL     1     -15.310  -1.126  23.528  1.00  0.00    -0.493 OA
ATOM     22  C   UNL     1     -15.333   0.242  23.917  1.00  0.00     0.278 C 
ENDBRANCH  18  21
BRANCH  20  23
ATOM     23  O   UNL     1     -12.657  -1.795  23.868  1.00  0.00    -0.504 OA
ATOM     24  H   UNL     1     -12.212  -0.924  24.139  1.00  0.00     0.293 HD
ENDBRANCH  20  23
ENDBRANCH  14  15
ENDBRANCH  12  14
ENDBRANCH   9  10
ENDBRANCH   1   9
TORSDOF 10
ENDMDL
MODEL 5
REMARK VINA RESULT:     2.390      1.895      5.653
REMARK INTER + INTRA:           2.851
REMARK INTER:                   3.683
REMARK INTRA:                  -0.832
REMARK UNBOUND:                -0.867
REMARK SMILES COc1cc(CNC(=O)CCCCC=CC(C)C)ccc1O
REMARK SMILES IDX 11 1 12 2 13 3 14 4 15 5 16 6 17 7 18 8 10 9 8 10 9 11 7 12
REMARK SMILES IDX 6 14 5 15 4 16 19 17 3 18 20 19 21 20 2 21 1 22 22 23
REMARK H PARENT 7 13 22 24
REMARK Flexibility Score: inf
ROOT
ATOM      1  C   UNL     1     -12.413  -2.252  22.028  1.00  0.00     0.010 C 
ENDROOT
BRANCH   1   2
ATOM      2  C   UNL     1     -12.600  -3.686  21.503  1.00  0.00     0.005 C 
BRANCH   2   3
ATOM      3  C   UNL     1     -11.639  -4.719  22.119  1.00  0.00     0.027 C 
BRANCH   3   4
ATOM      4  C   UNL     1     -11.458  -5.940  21.253  1.00  0.00    -0.031 C 
ATOM      5  C   UNL     1     -10.335  -6.677  21.293  1.00  0.00    -0.028 C 
BRANCH   5   6
ATOM      6  C   UNL     1     -10.155  -7.887  20.399  1.00  0.00     0.005 C 
ATOM      7  C   UNL     1      -9.858  -7.449  18.959  1.00  0.00     0.012 C 
ATOM      8  C   UNL     1      -9.029  -8.782  20.925  1.00  0.00     0.012 C 
ENDBRANCH   5   6
ENDBRANCH   3   4
ENDBRANCH   2   3
ENDBRANCH   1   2
BRANCH   1   9
ATOM      9  C   UNL     1     -13.725  -1.611  22.500  1.00  0.00     0.100 C 
BRANCH   9  10
ATOM     10  C   UNL     1     -14.858  -2.093  21.648  1.00  0.00     0.220 C 
ATOM     11  O   UNL     1     -15.655  -2.953  22.105  1.00  0.00    -0.275 OA
ATOM     12  N   UNL     1     -14.985  -1.638  20.295  1.00  0.00    -0.352 N 
ATOM     13  H   UNL     1     -14.346  -0.885  19.954  1.00  0.00     0.163 HD
BRANCH  12  14
ATOM     14  C   UNL     1     -15.810  -2.334  19.314  1.00  0.00     0.151 C 
BRANCH  14  15
ATOM     15  C   UNL     1     -14.972  -2.696  18.116  1.00  0.00    -0.025 A 
ATOM     16  C   UNL     1     -15.492  -3.520  17.104  1.00  0.00     0.056 A 
ATOM     17  C   UNL     1     -13.637  -2.281  18.049  1.00  0.00     0.009 A 
ATOM     18  C   UNL     1     -14.686  -3.913  16.016  1.00  0.00     0.160 A 
ATOM     19  C   UNL     1     -12.836  -2.660  16.970  1.00  0.00     0.050 A 
ATOM     20  C   UNL     1     -13.357  -3.471  15.954  1.00  0.00     0.157 A 
BRANCH  18  21
ATOM     21  O   UNL     1     -15.166  -4.737  14.987  1.00  0.00    -0.493 OA
ATOM     22  C   UNL     1     -15.325  -6.146  15.096  1.00  0.00     0.278 C 
ENDBRANCH  18  21
BRANCH  20  23
ATOM     23  O   UNL     1     -12.560  -3.843  14.875  1.00  0.00    -0.504 OA
ATOM     24  H   UNL     1     -12.098  -3.152  14.293  1.00  0.00     0.293 HD
ENDBRANCH  20  23
ENDBRANCH  14  15
ENDBRANCH  12  14
ENDBRANCH   9  10
ENDBRANCH   1   9
TORSDOF 10
ENDMDL
MODEL 6
REMARK VINA RESULT:     2.507      2.689      4.310
REMARK INTER + INTRA:           3.033
REMARK INTER:                   3.644
REMARK INTRA:                  -0.610
REMARK UNBOUND:                -0.867
REMARK SMILES COc1cc(CNC(=O)CCCCC=CC(C)C)ccc1O
REMARK SMILES IDX 11 1 12 2 13 3 14 4 15 5 16 6 17 7 18 8 10 9 8 10 9 11 7 12
REMARK SMILES IDX 6 14 5 15 4 16 19 17 3 18 20 19 21 20 2 21 1 22 22 23
REMARK H PARENT 7 13 22 24
REMARK Flexibility Score: inf
ROOT
ATOM      1  C   UNL     1     -12.708  -7.921  15.702  1.00  0.00     0.010 C 
ENDROOT
BRANCH   1   2
ATOM      2  C   UNL     1     -11.876  -7.979  16.995  1.00  0.00     0.005 C 
BRANCH   2   3
ATOM      3  C   UNL     1     -10.910  -6.797  17.183  1.00  0.00     0.027 C 
BRANCH   3   4
ATOM      4  C   UNL     1      -9.996  -6.970  18.370  1.00  0.00    -0.031 C 
ATOM      5  C   UNL     1     -10.472  -7.244  19.596  1.00  0.00    -0.028 C 
BRANCH   5   6
ATOM      6  C   UNL     1      -9.545  -7.391  20.786  1.00  0.00     0.005 C 
ATOM      7  C   UNL     1     -10.088  -6.608  21.989  1.00  0.00     0.012 C 
ATOM      8  C   UNL     1      -9.368  -8.868  21.151  1.00  0.00     0.012 C 
ENDBRANCH   5   6
ENDBRANCH   3   4
ENDBRANCH   2   3
ENDBRANCH   1   2
BRANCH   1   9
ATOM      9  C   UNL     1     -14.217  -8.044  15.955  1.00  0.00     0.100 C 
BRANCH   9  10
ATOM     10  C   UNL     1     -14.910  -6.798  15.494  1.00  0.00     0.220 C 
ATOM     11  O   UNL     1     -16.029  -6.887  14.925  1.00  0.00    -0.275 OA
ATOM     12  N   UNL     1     -14.267  -5.526  15.627  1.00  0.00    -0.352 N 
ATOM     13  H   UNL     1     -13.364  -5.468  16.149  1.00  0.00     0.163 HD
BRANCH  12  14
ATOM     14  C   UNL     1     -14.700  -4.352  14.875  1.00  0.00     0.151 C 
BRANCH  14  15
ATOM     15  C   UNL     1     -15.050  -3.242  15.831  1.00  0.00    -0.025 A 
ATOM     16  C   UNL     1     -14.444  -3.173  17.097  1.00  0.00     0.056 A 
ATOM     17  C   UNL     1     -16.047  -2.319  15.493  1.00  0.00     0.009 A 
ATOM     18  C   UNL     1     -14.820  -2.173  18.017  1.00  0.00     0.160 A 
ATOM     19  C   UNL     1     -16.418  -1.322  16.397  1.00  0.00     0.050 A 
ATOM     20  C   UNL     1     -15.805  -1.245  17.655  1.00  0.00     0.157 A 
BRANCH  18  21
ATOM     21  O   UNL     1     -14.242  -2.073  19.292  1.00  0.00    -0.493 OA
ATOM     22  C   UNL     1     -14.916  -2.386  20.505  1.00  0.00     0.278 C 
ENDBRANCH  18  21
BRANCH  20  23
ATOM     23  O   UNL     1     -16.171  -0.246  18.553  1.00  0.00    -0.504 OA
ATOM     24  H   UNL     1     -16.804   0.501  18.286  1.00  0.00     0.293 HD
ENDBRANCH  20  23
ENDBRANCH  14  15
ENDBRANCH  12  14
ENDBRANCH   9  10
ENDBRANCH   1   9
TORSDOF 10
ENDMDL
MODEL 7
REMARK VINA RESULT:     2.510      2.600      6.425
REMARK INTER + INTRA:           3.038
REMARK INTER:                   3.736
REMARK INTRA:                  -0.698
REMARK UNBOUND:                -0.867
REMARK SMILES COc1cc(CNC(=O)CCCCC=CC(C)C)ccc1O
REMARK SMILES IDX 11 1 12 2 13 3 14 4 15 5 16 6 17 7 18 8 10 9 8 10 9 11 7 12
REMARK SMILES IDX 6 14 5 15 4 16 19 17 3 18 20 19 21 20 2 21 1 22 22 23
REMARK H PARENT 7 13 22 24
REMARK Flexibility Score: inf
ROOT
ATOM      1  C   UNL     1     -14.443  -1.908  16.370  1.00  0.00     0.010 C 
ENDROOT
BRANCH   1   2
ATOM      2  C   UNL     1     -15.328  -1.409  17.526  1.00  0.00     0.005 C 
BRANCH   2   3
ATOM      3  C   UNL     1     -15.504  -2.420  18.673  1.00  0.00     0.027 C 
BRANCH   3   4
ATOM      4  C   UNL     1     -14.659  -2.091  19.878  1.00  0.00    -0.031 C 
ATOM      5  C   UNL     1     -15.049  -2.409  21.125  1.00  0.00    -0.028 C 
BRANCH   5   6
ATOM      6  C   UNL     1     -14.202  -2.050  22.329  1.00  0.00     0.005 C 
ATOM      7  C   UNL     1     -12.792  -1.638  21.889  1.00  0.00     0.012 C 
ATOM      8  C   UNL     1     -14.859  -0.922  23.131  1.00  0.00     0.012 C 
ENDBRANCH   5   6
ENDBRANCH   3   4
ENDBRANCH   2   3
ENDBRANCH   1   2
BRANCH   1   9
ATOM      9  C   UNL     1     -14.191  -3.420  16.419  1.00  0.00     0.100 C 
BRANCH   9  10
ATOM     10  C   UNL     1     -12.727  -3.694  16.259  1.00  0.00     0.220 C 
ATOM     11  O   UNL     1     -12.093  -3.147  15.319  1.00  0.00    -0.275 OA
ATOM     12  N   UNL     1     -12.072  -4.634  17.119  1.00  0.00    -0.352 N 
ATOM     13  H   UNL     1     -12.603  -5.036  17.924  1.00  0.00     0.163 HD
BRANCH  12  14
ATOM     14  C   UNL     1     -10.779  -5.223  16.788  1.00  0.00     0.151 C 
BRANCH  14  15
ATOM     15  C   UNL     1     -10.418  -6.259  17.820  1.00  0.00    -0.025 A 
ATOM     16  C   UNL     1     -10.877  -6.138  19.143  1.00  0.00     0.056 A 
ATOM     17  C   UNL     1      -9.551  -7.306  17.485  1.00  0.00     0.009 A 
ATOM     18  C   UNL     1     -10.486  -7.071  20.124  1.00  0.00     0.160 A 
ATOM     19  C   UNL     1      -9.166  -8.237  18.450  1.00  0.00     0.050 A 
ATOM     20  C   UNL     1      -9.633  -8.125  19.767  1.00  0.00     0.157 A 
BRANCH  18  21
ATOM     21  O   UNL     1     -10.918  -6.983  21.456  1.00  0.00    -0.493 OA
ATOM     22  C   UNL     1     -10.146  -6.431  22.516  1.00  0.00     0.278 C 
ENDBRANCH  18  21
BRANCH  20  23
ATOM     23  O   UNL     1      -9.254  -9.058  20.727  1.00  0.00    -0.504 OA
ATOM     24  H   UNL     1      -9.624 -10.003  20.723  1.00  0.00     0.293 HD
ENDBRANCH  20  23
ENDBRANCH  14  15
ENDBRANCH  12  14
ENDBRANCH   9  10
ENDBRANCH   1   9
TORSDOF 10
ENDMDL
MODEL 8
REMARK VINA RESULT:     2.690      1.678      5.493
REMARK INTER + INTRA:           3.318
REMARK INTER:                   4.049
REMARK INTRA:                  -0.732
REMARK UNBOUND:                -0.867
REMARK SMILES COc1cc(CNC(=O)CCCCC=CC(C)C)ccc1O
REMARK SMILES IDX 11 1 12 2 13 3 14 4 15 5 16 6 17 7 18 8 10 9 8 10 9 11 7 12
REMARK SMILES IDX 6 14 5 15 4 16 19 17 3 18 20 19 21 20 2 21 1 22 22 23
REMARK H PARENT 7 13 22 24
REMARK Flexibility Score: inf
ROOT
ATOM      1  C   UNL     1     -11.844  -4.624  21.278  1.00  0.00     0.010 C 
ENDROOT
BRANCH   1   2
ATOM      2  C   UNL     1     -11.670  -5.983  21.978  1.00  0.00     0.005 C 
BRANCH   2   3
ATOM      3  C   UNL     1     -10.225  -6.514  21.984  1.00  0.00     0.027 C 
BRANCH   3   4
ATOM      4  C   UNL     1      -9.742  -6.913  20.612  1.00  0.00    -0.031 C 
ATOM      5  C   UNL     1     -10.597  -7.253  19.632  1.00  0.00    -0.028 C 
BRANCH   5   6
ATOM      6  C   UNL     1     -10.097  -7.678  18.265  1.00  0.00     0.005 C 
ATOM      7  C   UNL     1      -9.546  -6.469  17.497  1.00  0.00     0.012 C 
ATOM      8  C   UNL     1      -9.020  -8.759  18.399  1.00  0.00     0.012 C 
ENDBRANCH   5   6
ENDBRANCH   3   4
ENDBRANCH   2   3
ENDBRANCH   1   2
BRANCH   1   9
ATOM      9  C   UNL     1     -11.757  -3.436  22.246  1.00  0.00     0.100 C 
BRANCH   9  10
ATOM     10  C   UNL     1     -12.904  -2.503  22.006  1.00  0.00     0.220 C 
ATOM     11  O   UNL     1     -13.414  -1.886  22.977  1.00  0.00    -0.275 OA
ATOM     12  N   UNL     1     -13.469  -2.378  20.696  1.00  0.00    -0.352 N 
ATOM     13  H   UNL     1     -12.998  -2.857  19.896  1.00  0.00     0.163 HD
BRANCH  12  14
ATOM     14  C   UNL     1     -14.790  -1.802  20.469  1.00  0.00     0.151 C 
BRANCH  14  15
ATOM     15  C   UNL     1     -15.112  -1.845  18.998  1.00  0.00    -0.025 A 
ATOM     16  C   UNL     1     -14.345  -2.632  18.123  1.00  0.00     0.056 A 
ATOM     17  C   UNL     1     -16.129  -1.033  18.483  1.00  0.00     0.009 A 
ATOM     18  C   UNL     1     -14.605  -2.622  16.737  1.00  0.00     0.160 A 
ATOM     19  C   UNL     1     -16.396  -1.024  17.113  1.00  0.00     0.050 A 
ATOM     20  C   UNL     1     -15.640  -1.818  16.240  1.00  0.00     0.157 A 
BRANCH  18  21
ATOM     21  O   UNL     1     -13.859  -3.389  15.829  1.00  0.00    -0.493 OA
ATOM     22  C   UNL     1     -12.556  -3.049  15.372  1.00  0.00     0.278 C 
ENDBRANCH  18  21
BRANCH  20  23
ATOM     23  O   UNL     1     -15.911  -1.814  14.875  1.00  0.00    -0.504 OA
ATOM     24  H   UNL     1     -15.559  -1.082  14.267  1.00  0.00     0.293 HD
ENDBRANCH  20  23
ENDBRANCH  14  15
ENDBRANCH  12  14
ENDBRANCH   9  10
ENDBRANCH   1   9
TORSDOF 10
ENDMDL
MODEL 9
REMARK VINA RESULT:     2.722      2.251      3.927
REMARK INTER + INTRA:           3.367
REMARK INTER:                   3.492
REMARK INTRA:                  -0.125
REMARK UNBOUND:                -0.867
REMARK SMILES COc1cc(CNC(=O)CCCCC=CC(C)C)ccc1O
REMARK SMILES IDX 11 1 12 2 13 3 14 4 15 5 16 6 17 7 18 8 10 9 8 10 9 11 7 12
REMARK SMILES IDX 6 14 5 15 4 16 19 17 3 18 20 19 21 20 2 21 1 22 22 23
REMARK H PARENT 7 13 22 24
REMARK Flexibility Score: inf
ROOT
ATOM      1  C   UNL     1     -10.177  -4.687  16.345  1.00  0.00     0.010 C 
ENDROOT
BRANCH   1   2
ATOM      2  C   UNL     1      -9.407  -5.796  17.083  1.00  0.00     0.005 C 
BRANCH   2   3
ATOM      3  C   UNL     1     -10.240  -7.053  17.390  1.00  0.00     0.027 C 
BRANCH   3   4
ATOM      4  C   UNL     1     -10.327  -7.350  18.866  1.00  0.00    -0.031 C 
ATOM      5  C   UNL     1      -9.350  -6.997  19.719  1.00  0.00    -0.028 C 
BRANCH   5   6
ATOM      6  C   UNL     1      -9.438  -7.324  21.196  1.00  0.00     0.005 C 
ATOM      7  C   UNL     1     -10.606  -6.568  21.844  1.00  0.00     0.012 C 
ATOM      8  C   UNL     1      -9.604  -8.833  21.403  1.00  0.00     0.012 C 
ENDBRANCH   5   6
ENDBRANCH   3   4
ENDBRANCH   2   3
ENDBRANCH   1   2
BRANCH   1   9
ATOM      9  C   UNL     1     -11.450  -4.250  17.082  1.00  0.00     0.100 C 
BRANCH   9  10
ATOM     10  C   UNL     1     -12.518  -3.908  16.088  1.00  0.00     0.220 C 
ATOM     11  O   UNL     1     -12.415  -2.855  15.407  1.00  0.00    -0.275 OA
ATOM     12  N   UNL     1     -13.685  -4.730  15.975  1.00  0.00    -0.352 N 
ATOM     13  H   UNL     1     -13.725  -5.627  16.510  1.00  0.00     0.163 HD
BRANCH  12  14
ATOM     14  C   UNL     1     -14.906  -4.264  15.326  1.00  0.00     0.151 C 
BRANCH  14  15
ATOM     15  C   UNL     1     -15.409  -3.030  16.026  1.00  0.00    -0.025 A 
ATOM     16  C   UNL     1     -15.045  -2.767  17.358  1.00  0.00     0.056 A 
ATOM     17  C   UNL     1     -16.311  -2.178  15.377  1.00  0.00     0.009 A 
ATOM     18  C   UNL     1     -15.568  -1.646  18.035  1.00  0.00     0.160 A 
ATOM     19  C   UNL     1     -16.826  -1.063  16.040  1.00  0.00     0.050 A 
ATOM     20  C   UNL     1     -16.455  -0.793  17.364  1.00  0.00     0.157 A 
BRANCH  18  21
ATOM     21  O   UNL     1     -15.234  -1.351  19.365  1.00  0.00    -0.493 OA
ATOM     22  C   UNL     1     -14.307  -2.098  20.144  1.00  0.00     0.278 C 
ENDBRANCH  18  21
BRANCH  20  23
ATOM     23  O   UNL     1     -16.964   0.323  18.021  1.00  0.00    -0.504 OA
ATOM     24  H   UNL     1     -16.356   1.060  18.363  1.00  0.00     0.293 HD
ENDBRANCH  20  23
ENDBRANCH  14  15
ENDBRANCH  12  14
ENDBRANCH   9  10
ENDBRANCH   1   9
TORSDOF 10
ENDMDL
