MODEL 1
REMARK VINA RESULT:    -7.566      0.000      0.000
REMARK INTER + INTRA:          -9.369
REMARK INTER:                  -9.114
REMARK INTRA:                  -0.255
REMARK UNBOUND:                -0.255
REMARK SMILES O=c1c(O)c(-c2ccc(O)c(O)c2)oc2cc(O)cc(O)c12
REMARK SMILES IDX 5 1 3 2 2 3 1 4 22 5 20 6 19 7 17 8 16 9 15 10 14 11 6 12
REMARK SMILES IDX 7 13 8 14 9 15 13 16 11 17 10 18 12 20 4 22 21 24 18 26
REMARK H PARENT 10 19 12 21 4 23 21 25 18 27
REMARK Flexibility Score: inf
ROOT
ATOM      1  C   UNL     1       0.012 -10.504 -40.619  1.00  0.00     0.180 A 
ATOM      2  C   UNL     1      -0.998 -10.525 -41.596  1.00  0.00     0.208 A 
ATOM      3  C   UNL     1      -1.361  -9.324 -42.227  1.00  0.00     0.238 A 
ATOM      4  O   UNL     1      -2.303  -9.341 -43.062  1.00  0.00    -0.285 OA
ATOM      5  C   UNL     1      -0.698  -8.120 -41.886  1.00  0.00     0.111 A 
ATOM      6  C   UNL     1      -0.956  -6.853 -42.490  1.00  0.00     0.134 A 
ATOM      7  C   UNL     1      -0.333  -5.707 -41.982  1.00  0.00     0.093 A 
ATOM      8  C   UNL     1       0.586  -5.790 -40.938  1.00  0.00     0.123 A 
ATOM      9  C   UNL     1       0.891  -7.031 -40.379  1.00  0.00     0.094 A 
ATOM     10  C   UNL     1       0.259  -8.188 -40.839  1.00  0.00     0.146 A 
ATOM     11  O   UNL     1       0.569  -9.349 -40.274  1.00  0.00    -0.452 OA
ENDROOT
BRANCH   1  12
ATOM     12  C   UNL     1       0.466 -11.732 -39.928  1.00  0.00     0.025 A 
ATOM     13  C   UNL     1      -0.319 -12.347 -38.936  1.00  0.00     0.016 A 
ATOM     14  C   UNL     1       0.119 -13.519 -38.315  1.00  0.00     0.051 A 
ATOM     15  C   UNL     1       1.338 -14.102 -38.683  1.00  0.00     0.157 A 
ATOM     16  C   UNL     1       1.677 -12.332 -40.309  1.00  0.00     0.062 A 
ATOM     17  C   UNL     1       2.119 -13.506 -39.687  1.00  0.00     0.158 A 
BRANCH  15  18
ATOM     18  O   UNL     1       1.773 -15.270 -38.060  1.00  0.00    -0.504 OA
ATOM     19  H   UNL     1       1.537 -15.477 -37.096  1.00  0.00     0.293 HD
ENDBRANCH  15  18
BRANCH  17  20
ATOM     20  O   UNL     1       3.334 -14.065 -40.081  1.00  0.00    -0.504 OA
ATOM     21  H   UNL     1       3.643 -14.970 -39.749  1.00  0.00     0.293 HD
ENDBRANCH  17  20
ENDBRANCH   1  12
BRANCH   2  22
ATOM     22  O   UNL     1      -1.655 -11.720 -41.902  1.00  0.00    -0.502 OA
ATOM     23  H   UNL     1      -2.498 -11.750 -42.463  1.00  0.00     0.293 HD
ENDBRANCH   2  22
BRANCH   6  24
ATOM     24  O   UNL     1      -1.788  -6.673 -43.599  1.00  0.00    -0.507 OA
ATOM     25  H   UNL     1      -2.715  -6.280 -43.564  1.00  0.00     0.293 HD
ENDBRANCH   6  24
BRANCH   8  26
ATOM     26  O   UNL     1       1.199  -4.629 -40.468  1.00  0.00    -0.508 OA
ATOM     27  H   UNL     1       1.317  -3.815 -41.060  1.00  0.00     0.293 HD
ENDBRANCH   8  26
TORSDOF 6
ENDMDL
MODEL 2
REMARK VINA RESULT:    -7.253      2.301      7.226
REMARK INTER + INTRA:          -8.992
REMARK INTER:                  -8.659
REMARK INTRA:                  -0.333
REMARK UNBOUND:                -0.255
REMARK SMILES O=c1c(O)c(-c2ccc(O)c(O)c2)oc2cc(O)cc(O)c12
REMARK SMILES IDX 5 1 3 2 2 3 1 4 22 5 20 6 19 7 17 8 16 9 15 10 14 11 6 12
REMARK SMILES IDX 7 13 8 14 9 15 13 16 11 17 10 18 12 20 4 22 21 24 18 26
REMARK H PARENT 10 19 12 21 4 23 21 25 18 27
REMARK Flexibility Score: inf
ROOT
ATOM      1  C   UNL     1       2.204  -9.342 -41.010  1.00  0.00     0.180 A 
ATOM      2  C   UNL     1       3.339 -10.127 -40.746  1.00  0.00     0.208 A 
ATOM      3  C   UNL     1       3.165 -11.435 -40.265  1.00  0.00     0.238 A 
ATOM      4  O   UNL     1       4.187 -12.114 -39.980  1.00  0.00    -0.285 OA
ATOM      5  C   UNL     1       1.860 -11.947 -40.071  1.00  0.00     0.111 A 
ATOM      6  C   UNL     1       1.567 -13.272 -39.628  1.00  0.00     0.134 A 
ATOM      7  C   UNL     1       0.242 -13.628 -39.345  1.00  0.00     0.093 A 
ATOM      8  C   UNL     1      -0.804 -12.731 -39.553  1.00  0.00     0.123 A 
ATOM      9  C   UNL     1      -0.535 -11.453 -40.044  1.00  0.00     0.094 A 
ATOM     10  C   UNL     1       0.779 -11.056 -40.300  1.00  0.00     0.146 A 
ATOM     11  O   UNL     1       0.994  -9.827 -40.756  1.00  0.00    -0.452 OA
ENDROOT
BRANCH   1  12
ATOM     12  C   UNL     1       2.305  -7.964 -41.541  1.00  0.00     0.025 A 
ATOM     13  C   UNL     1       2.341  -7.713 -42.924  1.00  0.00     0.016 A 
ATOM     14  C   UNL     1       2.413  -6.402 -43.403  1.00  0.00     0.051 A 
ATOM     15  C   UNL     1       2.435  -5.323 -42.511  1.00  0.00     0.157 A 
ATOM     16  C   UNL     1       2.307  -6.878 -40.651  1.00  0.00     0.062 A 
ATOM     17  C   UNL     1       2.379  -5.564 -41.127  1.00  0.00     0.158 A 
BRANCH  15  18
ATOM     18  O   UNL     1       2.508  -4.017 -42.991  1.00  0.00    -0.504 OA
ATOM     19  H   UNL     1       1.735  -3.370 -42.891  1.00  0.00     0.293 HD
ENDBRANCH  15  18
BRANCH  17  20
ATOM     20  O   UNL     1       2.393  -4.511 -40.213  1.00  0.00    -0.504 OA
ATOM     21  H   UNL     1       2.888  -4.571 -39.331  1.00  0.00     0.293 HD
ENDBRANCH  17  20
ENDBRANCH   1  12
BRANCH   2  22
ATOM     22  O   UNL     1       4.619  -9.595 -40.923  1.00  0.00    -0.502 OA
ATOM     23  H   UNL     1       5.322  -9.614 -40.195  1.00  0.00     0.293 HD
ENDBRANCH   2  22
BRANCH   6  24
ATOM     24  O   UNL     1       2.529 -14.275 -39.476  1.00  0.00    -0.507 OA
ATOM     25  H   UNL     1       3.257 -14.271 -38.778  1.00  0.00     0.293 HD
ENDBRANCH   6  24
BRANCH   8  26
ATOM     26  O   UNL     1      -2.112 -13.125 -39.277  1.00  0.00    -0.508 OA
ATOM     27  H   UNL     1      -2.436 -14.064 -39.475  1.00  0.00     0.293 HD
ENDBRANCH   8  26
TORSDOF 6
ENDMDL
MODEL 3
REMARK VINA RESULT:    -7.211      1.588      6.667
REMARK INTER + INTRA:          -8.942
REMARK INTER:                  -8.665
REMARK INTRA:                  -0.277
REMARK UNBOUND:                -0.255
REMARK SMILES O=c1c(O)c(-c2ccc(O)c(O)c2)oc2cc(O)cc(O)c12
REMARK SMILES IDX 5 1 3 2 2 3 1 4 22 5 20 6 19 7 17 8 16 9 15 10 14 11 6 12
REMARK SMILES IDX 7 13 8 14 9 15 13 16 11 17 10 18 12 20 4 22 21 24 18 26
REMARK H PARENT 10 19 12 21 4 23 21 25 18 27
REMARK Flexibility Score: inf
ROOT
ATOM      1  C   UNL     1       0.584  -8.955 -41.298  1.00  0.00     0.180 A 
ATOM      2  C   UNL     1      -0.792  -9.204 -41.442  1.00  0.00     0.208 A 
ATOM      3  C   UNL     1      -1.303 -10.451 -41.048  1.00  0.00     0.238 A 
ATOM      4  O   UNL     1      -2.526 -10.688 -41.230  1.00  0.00    -0.285 OA
ATOM      5  C   UNL     1      -0.436 -11.427 -40.499  1.00  0.00     0.111 A 
ATOM      6  C   UNL     1      -0.853 -12.708 -40.028  1.00  0.00     0.134 A 
ATOM      7  C   UNL     1       0.110 -13.642 -39.626  1.00  0.00     0.093 A 
ATOM      8  C   UNL     1       1.466 -13.319 -39.614  1.00  0.00     0.123 A 
ATOM      9  C   UNL     1       1.880 -12.048 -40.015  1.00  0.00     0.094 A 
ATOM     10  C   UNL     1       0.946 -11.108 -40.457  1.00  0.00     0.146 A 
ATOM     11  O   UNL     1       1.381  -9.913 -40.840  1.00  0.00    -0.452 OA
ENDROOT
BRANCH   1  12
ATOM     12  C   UNL     1       1.193  -7.657 -41.668  1.00  0.00     0.025 A 
ATOM     13  C   UNL     1       1.436  -7.319 -43.011  1.00  0.00     0.016 A 
ATOM     14  C   UNL     1       1.990  -6.079 -43.338  1.00  0.00     0.051 A 
ATOM     15  C   UNL     1       2.295  -5.153 -42.333  1.00  0.00     0.157 A 
ATOM     16  C   UNL     1       1.481  -6.717 -40.665  1.00  0.00     0.062 A 
ATOM     17  C   UNL     1       2.036  -5.474 -40.990  1.00  0.00     0.158 A 
BRANCH  15  18
ATOM     18  O   UNL     1       2.848  -3.917 -42.662  1.00  0.00    -0.504 OA
ATOM     19  H   UNL     1       2.518  -3.057 -42.239  1.00  0.00     0.293 HD
ENDBRANCH  15  18
BRANCH  17  20
ATOM     20  O   UNL     1       2.322  -4.572 -39.965  1.00  0.00    -0.504 OA
ATOM     21  H   UNL     1       2.622  -4.877 -39.048  1.00  0.00     0.293 HD
ENDBRANCH  17  20
ENDBRANCH   1  12
BRANCH   2  22
ATOM     22  O   UNL     1      -1.626  -8.236 -42.008  1.00  0.00    -0.502 OA
ATOM     23  H   UNL     1      -2.624  -8.210 -41.836  1.00  0.00     0.293 HD
ENDBRANCH   2  22
BRANCH   6  24
ATOM     24  O   UNL     1      -2.190 -13.100 -39.912  1.00  0.00    -0.507 OA
ATOM     25  H   UNL     1      -2.689 -13.188 -39.040  1.00  0.00     0.293 HD
ENDBRANCH   6  24
BRANCH   8  26
ATOM     26  O   UNL     1       2.395 -14.268 -39.192  1.00  0.00    -0.508 OA
ATOM     27  H   UNL     1       3.172 -14.019 -38.591  1.00  0.00     0.293 HD
ENDBRANCH   8  26
TORSDOF 6
ENDMDL
MODEL 4
REMARK VINA RESULT:    -7.145      3.876      5.478
REMARK INTER + INTRA:          -8.862
REMARK INTER:                  -8.577
REMARK INTRA:                  -0.285
REMARK UNBOUND:                -0.255
REMARK SMILES O=c1c(O)c(-c2ccc(O)c(O)c2)oc2cc(O)cc(O)c12
REMARK SMILES IDX 5 1 3 2 2 3 1 4 22 5 20 6 19 7 17 8 16 9 15 10 14 11 6 12
REMARK SMILES IDX 7 13 8 14 9 15 13 16 11 17 10 18 12 20 4 22 21 24 18 26
REMARK H PARENT 10 19 12 21 4 23 21 25 18 27
REMARK Flexibility Score: inf
ROOT
ATOM      1  C   UNL     1       3.030 -11.823 -41.023  1.00  0.00     0.180 A 
ATOM      2  C   UNL     1       4.357 -12.270 -41.145  1.00  0.00     0.208 A 
ATOM      3  C   UNL     1       5.081 -11.944 -42.303  1.00  0.00     0.238 A 
ATOM      4  O   UNL     1       6.250 -12.393 -42.431  1.00  0.00    -0.285 OA
ATOM      5  C   UNL     1       4.475 -11.161 -43.316  1.00  0.00     0.111 A 
ATOM      6  C   UNL     1       5.129 -10.738 -44.512  1.00  0.00     0.134 A 
ATOM      7  C   UNL     1       4.393 -10.078 -45.504  1.00  0.00     0.093 A 
ATOM      8  C   UNL     1       3.047  -9.768 -45.316  1.00  0.00     0.123 A 
ATOM      9  C   UNL     1       2.413 -10.124 -44.125  1.00  0.00     0.094 A 
ATOM     10  C   UNL     1       3.111 -10.816 -43.133  1.00  0.00     0.146 A 
ATOM     11  O   UNL     1       2.469 -11.147 -42.018  1.00  0.00    -0.452 OA
ENDROOT
BRANCH   1  12
ATOM     12  C   UNL     1       2.211 -12.106 -39.822  1.00  0.00     0.025 A 
ATOM     13  C   UNL     1       1.986 -11.123 -38.841  1.00  0.00     0.016 A 
ATOM     14  C   UNL     1       1.190 -11.405 -37.728  1.00  0.00     0.051 A 
ATOM     15  C   UNL     1       0.596 -12.665 -37.584  1.00  0.00     0.157 A 
ATOM     16  C   UNL     1       1.596 -13.361 -39.684  1.00  0.00     0.062 A 
ATOM     17  C   UNL     1       0.798 -13.646 -38.569  1.00  0.00     0.158 A 
BRANCH  15  18
ATOM     18  O   UNL     1      -0.196 -12.943 -36.472  1.00  0.00    -0.504 OA
ATOM     19  H   UNL     1      -0.578 -13.868 -36.310  1.00  0.00     0.293 HD
ENDBRANCH  15  18
BRANCH  17  20
ATOM     20  O   UNL     1       0.216 -14.908 -38.459  1.00  0.00    -0.504 OA
ATOM     21  H   UNL     1      -0.731 -15.036 -38.124  1.00  0.00     0.293 HD
ENDBRANCH  17  20
ENDBRANCH   1  12
BRANCH   2  22
ATOM     22  O   UNL     1       4.928 -13.060 -40.144  1.00  0.00    -0.502 OA
ATOM     23  H   UNL     1       4.743 -14.052 -40.062  1.00  0.00     0.293 HD
ENDBRANCH   2  22
BRANCH   6  24
ATOM     24  O   UNL     1       6.493 -10.915 -44.760  1.00  0.00    -0.507 OA
ATOM     25  H   UNL     1       6.919 -11.788 -45.030  1.00  0.00     0.293 HD
ENDBRANCH   6  24
BRANCH   8  26
ATOM     26  O   UNL     1       2.350  -9.096 -46.318  1.00  0.00    -0.508 OA
ATOM     27  H   UNL     1       1.558  -8.500 -46.105  1.00  0.00     0.293 HD
ENDBRANCH   8  26
TORSDOF 6
ENDMDL
MODEL 5
REMARK VINA RESULT:    -7.115      4.056      6.265
REMARK INTER + INTRA:          -8.826
REMARK INTER:                  -8.495
REMARK INTRA:                  -0.331
REMARK UNBOUND:                -0.255
REMARK SMILES O=c1c(O)c(-c2ccc(O)c(O)c2)oc2cc(O)cc(O)c12
REMARK SMILES IDX 5 1 3 2 2 3 1 4 22 5 20 6 19 7 17 8 16 9 15 10 14 11 6 12
REMARK SMILES IDX 7 13 8 14 9 15 13 16 11 17 10 18 12 20 4 22 21 24 18 26
REMARK H PARENT 10 19 12 21 4 23 21 25 18 27
REMARK Flexibility Score: inf
ROOT
ATOM      1  C   UNL     1       3.156 -11.762 -40.225  1.00  0.00     0.180 A 
ATOM      2  C   UNL     1       2.922 -11.321 -41.538  1.00  0.00     0.208 A 
ATOM      3  C   UNL     1       4.003 -11.236 -42.430  1.00  0.00     0.238 A 
ATOM      4  O   UNL     1       3.796 -10.788 -43.589  1.00  0.00    -0.285 OA
ATOM      5  C   UNL     1       5.300 -11.609 -42.004  1.00  0.00     0.111 A 
ATOM      6  C   UNL     1       6.460 -11.601 -42.836  1.00  0.00     0.134 A 
ATOM      7  C   UNL     1       7.715 -11.865 -42.272  1.00  0.00     0.093 A 
ATOM      8  C   UNL     1       7.843 -12.200 -40.925  1.00  0.00     0.123 A 
ATOM      9  C   UNL     1       6.709 -12.269 -40.116  1.00  0.00     0.094 A 
ATOM     10  C   UNL     1       5.448 -11.976 -40.641  1.00  0.00     0.146 A 
ATOM     11  O   UNL     1       4.394 -12.043 -39.835  1.00  0.00    -0.452 OA
ENDROOT
BRANCH   1  12
ATOM     12  C   UNL     1       2.064 -11.902 -39.234  1.00  0.00     0.025 A 
ATOM     13  C   UNL     1       1.360 -13.109 -39.086  1.00  0.00     0.016 A 
ATOM     14  C   UNL     1       0.349 -13.225 -38.128  1.00  0.00     0.051 A 
ATOM     15  C   UNL     1       0.037 -12.144 -37.295  1.00  0.00     0.157 A 
ATOM     16  C   UNL     1       1.762 -10.827 -38.382  1.00  0.00     0.062 A 
ATOM     17  C   UNL     1       0.750 -10.940 -37.422  1.00  0.00     0.158 A 
BRANCH  15  18
ATOM     18  O   UNL     1      -0.972 -12.262 -36.341  1.00  0.00    -0.504 OA
ATOM     19  H   UNL     1      -1.206 -13.155 -35.923  1.00  0.00     0.293 HD
ENDBRANCH  15  18
BRANCH  17  20
ATOM     20  O   UNL     1       0.468  -9.846 -36.603  1.00  0.00    -0.504 OA
ATOM     21  H   UNL     1       0.275  -9.949 -35.614  1.00  0.00     0.293 HD
ENDBRANCH  17  20
ENDBRANCH   1  12
BRANCH   2  22
ATOM     22  O   UNL     1       1.638 -10.936 -41.932  1.00  0.00    -0.502 OA
ATOM     23  H   UNL     1       0.988 -10.483 -41.302  1.00  0.00     0.293 HD
ENDBRANCH   2  22
BRANCH   6  24
ATOM     24  O   UNL     1       6.431 -11.370 -44.214  1.00  0.00    -0.507 OA
ATOM     25  H   UNL     1       6.574 -12.076 -44.918  1.00  0.00     0.293 HD
ENDBRANCH   6  24
BRANCH   8  26
ATOM     26  O   UNL     1       9.106 -12.472 -40.402  1.00  0.00    -0.508 OA
ATOM     27  H   UNL     1       9.941 -12.415 -40.975  1.00  0.00     0.293 HD
ENDBRANCH   8  26
TORSDOF 6
ENDMDL
MODEL 6
REMARK VINA RESULT:    -7.044      7.906      9.545
REMARK INTER + INTRA:          -8.741
REMARK INTER:                  -8.429
REMARK INTRA:                  -0.312
REMARK UNBOUND:                -0.255
REMARK SMILES O=c1c(O)c(-c2ccc(O)c(O)c2)oc2cc(O)cc(O)c12
REMARK SMILES IDX 5 1 3 2 2 3 1 4 22 5 20 6 19 7 17 8 16 9 15 10 14 11 6 12
REMARK SMILES IDX 7 13 8 14 9 15 13 16 11 17 10 18 12 20 4 22 21 24 18 26
REMARK H PARENT 10 19 12 21 4 23 21 25 18 27
REMARK Flexibility Score: inf
ROOT
ATOM      1  C   UNL     1       8.930  -8.689 -40.979  1.00  0.00     0.180 A 
ATOM      2  C   UNL     1      10.323  -8.514 -41.013  1.00  0.00     0.208 A 
ATOM      3  C   UNL     1      10.856  -7.237 -40.776  1.00  0.00     0.238 A 
ATOM      4  O   UNL     1      12.102  -7.076 -40.861  1.00  0.00    -0.285 OA
ATOM      5  C   UNL     1       9.990  -6.154 -40.489  1.00  0.00     0.111 A 
ATOM      6  C   UNL     1      10.422  -4.827 -40.191  1.00  0.00     0.134 A 
ATOM      7  C   UNL     1       9.473  -3.807 -40.053  1.00  0.00     0.093 A 
ATOM      8  C   UNL     1       8.108  -4.077 -40.134  1.00  0.00     0.123 A 
ATOM      9  C   UNL     1       7.672  -5.382 -40.364  1.00  0.00     0.094 A 
ATOM     10  C   UNL     1       8.596  -6.414 -40.544  1.00  0.00     0.146 A 
ATOM     11  O   UNL     1       8.140  -7.641 -40.772  1.00  0.00    -0.452 OA
ENDROOT
BRANCH   1  12
ATOM     12  C   UNL     1       8.295 -10.009 -41.196  1.00  0.00     0.025 A 
ATOM     13  C   UNL     1       7.835 -10.400 -42.465  1.00  0.00     0.016 A 
ATOM     14  C   UNL     1       7.261 -11.661 -42.651  1.00  0.00     0.051 A 
ATOM     15  C   UNL     1       7.151 -12.553 -41.578  1.00  0.00     0.157 A 
ATOM     16  C   UNL     1       8.201 -10.915 -40.127  1.00  0.00     0.062 A 
ATOM     17  C   UNL     1       7.626 -12.178 -40.310  1.00  0.00     0.158 A 
BRANCH  15  18
ATOM     18  O   UNL     1       6.577 -13.809 -41.766  1.00  0.00    -0.504 OA
ATOM     19  H   UNL     1       6.004 -14.015 -42.576  1.00  0.00     0.293 HD
ENDBRANCH  15  18
BRANCH  17  20
ATOM     20  O   UNL     1       7.537 -13.045 -39.222  1.00  0.00    -0.504 OA
ATOM     21  H   UNL     1       8.325 -13.601 -38.911  1.00  0.00     0.293 HD
ENDBRANCH  17  20
ENDBRANCH   1  12
BRANCH   2  22
ATOM     22  O   UNL     1      11.160  -9.591 -41.321  1.00  0.00    -0.502 OA
ATOM     23  H   UNL     1      11.283  -9.932 -42.266  1.00  0.00     0.293 HD
ENDBRANCH   2  22
BRANCH   6  24
ATOM     24  O   UNL     1      11.759  -4.467 -39.998  1.00  0.00    -0.507 OA
ATOM     25  H   UNL     1      12.465  -4.470 -40.717  1.00  0.00     0.293 HD
ENDBRANCH   6  24
BRANCH   8  26
ATOM     26  O   UNL     1       7.191  -3.040 -39.974  1.00  0.00    -0.508 OA
ATOM     27  H   UNL     1       6.787  -2.823 -39.070  1.00  0.00     0.293 HD
ENDBRANCH   8  26
TORSDOF 6
ENDMDL
MODEL 7
REMARK VINA RESULT:    -7.033      6.436      8.743
REMARK INTER + INTRA:          -8.727
REMARK INTER:                  -8.489
REMARK INTRA:                  -0.238
REMARK UNBOUND:                -0.255
REMARK SMILES O=c1c(O)c(-c2ccc(O)c(O)c2)oc2cc(O)cc(O)c12
REMARK SMILES IDX 5 1 3 2 2 3 1 4 22 5 20 6 19 7 17 8 16 9 15 10 14 11 6 12
REMARK SMILES IDX 7 13 8 14 9 15 13 16 11 17 10 18 12 20 4 22 21 24 18 26
REMARK H PARENT 10 19 12 21 4 23 21 25 18 27
REMARK Flexibility Score: inf
ROOT
ATOM      1  C   UNL     1       6.022  -6.296 -41.762  1.00  0.00     0.180 A 
ATOM      2  C   UNL     1       4.758  -5.769 -42.078  1.00  0.00     0.208 A 
ATOM      3  C   UNL     1       4.009  -6.366 -43.105  1.00  0.00     0.238 A 
ATOM      4  O   UNL     1       2.901  -5.856 -43.419  1.00  0.00    -0.285 OA
ATOM      5  C   UNL     1       4.524  -7.493 -43.789  1.00  0.00     0.111 A 
ATOM      6  C   UNL     1       3.833  -8.202 -44.818  1.00  0.00     0.134 A 
ATOM      7  C   UNL     1       4.493  -9.221 -45.516  1.00  0.00     0.093 A 
ATOM      8  C   UNL     1       5.791  -9.600 -45.180  1.00  0.00     0.123 A 
ATOM      9  C   UNL     1       6.455  -8.954 -44.136  1.00  0.00     0.094 A 
ATOM     10  C   UNL     1       5.837  -7.909 -43.446  1.00  0.00     0.146 A 
ATOM     11  O   UNL     1       6.506  -7.312 -42.466  1.00  0.00    -0.452 OA
ENDROOT
BRANCH   1  12
ATOM     12  C   UNL     1       6.860  -5.736 -40.677  1.00  0.00     0.025 A 
ATOM     13  C   UNL     1       7.061  -6.434 -39.473  1.00  0.00     0.016 A 
ATOM     14  C   UNL     1       7.876  -5.898 -38.473  1.00  0.00     0.051 A 
ATOM     15  C   UNL     1       8.512  -4.665 -38.664  1.00  0.00     0.157 A 
ATOM     16  C   UNL     1       7.517  -4.511 -40.873  1.00  0.00     0.062 A 
ATOM     17  C   UNL     1       8.334  -3.970 -39.873  1.00  0.00     0.158 A 
BRANCH  15  18
ATOM     18  O   UNL     1       9.323  -4.132 -37.664  1.00  0.00    -0.504 OA
ATOM     19  H   UNL     1       9.198  -4.381 -36.690  1.00  0.00     0.293 HD
ENDBRANCH  15  18
BRANCH  17  20
ATOM     20  O   UNL     1       8.958  -2.744 -40.097  1.00  0.00    -0.504 OA
ATOM     21  H   UNL     1       9.913  -2.679 -40.431  1.00  0.00     0.293 HD
ENDBRANCH  17  20
ENDBRANCH   1  12
BRANCH   2  22
ATOM     22  O   UNL     1       4.278  -4.642 -41.405  1.00  0.00    -0.502 OA
ATOM     23  H   UNL     1       3.331  -4.582 -41.050  1.00  0.00     0.293 HD
ENDBRANCH   2  22
BRANCH   6  24
ATOM     24  O   UNL     1       2.501  -7.964 -45.170  1.00  0.00    -0.507 OA
ATOM     25  H   UNL     1       1.748  -7.834 -44.512  1.00  0.00     0.293 HD
ENDBRANCH   6  24
BRANCH   8  26
ATOM     26  O   UNL     1       6.411 -10.630 -45.886  1.00  0.00    -0.508 OA
ATOM     27  H   UNL     1       7.324 -10.508 -46.308  1.00  0.00     0.293 HD
ENDBRANCH   8  26
TORSDOF 6
ENDMDL
MODEL 8
REMARK VINA RESULT:    -6.999      2.650      3.113
REMARK INTER + INTRA:          -8.686
REMARK INTER:                  -8.374
REMARK INTRA:                  -0.312
REMARK UNBOUND:                -0.255
REMARK SMILES O=c1c(O)c(-c2ccc(O)c(O)c2)oc2cc(O)cc(O)c12
REMARK SMILES IDX 5 1 3 2 2 3 1 4 22 5 20 6 19 7 17 8 16 9 15 10 14 11 6 12
REMARK SMILES IDX 7 13 8 14 9 15 13 16 11 17 10 18 12 20 4 22 21 24 18 26
REMARK H PARENT 10 19 12 21 4 23 21 25 18 27
REMARK Flexibility Score: inf
ROOT
ATOM      1  C   UNL     1       1.548 -10.361 -40.324  1.00  0.00     0.180 A 
ATOM      2  C   UNL     1       0.880 -10.123 -41.537  1.00  0.00     0.208 A 
ATOM      3  C   UNL     1       1.306  -9.063 -42.353  1.00  0.00     0.238 A 
ATOM      4  O   UNL     1       0.669  -8.821 -43.412  1.00  0.00    -0.285 OA
ATOM      5  C   UNL     1       2.407  -8.266 -41.955  1.00  0.00     0.111 A 
ATOM      6  C   UNL     1       2.950  -7.192 -42.723  1.00  0.00     0.134 A 
ATOM      7  C   UNL     1       3.955  -6.389 -42.171  1.00  0.00     0.093 A 
ATOM      8  C   UNL     1       4.483  -6.660 -40.910  1.00  0.00     0.123 A 
ATOM      9  C   UNL     1       4.001  -7.743 -40.175  1.00  0.00     0.094 A 
ATOM     10  C   UNL     1       2.973  -8.540 -40.683  1.00  0.00     0.146 A 
ATOM     11  O   UNL     1       2.535  -9.556 -39.947  1.00  0.00    -0.452 OA
ENDROOT
BRANCH   1  12
ATOM     12  C   UNL     1       1.173 -11.474 -39.423  1.00  0.00     0.025 A 
ATOM     13  C   UNL     1       1.596 -12.792 -39.670  1.00  0.00     0.016 A 
ATOM     14  C   UNL     1       1.249 -13.822 -38.792  1.00  0.00     0.051 A 
ATOM     15  C   UNL     1       0.488 -13.551 -37.649  1.00  0.00     0.157 A 
ATOM     16  C   UNL     1       0.427 -11.203 -38.263  1.00  0.00     0.062 A 
ATOM     17  C   UNL     1       0.078 -12.233 -37.382  1.00  0.00     0.158 A 
BRANCH  15  18
ATOM     18  O   UNL     1       0.143 -14.581 -36.776  1.00  0.00    -0.504 OA
ATOM     19  H   UNL     1      -0.105 -14.398 -35.810  1.00  0.00     0.293 HD
ENDBRANCH  15  18
BRANCH  17  20
ATOM     20  O   UNL     1      -0.675 -11.929 -36.249  1.00  0.00    -0.504 OA
ATOM     21  H   UNL     1      -0.445 -12.298 -35.334  1.00  0.00     0.293 HD
ENDBRANCH  17  20
ENDBRANCH   1  12
BRANCH   2  22
ATOM     22  O   UNL     1      -0.218 -10.908 -41.900  1.00  0.00    -0.502 OA
ATOM     23  H   UNL     1      -1.003 -10.537 -42.422  1.00  0.00     0.293 HD
ENDBRANCH   2  22
BRANCH   6  24
ATOM     24  O   UNL     1       2.559  -6.893 -44.032  1.00  0.00    -0.507 OA
ATOM     25  H   UNL     1       1.663  -6.509 -44.290  1.00  0.00     0.293 HD
ENDBRANCH   6  24
BRANCH   8  26
ATOM     26  O   UNL     1       5.494  -5.848 -40.399  1.00  0.00    -0.508 OA
ATOM     27  H   UNL     1       5.318  -5.192 -39.647  1.00  0.00     0.293 HD
ENDBRANCH   8  26
TORSDOF 6
ENDMDL
MODEL 9
REMARK VINA RESULT:    -6.948      6.301      7.782
REMARK INTER + INTRA:          -8.626
REMARK INTER:                  -8.294
REMARK INTRA:                  -0.331
REMARK UNBOUND:                -0.255
REMARK SMILES O=c1c(O)c(-c2ccc(O)c(O)c2)oc2cc(O)cc(O)c12
REMARK SMILES IDX 5 1 3 2 2 3 1 4 22 5 20 6 19 7 17 8 16 9 15 10 14 11 6 12
REMARK SMILES IDX 7 13 8 14 9 15 13 16 11 17 10 18 12 20 4 22 21 24 18 26
REMARK H PARENT 10 19 12 21 4 23 21 25 18 27
REMARK Flexibility Score: inf
ROOT
ATOM      1  C   UNL     1       6.944  -8.581 -40.868  1.00  0.00     0.180 A 
ATOM      2  C   UNL     1       6.211  -7.616 -41.577  1.00  0.00     0.208 A 
ATOM      3  C   UNL     1       6.389  -6.259 -41.264  1.00  0.00     0.238 A 
ATOM      4  O   UNL     1       5.689  -5.402 -41.866  1.00  0.00    -0.285 OA
ATOM      5  C   UNL     1       7.312  -5.883 -40.258  1.00  0.00     0.111 A 
ATOM      6  C   UNL     1       7.603  -4.536 -39.888  1.00  0.00     0.134 A 
ATOM      7  C   UNL     1       8.436  -4.287 -38.789  1.00  0.00     0.093 A 
ATOM      8  C   UNL     1       9.039  -5.332 -38.092  1.00  0.00     0.123 A 
ATOM      9  C   UNL     1       8.809  -6.651 -38.483  1.00  0.00     0.094 A 
ATOM     10  C   UNL     1       7.954  -6.932 -39.551  1.00  0.00     0.146 A 
ATOM     11  O   UNL     1       7.754  -8.202 -39.886  1.00  0.00    -0.452 OA
ENDROOT
BRANCH   1  12
ATOM     12  C   UNL     1       6.829 -10.029 -41.157  1.00  0.00     0.025 A 
ATOM     13  C   UNL     1       7.666 -10.657 -42.095  1.00  0.00     0.016 A 
ATOM     14  C   UNL     1       7.555 -12.030 -42.334  1.00  0.00     0.051 A 
ATOM     15  C   UNL     1       6.617 -12.796 -41.632  1.00  0.00     0.157 A 
ATOM     16  C   UNL     1       5.904 -10.806 -40.440  1.00  0.00     0.062 A 
ATOM     17  C   UNL     1       5.790 -12.180 -40.677  1.00  0.00     0.158 A 
BRANCH  15  18
ATOM     18  O   UNL     1       6.508 -14.164 -41.874  1.00  0.00    -0.504 OA
ATOM     19  H   UNL     1       5.710 -14.699 -41.549  1.00  0.00     0.293 HD
ENDBRANCH  15  18
BRANCH  17  20
ATOM     20  O   UNL     1       4.851 -12.917 -39.956  1.00  0.00    -0.504 OA
ATOM     21  H   UNL     1       4.371 -12.534 -39.150  1.00  0.00     0.293 HD
ENDBRANCH  17  20
ENDBRANCH   1  12
BRANCH   2  22
ATOM     22  O   UNL     1       5.288  -8.009 -42.551  1.00  0.00    -0.502 OA
ATOM     23  H   UNL     1       4.291  -7.871 -42.444  1.00  0.00     0.293 HD
ENDBRANCH   2  22
BRANCH   6  24
ATOM     24  O   UNL     1       7.125  -3.417 -40.576  1.00  0.00    -0.507 OA
ATOM     25  H   UNL     1       6.755  -2.587 -40.138  1.00  0.00     0.293 HD
ENDBRANCH   6  24
BRANCH   8  26
ATOM     26  O   UNL     1       9.875  -5.046 -37.014  1.00  0.00    -0.508 OA
ATOM     27  H   UNL     1       9.612  -5.279 -36.063  1.00  0.00     0.293 HD
ENDBRANCH   8  26
TORSDOF 6
ENDMDL
