MODEL 1
REMARK VINA RESULT:    -4.868      0.000      0.000
REMARK INTER + INTRA:         -14.953
REMARK INTER:                 -11.128
REMARK INTRA:                  -3.825
REMARK UNBOUND:                -3.825
REMARK SMILES CCCCCCCCCCCCCCCCCCCCCCCC(=O)[O-]
REMARK SMILES IDX 13 1 14 2 15 3 16 4 17 5 18 6 19 7 20 8 21 9 22 10 23 11
REMARK SMILES IDX 24 12 25 13 26 14 12 15 11 16 10 17 9 18 8 19 7 20 6 21 5 22
REMARK SMILES IDX 4 23 3 24 2 25 1 26
REMARK H PARENT
REMARK Flexibility Score: inf
ROOT
ATOM      1  C   UNL     1     -46.965 -49.671  33.572  1.00  0.00     0.000 C 
ENDROOT
BRANCH   1   2
ATOM      2  C   UNL     1     -46.170 -50.966  33.800  1.00  0.00     0.000 C 
BRANCH   2   3
ATOM      3  C   UNL     1     -46.270 -51.935  32.610  1.00  0.00     0.000 C 
BRANCH   3   4
ATOM      4  C   UNL     1     -44.925 -52.114  31.885  1.00  0.00     0.000 C 
BRANCH   4   5
ATOM      5  C   UNL     1     -43.751 -51.482  32.651  1.00  0.00     0.000 C 
BRANCH   5   6
ATOM      6  C   UNL     1     -42.627 -50.990  31.722  1.00  0.00     0.000 C 
BRANCH   6   7
ATOM      7  C   UNL     1     -42.933 -51.275  30.236  1.00  0.00     0.000 C 
BRANCH   7   8
ATOM      8  C   UNL     1     -41.757 -50.963  29.290  1.00  0.00     0.000 C 
BRANCH   8   9
ATOM      9  C   UNL     1     -41.326 -49.486  29.264  1.00  0.00     0.000 C 
BRANCH   9  10
ATOM     10  C   UNL     1     -40.358 -49.171  28.110  1.00  0.00     0.006 C 
BRANCH  10  11
ATOM     11  C   UNL     1     -39.884 -47.712  28.141  1.00  0.00     0.053 C 
BRANCH  11  12
ATOM     12  C   UNL     1     -38.573 -47.574  28.853  1.00  0.00     0.041 C 
ATOM     13  O   UNL     1     -38.323 -46.540  29.527  1.00  0.00    -0.550 OA
ATOM     14  O   UNL     1     -37.643 -48.605  28.804  1.00  0.00    -0.550 OA
ENDBRANCH  11  12
ENDBRANCH  10  11
ENDBRANCH   9  10
ENDBRANCH   8   9
ENDBRANCH   7   8
ENDBRANCH   6   7
ENDBRANCH   5   6
ENDBRANCH   4   5
ENDBRANCH   3   4
ENDBRANCH   2   3
ENDBRANCH   1   2
BRANCH   1  15
ATOM     15  C   UNL     1     -46.923 -49.249  32.099  1.00  0.00     0.000 C 
BRANCH  15  16
ATOM     16  C   UNL     1     -45.965 -48.065  31.894  1.00  0.00     0.000 C 
BRANCH  16  17
ATOM     17  C   UNL     1     -44.950 -48.324  30.761  1.00  0.00     0.000 C 
BRANCH  17  18
ATOM     18  C   UNL     1     -45.518 -49.176  29.613  1.00  0.00    -0.000 C 
BRANCH  18  19
ATOM     19  C   UNL     1     -44.862 -48.857  28.260  1.00  0.00    -0.000 C 
BRANCH  19  20
ATOM     20  C   UNL     1     -44.626 -47.351  28.056  1.00  0.00    -0.000 C 
BRANCH  20  21
ATOM     21  C   UNL     1     -43.328 -47.046  27.287  1.00  0.00    -0.000 C 
BRANCH  21  22
ATOM     22  C   UNL     1     -43.436 -47.395  25.789  1.00  0.00    -0.000 C 
BRANCH  22  23
ATOM     23  C   UNL     1     -42.681 -48.677  25.393  1.00  0.00    -0.000 C 
BRANCH  23  24
ATOM     24  C   UNL     1     -43.577 -49.703  24.678  1.00  0.00    -0.000 C 
BRANCH  24  25
ATOM     25  C   UNL     1     -44.999 -49.174  24.432  1.00  0.00    -0.003 C 
ATOM     26  C   UNL     1     -46.077 -50.087  25.014  1.00  0.00     0.004 C 
ENDBRANCH  24  25
ENDBRANCH  23  24
ENDBRANCH  22  23
ENDBRANCH  21  22
ENDBRANCH  20  21
ENDBRANCH  19  20
ENDBRANCH  18  19
ENDBRANCH  17  18
ENDBRANCH  16  17
ENDBRANCH  15  16
ENDBRANCH   1  15
TORSDOF 22
ENDMDL
MODEL 2
REMARK VINA RESULT:    -4.792      8.356     11.847
REMARK INTER + INTRA:         -14.780
REMARK INTER:                 -10.964
REMARK INTRA:                  -3.815
REMARK UNBOUND:                -3.825
REMARK SMILES CCCCCCCCCCCCCCCCCCCCCCCC(=O)[O-]
REMARK SMILES IDX 13 1 14 2 15 3 16 4 17 5 18 6 19 7 20 8 21 9 22 10 23 11
REMARK SMILES IDX 24 12 25 13 26 14 12 15 11 16 10 17 9 18 8 19 7 20 6 21 5 22
REMARK SMILES IDX 4 23 3 24 2 25 1 26
REMARK H PARENT
REMARK Flexibility Score: inf
ROOT
ATOM      1  C   UNL     1     -48.192 -49.515  24.591  1.00  0.00     0.000 C 
ENDROOT
BRANCH   1   2
ATOM      2  C   UNL     1     -47.941 -48.199  25.342  1.00  0.00     0.000 C 
BRANCH   2   3
ATOM      3  C   UNL     1     -47.451 -47.075  24.414  1.00  0.00     0.000 C 
BRANCH   3   4
ATOM      4  C   UNL     1     -47.702 -47.390  22.929  1.00  0.00     0.000 C 
BRANCH   4   5
ATOM      5  C   UNL     1     -48.877 -46.589  22.345  1.00  0.00     0.000 C 
BRANCH   5   6
ATOM      6  C   UNL     1     -49.532 -47.282  21.137  1.00  0.00     0.000 C 
BRANCH   6   7
ATOM      7  C   UNL     1     -48.700 -48.481  20.632  1.00  0.00     0.000 C 
BRANCH   7   8
ATOM      8  C   UNL     1     -48.794 -48.703  19.110  1.00  0.00     0.000 C 
BRANCH   8   9
ATOM      9  C   UNL     1     -47.506 -49.231  18.455  1.00  0.00     0.000 C 
BRANCH   9  10
ATOM     10  C   UNL     1     -47.727 -50.544  17.683  1.00  0.00     0.006 C 
BRANCH  10  11
ATOM     11  C   UNL     1     -47.741 -50.322  16.165  1.00  0.00     0.053 C 
BRANCH  11  12
ATOM     12  C   UNL     1     -49.097 -50.580  15.584  1.00  0.00     0.041 C 
ATOM     13  O   UNL     1     -50.004 -51.093  16.291  1.00  0.00    -0.550 OA
ATOM     14  O   UNL     1     -49.372 -50.217  14.271  1.00  0.00    -0.550 OA
ENDBRANCH  11  12
ENDBRANCH  10  11
ENDBRANCH   9  10
ENDBRANCH   8   9
ENDBRANCH   7   8
ENDBRANCH   6   7
ENDBRANCH   5   6
ENDBRANCH   4   5
ENDBRANCH   3   4
ENDBRANCH   2   3
ENDBRANCH   1   2
BRANCH   1  15
ATOM     15  C   UNL     1     -49.601 -50.051  24.872  1.00  0.00     0.000 C 
BRANCH  15  16
ATOM     16  C   UNL     1     -50.583 -49.617  23.773  1.00  0.00     0.000 C 
BRANCH  16  17
ATOM     17  C   UNL     1     -51.815 -48.884  24.346  1.00  0.00     0.000 C 
BRANCH  17  18
ATOM     18  C   UNL     1     -51.565 -47.391  24.620  1.00  0.00    -0.000 C 
BRANCH  18  19
ATOM     19  C   UNL     1     -52.566 -46.481  23.892  1.00  0.00    -0.000 C 
BRANCH  19  20
ATOM     20  C   UNL     1     -52.809 -46.913  22.436  1.00  0.00    -0.000 C 
BRANCH  20  21
ATOM     21  C   UNL     1     -54.290 -47.206  22.137  1.00  0.00    -0.000 C 
BRANCH  21  22
ATOM     22  C   UNL     1     -54.479 -48.491  21.305  1.00  0.00    -0.000 C 
BRANCH  22  23
ATOM     23  C   UNL     1     -53.176 -49.278  21.073  1.00  0.00    -0.000 C 
BRANCH  23  24
ATOM     24  C   UNL     1     -52.647 -49.151  19.635  1.00  0.00    -0.000 C 
BRANCH  24  25
ATOM     25  C   UNL     1     -51.947 -50.431  19.149  1.00  0.00    -0.003 C 
ATOM     26  C   UNL     1     -51.859 -51.503  20.235  1.00  0.00     0.004 C 
ENDBRANCH  24  25
ENDBRANCH  23  24
ENDBRANCH  22  23
ENDBRANCH  21  22
ENDBRANCH  20  21
ENDBRANCH  19  20
ENDBRANCH  18  19
ENDBRANCH  17  18
ENDBRANCH  16  17
ENDBRANCH  15  16
ENDBRANCH   1  15
TORSDOF 22
ENDMDL
MODEL 3
REMARK VINA RESULT:    -4.783      8.627     13.091
REMARK INTER + INTRA:         -14.760
REMARK INTER:                 -11.007
REMARK INTRA:                  -3.752
REMARK UNBOUND:                -3.825
REMARK SMILES CCCCCCCCCCCCCCCCCCCCCCCC(=O)[O-]
REMARK SMILES IDX 13 1 14 2 15 3 16 4 17 5 18 6 19 7 20 8 21 9 22 10 23 11
REMARK SMILES IDX 24 12 25 13 26 14 12 15 11 16 10 17 9 18 8 19 7 20 6 21 5 22
REMARK SMILES IDX 4 23 3 24 2 25 1 26
REMARK H PARENT
REMARK Flexibility Score: inf
ROOT
ATOM      1  C   UNL     1     -48.702 -51.302  16.468  1.00  0.00     0.000 C 
ENDROOT
BRANCH   1   2
ATOM      2  C   UNL     1     -47.801 -50.259  15.790  1.00  0.00     0.000 C 
BRANCH   2   3
ATOM      3  C   UNL     1     -47.143 -49.304  16.800  1.00  0.00     0.000 C 
BRANCH   3   4
ATOM      4  C   UNL     1     -47.757 -47.894  16.758  1.00  0.00     0.000 C 
BRANCH   4   5
ATOM      5  C   UNL     1     -48.059 -47.338  18.159  1.00  0.00     0.000 C 
BRANCH   5   6
ATOM      6  C   UNL     1     -47.299 -48.079  19.273  1.00  0.00     0.000 C 
BRANCH   6   7
ATOM      7  C   UNL     1     -48.109 -48.145  20.586  1.00  0.00     0.000 C 
BRANCH   7   8
ATOM      8  C   UNL     1     -49.432 -47.357  20.538  1.00  0.00     0.000 C 
BRANCH   8   9
ATOM      9  C   UNL     1     -49.874 -46.757  21.884  1.00  0.00     0.000 C 
BRANCH   9  10
ATOM     10  C   UNL     1     -48.983 -47.206  23.056  1.00  0.00     0.006 C 
BRANCH  10  11
ATOM     11  C   UNL     1     -49.768 -48.015  24.096  1.00  0.00     0.053 C 
BRANCH  11  12
ATOM     12  C   UNL     1     -49.249 -49.415  24.212  1.00  0.00     0.041 C 
ATOM     13  O   UNL     1     -49.855 -50.365  23.649  1.00  0.00    -0.550 OA
ATOM     14  O   UNL     1     -48.075 -49.666  24.910  1.00  0.00    -0.550 OA
ENDBRANCH  11  12
ENDBRANCH  10  11
ENDBRANCH   9  10
ENDBRANCH   8   9
ENDBRANCH   7   8
ENDBRANCH   6   7
ENDBRANCH   5   6
ENDBRANCH   4   5
ENDBRANCH   3   4
ENDBRANCH   2   3
ENDBRANCH   1   2
BRANCH   1  15
ATOM     15  C   UNL     1     -48.481 -51.321  17.985  1.00  0.00     0.000 C 
BRANCH  15  16
ATOM     16  C   UNL     1     -49.707 -50.764  18.726  1.00  0.00     0.000 C 
BRANCH  16  17
ATOM     17  C   UNL     1     -50.928 -50.602  17.796  1.00  0.00     0.000 C 
BRANCH  17  18
ATOM     18  C   UNL     1     -52.195 -50.127  18.527  1.00  0.00    -0.000 C 
BRANCH  18  19
ATOM     19  C   UNL     1     -52.029 -50.121  20.055  1.00  0.00    -0.000 C 
BRANCH  19  20
ATOM     20  C   UNL     1     -52.681 -48.897  20.718  1.00  0.00    -0.000 C 
BRANCH  20  21
ATOM     21  C   UNL     1     -52.788 -49.029  22.248  1.00  0.00    -0.000 C 
BRANCH  21  22
ATOM     22  C   UNL     1     -53.347 -47.754  22.911  1.00  0.00    -0.000 C 
BRANCH  22  23
ATOM     23  C   UNL     1     -53.857 -46.704  21.907  1.00  0.00    -0.000 C 
BRANCH  23  24
ATOM     24  C   UNL     1     -55.390 -46.588  21.887  1.00  0.00    -0.000 C 
BRANCH  24  25
ATOM     25  C   UNL     1     -56.022 -47.324  20.694  1.00  0.00    -0.003 C 
ATOM     26  C   UNL     1     -56.584 -48.693  21.076  1.00  0.00     0.004 C 
ENDBRANCH  24  25
ENDBRANCH  23  24
ENDBRANCH  22  23
ENDBRANCH  21  22
ENDBRANCH  20  21
ENDBRANCH  19  20
ENDBRANCH  18  19
ENDBRANCH  17  18
ENDBRANCH  16  17
ENDBRANCH  15  16
ENDBRANCH   1  15
TORSDOF 22
ENDMDL
MODEL 4
REMARK VINA RESULT:    -4.730      7.611     11.623
REMARK INTER + INTRA:         -14.638
REMARK INTER:                 -10.760
REMARK INTRA:                  -3.878
REMARK UNBOUND:                -3.825
REMARK SMILES CCCCCCCCCCCCCCCCCCCCCCCC(=O)[O-]
REMARK SMILES IDX 13 1 14 2 15 3 16 4 17 5 18 6 19 7 20 8 21 9 22 10 23 11
REMARK SMILES IDX 24 12 25 13 26 14 12 15 11 16 10 17 9 18 8 19 7 20 6 21 5 22
REMARK SMILES IDX 4 23 3 24 2 25 1 26
REMARK H PARENT
REMARK Flexibility Score: inf
ROOT
ATOM      1  C   UNL     1     -52.646 -50.235  20.562  1.00  0.00     0.000 C 
ENDROOT
BRANCH   1   2
ATOM      2  C   UNL     1     -53.380 -48.890  20.452  1.00  0.00     0.000 C 
BRANCH   2   3
ATOM      3  C   UNL     1     -54.264 -48.601  21.677  1.00  0.00     0.000 C 
BRANCH   3   4
ATOM      4  C   UNL     1     -53.985 -47.216  22.287  1.00  0.00     0.000 C 
BRANCH   4   5
ATOM      5  C   UNL     1     -52.858 -47.246  23.332  1.00  0.00     0.000 C 
BRANCH   5   6
ATOM      6  C   UNL     1     -51.541 -46.647  22.808  1.00  0.00     0.000 C 
BRANCH   6   7
ATOM      7  C   UNL     1     -50.480 -47.732  22.525  1.00  0.00     0.000 C 
BRANCH   7   8
ATOM      8  C   UNL     1     -50.759 -49.071  23.235  1.00  0.00     0.000 C 
BRANCH   8   9
ATOM      9  C   UNL     1     -49.534 -49.989  23.384  1.00  0.00     0.000 C 
BRANCH   9  10
ATOM     10  C   UNL     1     -48.848 -49.848  24.755  1.00  0.00     0.006 C 
BRANCH  10  11
ATOM     11  C   UNL     1     -47.362 -49.491  24.619  1.00  0.00     0.053 C 
BRANCH  11  12
ATOM     12  C   UNL     1     -47.174 -48.065  24.202  1.00  0.00     0.041 C 
ATOM     13  O   UNL     1     -47.769 -47.141  24.817  1.00  0.00    -0.550 OA
ATOM     14  O   UNL     1     -46.312 -47.753  23.159  1.00  0.00    -0.550 OA
ENDBRANCH  11  12
ENDBRANCH  10  11
ENDBRANCH   9  10
ENDBRANCH   8   9
ENDBRANCH   7   8
ENDBRANCH   6   7
ENDBRANCH   5   6
ENDBRANCH   4   5
ENDBRANCH   3   4
ENDBRANCH   2   3
ENDBRANCH   1   2
BRANCH   1  15
ATOM     15  C   UNL     1     -51.895 -50.562  19.265  1.00  0.00     0.000 C 
BRANCH  15  16
ATOM     16  C   UNL     1     -50.747 -49.568  19.029  1.00  0.00     0.000 C 
BRANCH  16  17
ATOM     17  C   UNL     1     -49.439 -50.012  19.718  1.00  0.00     0.000 C 
BRANCH  17  18
ATOM     18  C   UNL     1     -48.307 -48.976  19.607  1.00  0.00    -0.000 C 
BRANCH  18  19
ATOM     19  C   UNL     1     -48.822 -47.577  19.235  1.00  0.00    -0.000 C 
BRANCH  19  20
ATOM     20  C   UNL     1     -48.167 -47.024  17.959  1.00  0.00    -0.000 C 
BRANCH  20  21
ATOM     21  C   UNL     1     -47.224 -48.034  17.282  1.00  0.00    -0.000 C 
BRANCH  21  22
ATOM     22  C   UNL     1     -47.430 -48.099  15.755  1.00  0.00    -0.000 C 
BRANCH  22  23
ATOM     23  C   UNL     1     -48.107 -49.395  15.274  1.00  0.00    -0.000 C 
BRANCH  23  24
ATOM     24  C   UNL     1     -47.722 -50.622  16.118  1.00  0.00    -0.000 C 
BRANCH  24  25
ATOM     25  C   UNL     1     -48.933 -51.501  16.468  1.00  0.00    -0.003 C 
ATOM     26  C   UNL     1     -50.174 -51.148  15.650  1.00  0.00     0.004 C 
ENDBRANCH  24  25
ENDBRANCH  23  24
ENDBRANCH  22  23
ENDBRANCH  21  22
ENDBRANCH  20  21
ENDBRANCH  19  20
ENDBRANCH  18  19
ENDBRANCH  17  18
ENDBRANCH  16  17
ENDBRANCH  15  16
ENDBRANCH   1  15
TORSDOF 22
ENDMDL
MODEL 5
REMARK VINA RESULT:    -4.728      2.602      5.591
REMARK INTER + INTRA:         -14.634
REMARK INTER:                 -11.538
REMARK INTRA:                  -3.096
REMARK UNBOUND:                -3.825
REMARK SMILES CCCCCCCCCCCCCCCCCCCCCCCC(=O)[O-]
REMARK SMILES IDX 13 1 14 2 15 3 16 4 17 5 18 6 19 7 20 8 21 9 22 10 23 11
REMARK SMILES IDX 24 12 25 13 26 14 12 15 11 16 10 17 9 18 8 19 7 20 6 21 5 22
REMARK SMILES IDX 4 23 3 24 2 25 1 26
REMARK H PARENT
REMARK Flexibility Score: inf
ROOT
ATOM      1  C   UNL     1     -46.940 -49.861  31.707  1.00  0.00     0.000 C 
ENDROOT
BRANCH   1   2
ATOM      2  C   UNL     1     -46.233 -48.505  31.856  1.00  0.00     0.000 C 
BRANCH   2   3
ATOM      3  C   UNL     1     -45.052 -48.347  30.884  1.00  0.00     0.000 C 
BRANCH   3   4
ATOM      4  C   UNL     1     -45.207 -49.221  29.626  1.00  0.00     0.000 C 
BRANCH   4   5
ATOM      5  C   UNL     1     -44.662 -48.539  28.361  1.00  0.00     0.000 C 
BRANCH   5   6
ATOM      6  C   UNL     1     -44.342 -47.049  28.576  1.00  0.00     0.000 C 
BRANCH   6   7
ATOM      7  C   UNL     1     -43.101 -46.599  27.775  1.00  0.00     0.000 C 
BRANCH   7   8
ATOM      8  C   UNL     1     -43.398 -46.287  26.295  1.00  0.00     0.000 C 
BRANCH   8   9
ATOM      9  C   UNL     1     -42.568 -47.099  25.286  1.00  0.00     0.000 C 
BRANCH   9  10
ATOM     10  C   UNL     1     -42.529 -48.601  25.622  1.00  0.00     0.006 C 
BRANCH  10  11
ATOM     11  C   UNL     1     -43.311 -49.438  24.602  1.00  0.00     0.053 C 
BRANCH  11  12
ATOM     12  C   UNL     1     -44.597 -48.773  24.215  1.00  0.00     0.041 C 
ATOM     13  O   UNL     1     -45.605 -48.856  24.965  1.00  0.00    -0.550 OA
ATOM     14  O   UNL     1     -44.669 -48.029  23.044  1.00  0.00    -0.550 OA
ENDBRANCH  11  12
ENDBRANCH  10  11
ENDBRANCH   9  10
ENDBRANCH   8   9
ENDBRANCH   7   8
ENDBRANCH   6   7
ENDBRANCH   5   6
ENDBRANCH   4   5
ENDBRANCH   3   4
ENDBRANCH   2   3
ENDBRANCH   1   2
BRANCH   1  15
ATOM     15  C   UNL     1     -46.796 -50.702  32.981  1.00  0.00     0.000 C 
BRANCH  15  16
ATOM     16  C   UNL     1     -46.025 -52.000  32.697  1.00  0.00     0.000 C 
BRANCH  16  17
ATOM     17  C   UNL     1     -44.932 -52.272  33.753  1.00  0.00     0.000 C 
BRANCH  17  18
ATOM     18  C   UNL     1     -43.603 -51.556  33.456  1.00  0.00    -0.000 C 
BRANCH  18  19
ATOM     19  C   UNL     1     -43.403 -51.279  31.957  1.00  0.00    -0.000 C 
BRANCH  19  20
ATOM     20  C   UNL     1     -41.986 -50.783  31.630  1.00  0.00    -0.000 C 
BRANCH  20  21
ATOM     21  C   UNL     1     -41.770 -50.534  30.126  1.00  0.00    -0.000 C 
BRANCH  21  22
ATOM     22  C   UNL     1     -41.053 -49.197  29.848  1.00  0.00    -0.000 C 
BRANCH  22  23
ATOM     23  C   UNL     1     -40.416 -49.113  28.449  1.00  0.00    -0.000 C 
BRANCH  23  24
ATOM     24  C   UNL     1     -39.839 -47.722  28.136  1.00  0.00    -0.000 C 
BRANCH  24  25
ATOM     25  C   UNL     1     -38.543 -47.433  28.909  1.00  0.00    -0.003 C 
ATOM     26  C   UNL     1     -37.523 -48.566  28.794  1.00  0.00     0.004 C 
ENDBRANCH  24  25
ENDBRANCH  23  24
ENDBRANCH  22  23
ENDBRANCH  21  22
ENDBRANCH  20  21
ENDBRANCH  19  20
ENDBRANCH  18  19
ENDBRANCH  17  18
ENDBRANCH  16  17
ENDBRANCH  15  16
ENDBRANCH   1  15
TORSDOF 22
ENDMDL
MODEL 6
REMARK VINA RESULT:    -4.684      8.858     12.727
REMARK INTER + INTRA:         -14.533
REMARK INTER:                 -10.760
REMARK INTRA:                  -3.773
REMARK UNBOUND:                -3.825
REMARK SMILES CCCCCCCCCCCCCCCCCCCCCCCC(=O)[O-]
REMARK SMILES IDX 13 1 14 2 15 3 16 4 17 5 18 6 19 7 20 8 21 9 22 10 23 11
REMARK SMILES IDX 24 12 25 13 26 14 12 15 11 16 10 17 9 18 8 19 7 20 6 21 5 22
REMARK SMILES IDX 4 23 3 24 2 25 1 26
REMARK H PARENT
REMARK Flexibility Score: inf
ROOT
ATOM      1  C   UNL     1     -53.699 -48.900  19.535  1.00  0.00     0.000 C 
ENDROOT
BRANCH   1   2
ATOM      2  C   UNL     1     -52.429 -49.648  19.102  1.00  0.00     0.000 C 
BRANCH   2   3
ATOM      3  C   UNL     1     -51.690 -50.288  20.288  1.00  0.00     0.000 C 
BRANCH   3   4
ATOM      4  C   UNL     1     -50.257 -49.750  20.444  1.00  0.00     0.000 C 
BRANCH   4   5
ATOM      5  C   UNL     1     -49.996 -48.502  19.585  1.00  0.00     0.000 C 
BRANCH   5   6
ATOM      6  C   UNL     1     -48.718 -47.749  19.996  1.00  0.00     0.000 C 
BRANCH   6   7
ATOM      7  C   UNL     1     -47.483 -48.220  19.198  1.00  0.00     0.000 C 
BRANCH   7   8
ATOM      8  C   UNL     1     -47.819 -48.741  17.787  1.00  0.00     0.000 C 
BRANCH   8   9
ATOM      9  C   UNL     1     -47.453 -50.214  17.540  1.00  0.00     0.000 C 
BRANCH   9  10
ATOM     10  C   UNL     1     -48.663 -51.062  17.107  1.00  0.00     0.006 C 
BRANCH  10  11
ATOM     11  C   UNL     1     -48.572 -51.480  15.633  1.00  0.00     0.053 C 
BRANCH  11  12
ATOM     12  C   UNL     1     -49.560 -50.735  14.788  1.00  0.00     0.041 C 
ATOM     13  O   UNL     1     -50.709 -51.210  14.587  1.00  0.00    -0.550 OA
ATOM     14  O   UNL     1     -49.225 -49.497  14.255  1.00  0.00    -0.550 OA
ENDBRANCH  11  12
ENDBRANCH  10  11
ENDBRANCH   9  10
ENDBRANCH   8   9
ENDBRANCH   7   8
ENDBRANCH   6   7
ENDBRANCH   5   6
ENDBRANCH   4   5
ENDBRANCH   3   4
ENDBRANCH   2   3
ENDBRANCH   1   2
BRANCH   1  15
ATOM     15  C   UNL     1     -53.831 -48.874  21.062  1.00  0.00     0.000 C 
BRANCH  15  16
ATOM     16  C   UNL     1     -54.499 -47.573  21.534  1.00  0.00     0.000 C 
BRANCH  16  17
ATOM     17  C   UNL     1     -53.511 -46.642  22.267  1.00  0.00     0.000 C 
BRANCH  17  18
ATOM     18  C   UNL     1     -52.149 -47.298  22.554  1.00  0.00    -0.000 C 
BRANCH  18  19
ATOM     19  C   UNL     1     -52.027 -47.796  24.003  1.00  0.00    -0.000 C 
BRANCH  19  20
ATOM     20  C   UNL     1     -51.629 -49.278  24.090  1.00  0.00    -0.000 C 
BRANCH  20  21
ATOM     21  C   UNL     1     -50.294 -49.500  24.823  1.00  0.00    -0.000 C 
BRANCH  21  22
ATOM     22  C   UNL     1     -49.118 -49.720  23.849  1.00  0.00    -0.000 C 
BRANCH  22  23
ATOM     23  C   UNL     1     -48.087 -48.576  23.851  1.00  0.00    -0.000 C 
BRANCH  23  24
ATOM     24  C   UNL     1     -48.254 -47.621  25.044  1.00  0.00    -0.000 C 
BRANCH  24  25
ATOM     25  C   UNL     1     -48.766 -46.235  24.623  1.00  0.00    -0.003 C 
ATOM     26  C   UNL     1     -48.521 -45.940  23.143  1.00  0.00     0.004 C 
ENDBRANCH  24  25
ENDBRANCH  23  24
ENDBRANCH  22  23
ENDBRANCH  21  22
ENDBRANCH  20  21
ENDBRANCH  19  20
ENDBRANCH  18  19
ENDBRANCH  17  18
ENDBRANCH  16  17
ENDBRANCH  15  16
ENDBRANCH   1  15
TORSDOF 22
ENDMDL
MODEL 7
REMARK VINA RESULT:    -4.653      8.207     12.522
REMARK INTER + INTRA:         -14.462
REMARK INTER:                 -10.814
REMARK INTRA:                  -3.648
REMARK UNBOUND:                -3.825
REMARK SMILES CCCCCCCCCCCCCCCCCCCCCCCC(=O)[O-]
REMARK SMILES IDX 13 1 14 2 15 3 16 4 17 5 18 6 19 7 20 8 21 9 22 10 23 11
REMARK SMILES IDX 24 12 25 13 26 14 12 15 11 16 10 17 9 18 8 19 7 20 6 21 5 22
REMARK SMILES IDX 4 23 3 24 2 25 1 26
REMARK H PARENT
REMARK Flexibility Score: inf
ROOT
ATOM      1  C   UNL     1     -52.628 -49.948  18.320  1.00  0.00     0.000 C 
ENDROOT
BRANCH   1   2
ATOM      2  C   UNL     1     -53.199 -49.286  19.584  1.00  0.00     0.000 C 
BRANCH   2   3
ATOM      3  C   UNL     1     -54.546 -48.592  19.326  1.00  0.00     0.000 C 
BRANCH   3   4
ATOM      4  C   UNL     1     -55.248 -48.173  20.630  1.00  0.00     0.000 C 
BRANCH   4   5
ATOM      5  C   UNL     1     -54.283 -48.098  21.824  1.00  0.00     0.000 C 
BRANCH   5   6
ATOM      6  C   UNL     1     -54.208 -46.692  22.445  1.00  0.00     0.000 C 
BRANCH   6   7
ATOM      7  C   UNL     1     -52.786 -46.347  22.936  1.00  0.00     0.000 C 
BRANCH   7   8
ATOM      8  C   UNL     1     -51.667 -47.009  22.108  1.00  0.00     0.000 C 
BRANCH   8   9
ATOM      9  C   UNL     1     -50.486 -47.547  22.934  1.00  0.00     0.000 C 
BRANCH   9  10
ATOM     10  C   UNL     1     -50.660 -49.025  23.326  1.00  0.00     0.006 C 
BRANCH  10  11
ATOM     11  C   UNL     1     -49.339 -49.801  23.238  1.00  0.00     0.053 C 
BRANCH  11  12
ATOM     12  C   UNL     1     -48.633 -49.837  24.559  1.00  0.00     0.041 C 
ATOM     13  O   UNL     1     -49.198 -49.389  25.592  1.00  0.00    -0.550 OA
ATOM     14  O   UNL     1     -47.367 -50.399  24.656  1.00  0.00    -0.550 OA
ENDBRANCH  11  12
ENDBRANCH  10  11
ENDBRANCH   9  10
ENDBRANCH   8   9
ENDBRANCH   7   8
ENDBRANCH   6   7
ENDBRANCH   5   6
ENDBRANCH   4   5
ENDBRANCH   3   4
ENDBRANCH   2   3
ENDBRANCH   1   2
BRANCH   1  15
ATOM     15  C   UNL     1     -51.190 -50.429  18.550  1.00  0.00     0.000 C 
BRANCH  15  16
ATOM     16  C   UNL     1     -50.571 -49.744  19.779  1.00  0.00     0.000 C 
BRANCH  16  17
ATOM     17  C   UNL     1     -49.776 -48.476  19.403  1.00  0.00     0.000 C 
BRANCH  17  18
ATOM     18  C   UNL     1     -48.291 -48.547  19.794  1.00  0.00    -0.000 C 
BRANCH  18  19
ATOM     19  C   UNL     1     -47.353 -48.274  18.608  1.00  0.00    -0.000 C 
BRANCH  19  20
ATOM     20  C   UNL     1     -48.084 -47.659  17.403  1.00  0.00    -0.000 C 
BRANCH  20  21
ATOM     21  C   UNL     1     -47.341 -47.879  16.073  1.00  0.00    -0.000 C 
BRANCH  21  22
ATOM     22  C   UNL     1     -47.310 -49.363  15.655  1.00  0.00    -0.000 C 
BRANCH  22  23
ATOM     23  C   UNL     1     -48.706 -49.994  15.501  1.00  0.00    -0.000 C 
BRANCH  23  24
ATOM     24  C   UNL     1     -48.814 -51.378  16.162  1.00  0.00    -0.000 C 
BRANCH  24  25
ATOM     25  C   UNL     1     -47.748 -51.599  17.247  1.00  0.00    -0.003 C 
ATOM     26  C   UNL     1     -48.236 -52.504  18.378  1.00  0.00     0.004 C 
ENDBRANCH  24  25
ENDBRANCH  23  24
ENDBRANCH  22  23
ENDBRANCH  21  22
ENDBRANCH  20  21
ENDBRANCH  19  20
ENDBRANCH  18  19
ENDBRANCH  17  18
ENDBRANCH  16  17
ENDBRANCH  15  16
ENDBRANCH   1  15
TORSDOF 22
ENDMDL
MODEL 8
REMARK VINA RESULT:    -4.647      1.173      2.116
REMARK INTER + INTRA:         -14.449
REMARK INTER:                 -10.514
REMARK INTRA:                  -3.935
REMARK UNBOUND:                -3.825
REMARK SMILES CCCCCCCCCCCCCCCCCCCCCCCC(=O)[O-]
REMARK SMILES IDX 13 1 14 2 15 3 16 4 17 5 18 6 19 7 20 8 21 9 22 10 23 11
REMARK SMILES IDX 24 12 25 13 26 14 12 15 11 16 10 17 9 18 8 19 7 20 6 21 5 22
REMARK SMILES IDX 4 23 3 24 2 25 1 26
REMARK H PARENT
REMARK Flexibility Score: inf
ROOT
ATOM      1  C   UNL     1     -46.878 -49.564  32.200  1.00  0.00     0.000 C 
ENDROOT
BRANCH   1   2
ATOM      2  C   UNL     1     -46.623 -50.879  32.951  1.00  0.00     0.000 C 
BRANCH   2   3
ATOM      3  C   UNL     1     -45.474 -51.695  32.336  1.00  0.00     0.000 C 
BRANCH   3   4
ATOM      4  C   UNL     1     -44.223 -51.712  33.231  1.00  0.00     0.000 C 
BRANCH   4   5
ATOM      5  C   UNL     1     -42.980 -51.152  32.522  1.00  0.00     0.000 C 
BRANCH   5   6
ATOM      6  C   UNL     1     -43.029 -51.335  30.995  1.00  0.00     0.000 C 
BRANCH   6   7
ATOM      7  C   UNL     1     -41.783 -50.749  30.297  1.00  0.00     0.000 C 
BRANCH   7   8
ATOM      8  C   UNL     1     -40.995 -49.754  31.171  1.00  0.00     0.000 C 
BRANCH   8   9
ATOM      9  C   UNL     1     -40.320 -48.609  30.396  1.00  0.00     0.000 C 
BRANCH   9  10
ATOM     10  C   UNL     1     -40.669 -48.621  28.897  1.00  0.00     0.006 C 
BRANCH  10  11
ATOM     11  C   UNL     1     -39.414 -48.584  28.015  1.00  0.00     0.053 C 
BRANCH  11  12
ATOM     12  C   UNL     1     -38.247 -47.991  28.744  1.00  0.00     0.041 C 
ATOM     13  O   UNL     1     -37.305 -48.728  29.138  1.00  0.00    -0.550 OA
ATOM     14  O   UNL     1     -38.182 -46.620  28.954  1.00  0.00    -0.550 OA
ENDBRANCH  11  12
ENDBRANCH  10  11
ENDBRANCH   9  10
ENDBRANCH   8   9
ENDBRANCH   7   8
ENDBRANCH   6   7
ENDBRANCH   5   6
ENDBRANCH   4   5
ENDBRANCH   3   4
ENDBRANCH   2   3
ENDBRANCH   1   2
BRANCH   1  15
ATOM     15  C   UNL     1     -46.130 -49.538  30.861  1.00  0.00     0.000 C 
BRANCH  15  16
ATOM     16  C   UNL     1     -45.121 -48.380  30.818  1.00  0.00     0.000 C 
BRANCH  16  17
ATOM     17  C   UNL     1     -44.367 -48.312  29.474  1.00  0.00     0.000 C 
BRANCH  17  18
ATOM     18  C   UNL     1     -44.972 -49.216  28.386  1.00  0.00    -0.000 C 
BRANCH  18  19
ATOM     19  C   UNL     1     -43.901 -49.952  27.566  1.00  0.00    -0.000 C 
BRANCH  19  20
ATOM     20  C   UNL     1     -44.352 -50.243  26.126  1.00  0.00    -0.000 C 
BRANCH  20  21
ATOM     21  C   UNL     1     -43.587 -49.414  25.078  1.00  0.00    -0.000 C 
BRANCH  21  22
ATOM     22  C   UNL     1     -42.256 -48.858  25.626  1.00  0.00    -0.000 C 
BRANCH  22  23
ATOM     23  C   UNL     1     -42.109 -47.333  25.468  1.00  0.00    -0.000 C 
BRANCH  23  24
ATOM     24  C   UNL     1     -43.005 -46.542  26.434  1.00  0.00    -0.000 C 
BRANCH  24  25
ATOM     25  C   UNL     1     -44.196 -45.877  25.724  1.00  0.00    -0.003 C 
ATOM     26  C   UNL     1     -45.470 -45.894  26.568  1.00  0.00     0.004 C 
ENDBRANCH  24  25
ENDBRANCH  23  24
ENDBRANCH  22  23
ENDBRANCH  21  22
ENDBRANCH  20  21
ENDBRANCH  19  20
ENDBRANCH  18  19
ENDBRANCH  17  18
ENDBRANCH  16  17
ENDBRANCH  15  16
ENDBRANCH   1  15
TORSDOF 22
ENDMDL
MODEL 9
REMARK VINA RESULT:    -4.561      8.119     12.010
REMARK INTER + INTRA:         -14.252
REMARK INTER:                 -11.524
REMARK INTRA:                  -2.728
REMARK UNBOUND:                -3.825
REMARK SMILES CCCCCCCCCCCCCCCCCCCCCCCC(=O)[O-]
REMARK SMILES IDX 13 1 14 2 15 3 16 4 17 5 18 6 19 7 20 8 21 9 22 10 23 11
REMARK SMILES IDX 24 12 25 13 26 14 12 15 11 16 10 17 9 18 8 19 7 20 6 21 5 22
REMARK SMILES IDX 4 23 3 24 2 25 1 26
REMARK H PARENT
REMARK Flexibility Score: inf
ROOT
ATOM      1  C   UNL     1     -54.605 -47.957  21.589  1.00  0.00     0.000 C 
ENDROOT
BRANCH   1   2
ATOM      2  C   UNL     1     -53.695 -49.194  21.618  1.00  0.00     0.000 C 
BRANCH   2   3
ATOM      3  C   UNL     1     -52.790 -49.287  20.378  1.00  0.00     0.000 C 
BRANCH   3   4
ATOM      4  C   UNL     1     -51.886 -50.533  20.405  1.00  0.00     0.000 C 
BRANCH   4   5
ATOM      5  C   UNL     1     -50.603 -50.351  19.579  1.00  0.00     0.000 C 
BRANCH   5   6
ATOM      6  C   UNL     1     -50.153 -48.882  19.490  1.00  0.00     0.000 C 
BRANCH   6   7
ATOM      7  C   UNL     1     -48.719 -48.678  20.026  1.00  0.00     0.000 C 
BRANCH   7   8
ATOM      8  C   UNL     1     -47.666 -48.477  18.919  1.00  0.00     0.000 C 
BRANCH   8   9
ATOM      9  C   UNL     1     -48.122 -48.902  17.512  1.00  0.00     0.000 C 
BRANCH   9  10
ATOM     10  C   UNL     1     -47.365 -50.137  16.991  1.00  0.00     0.006 C 
BRANCH  10  11
ATOM     11  C   UNL     1     -48.280 -51.363  16.874  1.00  0.00     0.053 C 
BRANCH  11  12
ATOM     12  C   UNL     1     -49.292 -51.193  15.782  1.00  0.00     0.041 C 
ATOM     13  O   UNL     1     -50.512 -51.060  16.063  1.00  0.00    -0.550 OA
ATOM     14  O   UNL     1     -48.882 -51.143  14.456  1.00  0.00    -0.550 OA
ENDBRANCH  11  12
ENDBRANCH  10  11
ENDBRANCH   9  10
ENDBRANCH   8   9
ENDBRANCH   7   8
ENDBRANCH   6   7
ENDBRANCH   5   6
ENDBRANCH   4   5
ENDBRANCH   3   4
ENDBRANCH   2   3
ENDBRANCH   1   2
BRANCH   1  15
ATOM     15  C   UNL     1     -53.839 -46.698  22.013  1.00  0.00     0.000 C 
BRANCH  15  16
ATOM     16  C   UNL     1     -53.380 -46.800  23.476  1.00  0.00     0.000 C 
BRANCH  16  17
ATOM     17  C   UNL     1     -51.850 -46.666  23.620  1.00  0.00     0.000 C 
BRANCH  17  18
ATOM     18  C   UNL     1     -51.296 -47.318  24.898  1.00  0.00    -0.000 C 
BRANCH  18  19
ATOM     19  C   UNL     1     -51.010 -48.818  24.720  1.00  0.00    -0.000 C 
BRANCH  19  20
ATOM     20  C   UNL     1     -50.433 -49.151  23.335  1.00  0.00    -0.000 C 
BRANCH  20  21
ATOM     21  C   UNL     1     -49.188 -50.054  23.404  1.00  0.00    -0.000 C 
BRANCH  21  22
ATOM     22  C   UNL     1     -47.970 -49.329  24.013  1.00  0.00    -0.000 C 
BRANCH  22  23
ATOM     23  C   UNL     1     -47.001 -50.263  24.762  1.00  0.00    -0.000 C 
BRANCH  23  24
ATOM     24  C   UNL     1     -46.063 -49.511  25.720  1.00  0.00    -0.000 C 
BRANCH  24  25
ATOM     25  C   UNL     1     -44.648 -50.110  25.751  1.00  0.00    -0.003 C 
ATOM     26  C   UNL     1     -44.045 -50.271  24.356  1.00  0.00     0.004 C 
ENDBRANCH  24  25
ENDBRANCH  23  24
ENDBRANCH  22  23
ENDBRANCH  21  22
ENDBRANCH  20  21
ENDBRANCH  19  20
ENDBRANCH  18  19
ENDBRANCH  17  18
ENDBRANCH  16  17
ENDBRANCH  15  16
ENDBRANCH   1  15
TORSDOF 22
ENDMDL
