MODEL 1
REMARK VINA RESULT:    -5.483      0.000      0.000
REMARK INTER + INTRA:          -8.350
REMARK INTER:                  -8.048
REMARK INTRA:                  -0.302
REMARK UNBOUND:                -0.302
REMARK SMILES O=C([O-])CCCCCCCC(=O)[O-]
REMARK SMILES IDX 7 1 6 2 5 3 4 4 2 5 1 6 3 7 8 8 9 9 10 10 11 11 12 12 13 13
REMARK H PARENT
REMARK Flexibility Score: inf
ROOT
ATOM      1  C   UNL     1     114.378 104.460 111.951  1.00  0.00     0.000 C 
ENDROOT
BRANCH   1   2
ATOM      2  C   UNL     1     114.999 104.255 113.337  1.00  0.00     0.000 C 
BRANCH   2   3
ATOM      3  C   UNL     1     116.239 105.142 113.521  1.00  0.00     0.006 C 
BRANCH   3   4
ATOM      4  C   UNL     1     117.447 104.623 112.731  1.00  0.00     0.053 C 
BRANCH   4   5
ATOM      5  C   UNL     1     118.705 105.349 113.097  1.00  0.00     0.041 C 
ATOM      6  O   UNL     1     119.154 106.255 112.348  1.00  0.00    -0.550 OA
ATOM      7  O   UNL     1     119.363 105.047 114.283  1.00  0.00    -0.550 OA
ENDBRANCH   4   5
ENDBRANCH   3   4
ENDBRANCH   2   3
ENDBRANCH   1   2
BRANCH   1   8
ATOM      8  C   UNL     1     114.298 103.136 111.182  1.00  0.00     0.000 C 
BRANCH   8   9
ATOM      9  C   UNL     1     113.627 102.045 112.031  1.00  0.00     0.006 C 
BRANCH   9  10
ATOM     10  C   UNL     1     112.211 102.439 112.470  1.00  0.00     0.053 C 
BRANCH  10  11
ATOM     11  C   UNL     1     111.203 102.184 111.391  1.00  0.00     0.041 C 
ATOM     12  O   UNL     1     110.987 101.009 110.992  1.00  0.00    -0.550 OA
ATOM     13  O   UNL     1     110.480 103.239 110.849  1.00  0.00    -0.550 OA
ENDBRANCH  10  11
ENDBRANCH   9  10
ENDBRANCH   8   9
ENDBRANCH   1   8
TORSDOF 8
ENDMDL
MODEL 2
REMARK VINA RESULT:    -5.470      0.407      6.948
REMARK INTER + INTRA:          -8.330
REMARK INTER:                  -7.935
REMARK INTRA:                  -0.395
REMARK UNBOUND:                -0.302
REMARK SMILES O=C([O-])CCCCCCCC(=O)[O-]
REMARK SMILES IDX 7 1 6 2 5 3 4 4 2 5 1 6 3 7 8 8 9 9 10 10 11 11 12 12 13 13
REMARK H PARENT
REMARK Flexibility Score: inf
ROOT
ATOM      1  C   UNL     1     115.344 103.871 111.544  1.00  0.00     0.000 C 
ENDROOT
BRANCH   1   2
ATOM      2  C   UNL     1     114.143 103.041 111.075  1.00  0.00     0.000 C 
BRANCH   2   3
ATOM      3  C   UNL     1     113.611 102.153 112.209  1.00  0.00     0.006 C 
BRANCH   3   4
ATOM      4  C   UNL     1     112.155 102.480 112.569  1.00  0.00     0.053 C 
BRANCH   4   5
ATOM      5  C   UNL     1     111.228 102.226 111.421  1.00  0.00     0.041 C 
ATOM      6  O   UNL     1     111.109 101.065 110.948  1.00  0.00    -0.550 OA
ATOM      7  O   UNL     1     110.469 103.264 110.895  1.00  0.00    -0.550 OA
ENDBRANCH   4   5
ENDBRANCH   3   4
ENDBRANCH   2   3
ENDBRANCH   1   2
BRANCH   1   8
ATOM      8  C   UNL     1     114.996 104.683 112.798  1.00  0.00     0.000 C 
BRANCH   8   9
ATOM      9  C   UNL     1     116.265 105.083 113.565  1.00  0.00     0.006 C 
BRANCH   9  10
ATOM     10  C   UNL     1     117.535 104.504 112.929  1.00  0.00     0.053 C 
BRANCH  10  11
ATOM     11  C   UNL     1     118.746 105.324 113.257  1.00  0.00     0.041 C 
ATOM     12  O   UNL     1     119.416 105.076 114.293  1.00  0.00    -0.550 OA
ATOM     13  O   UNL     1     119.151 106.340 112.401  1.00  0.00    -0.550 OA
ENDBRANCH  10  11
ENDBRANCH   9  10
ENDBRANCH   8   9
ENDBRANCH   1   8
TORSDOF 8
ENDMDL
MODEL 3
REMARK VINA RESULT:    -5.440      0.978      6.878
REMARK INTER + INTRA:          -8.285
REMARK INTER:                  -7.886
REMARK INTRA:                  -0.399
REMARK UNBOUND:                -0.302
REMARK SMILES O=C([O-])CCCCCCCC(=O)[O-]
REMARK SMILES IDX 7 1 6 2 5 3 4 4 2 5 1 6 3 7 8 8 9 9 10 10 11 11 12 12 13 13
REMARK H PARENT
REMARK Flexibility Score: inf
ROOT
ATOM      1  C   UNL     1     114.763 104.245 113.264  1.00  0.00     0.000 C 
ENDROOT
BRANCH   1   2
ATOM      2  C   UNL     1     114.251 104.318 111.821  1.00  0.00     0.000 C 
BRANCH   2   3
ATOM      3  C   UNL     1     114.244 102.928 111.168  1.00  0.00     0.006 C 
BRANCH   3   4
ATOM      4  C   UNL     1     113.455 101.902 111.992  1.00  0.00     0.053 C 
BRANCH   4   5
ATOM      5  C   UNL     1     111.984 102.183 111.968  1.00  0.00     0.041 C 
ATOM      6  O   UNL     1     111.311 101.943 110.933  1.00  0.00    -0.550 OA
ATOM      7  O   UNL     1     111.352 102.679 113.101  1.00  0.00    -0.550 OA
ENDBRANCH   4   5
ENDBRANCH   3   4
ENDBRANCH   2   3
ENDBRANCH   1   2
BRANCH   1   8
ATOM      8  C   UNL     1     116.018 105.107 113.447  1.00  0.00     0.000 C 
BRANCH   8   9
ATOM      9  C   UNL     1     117.194 104.550 112.630  1.00  0.00     0.006 C 
BRANCH   9  10
ATOM     10  C   UNL     1     118.478 105.366 112.828  1.00  0.00     0.053 C 
BRANCH  10  11
ATOM     11  C   UNL     1     119.224 104.939 114.055  1.00  0.00     0.041 C 
ATOM     12  O   UNL     1     120.124 105.676 114.538  1.00  0.00    -0.550 OA
ATOM     13  O   UNL     1     118.903 103.743 114.685  1.00  0.00    -0.550 OA
ENDBRANCH  10  11
ENDBRANCH   9  10
ENDBRANCH   8   9
ENDBRANCH   1   8
TORSDOF 8
ENDMDL
MODEL 4
REMARK VINA RESULT:    -5.413      0.875      6.827
REMARK INTER + INTRA:          -8.246
REMARK INTER:                  -7.852
REMARK INTRA:                  -0.395
REMARK UNBOUND:                -0.302
REMARK SMILES O=C([O-])CCCCCCCC(=O)[O-]
REMARK SMILES IDX 7 1 6 2 5 3 4 4 2 5 1 6 3 7 8 8 9 9 10 10 11 11 12 12 13 13
REMARK H PARENT
REMARK Flexibility Score: inf
ROOT
ATOM      1  C   UNL     1     114.729 104.274 113.223  1.00  0.00     0.000 C 
ENDROOT
BRANCH   1   2
ATOM      2  C   UNL     1     114.294 104.379 111.757  1.00  0.00     0.000 C 
BRANCH   2   3
ATOM      3  C   UNL     1     114.150 102.987 111.125  1.00  0.00     0.006 C 
BRANCH   3   4
ATOM      4  C   UNL     1     113.430 101.999 112.052  1.00  0.00     0.053 C 
BRANCH   4   5
ATOM      5  C   UNL     1     111.947 102.204 112.041  1.00  0.00     0.041 C 
ATOM      6  O   UNL     1     111.362 102.652 113.060  1.00  0.00    -0.550 OA
ATOM      7  O   UNL     1     111.215 101.930 110.892  1.00  0.00    -0.550 OA
ENDBRANCH   4   5
ENDBRANCH   3   4
ENDBRANCH   2   3
ENDBRANCH   1   2
BRANCH   1   8
ATOM      8  C   UNL     1     116.140 104.841 113.420  1.00  0.00     0.000 C 
BRANCH   8   9
ATOM      9  C   UNL     1     117.088 104.360 112.311  1.00  0.00     0.006 C 
BRANCH   9  10
ATOM     10  C   UNL     1     118.503 104.084 112.835  1.00  0.00     0.053 C 
BRANCH  10  11
ATOM     11  C   UNL     1     119.154 105.327 113.359  1.00  0.00     0.041 C 
ATOM     12  O   UNL     1     119.683 105.331 114.502  1.00  0.00    -0.550 OA
ATOM     13  O   UNL     1     119.207 106.471 112.572  1.00  0.00    -0.550 OA
ENDBRANCH  10  11
ENDBRANCH   9  10
ENDBRANCH   8   9
ENDBRANCH   1   8
TORSDOF 8
ENDMDL
MODEL 5
REMARK VINA RESULT:    -5.320      0.853      1.284
REMARK INTER + INTRA:          -8.110
REMARK INTER:                  -7.609
REMARK INTRA:                  -0.501
REMARK UNBOUND:                -0.302
REMARK SMILES O=C([O-])CCCCCCCC(=O)[O-]
REMARK SMILES IDX 7 1 6 2 5 3 4 4 2 5 1 6 3 7 8 8 9 9 10 10 11 11 12 12 13 13
REMARK H PARENT
REMARK Flexibility Score: inf
ROOT
ATOM      1  C   UNL     1     114.472 104.632 111.873  1.00  0.00     0.000 C 
ENDROOT
BRANCH   1   2
ATOM      2  C   UNL     1     114.870 104.324 113.321  1.00  0.00     0.000 C 
BRANCH   2   3
ATOM      3  C   UNL     1     116.158 105.065 113.707  1.00  0.00     0.006 C 
BRANCH   3   4
ATOM      4  C   UNL     1     117.352 104.647 112.839  1.00  0.00     0.053 C 
BRANCH   4   5
ATOM      5  C   UNL     1     118.647 105.160 113.390  1.00  0.00     0.041 C 
ATOM      6  O   UNL     1     119.118 104.677 114.452  1.00  0.00    -0.550 OA
ATOM      7  O   UNL     1     119.349 106.149 112.713  1.00  0.00    -0.550 OA
ENDBRANCH   4   5
ENDBRANCH   3   4
ENDBRANCH   2   3
ENDBRANCH   1   2
BRANCH   1   8
ATOM      8  C   UNL     1     114.437 103.354 111.027  1.00  0.00     0.000 C 
BRANCH   8   9
ATOM      9  C   UNL     1     113.979 102.151 111.865  1.00  0.00     0.006 C 
BRANCH   9  10
ATOM     10  C   UNL     1     112.602 101.632 111.432  1.00  0.00     0.053 C 
BRANCH  10  11
ATOM     11  C   UNL     1     111.495 102.510 111.931  1.00  0.00     0.041 C 
ATOM     12  O   UNL     1     111.380 102.746 113.163  1.00  0.00    -0.550 OA
ATOM     13  O   UNL     1     110.610 103.093 111.033  1.00  0.00    -0.550 OA
ENDBRANCH  10  11
ENDBRANCH   9  10
ENDBRANCH   8   9
ENDBRANCH   1   8
TORSDOF 8
ENDMDL
MODEL 6
REMARK VINA RESULT:    -3.675      2.937      6.975
REMARK INTER + INTRA:          -5.696
REMARK INTER:                  -5.339
REMARK INTRA:                  -0.357
REMARK UNBOUND:                -0.302
REMARK SMILES O=C([O-])CCCCCCCC(=O)[O-]
REMARK SMILES IDX 7 1 6 2 5 3 4 4 2 5 1 6 3 7 8 8 9 9 10 10 11 11 12 12 13 13
REMARK H PARENT
REMARK Flexibility Score: inf
ROOT
ATOM      1  C   UNL     1     111.511 102.542 112.142  1.00  0.00     0.000 C 
ENDROOT
BRANCH   1   2
ATOM      2  C   UNL     1     110.528 102.997 111.058  1.00  0.00     0.000 C 
BRANCH   2   3
ATOM      3  C   UNL     1     110.308 104.516 111.117  1.00  0.00     0.006 C 
BRANCH   3   4
ATOM      4  C   UNL     1     108.861 104.907 110.790  1.00  0.00     0.053 C 
BRANCH   4   5
ATOM      5  C   UNL     1     108.453 106.167 111.489  1.00  0.00     0.041 C 
ATOM      6  O   UNL     1     108.614 107.282 110.929  1.00  0.00    -0.550 OA
ATOM      7  O   UNL     1     107.866 106.107 112.747  1.00  0.00    -0.550 OA
ENDBRANCH   4   5
ENDBRANCH   3   4
ENDBRANCH   2   3
ENDBRANCH   1   2
BRANCH   1   8
ATOM      8  C   UNL     1     112.807 102.005 111.522  1.00  0.00     0.000 C 
BRANCH   8   9
ATOM      9  C   UNL     1     113.871 103.109 111.425  1.00  0.00     0.006 C 
BRANCH   9  10
ATOM     10  C   UNL     1     114.123 103.792 112.775  1.00  0.00     0.053 C 
BRANCH  10  11
ATOM     11  C   UNL     1     115.492 104.396 112.846  1.00  0.00     0.041 C 
ATOM     12  O   UNL     1     116.386 104.035 112.036  1.00  0.00    -0.550 OA
ATOM     13  O   UNL     1     115.771 105.381 113.785  1.00  0.00    -0.550 OA
ENDBRANCH  10  11
ENDBRANCH   9  10
ENDBRANCH   8   9
ENDBRANCH   1   8
TORSDOF 8
ENDMDL
MODEL 7
REMARK VINA RESULT:    -3.651      2.902      4.110
REMARK INTER + INTRA:          -5.660
REMARK INTER:                  -5.302
REMARK INTRA:                  -0.359
REMARK UNBOUND:                -0.302
REMARK SMILES O=C([O-])CCCCCCCC(=O)[O-]
REMARK SMILES IDX 7 1 6 2 5 3 4 4 2 5 1 6 3 7 8 8 9 9 10 10 11 11 12 12 13 13
REMARK H PARENT
REMARK Flexibility Score: inf
ROOT
ATOM      1  C   UNL     1     111.541 102.456 112.105  1.00  0.00     0.000 C 
ENDROOT
BRANCH   1   2
ATOM      2  C   UNL     1     112.851 101.943 111.495  1.00  0.00     0.000 C 
BRANCH   2   3
ATOM      3  C   UNL     1     113.888 103.071 111.390  1.00  0.00     0.006 C 
BRANCH   3   4
ATOM      4  C   UNL     1     114.181 103.719 112.750  1.00  0.00     0.053 C 
BRANCH   4   5
ATOM      5  C   UNL     1     115.533 104.362 112.779  1.00  0.00     0.041 C 
ATOM      6  O   UNL     1     116.445 103.955 112.014  1.00  0.00    -0.550 OA
ATOM      7  O   UNL     1     115.776 105.434 113.630  1.00  0.00    -0.550 OA
ENDBRANCH   4   5
ENDBRANCH   3   4
ENDBRANCH   2   3
ENDBRANCH   1   2
BRANCH   1   8
ATOM      8  C   UNL     1     110.575 102.933 111.014  1.00  0.00     0.000 C 
BRANCH   8   9
ATOM      9  C   UNL     1     110.352 104.451 111.100  1.00  0.00     0.006 C 
BRANCH   9  10
ATOM     10  C   UNL     1     108.899 104.842 110.805  1.00  0.00     0.053 C 
BRANCH  10  11
ATOM     11  C   UNL     1     108.520 106.124 111.482  1.00  0.00     0.041 C 
ATOM     12  O   UNL     1     107.892 106.103 112.573  1.00  0.00    -0.550 OA
ATOM     13  O   UNL     1     108.888 107.341 110.923  1.00  0.00    -0.550 OA
ENDBRANCH  10  11
ENDBRANCH   9  10
ENDBRANCH   8   9
ENDBRANCH   1   8
TORSDOF 8
ENDMDL
