MODEL 1
REMARK VINA RESULT:    -5.937      0.000      0.000
REMARK INTER + INTRA:          -6.659
REMARK INTER:                  -6.457
REMARK INTRA:                  -0.202
REMARK UNBOUND:                -0.202
REMARK SMILES CC(=O)[C@@H]1CC[C@@H]2[C@@H]3CC=C4C[C@@H](O)CC[C@@]4(C)[C@@H]3CC[C@@]21C
REMARK SMILES IDX 4 1 5 2 6 3 7 4 22 5 21 6 20 7 19 8 8 9 9 10 10 11 11 12
REMARK SMILES IDX 17 13 16 14 15 15 13 16 12 17 18 18 23 19 2 20 1 21 3 22
REMARK SMILES IDX 14 23
REMARK H PARENT 14 24
REMARK Flexibility Score: inf
ROOT
ATOM      1  C   UNL     1      12.425  20.171  15.015  1.00  0.00     0.062 C 
ATOM      2  C   UNL     1      11.523  20.640  13.878  1.00  0.00     0.012 C 
ATOM      3  C   UNL     1      10.990  19.370  13.220  1.00  0.00     0.005 C 
ATOM      4  C   UNL     1      11.352  18.189  14.146  1.00  0.00    -0.001 C 
ATOM      5  C   UNL     1      11.835  18.813  15.487  1.00  0.00    -0.020 C 
ATOM      6  C   UNL     1      10.666  18.958  16.531  1.00  0.00     0.008 C 
ATOM      7  C   UNL     1       9.263  18.873  15.920  1.00  0.00     0.005 C 
ATOM      8  C   UNL     1       9.051  17.494  15.256  1.00  0.00     0.003 C 
ATOM      9  C   UNL     1      10.244  17.102  14.305  1.00  0.00     0.000 C 
ATOM     10  C   UNL     1       9.805  16.526  12.941  1.00  0.00     0.031 C 
ATOM     11  C   UNL     1       8.636  15.603  13.107  1.00  0.00    -0.027 C 
ATOM     12  C   UNL     1       7.592  15.940  13.888  1.00  0.00    -0.065 C 
ATOM     13  C   UNL     1       7.602  17.261  14.666  1.00  0.00    -0.008 C 
ATOM     14  C   UNL     1       6.575  17.150  15.839  1.00  0.00     0.014 C 
ATOM     15  C   UNL     1       5.162  16.704  15.407  1.00  0.00     0.033 C 
ATOM     16  C   UNL     1       5.140  15.648  14.275  1.00  0.00     0.118 C 
ATOM     17  C   UNL     1       6.485  14.934  14.112  1.00  0.00     0.063 C 
ATOM     18  C   UNL     1       7.152  18.411  13.730  1.00  0.00     0.016 C 
ATOM     19  C   UNL     1      12.954  17.946  16.113  1.00  0.00     0.012 C 
ENDROOT
BRANCH   1  20
ATOM     20  C   UNL     1      12.655  21.219  16.091  1.00  0.00     0.133 C 
ATOM     21  C   UNL     1      11.893  22.511  16.078  1.00  0.00     0.088 C 
ATOM     22  O   UNL     1      13.468  21.026  16.984  1.00  0.00    -0.300 OA
ENDBRANCH   1  20
BRANCH  16  23
ATOM     23  O   UNL     1       4.143  14.691  14.525  1.00  0.00    -0.393 OA
ATOM     24  H   UNL     1       3.851  14.822  15.466  1.00  0.00     0.210 HD
ENDBRANCH  16  23
TORSDOF 2
ENDMDL
MODEL 2
REMARK VINA RESULT:    -5.733      1.415      2.881
REMARK INTER + INTRA:          -6.437
REMARK INTER:                  -6.219
REMARK INTRA:                  -0.218
REMARK UNBOUND:                -0.202
REMARK SMILES CC(=O)[C@@H]1CC[C@@H]2[C@@H]3CC=C4C[C@@H](O)CC[C@@]4(C)[C@@H]3CC[C@@]21C
REMARK SMILES IDX 4 1 5 2 6 3 7 4 22 5 21 6 20 7 19 8 8 9 9 10 10 11 11 12
REMARK SMILES IDX 17 13 16 14 15 15 13 16 12 17 18 18 23 19 2 20 1 21 3 22
REMARK SMILES IDX 14 23
REMARK H PARENT 14 24
REMARK Flexibility Score: inf
ROOT
ATOM      1  C   UNL     1      12.391  19.409  15.816  1.00  0.00     0.062 C 
ATOM      2  C   UNL     1      11.574  19.139  17.075  1.00  0.00     0.012 C 
ATOM      3  C   UNL     1      10.140  19.532  16.731  1.00  0.00     0.005 C 
ATOM      4  C   UNL     1      10.080  19.753  15.204  1.00  0.00    -0.001 C 
ATOM      5  C   UNL     1      11.414  19.197  14.626  1.00  0.00    -0.020 C 
ATOM      6  C   UNL     1      11.285  17.697  14.170  1.00  0.00     0.008 C 
ATOM      7  C   UNL     1      10.070  16.964  14.749  1.00  0.00     0.005 C 
ATOM      8  C   UNL     1       8.763  17.648  14.286  1.00  0.00     0.003 C 
ATOM      9  C   UNL     1       8.798  19.208  14.501  1.00  0.00     0.000 C 
ATOM     10  C   UNL     1       7.510  19.791  15.121  1.00  0.00     0.031 C 
ATOM     11  C   UNL     1       6.296  19.137  14.537  1.00  0.00    -0.027 C 
ATOM     12  C   UNL     1       6.237  17.800  14.380  1.00  0.00    -0.065 C 
ATOM     13  C   UNL     1       7.437  16.923  14.753  1.00  0.00    -0.008 C 
ATOM     14  C   UNL     1       7.301  15.557  14.006  1.00  0.00     0.014 C 
ATOM     15  C   UNL     1       5.942  14.854  14.210  1.00  0.00     0.033 C 
ATOM     16  C   UNL     1       4.726  15.812  14.271  1.00  0.00     0.118 C 
ATOM     17  C   UNL     1       5.037  17.192  13.687  1.00  0.00     0.063 C 
ATOM     18  C   UNL     1       7.418  16.651  16.278  1.00  0.00     0.016 C 
ATOM     19  C   UNL     1      11.871  20.046  13.416  1.00  0.00     0.012 C 
ENDROOT
BRANCH   1  20
ATOM     20  C   UNL     1      13.703  18.644  15.758  1.00  0.00     0.133 C 
ATOM     21  C   UNL     1      13.999  17.553  16.743  1.00  0.00     0.088 C 
ATOM     22  O   UNL     1      14.540  18.908  14.906  1.00  0.00    -0.300 OA
ENDBRANCH   1  20
BRANCH  16  23
ATOM     23  O   UNL     1       3.638  15.257  13.578  1.00  0.00    -0.393 OA
ATOM     24  H   UNL     1       3.590  14.300  13.841  1.00  0.00     0.210 HD
ENDBRANCH  16  23
TORSDOF 2
ENDMDL
MODEL 3
REMARK VINA RESULT:    -5.643      8.308      9.602
REMARK INTER + INTRA:          -6.340
REMARK INTER:                  -6.099
REMARK INTRA:                  -0.241
REMARK UNBOUND:                -0.202
REMARK SMILES CC(=O)[C@@H]1CC[C@@H]2[C@@H]3CC=C4C[C@@H](O)CC[C@@]4(C)[C@@H]3CC[C@@]21C
REMARK SMILES IDX 4 1 5 2 6 3 7 4 22 5 21 6 20 7 19 8 8 9 9 10 10 11 11 12
REMARK SMILES IDX 17 13 16 14 15 15 13 16 12 17 18 18 23 19 2 20 1 21 3 22
REMARK SMILES IDX 14 23
REMARK H PARENT 14 24
REMARK Flexibility Score: inf
ROOT
ATOM      1  C   UNL     1       6.992  29.289  15.220  1.00  0.00     0.062 C 
ATOM      2  C   UNL     1       5.540  29.641  14.910  1.00  0.00     0.012 C 
ATOM      3  C   UNL     1       4.972  28.436  14.165  1.00  0.00     0.005 C 
ATOM      4  C   UNL     1       5.998  27.290  14.298  1.00  0.00    -0.001 C 
ATOM      5  C   UNL     1       7.027  27.743  15.374  1.00  0.00    -0.020 C 
ATOM      6  C   UNL     1       6.642  27.240  16.814  1.00  0.00     0.008 C 
ATOM      7  C   UNL     1       5.181  26.798  16.957  1.00  0.00     0.005 C 
ATOM      8  C   UNL     1       4.888  25.609  16.014  1.00  0.00     0.003 C 
ATOM      9  C   UNL     1       5.389  25.876  14.545  1.00  0.00     0.000 C 
ATOM     10  C   UNL     1       4.374  25.486  13.449  1.00  0.00     0.031 C 
ATOM     11  C   UNL     1       3.690  24.198  13.791  1.00  0.00    -0.027 C 
ATOM     12  C   UNL     1       3.224  23.971  15.034  1.00  0.00    -0.065 C 
ATOM     13  C   UNL     1       3.428  25.011  16.141  1.00  0.00    -0.008 C 
ATOM     14  C   UNL     1       3.277  24.297  17.523  1.00  0.00     0.014 C 
ATOM     15  C   UNL     1       1.974  23.485  17.680  1.00  0.00     0.033 C 
ATOM     16  C   UNL     1       1.513  22.756  16.394  1.00  0.00     0.118 C 
ATOM     17  C   UNL     1       2.637  22.615  15.364  1.00  0.00     0.063 C 
ATOM     18  C   UNL     1       2.331  26.099  16.030  1.00  0.00     0.016 C 
ATOM     19  C   UNL     1       8.439  27.214  15.024  1.00  0.00     0.012 C 
ENDROOT
BRANCH   1  20
ATOM     20  C   UNL     1       7.591  30.096  16.360  1.00  0.00     0.133 C 
ATOM     21  C   UNL     1       6.709  30.765  17.372  1.00  0.00     0.088 C 
ATOM     22  O   UNL     1       8.804  30.213  16.469  1.00  0.00    -0.300 OA
ENDBRANCH   1  20
BRANCH  16  23
ATOM     23  O   UNL     1       1.021  21.480  16.710  1.00  0.00    -0.393 OA
ATOM     24  H   UNL     1       0.812  21.487  17.682  1.00  0.00     0.210 HD
ENDBRANCH  16  23
TORSDOF 2
ENDMDL
MODEL 4
REMARK VINA RESULT:    -5.592      8.802     12.315
REMARK INTER + INTRA:          -6.285
REMARK INTER:                  -6.048
REMARK INTRA:                  -0.237
REMARK UNBOUND:                -0.202
REMARK SMILES CC(=O)[C@@H]1CC[C@@H]2[C@@H]3CC=C4C[C@@H](O)CC[C@@]4(C)[C@@H]3CC[C@@]21C
REMARK SMILES IDX 4 1 5 2 6 3 7 4 22 5 21 6 20 7 19 8 8 9 9 10 10 11 11 12
REMARK SMILES IDX 17 13 16 14 15 15 13 16 12 17 18 18 23 19 2 20 1 21 3 22
REMARK SMILES IDX 14 23
REMARK H PARENT 14 24
REMARK Flexibility Score: inf
ROOT
ATOM      1  C   UNL     1       2.388  25.164  15.049  1.00  0.00     0.062 C 
ATOM      2  C   UNL     1       2.307  26.372  14.121  1.00  0.00     0.012 C 
ATOM      3  C   UNL     1       2.777  27.564  14.951  1.00  0.00     0.005 C 
ATOM      4  C   UNL     1       3.393  27.003  16.250  1.00  0.00    -0.001 C 
ATOM      5  C   UNL     1       3.548  25.470  16.037  1.00  0.00    -0.020 C 
ATOM      6  C   UNL     1       4.970  25.087  15.484  1.00  0.00     0.008 C 
ATOM      7  C   UNL     1       5.746  26.260  14.874  1.00  0.00     0.005 C 
ATOM      8  C   UNL     1       6.000  27.346  15.943  1.00  0.00     0.003 C 
ATOM      9  C   UNL     1       4.691  27.720  16.736  1.00  0.00     0.000 C 
ATOM     10  C   UNL     1       4.475  29.237  16.924  1.00  0.00     0.031 C 
ATOM     11  C   UNL     1       5.769  29.923  17.237  1.00  0.00    -0.027 C 
ATOM     12  C   UNL     1       6.889  29.640  16.543  1.00  0.00    -0.065 C 
ATOM     13  C   UNL     1       6.871  28.570  15.446  1.00  0.00    -0.008 C 
ATOM     14  C   UNL     1       8.339  28.095  15.197  1.00  0.00     0.014 C 
ATOM     15  C   UNL     1       9.338  29.239  14.920  1.00  0.00     0.033 C 
ATOM     16  C   UNL     1       9.085  30.526  15.743  1.00  0.00     0.118 C 
ATOM     17  C   UNL     1       8.196  30.276  16.964  1.00  0.00     0.063 C 
ATOM     18  C   UNL     1       6.327  29.190  14.135  1.00  0.00     0.016 C 
ATOM     19  C   UNL     1       3.314  24.715  17.368  1.00  0.00     0.012 C 
ENDROOT
BRANCH   1  20
ATOM     20  C   UNL     1       2.453  23.832  14.321  1.00  0.00     0.133 C 
ATOM     21  C   UNL     1       2.952  23.754  12.909  1.00  0.00     0.088 C 
ATOM     22  O   UNL     1       2.097  22.802  14.876  1.00  0.00    -0.300 OA
ENDBRANCH   1  20
BRANCH  16  23
ATOM     23  O   UNL     1      10.305  31.074  16.171  1.00  0.00    -0.393 OA
ATOM     24  H   UNL     1      10.889  30.311  16.422  1.00  0.00     0.210 HD
ENDBRANCH  16  23
TORSDOF 2
ENDMDL
MODEL 5
REMARK VINA RESULT:    -5.413      1.362      6.781
REMARK INTER + INTRA:          -6.090
REMARK INTER:                  -5.975
REMARK INTRA:                  -0.114
REMARK UNBOUND:                -0.202
REMARK SMILES CC(=O)[C@@H]1CC[C@@H]2[C@@H]3CC=C4C[C@@H](O)CC[C@@]4(C)[C@@H]3CC[C@@]21C
REMARK SMILES IDX 4 1 5 2 6 3 7 4 22 5 21 6 20 7 19 8 8 9 9 10 10 11 11 12
REMARK SMILES IDX 17 13 16 14 15 15 13 16 12 17 18 18 23 19 2 20 1 21 3 22
REMARK SMILES IDX 14 23
REMARK H PARENT 14 24
REMARK Flexibility Score: inf
ROOT
ATOM      1  C   UNL     1       6.214  17.538  13.871  1.00  0.00     0.062 C 
ATOM      2  C   UNL     1       7.338  16.913  13.050  1.00  0.00     0.012 C 
ATOM      3  C   UNL     1       8.385  18.011  12.876  1.00  0.00     0.005 C 
ATOM      4  C   UNL     1       8.000  19.164  13.828  1.00  0.00    -0.001 C 
ATOM      5  C   UNL     1       6.895  18.607  14.771  1.00  0.00    -0.020 C 
ATOM      6  C   UNL     1       7.490  18.025  16.106  1.00  0.00     0.008 C 
ATOM      7  C   UNL     1       8.993  17.728  16.050  1.00  0.00     0.005 C 
ATOM      8  C   UNL     1       9.784  19.028  15.779  1.00  0.00     0.003 C 
ATOM      9  C   UNL     1       9.194  19.843  14.567  1.00  0.00     0.000 C 
ATOM     10  C   UNL     1      10.258  20.371  13.580  1.00  0.00     0.031 C 
ATOM     11  C   UNL     1      11.461  20.875  14.315  1.00  0.00    -0.027 C 
ATOM     12  C   UNL     1      11.999  20.171  15.330  1.00  0.00    -0.065 C 
ATOM     13  C   UNL     1      11.358  18.856  15.786  1.00  0.00    -0.008 C 
ATOM     14  C   UNL     1      11.840  18.550  17.240  1.00  0.00     0.014 C 
ATOM     15  C   UNL     1      13.373  18.578  17.421  1.00  0.00     0.033 C 
ATOM     16  C   UNL     1      14.097  19.668  16.593  1.00  0.00     0.118 C 
ATOM     17  C   UNL     1      13.147  20.769  16.114  1.00  0.00     0.063 C 
ATOM     18  C   UNL     1      11.831  17.707  14.861  1.00  0.00     0.016 C 
ATOM     19  C   UNL     1       5.878  19.719  15.123  1.00  0.00     0.012 C 
ENDROOT
BRANCH   1  20
ATOM     20  C   UNL     1       5.330  16.524  14.575  1.00  0.00     0.133 C 
ATOM     21  C   UNL     1       4.001  16.926  15.141  1.00  0.00     0.088 C 
ATOM     22  O   UNL     1       5.691  15.361  14.694  1.00  0.00    -0.300 OA
ENDBRANCH   1  20
BRANCH  16  23
ATOM     23  O   UNL     1      15.124  20.250  17.353  1.00  0.00    -0.393 OA
ATOM     24  H   UNL     1      14.867  21.198  17.502  1.00  0.00     0.210 HD
ENDBRANCH  16  23
TORSDOF 2
ENDMDL
MODEL 6
REMARK VINA RESULT:    -5.341      4.347      7.740
REMARK INTER + INTRA:          -6.011
REMARK INTER:                  -5.769
REMARK INTRA:                  -0.242
REMARK UNBOUND:                -0.202
REMARK SMILES CC(=O)[C@@H]1CC[C@@H]2[C@@H]3CC=C4C[C@@H](O)CC[C@@]4(C)[C@@H]3CC[C@@]21C
REMARK SMILES IDX 4 1 5 2 6 3 7 4 22 5 21 6 20 7 19 8 8 9 9 10 10 11 11 12
REMARK SMILES IDX 17 13 16 14 15 15 13 16 12 17 18 18 23 19 2 20 1 21 3 22
REMARK SMILES IDX 14 23
REMARK H PARENT 14 24
REMARK Flexibility Score: inf
ROOT
ATOM      1  C   UNL     1      13.301  18.585  15.258  1.00  0.00     0.062 C 
ATOM      2  C   UNL     1      14.040  19.268  14.111  1.00  0.00     0.012 C 
ATOM      3  C   UNL     1      13.064  20.297  13.544  1.00  0.00     0.005 C 
ATOM      4  C   UNL     1      11.885  20.404  14.535  1.00  0.00    -0.001 C 
ATOM      5  C   UNL     1      12.325  19.653  15.825  1.00  0.00    -0.020 C 
ATOM      6  C   UNL     1      12.983  20.618  16.880  1.00  0.00     0.008 C 
ATOM      7  C   UNL     1      13.446  21.960  16.303  1.00  0.00     0.005 C 
ATOM      8  C   UNL     1      12.240  22.739  15.729  1.00  0.00     0.003 C 
ATOM      9  C   UNL     1      11.352  21.849  14.782  1.00  0.00     0.000 C 
ATOM     10  C   UNL     1      10.937  22.542  13.466  1.00  0.00     0.031 C 
ATOM     11  C   UNL     1      10.578  23.975  13.711  1.00  0.00    -0.027 C 
ATOM     12  C   UNL     1      11.348  24.759  14.489  1.00  0.00    -0.065 C 
ATOM     13  C   UNL     1      12.587  24.184  15.183  1.00  0.00    -0.008 C 
ATOM     14  C   UNL     1      12.960  25.116  16.380  1.00  0.00     0.014 C 
ATOM     15  C   UNL     1      13.106  26.606  16.004  1.00  0.00     0.033 C 
ATOM     16  C   UNL     1      12.096  27.101  14.941  1.00  0.00     0.118 C 
ATOM     17  C   UNL     1      10.890  26.169  14.797  1.00  0.00     0.063 C 
ATOM     18  C   UNL     1      13.773  24.170  14.185  1.00  0.00     0.016 C 
ATOM     19  C   UNL     1      11.109  18.955  16.482  1.00  0.00     0.012 C 
ENDROOT
BRANCH   1  20
ATOM     20  C   UNL     1      14.217  17.906  16.261  1.00  0.00     0.133 C 
ATOM     21  C   UNL     1      15.659  18.302  16.375  1.00  0.00     0.088 C 
ATOM     22  O   UNL     1      13.792  17.021  16.992  1.00  0.00    -0.300 OA
ENDBRANCH   1  20
BRANCH  16  23
ATOM     23  O   UNL     1      11.640  28.389  15.268  1.00  0.00    -0.393 OA
ATOM     24  H   UNL     1      11.300  28.342  16.201  1.00  0.00     0.210 HD
ENDBRANCH  16  23
TORSDOF 2
ENDMDL
MODEL 7
REMARK VINA RESULT:    -5.328      4.865      7.046
REMARK INTER + INTRA:          -5.997
REMARK INTER:                  -5.812
REMARK INTRA:                  -0.185
REMARK UNBOUND:                -0.202
REMARK SMILES CC(=O)[C@@H]1CC[C@@H]2[C@@H]3CC=C4C[C@@H](O)CC[C@@]4(C)[C@@H]3CC[C@@]21C
REMARK SMILES IDX 4 1 5 2 6 3 7 4 22 5 21 6 20 7 19 8 8 9 9 10 10 11 11 12
REMARK SMILES IDX 17 13 16 14 15 15 13 16 12 17 18 18 23 19 2 20 1 21 3 22
REMARK SMILES IDX 14 23
REMARK H PARENT 14 24
REMARK Flexibility Score: inf
ROOT
ATOM      1  C   UNL     1      11.618  26.324  13.846  1.00  0.00     0.062 C 
ATOM      2  C   UNL     1      10.750  25.261  13.180  1.00  0.00     0.012 C 
ATOM      3  C   UNL     1      11.674  24.073  12.922  1.00  0.00     0.005 C 
ATOM      4  C   UNL     1      12.987  24.340  13.689  1.00  0.00    -0.001 C 
ATOM      5  C   UNL     1      12.708  25.545  14.634  1.00  0.00    -0.020 C 
ATOM      6  C   UNL     1      12.247  25.084  16.066  1.00  0.00     0.008 C 
ATOM      7  C   UNL     1      11.760  23.632  16.134  1.00  0.00     0.005 C 
ATOM      8  C   UNL     1      12.901  22.667  15.739  1.00  0.00     0.003 C 
ATOM      9  C   UNL     1      13.608  23.097  14.399  1.00  0.00     0.000 C 
ATOM     10  C   UNL     1      13.857  21.936  13.412  1.00  0.00     0.031 C 
ATOM     11  C   UNL     1      14.304  20.706  14.142  1.00  0.00    -0.027 C 
ATOM     12  C   UNL     1      13.686  20.305  15.269  1.00  0.00    -0.065 C 
ATOM     13  C   UNL     1      12.537  21.131  15.858  1.00  0.00    -0.008 C 
ATOM     14  C   UNL     1      12.378  20.750  17.365  1.00  0.00     0.014 C 
ATOM     15  C   UNL     1      12.239  19.236  17.627  1.00  0.00     0.033 C 
ATOM     16  C   UNL     1      13.105  18.343  16.705  1.00  0.00     0.118 C 
ATOM     17  C   UNL     1      14.239  19.121  16.031  1.00  0.00     0.063 C 
ATOM     18  C   UNL     1      11.221  20.777  15.122  1.00  0.00     0.016 C 
ATOM     19  C   UNL     1      13.976  26.420  14.778  1.00  0.00     0.012 C 
ENDROOT
BRANCH   1  20
ATOM     20  C   UNL     1      10.829  27.361  14.628  1.00  0.00     0.133 C 
ATOM     21  C   UNL     1       9.348  27.220  14.810  1.00  0.00     0.088 C 
ATOM     22  O   UNL     1      11.392  28.329  15.120  1.00  0.00    -0.300 OA
ENDBRANCH   1  20
BRANCH  16  23
ATOM     23  O   UNL     1      13.654  17.279  17.438  1.00  0.00    -0.393 OA
ATOM     24  H   UNL     1      14.608  17.210  17.170  1.00  0.00     0.210 HD
ENDBRANCH  16  23
TORSDOF 2
ENDMDL
MODEL 8
REMARK VINA RESULT:    -5.278      4.269      8.789
REMARK INTER + INTRA:          -5.943
REMARK INTER:                  -5.712
REMARK INTRA:                  -0.231
REMARK UNBOUND:                -0.202
REMARK SMILES CC(=O)[C@@H]1CC[C@@H]2[C@@H]3CC=C4C[C@@H](O)CC[C@@]4(C)[C@@H]3CC[C@@]21C
REMARK SMILES IDX 4 1 5 2 6 3 7 4 22 5 21 6 20 7 19 8 8 9 9 10 10 11 11 12
REMARK SMILES IDX 17 13 16 14 15 15 13 16 12 17 18 18 23 19 2 20 1 21 3 22
REMARK SMILES IDX 14 23
REMARK H PARENT 14 24
REMARK Flexibility Score: inf
ROOT
ATOM      1  C   UNL     1      11.766  19.086  14.937  1.00  0.00     0.062 C 
ATOM      2  C   UNL     1      11.142  19.984  13.873  1.00  0.00     0.012 C 
ATOM      3  C   UNL     1      10.903  21.329  14.554  1.00  0.00     0.005 C 
ATOM      4  C   UNL     1      11.644  21.294  15.908  1.00  0.00    -0.001 C 
ATOM      5  C   UNL     1      12.559  20.036  15.877  1.00  0.00    -0.020 C 
ATOM      6  C   UNL     1      14.010  20.368  15.366  1.00  0.00     0.008 C 
ATOM      7  C   UNL     1      14.125  21.701  14.618  1.00  0.00     0.005 C 
ATOM      8  C   UNL     1      13.740  22.871  15.551  1.00  0.00     0.003 C 
ATOM      9  C   UNL     1      12.379  22.613  16.300  1.00  0.00     0.000 C 
ATOM     10  C   UNL     1      11.420  23.824  16.309  1.00  0.00     0.031 C 
ATOM     11  C   UNL     1      12.177  25.098  16.533  1.00  0.00    -0.027 C 
ATOM     12  C   UNL     1      13.323  25.348  15.873  1.00  0.00    -0.065 C 
ATOM     13  C   UNL     1      13.906  24.309  14.910  1.00  0.00    -0.008 C 
ATOM     14  C   UNL     1      15.425  24.616  14.711  1.00  0.00     0.014 C 
ATOM     15  C   UNL     1      15.729  26.072  14.297  1.00  0.00     0.033 C 
ATOM     16  C   UNL     1      14.820  27.133  14.964  1.00  0.00     0.118 C 
ATOM     17  C   UNL     1      14.109  26.597  16.210  1.00  0.00     0.063 C 
ATOM     18  C   UNL     1      13.198  24.429  13.537  1.00  0.00     0.016 C 
ATOM     19  C   UNL     1      12.662  19.409  17.288  1.00  0.00     0.012 C 
ENDROOT
BRANCH   1  20
ATOM     20  C   UNL     1      12.531  17.901  14.370  1.00  0.00     0.133 C 
ATOM     21  C   UNL     1      12.872  17.835  12.911  1.00  0.00     0.088 C 
ATOM     22  O   UNL     1      12.879  16.980  15.097  1.00  0.00    -0.300 OA
ENDBRANCH   1  20
BRANCH  16  23
ATOM     23  O   UNL     1      15.574  28.263  15.319  1.00  0.00    -0.393 OA
ATOM     24  H   UNL     1      16.409  28.229  14.781  1.00  0.00     0.210 HD
ENDBRANCH  16  23
TORSDOF 2
ENDMDL
MODEL 9
REMARK VINA RESULT:    -5.201      4.409     10.057
REMARK INTER + INTRA:          -5.859
REMARK INTER:                  -5.716
REMARK INTRA:                  -0.143
REMARK UNBOUND:                -0.202
REMARK SMILES CC(=O)[C@@H]1CC[C@@H]2[C@@H]3CC=C4C[C@@H](O)CC[C@@]4(C)[C@@H]3CC[C@@]21C
REMARK SMILES IDX 4 1 5 2 6 3 7 4 22 5 21 6 20 7 19 8 8 9 9 10 10 11 11 12
REMARK SMILES IDX 17 13 16 14 15 15 13 16 12 17 18 18 23 19 2 20 1 21 3 22
REMARK SMILES IDX 14 23
REMARK H PARENT 14 24
REMARK Flexibility Score: inf
ROOT
ATOM      1  C   UNL     1      11.557  21.159  14.415  1.00  0.00     0.062 C 
ATOM      2  C   UNL     1      11.294  22.037  13.195  1.00  0.00     0.012 C 
ATOM      3  C   UNL     1      11.224  23.468  13.721  1.00  0.00     0.005 C 
ATOM      4  C   UNL     1      11.726  23.444  15.181  1.00  0.00    -0.001 C 
ATOM      5  C   UNL     1      12.368  22.043  15.402  1.00  0.00    -0.020 C 
ATOM      6  C   UNL     1      13.916  22.048  15.125  1.00  0.00     0.008 C 
ATOM      7  C   UNL     1      14.407  23.250  14.309  1.00  0.00     0.005 C 
ATOM      8  C   UNL     1      14.122  24.564  15.071  1.00  0.00     0.003 C 
ATOM      9  C   UNL     1      12.638  24.641  15.592  1.00  0.00     0.000 C 
ATOM     10  C   UNL     1      11.948  26.000  15.345  1.00  0.00     0.031 C 
ATOM     11  C   UNL     1      12.898  27.131  15.599  1.00  0.00    -0.027 C 
ATOM     12  C   UNL     1      14.159  27.096  15.128  1.00  0.00    -0.065 C 
ATOM     13  C   UNL     1      14.666  25.870  14.361  1.00  0.00    -0.008 C 
ATOM     14  C   UNL     1      16.228  25.872  14.403  1.00  0.00     0.014 C 
ATOM     15  C   UNL     1      16.875  27.194  13.939  1.00  0.00     0.033 C 
ATOM     16  C   UNL     1      16.101  28.468  14.358  1.00  0.00     0.118 C 
ATOM     17  C   UNL     1      15.115  28.208  15.500  1.00  0.00     0.063 C 
ATOM     18  C   UNL     1      14.216  25.969  12.881  1.00  0.00     0.016 C 
ATOM     19  C   UNL     1      12.125  21.564  16.854  1.00  0.00     0.012 C 
ENDROOT
BRANCH   1  20
ATOM     20  C   UNL     1      12.150  19.801  14.079  1.00  0.00     0.133 C 
ATOM     21  C   UNL     1      11.932  18.625  14.983  1.00  0.00     0.088 C 
ATOM     22  O   UNL     1      12.816  19.647  13.065  1.00  0.00    -0.300 OA
ENDBRANCH   1  20
BRANCH  16  23
ATOM     23  O   UNL     1      17.000  29.473  14.750  1.00  0.00    -0.393 OA
ATOM     24  H   UNL     1      17.167  30.036  13.948  1.00  0.00     0.210 HD
ENDBRANCH  16  23
TORSDOF 2
ENDMDL
