MODEL 1
REMARK VINA RESULT:    -3.045      0.000      0.000
REMARK INTER + INTRA:          -3.691
REMARK INTER:                  -3.578
REMARK INTRA:                  -0.112
REMARK UNBOUND:                -0.112
REMARK SMILES O=C([O-])CCC(=O)[O-]
REMARK SMILES IDX 4 1 2 2 1 3 3 4 5 5 6 6 7 7 8 8
REMARK H PARENT
REMARK Flexibility Score: inf
ROOT
ATOM      1  C   UNL     1       4.358 -11.971 -23.248  1.00  0.00     0.059 C 
ENDROOT
BRANCH   1   2
ATOM      2  C   UNL     1       5.629 -11.236 -23.535  1.00  0.00     0.042 C 
ATOM      3  O   UNL     1       5.853 -10.123 -22.992  1.00  0.00    -0.550 OA
ATOM      4  O   UNL     1       6.588 -11.804 -24.364  1.00  0.00    -0.550 OA
ENDBRANCH   1   2
BRANCH   1   5
ATOM      5  C   UNL     1       4.347 -12.480 -21.807  1.00  0.00     0.059 C 
BRANCH   5   6
ATOM      6  C   UNL     1       4.770 -13.914 -21.754  1.00  0.00     0.042 C 
ATOM      7  O   UNL     1       5.963 -14.213 -21.487  1.00  0.00    -0.550 OA
ATOM      8  O   UNL     1       3.857 -14.918 -22.047  1.00  0.00    -0.550 OA
ENDBRANCH   5   6
ENDBRANCH   1   5
TORSDOF 3
ENDMDL
MODEL 2
REMARK VINA RESULT:    -3.038      0.083      3.743
REMARK INTER + INTRA:          -3.684
REMARK INTER:                  -3.575
REMARK INTRA:                  -0.109
REMARK UNBOUND:                -0.112
REMARK SMILES O=C([O-])CCC(=O)[O-]
REMARK SMILES IDX 4 1 2 2 1 3 3 4 5 5 6 6 7 7 8 8
REMARK H PARENT
REMARK Flexibility Score: inf
ROOT
ATOM      1  C   UNL     1       4.333 -12.517 -21.812  1.00  0.00     0.059 C 
ENDROOT
BRANCH   1   2
ATOM      2  C   UNL     1       4.750 -13.954 -21.783  1.00  0.00     0.042 C 
ATOM      3  O   UNL     1       5.928 -14.266 -21.465  1.00  0.00    -0.550 OA
ATOM      4  O   UNL     1       3.824 -14.951 -22.058  1.00  0.00    -0.550 OA
ENDBRANCH   1   2
BRANCH   1   5
ATOM      5  C   UNL     1       4.347 -11.985 -23.245  1.00  0.00     0.059 C 
BRANCH   5   6
ATOM      6  C   UNL     1       5.616 -11.239 -23.514  1.00  0.00     0.042 C 
ATOM      7  O   UNL     1       6.492 -11.732 -24.272  1.00  0.00    -0.550 OA
ATOM      8  O   UNL     1       5.853 -10.021 -22.890  1.00  0.00    -0.550 OA
ENDBRANCH   5   6
ENDBRANCH   1   5
TORSDOF 3
ENDMDL
MODEL 3
REMARK VINA RESULT:    -3.030     11.948     13.078
REMARK INTER + INTRA:          -3.673
REMARK INTER:                  -3.609
REMARK INTRA:                  -0.064
REMARK UNBOUND:                -0.112
REMARK SMILES O=C([O-])CCC(=O)[O-]
REMARK SMILES IDX 4 1 2 2 1 3 3 4 5 5 6 6 7 7 8 8
REMARK H PARENT
REMARK Flexibility Score: inf
ROOT
ATOM      1  C   UNL     1       3.848 -10.210 -35.075  1.00  0.00     0.059 C 
ENDROOT
BRANCH   1   2
ATOM      2  C   UNL     1       4.174  -9.103 -36.027  1.00  0.00     0.042 C 
ATOM      3  O   UNL     1       5.078  -9.255 -36.890  1.00  0.00    -0.550 OA
ATOM      4  O   UNL     1       3.446  -7.921 -35.995  1.00  0.00    -0.550 OA
ENDBRANCH   1   2
BRANCH   1   5
ATOM      5  C   UNL     1       2.558  -9.900 -34.316  1.00  0.00     0.059 C 
BRANCH   5   6
ATOM      6  C   UNL     1       1.640 -11.081 -34.338  1.00  0.00     0.042 C 
ATOM      7  O   UNL     1       1.118 -11.458 -35.420  1.00  0.00    -0.550 OA
ATOM      8  O   UNL     1       1.321 -11.736 -33.156  1.00  0.00    -0.550 OA
ENDBRANCH   5   6
ENDBRANCH   1   5
TORSDOF 3
ENDMDL
MODEL 4
REMARK VINA RESULT:    -3.024     11.916     13.478
REMARK INTER + INTRA:          -3.667
REMARK INTER:                  -3.597
REMARK INTRA:                  -0.069
REMARK UNBOUND:                -0.112
REMARK SMILES O=C([O-])CCC(=O)[O-]
REMARK SMILES IDX 4 1 2 2 1 3 3 4 5 5 6 6 7 7 8 8
REMARK H PARENT
REMARK Flexibility Score: inf
ROOT
ATOM      1  C   UNL     1       2.497  -9.896 -34.255  1.00  0.00     0.059 C 
ENDROOT
BRANCH   1   2
ATOM      2  C   UNL     1       1.592 -11.085 -34.324  1.00  0.00     0.042 C 
ATOM      3  O   UNL     1       1.107 -11.450 -35.427  1.00  0.00    -0.550 OA
ATOM      4  O   UNL     1       1.323 -11.821 -33.178  1.00  0.00    -0.550 OA
ENDBRANCH   1   2
BRANCH   1   5
ATOM      5  C   UNL     1       3.822 -10.190 -34.957  1.00  0.00     0.059 C 
BRANCH   5   6
ATOM      6  C   UNL     1       4.115  -9.142 -35.984  1.00  0.00     0.042 C 
ATOM      7  O   UNL     1       5.024  -9.325 -36.836  1.00  0.00    -0.550 OA
ATOM      8  O   UNL     1       3.418  -7.941 -35.970  1.00  0.00    -0.550 OA
ENDBRANCH   5   6
ENDBRANCH   1   5
TORSDOF 3
ENDMDL
MODEL 5
REMARK VINA RESULT:    -2.985      1.474      3.958
REMARK INTER + INTRA:          -3.621
REMARK INTER:                  -3.507
REMARK INTRA:                  -0.114
REMARK UNBOUND:                -0.112
REMARK SMILES O=C([O-])CCC(=O)[O-]
REMARK SMILES IDX 4 1 2 2 1 3 3 4 5 5 6 6 7 7 8 8
REMARK H PARENT
REMARK Flexibility Score: inf
ROOT
ATOM      1  C   UNL     1       5.238 -13.908 -21.763  1.00  0.00     0.059 C 
ENDROOT
BRANCH   1   2
ATOM      2  C   UNL     1       4.287 -15.055 -21.905  1.00  0.00     0.042 C 
ATOM      3  O   UNL     1       4.712 -16.194 -22.231  1.00  0.00    -0.550 OA
ATOM      4  O   UNL     1       2.938 -14.876 -21.630  1.00  0.00    -0.550 OA
ENDBRANCH   1   2
BRANCH   1   5
ATOM      5  C   UNL     1       4.481 -12.580 -21.779  1.00  0.00     0.059 C 
BRANCH   5   6
ATOM      6  C   UNL     1       4.534 -11.964 -23.142  1.00  0.00     0.042 C 
ATOM      7  O   UNL     1       5.571 -11.362 -23.525  1.00  0.00    -0.550 OA
ATOM      8  O   UNL     1       3.420 -12.011 -23.970  1.00  0.00    -0.550 OA
ENDBRANCH   5   6
ENDBRANCH   1   5
TORSDOF 3
ENDMDL
MODEL 6
REMARK VINA RESULT:    -2.978      1.412      1.811
REMARK INTER + INTRA:          -3.613
REMARK INTER:                  -3.503
REMARK INTRA:                  -0.110
REMARK UNBOUND:                -0.112
REMARK SMILES O=C([O-])CCC(=O)[O-]
REMARK SMILES IDX 4 1 2 2 1 3 3 4 5 5 6 6 7 7 8 8
REMARK H PARENT
REMARK Flexibility Score: inf
ROOT
ATOM      1  C   UNL     1       4.465 -12.554 -21.840  1.00  0.00     0.059 C 
ENDROOT
BRANCH   1   2
ATOM      2  C   UNL     1       4.540 -11.948 -23.206  1.00  0.00     0.042 C 
ATOM      3  O   UNL     1       3.511 -11.885 -23.929  1.00  0.00    -0.550 OA
ATOM      4  O   UNL     1       5.736 -11.409 -23.663  1.00  0.00    -0.550 OA
ENDBRANCH   1   2
BRANCH   1   5
ATOM      5  C   UNL     1       5.224 -13.880 -21.800  1.00  0.00     0.059 C 
BRANCH   5   6
ATOM      6  C   UNL     1       4.274 -15.031 -21.903  1.00  0.00     0.042 C 
ATOM      7  O   UNL     1       4.693 -16.172 -22.230  1.00  0.00    -0.550 OA
ATOM      8  O   UNL     1       2.917 -14.834 -21.684  1.00  0.00    -0.550 OA
ENDBRANCH   5   6
ENDBRANCH   1   5
TORSDOF 3
ENDMDL
MODEL 7
REMARK VINA RESULT:    -2.957      8.839      9.840
REMARK INTER + INTRA:          -3.588
REMARK INTER:                  -3.446
REMARK INTRA:                  -0.142
REMARK UNBOUND:                -0.112
REMARK SMILES O=C([O-])CCC(=O)[O-]
REMARK SMILES IDX 4 1 2 2 1 3 3 4 5 5 6 6 7 7 8 8
REMARK H PARENT
REMARK Flexibility Score: inf
ROOT
ATOM      1  C   UNL     1       3.339  -5.622 -18.276  1.00  0.00     0.059 C 
ENDROOT
BRANCH   1   2
ATOM      2  C   UNL     1       2.198  -4.756 -18.709  1.00  0.00     0.042 C 
ATOM      3  O   UNL     1       1.551  -5.035 -19.752  1.00  0.00    -0.550 OA
ATOM      4  O   UNL     1       1.818  -3.668 -17.934  1.00  0.00    -0.550 OA
ENDBRANCH   1   2
BRANCH   1   5
ATOM      5  C   UNL     1       4.612  -5.249 -19.034  1.00  0.00     0.059 C 
BRANCH   5   6
ATOM      6  C   UNL     1       5.234  -4.023 -18.443  1.00  0.00     0.042 C 
ATOM      7  O   UNL     1       5.741  -4.062 -17.292  1.00  0.00    -0.550 OA
ATOM      8  O   UNL     1       5.210  -2.824 -19.144  1.00  0.00    -0.550 OA
ENDBRANCH   5   6
ENDBRANCH   1   5
TORSDOF 3
ENDMDL
MODEL 8
REMARK VINA RESULT:    -2.930      8.681      9.506
REMARK INTER + INTRA:          -3.556
REMARK INTER:                  -3.440
REMARK INTRA:                  -0.116
REMARK UNBOUND:                -0.112
REMARK SMILES O=C([O-])CCC(=O)[O-]
REMARK SMILES IDX 4 1 2 2 1 3 3 4 5 5 6 6 7 7 8 8
REMARK H PARENT
REMARK Flexibility Score: inf
ROOT
ATOM      1  C   UNL     1       4.729  -4.982 -19.250  1.00  0.00     0.059 C 
ENDROOT
BRANCH   1   2
ATOM      2  C   UNL     1       5.378  -3.882 -18.471  1.00  0.00     0.042 C 
ATOM      3  O   UNL     1       5.500  -2.734 -18.975  1.00  0.00    -0.550 OA
ATOM      4  O   UNL     1       5.804  -4.110 -17.169  1.00  0.00    -0.550 OA
ENDBRANCH   1   2
BRANCH   1   5
ATOM      5  C   UNL     1       3.616  -5.634 -18.429  1.00  0.00     0.059 C 
BRANCH   5   6
ATOM      6  C   UNL     1       2.299  -4.987 -18.726  1.00  0.00     0.042 C 
ATOM      7  O   UNL     1       1.606  -5.380 -19.701  1.00  0.00    -0.550 OA
ATOM      8  O   UNL     1       1.860  -3.919 -17.956  1.00  0.00    -0.550 OA
ENDBRANCH   5   6
ENDBRANCH   1   5
TORSDOF 3
ENDMDL
MODEL 9
REMARK VINA RESULT:    -2.895     11.720     12.607
REMARK INTER + INTRA:          -3.515
REMARK INTER:                  -3.396
REMARK INTRA:                  -0.119
REMARK UNBOUND:                -0.112
REMARK SMILES O=C([O-])CCC(=O)[O-]
REMARK SMILES IDX 4 1 2 2 1 3 3 4 5 5 6 6 7 7 8 8
REMARK H PARENT
REMARK Flexibility Score: inf
ROOT
ATOM      1  C   UNL     1       1.101 -11.762 -33.394  1.00  0.00     0.059 C 
ENDROOT
BRANCH   1   2
ATOM      2  C   UNL     1      -0.199 -11.296 -32.817  1.00  0.00     0.042 C 
ATOM      3  O   UNL     1      -0.357 -10.087 -32.506  1.00  0.00    -0.550 OA
ATOM      4  O   UNL     1      -1.252 -12.188 -32.668  1.00  0.00    -0.550 OA
ENDBRANCH   1   2
BRANCH   1   5
ATOM      5  C   UNL     1       1.279 -11.225 -34.814  1.00  0.00     0.059 C 
BRANCH   5   6
ATOM      6  C   UNL     1       2.366 -10.198 -34.853  1.00  0.00     0.042 C 
ATOM      7  O   UNL     1       2.154  -9.033 -34.426  1.00  0.00    -0.550 OA
ATOM      8  O   UNL     1       3.600 -10.513 -35.407  1.00  0.00    -0.550 OA
ENDBRANCH   5   6
ENDBRANCH   1   5
TORSDOF 3
ENDMDL
