MODEL 1
REMARK VINA RESULT:    23.122      0.000      0.000
REMARK INTER + INTRA:          28.096
REMARK INTER:                  27.177
REMARK INTRA:                   0.920
REMARK UNBOUND:                 0.920
REMARK SMILES CC1(C)CC[C@@]2(C(=O)[O-])CC[C@@]3(C)C(=CC[C@@H]4[C@]5(C)CC[C@@H](O)[C@@](C)(CO)[C@@H]5CC[C@]43C)[C@@H]2C1
REMARK SMILES IDX 6 1 5 2 10 3 33 4 4 5 11 6 14 7 34 8 2 9 12 10 15 11 1 12
REMARK SMILES IDX 3 13 13 14 31 15 16 16 17 17 30 18 32 19 18 20 29 21 28 22
REMARK SMILES IDX 20 23 19 24 24 25 21 26 22 27 25 28 7 29 8 30 9 31 26 32
REMARK SMILES IDX 27 33 23 35
REMARK H PARENT 27 34 23 36
REMARK Flexibility Score: inf
ROOT
ATOM      1  C   UNL     1       6.157  -1.677 -25.898  1.00  0.00     0.017 C 
ATOM      2  C   UNL     1       6.541  -2.759 -26.967  1.00  0.00     0.014 C 
ATOM      3  C   UNL     1       6.762  -0.293 -26.278  1.00  0.00     0.014 C 
ATOM      4  C   UNL     1       4.611  -1.477 -25.849  1.00  0.00     0.028 C 
ATOM      5  C   UNL     1       5.391  -3.135 -27.919  1.00  0.00     0.007 C 
ATOM      6  C   UNL     1       6.341   0.857 -25.315  1.00  0.00     0.013 C 
ATOM      7  C   UNL     1       4.272  -0.446 -24.778  1.00  0.00    -0.064 C 
ATOM      8  C   UNL     1       3.837  -2.813 -25.854  1.00  0.00     0.015 C 
ATOM      9  C   UNL     1       4.105  -3.624 -27.172  1.00  0.00    -0.035 C 
ATOM     10  C   UNL     1       4.794   0.986 -25.044  1.00  0.00    -0.006 C 
ATOM     11  C   UNL     1       3.880  -0.862 -23.554  1.00  0.00    -0.027 C 
ATOM     12  C   UNL     1       2.901  -3.459 -28.125  1.00  0.00     0.011 C 
ATOM     13  C   UNL     1       4.248  -5.124 -26.836  1.00  0.00     0.011 C 
ATOM     14  C   UNL     1       4.145   1.536 -26.359  1.00  0.00     0.017 C 
ATOM     15  C   UNL     1       4.455   1.988 -23.817  1.00  0.00    -0.020 C 
ATOM     16  C   UNL     1       3.782   0.025 -22.350  1.00  0.00     0.032 C 
ATOM     17  C   UNL     1       4.686   1.277 -22.449  1.00  0.00     0.006 C 
ATOM     18  C   UNL     1       5.410   3.207 -23.840  1.00  0.00     0.008 C 
ATOM     19  C   UNL     1       2.968   2.463 -23.918  1.00  0.00     0.012 C 
ATOM     20  C   UNL     1       4.714   2.186 -21.110  1.00  0.00    -0.025 C 
ATOM     21  C   UNL     1       5.034   4.256 -22.816  1.00  0.00     0.005 C 
ATOM     22  C   UNL     1       5.042   3.751 -21.343  1.00  0.00     0.006 C 
ATOM     23  C   UNL     1       3.400   2.028 -20.277  1.00  0.00     0.010 C 
ATOM     24  C   UNL     1       5.856   1.556 -20.240  1.00  0.00     0.012 C 
ATOM     25  C   UNL     1       4.292   4.792 -20.380  1.00  0.00     0.020 C 
ATOM     26  C   UNL     1       3.322   2.848 -18.973  1.00  0.00     0.033 C 
ATOM     27  C   UNL     1       4.104   4.179 -18.963  1.00  0.00     0.123 C 
ATOM     28  C   UNL     1       2.879   5.229 -20.892  1.00  0.00     0.017 C 
ENDROOT
BRANCH   1  29
ATOM     29  C   UNL     1       6.729  -2.140 -24.552  1.00  0.00     0.048 C 
ATOM     30  O   UNL     1       5.961  -2.504 -23.621  1.00  0.00    -0.550 OA
ATOM     31  O   UNL     1       8.101  -2.294 -24.373  1.00  0.00    -0.550 OA
ENDBRANCH   1  29
BRANCH  25  32
ATOM     32  C   UNL     1       5.145   6.095 -20.195  1.00  0.00     0.165 C 
BRANCH  32  33
ATOM     33  O   UNL     1       4.530   7.025 -19.342  1.00  0.00    -0.396 OA
ATOM     34  H   UNL     1       3.735   6.578 -18.941  1.00  0.00     0.210 HD
ENDBRANCH  32  33
ENDBRANCH  25  32
BRANCH  27  35
ATOM     35  O   UNL     1       5.349   4.020 -18.325  1.00  0.00    -0.392 OA
ATOM     36  H   UNL     1       5.189   4.094 -17.349  1.00  0.00     0.210 HD
ENDBRANCH  27  35
TORSDOF 4
ENDMDL
