MODEL 1
REMARK VINA RESULT:     0.995      0.000      0.000
REMARK INTER + INTRA:           1.498
REMARK INTER:                   1.082
REMARK INTRA:                   0.416
REMARK UNBOUND:                 0.416
REMARK SMILES CC1(C)CC[C@]2(C(=O)[O-])CC[C@]3(C)C(=CC[C@H]4[C@@]5(C)CC[C@@H](O)C(C)(C)[C@@H]5CC[C@@]43C)[C@H]2C1
REMARK SMILES IDX 6 1 5 2 10 3 32 4 4 5 11 6 14 7 33 8 2 9 12 10 15 11 1 12
REMARK SMILES IDX 3 13 13 14 30 15 16 16 17 17 29 18 31 19 18 20 28 21 27 22
REMARK SMILES IDX 20 23 19 24 24 25 21 26 22 27 25 28 26 29 7 30 8 31 9 32
REMARK SMILES IDX 23 33
REMARK H PARENT 23 34
REMARK Flexibility Score: inf
ROOT
ATOM      1  C   UNL     1      12.868   3.081  13.390  1.00  0.00     0.017 C 
ATOM      2  C   UNL     1      12.477   1.838  14.260  1.00  0.00     0.014 C 
ATOM      3  C   UNL     1      12.374   2.907  11.924  1.00  0.00     0.014 C 
ATOM      4  C   UNL     1      14.422   3.236  13.311  1.00  0.00     0.028 C 
ATOM      5  C   UNL     1      13.644   0.873  14.525  1.00  0.00     0.007 C 
ATOM      6  C   UNL     1      12.769   4.101  11.008  1.00  0.00     0.013 C 
ATOM      7  C   UNL     1      14.761   4.496  12.521  1.00  0.00    -0.064 C 
ATOM      8  C   UNL     1      15.095   3.025  14.684  1.00  0.00     0.015 C 
ATOM      9  C   UNL     1      14.865   1.567  15.216  1.00  0.00    -0.035 C 
ATOM     10  C   UNL     1      14.298   4.494  11.037  1.00  0.00    -0.006 C 
ATOM     11  C   UNL     1      15.166   5.622  13.172  1.00  0.00    -0.027 C 
ATOM     12  C   UNL     1      14.639   1.610  16.743  1.00  0.00     0.011 C 
ATOM     13  C   UNL     1      16.124   0.717  14.941  1.00  0.00     0.011 C 
ATOM     14  C   UNL     1      15.065   3.367  10.266  1.00  0.00     0.017 C 
ATOM     15  C   UNL     1      14.589   5.928  10.357  1.00  0.00    -0.020 C 
ATOM     16  C   UNL     1      15.114   7.012  12.583  1.00  0.00     0.032 C 
ATOM     17  C   UNL     1      14.159   7.055  11.372  1.00  0.00     0.006 C 
ATOM     18  C   UNL     1      13.774   6.127   9.047  1.00  0.00     0.008 C 
ATOM     19  C   UNL     1      16.125   6.008  10.019  1.00  0.00     0.012 C 
ATOM     20  C   UNL     1      13.767   8.497  10.763  1.00  0.00    -0.025 C 
ATOM     21  C   UNL     1      14.015   7.480   8.352  1.00  0.00     0.005 C 
ATOM     22  C   UNL     1      14.331   8.670   9.305  1.00  0.00     0.003 C 
ATOM     23  C   UNL     1      14.335   9.659  11.637  1.00  0.00     0.010 C 
ATOM     24  C   UNL     1      12.208   8.602  10.781  1.00  0.00     0.012 C 
ATOM     25  C   UNL     1      14.162  10.099   8.640  1.00  0.00    -0.006 C 
ATOM     26  C   UNL     1      14.135  11.062  11.037  1.00  0.00     0.033 C 
ATOM     27  C   UNL     1      14.721  11.187   9.620  1.00  0.00     0.120 C 
ATOM     28  C   UNL     1      15.002  10.148   7.331  1.00  0.00     0.014 C 
ATOM     29  C   UNL     1      12.695  10.454   8.241  1.00  0.00     0.014 C 
ENDROOT
BRANCH   1  30
ATOM     30  C   UNL     1      12.161   4.297  13.994  1.00  0.00     0.048 C 
ATOM     31  O   UNL     1      12.721   5.017  14.863  1.00  0.00    -0.550 OA
ATOM     32  O   UNL     1      10.836   4.565  13.666  1.00  0.00    -0.550 OA
ENDBRANCH   1  30
BRANCH  27  33
ATOM     33  O   UNL     1      16.125  11.103   9.717  1.00  0.00    -0.393 OA
ATOM     34  H   UNL     1      16.355  10.158   9.915  1.00  0.00     0.210 HD
ENDBRANCH  27  33
TORSDOF 2
ENDMDL
MODEL 2
REMARK VINA RESULT:     2.178      2.020      8.102
REMARK INTER + INTRA:           2.784
REMARK INTER:                   2.517
REMARK INTRA:                   0.268
REMARK UNBOUND:                 0.416
REMARK SMILES CC1(C)CC[C@]2(C(=O)[O-])CC[C@]3(C)C(=CC[C@H]4[C@@]5(C)CC[C@@H](O)C(C)(C)[C@@H]5CC[C@@]43C)[C@H]2C1
REMARK SMILES IDX 6 1 5 2 10 3 32 4 4 5 11 6 14 7 33 8 2 9 12 10 15 11 1 12
REMARK SMILES IDX 3 13 13 14 30 15 16 16 17 17 29 18 31 19 18 20 28 21 27 22
REMARK SMILES IDX 20 23 19 24 24 25 21 26 22 27 25 28 26 29 7 30 8 31 9 32
REMARK SMILES IDX 23 33
REMARK H PARENT 23 34
REMARK Flexibility Score: inf
ROOT
ATOM      1  C   UNL     1      13.277   9.063   7.898  1.00  0.00     0.017 C 
ATOM      2  C   UNL     1      13.084  10.094   6.735  1.00  0.00     0.014 C 
ATOM      3  C   UNL     1      12.074   9.111   8.884  1.00  0.00     0.014 C 
ATOM      4  C   UNL     1      14.547   9.412   8.743  1.00  0.00     0.028 C 
ATOM      5  C   UNL     1      13.925  11.372   6.891  1.00  0.00     0.007 C 
ATOM      6  C   UNL     1      12.235   8.129  10.081  1.00  0.00     0.013 C 
ATOM      7  C   UNL     1      14.743   8.347   9.817  1.00  0.00    -0.064 C 
ATOM      8  C   UNL     1      15.749   9.788   7.852  1.00  0.00     0.015 C 
ATOM      9  C   UNL     1      15.458  11.083   7.015  1.00  0.00    -0.035 C 
ATOM     10  C   UNL     1      13.600   8.241  10.865  1.00  0.00    -0.006 C 
ATOM     11  C   UNL     1      15.701   7.390   9.662  1.00  0.00    -0.027 C 
ATOM     12  C   UNL     1      16.071  10.930   5.606  1.00  0.00     0.011 C 
ATOM     13  C   UNL     1      16.125  12.296   7.699  1.00  0.00     0.011 C 
ATOM     14  C   UNL     1      13.538   9.574  11.685  1.00  0.00     0.017 C 
ATOM     15  C   UNL     1      13.859   6.992  11.853  1.00  0.00    -0.020 C 
ATOM     16  C   UNL     1      15.716   6.072  10.400  1.00  0.00     0.032 C 
ATOM     17  C   UNL     1      14.323   5.761  10.986  1.00  0.00     0.006 C 
ATOM     18  C   UNL     1      12.570   6.580  12.620  1.00  0.00     0.008 C 
ATOM     19  C   UNL     1      14.960   7.413  12.897  1.00  0.00     0.012 C 
ATOM     20  C   UNL     1      14.062   4.285  11.586  1.00  0.00    -0.025 C 
ATOM     21  C   UNL     1      12.759   5.393  13.583  1.00  0.00     0.005 C 
ATOM     22  C   UNL     1      13.816   4.340  13.139  1.00  0.00     0.003 C 
ATOM     23  C   UNL     1      15.277   3.341  11.327  1.00  0.00     0.010 C 
ATOM     24  C   UNL     1      12.825   3.691  10.840  1.00  0.00     0.012 C 
ATOM     25  C   UNL     1      13.706   2.949  13.893  1.00  0.00    -0.006 C 
ATOM     26  C   UNL     1      15.169   1.963  12.005  1.00  0.00     0.033 C 
ATOM     27  C   UNL     1      14.949   2.068  13.523  1.00  0.00     0.120 C 
ATOM     28  C   UNL     1      13.731   3.205  15.427  1.00  0.00     0.014 C 
ATOM     29  C   UNL     1      12.395   2.157  13.594  1.00  0.00     0.014 C 
ENDROOT
BRANCH   1  30
ATOM     30  C   UNL     1      13.327   7.670   7.266  1.00  0.00     0.048 C 
ATOM     31  O   UNL     1      14.382   7.222   6.746  1.00  0.00    -0.550 OA
ATOM     32  O   UNL     1      12.165   6.913   7.162  1.00  0.00    -0.550 OA
ENDBRANCH   1  30
BRANCH  27  33
ATOM     33  O   UNL     1      16.125   2.592  14.100  1.00  0.00    -0.393 OA
ATOM     34  H   UNL     1      16.795   1.861  14.129  1.00  0.00     0.210 HD
ENDBRANCH  27  33
TORSDOF 2
ENDMDL
