MODEL 1
REMARK VINA RESULT:    -4.772      0.000      0.000
REMARK INTER + INTRA:          -5.808
REMARK INTER:                  -6.725
REMARK INTRA:                   0.917
REMARK UNBOUND:                 0.917
REMARK SMILES CC1=CCC(=C(C)C)C(=O)CC(C)=CCC1
REMARK SMILES IDX 12 1 14 2 13 3 15 4 16 5 2 6 1 7 3 8 11 10 9 11 10 12 5 13
REMARK SMILES IDX 6 14 7 15 8 16 4 17
REMARK H PARENT
REMARK Flexibility Score: 60.00
ROOT
ATOM      1  C   UNL     1      20.326  12.187 -26.652  1.00  0.00    -0.070 C 
ATOM      2  C   UNL     1      21.668  12.079 -26.509  1.00  0.00    -0.027 C 
ATOM      3  C   UNL     1      19.812  12.868 -27.897  1.00  0.00     0.039 C 
ENDROOT
BRANCH   2   4
ATOM      4  C   UNL     1      22.397  11.535 -25.305  1.00  0.00     0.032 C 
BRANCH   4   5
ATOM      5  C   UNL     1      23.125  10.210 -25.602  1.00  0.00     0.034 C 
BRANCH   5   6
ATOM      6  C   UNL     1      22.374   9.356 -26.605  1.00  0.00    -0.077 C 
ATOM      7  C   UNL     1      22.982   9.155 -27.970  1.00  0.00     0.039 C 
ATOM      8  C   UNL     1      21.201   8.740 -26.337  1.00  0.00    -0.023 CG0
ATOM      9  G   UNL     1      20.457   8.791 -25.024  1.00  0.00     0.000 G0
ENDBRANCH   5   6
ENDBRANCH   4   5
ENDBRANCH   2   4
BRANCH   1  10
ATOM     10  C   UNL     1      19.324  11.722 -25.608  1.00  0.00     0.111 C 
BRANCH  10  11
ATOM     11  C   UNL     1      18.702  10.401 -25.985  1.00  0.00     0.163 C 
ATOM     12  O   UNL     1      17.941  10.368 -26.990  1.00  0.00    -0.294 OA
BRANCH  11  13
ATOM     13  C   UNL     1      19.003   9.140 -25.237  1.00  0.00    -0.002 C 
ATOM     14  C   UNL     1      18.011   8.358 -24.715  1.00  0.00    -0.069 C 
ATOM     15  C   UNL     1      16.556   8.763 -24.800  1.00  0.00     0.039 C 
ATOM     16  C   UNL     1      18.324   7.066 -23.993  1.00  0.00     0.039 C 
BRANCH  13  17
ATOM     17  C   UNL     1      20.467   8.803 -25.018  1.00  0.00     0.066 CG0
ATOM     18  G   UNL     1      21.186   8.756 -26.345  1.00  0.00     0.000 G0
ENDBRANCH  13  17
ENDBRANCH  11  13
ENDBRANCH  10  11
ENDBRANCH   1  10
TORSDOF 0
ENDMDL
MODEL 2
REMARK VINA RESULT:    -4.687     11.450     13.618
REMARK INTER + INTRA:          -5.687
REMARK INTER:                  -6.181
REMARK INTRA:                   0.494
REMARK UNBOUND:                 0.917
REMARK SMILES CC1=CCC(=C(C)C)C(=O)CC(C)=CCC1
REMARK SMILES IDX 12 1 14 2 13 3 15 4 16 5 2 6 1 7 3 8 11 10 9 11 10 12 5 13
REMARK SMILES IDX 6 14 7 15 8 16 4 17
REMARK H PARENT
REMARK Flexibility Score: 60.00
ROOT
ATOM      1  C   UNL     1       9.992  18.001 -18.754  1.00  0.00    -0.070 C 
ATOM      2  C   UNL     1       8.747  17.761 -19.230  1.00  0.00    -0.027 C 
ATOM      3  C   UNL     1      10.114  18.906 -17.552  1.00  0.00     0.039 C 
ENDROOT
BRANCH   2   4
ATOM      4  C   UNL     1       8.402  16.979 -20.474  1.00  0.00     0.032 C 
BRANCH   4   5
ATOM      5  C   UNL     1       8.921  17.652 -21.759  1.00  0.00     0.034 C 
BRANCH   5   6
ATOM      6  C   UNL     1       9.730  16.700 -22.619  1.00  0.00    -0.077 C 
ATOM      7  C   UNL     1       9.103  15.388 -23.016  1.00  0.00     0.039 C 
ATOM      8  C   UNL     1      10.973  16.973 -23.073  1.00  0.00    -0.023 CG0
ATOM      9  G   UNL     1      11.750  18.242 -22.814  1.00  0.00     0.000 G0
ENDBRANCH   5   6
ENDBRANCH   4   5
ENDBRANCH   2   4
BRANCH   1  10
ATOM     10  C   UNL     1      11.261  17.469 -19.399  1.00  0.00     0.111 C 
BRANCH  10  11
ATOM     11  C   UNL     1      11.918  18.508 -20.273  1.00  0.00     0.163 C 
ATOM     12  O   UNL     1      11.923  19.704 -19.871  1.00  0.00    -0.294 OA
BRANCH  11  13
ATOM     13  C   UNL     1      12.596  18.151 -21.557  1.00  0.00    -0.002 C 
ATOM     14  C   UNL     1      13.917  17.800 -21.600  1.00  0.00    -0.069 C 
ATOM     15  C   UNL     1      14.784  17.826 -20.361  1.00  0.00     0.039 C 
ATOM     16  C   UNL     1      14.585  17.404 -22.899  1.00  0.00     0.039 C 
BRANCH  13  17
ATOM     17  C   UNL     1      11.772  18.266 -22.827  1.00  0.00     0.066 CG0
ATOM     18  G   UNL     1      11.000  16.988 -23.053  1.00  0.00     0.000 G0
ENDBRANCH  13  17
ENDBRANCH  11  13
ENDBRANCH  10  11
ENDBRANCH   1  10
TORSDOF 0
ENDMDL
MODEL 3
REMARK VINA RESULT:    -4.420     17.471     19.250
REMARK INTER + INTRA:          -5.311
REMARK INTER:                  -6.211
REMARK INTRA:                   0.899
REMARK UNBOUND:                 0.917
REMARK SMILES CC1=CCC(=C(C)C)C(=O)CC(C)=CCC1
REMARK SMILES IDX 12 1 14 2 13 3 15 4 16 5 2 6 1 7 3 8 11 10 9 11 10 12 5 13
REMARK SMILES IDX 6 14 7 15 8 16 4 17
REMARK H PARENT
REMARK Flexibility Score: 60.00
ROOT
ATOM      1  C   UNL     1       8.920  22.624 -22.777  1.00  0.00    -0.070 C 
ATOM      2  C   UNL     1       8.499  23.583 -21.919  1.00  0.00    -0.027 C 
ATOM      3  C   UNL     1       9.767  21.509 -22.212  1.00  0.00     0.039 C 
ENDROOT
BRANCH   2   4
ATOM      4  C   UNL     1       7.738  24.835 -22.283  1.00  0.00     0.032 C 
BRANCH   4   5
ATOM      5  C   UNL     1       6.350  24.898 -21.617  1.00  0.00     0.034 C 
BRANCH   5   6
ATOM      6  C   UNL     1       5.226  24.717 -22.618  1.00  0.00    -0.077 C 
ATOM      7  C   UNL     1       4.532  25.947 -23.145  1.00  0.00     0.039 C 
ATOM      8  C   UNL     1       4.825  23.514 -23.086  1.00  0.00    -0.023 CG0
ATOM      9  G   UNL     1       5.417  22.177 -22.707  1.00  0.00     0.000 G0
ENDBRANCH   5   6
ENDBRANCH   4   5
ENDBRANCH   2   4
BRANCH   1  10
ATOM     10  C   UNL     1       8.644  22.645 -24.272  1.00  0.00     0.111 C 
BRANCH  10  11
ATOM     11  C   UNL     1       7.165  22.591 -24.563  1.00  0.00     0.163 C 
ATOM     12  O   UNL     1       6.708  23.354 -25.457  1.00  0.00    -0.294 OA
BRANCH  11  13
ATOM     13  C   UNL     1       6.255  21.630 -23.866  1.00  0.00    -0.002 C 
ATOM     14  C   UNL     1       6.114  20.337 -24.286  1.00  0.00    -0.069 C 
ATOM     15  C   UNL     1       6.815  19.826 -25.525  1.00  0.00     0.039 C 
ATOM     16  C   UNL     1       5.219  19.363 -23.551  1.00  0.00     0.039 C 
BRANCH  13  17
ATOM     17  C   UNL     1       5.433  22.175 -22.711  1.00  0.00     0.066 CG0
ATOM     18  G   UNL     1       4.827  23.503 -23.096  1.00  0.00     0.000 G0
ENDBRANCH  13  17
ENDBRANCH  11  13
ENDBRANCH  10  11
ENDBRANCH   1  10
TORSDOF 0
ENDMDL
MODEL 4
REMARK VINA RESULT:    -4.306      9.798     11.600
REMARK INTER + INTRA:          -5.150
REMARK INTER:                  -5.570
REMARK INTRA:                   0.420
REMARK UNBOUND:                 0.917
REMARK SMILES CC1=CCC(=C(C)C)C(=O)CC(C)=CCC1
REMARK SMILES IDX 12 1 14 2 13 3 15 4 16 5 2 6 1 7 3 8 11 10 9 11 10 12 5 13
REMARK SMILES IDX 6 14 7 15 8 16 4 17
REMARK H PARENT
REMARK Flexibility Score: 60.00
ROOT
ATOM      1  C   UNL     1      15.978  17.874 -22.209  1.00  0.00    -0.070 C 
ATOM      2  C   UNL     1      15.638  18.273 -20.960  1.00  0.00    -0.027 C 
ATOM      3  C   UNL     1      17.199  18.506 -22.832  1.00  0.00     0.039 C 
ENDROOT
BRANCH   2   4
ATOM      4  C   UNL     1      14.406  17.855 -20.194  1.00  0.00     0.032 C 
BRANCH   4   5
ATOM      5  C   UNL     1      13.223  18.819 -20.402  1.00  0.00     0.034 C 
BRANCH   5   6
ATOM      6  C   UNL     1      11.930  18.084 -20.698  1.00  0.00    -0.077 C 
ATOM      7  C   UNL     1      11.165  17.490 -19.543  1.00  0.00     0.039 C 
ATOM      8  C   UNL     1      11.408  17.954 -21.938  1.00  0.00    -0.023 CG0
ATOM      9  G   UNL     1      12.006  18.507 -23.210  1.00  0.00     0.000 G0
ENDBRANCH   5   6
ENDBRANCH   4   5
ENDBRANCH   2   4
BRANCH   1  10
ATOM     10  C   UNL     1      15.167  16.886 -23.032  1.00  0.00     0.111 C 
BRANCH  10  11
ATOM     11  C   UNL     1      14.262  17.590 -24.011  1.00  0.00     0.163 C 
ATOM     12  O   UNL     1      14.796  18.286 -24.918  1.00  0.00    -0.294 OA
BRANCH  11  13
ATOM     13  C   UNL     1      12.774  17.442 -23.964  1.00  0.00    -0.002 C 
ATOM     14  C   UNL     1      12.131  16.426 -24.615  1.00  0.00    -0.069 C 
ATOM     15  C   UNL     1      12.882  15.439 -25.480  1.00  0.00     0.039 C 
ATOM     16  C   UNL     1      10.629  16.262 -24.531  1.00  0.00     0.039 C 
BRANCH  13  17
ATOM     17  C   UNL     1      11.998  18.514 -23.221  1.00  0.00     0.066 CG0
ATOM     18  G   UNL     1      11.424  17.940 -21.947  1.00  0.00     0.000 G0
ENDBRANCH  13  17
ENDBRANCH  11  13
ENDBRANCH  10  11
ENDBRANCH   1  10
TORSDOF 0
ENDMDL
MODEL 5
REMARK VINA RESULT:    -4.303     11.916     13.637
REMARK INTER + INTRA:          -5.147
REMARK INTER:                  -5.456
REMARK INTRA:                   0.309
REMARK UNBOUND:                 0.917
REMARK SMILES CC1=CCC(=C(C)C)C(=O)CC(C)=CCC1
REMARK SMILES IDX 12 1 14 2 13 3 15 4 16 5 2 6 1 7 3 8 11 10 9 11 10 12 5 13
REMARK SMILES IDX 6 14 7 15 8 16 4 17
REMARK H PARENT
REMARK Flexibility Score: 60.00
ROOT
ATOM      1  C   UNL     1       9.663  21.018 -22.605  1.00  0.00    -0.070 C 
ATOM      2  C   UNL     1       9.753  21.312 -21.287  1.00  0.00    -0.027 C 
ATOM      3  C   UNL     1       9.460  22.168 -23.562  1.00  0.00     0.039 C 
ENDROOT
BRANCH   2   4
ATOM      4  C   UNL     1       9.849  20.319 -20.154  1.00  0.00     0.032 C 
BRANCH   4   5
ATOM      5  C   UNL     1      11.241  19.666 -20.056  1.00  0.00     0.034 C 
BRANCH   5   6
ATOM      6  C   UNL     1      11.166  18.152 -20.053  1.00  0.00    -0.077 C 
ATOM      7  C   UNL     1      10.365  17.478 -18.968  1.00  0.00     0.039 C 
ATOM      8  C   UNL     1      11.754  17.369 -20.985  1.00  0.00    -0.023 CG0
ATOM      9  G   UNL     1      12.564  17.857 -22.163  1.00  0.00     0.000 G0
ENDBRANCH   5   6
ENDBRANCH   4   5
ENDBRANCH   2   4
BRANCH   1  10
ATOM     10  C   UNL     1       9.689  19.603 -23.160  1.00  0.00     0.111 C 
BRANCH  10  11
ATOM     11  C   UNL     1      11.051  19.245 -23.704  1.00  0.00     0.163 C 
ATOM     12  O   UNL     1      11.668  20.115 -24.376  1.00  0.00    -0.294 OA
BRANCH  11  13
ATOM     13  C   UNL     1      11.694  17.924 -23.423  1.00  0.00    -0.002 C 
ATOM     14  C   UNL     1      11.460  16.829 -24.206  1.00  0.00    -0.069 C 
ATOM     15  C   UNL     1      10.478  16.872 -25.356  1.00  0.00     0.039 C 
ATOM     16  C   UNL     1      12.144  15.506 -23.937  1.00  0.00     0.039 C 
BRANCH  13  17
ATOM     17  C   UNL     1      12.566  17.831 -22.183  1.00  0.00     0.066 CG0
ATOM     18  G   UNL     1      11.735  17.373 -21.008  1.00  0.00     0.000 G0
ENDBRANCH  13  17
ENDBRANCH  11  13
ENDBRANCH  10  11
ENDBRANCH   1  10
TORSDOF 0
ENDMDL
MODEL 6
REMARK VINA RESULT:    -4.299     13.314     15.296
REMARK INTER + INTRA:          -5.141
REMARK INTER:                  -5.508
REMARK INTRA:                   0.367
REMARK UNBOUND:                 0.917
REMARK SMILES CC1=CCC(=C(C)C)C(=O)CC(C)=CCC1
REMARK SMILES IDX 12 1 14 2 13 3 15 4 16 5 2 6 1 7 3 8 11 10 9 11 10 12 5 13
REMARK SMILES IDX 6 14 7 15 8 16 4 17
REMARK H PARENT
REMARK Flexibility Score: 60.00
ROOT
ATOM      1  C   UNL     1       7.601  17.709 -19.706  1.00  0.00    -0.070 C 
ATOM      2  C   UNL     1       8.461  17.428 -18.698  1.00  0.00    -0.027 C 
ATOM      3  C   UNL     1       6.137  17.826 -19.358  1.00  0.00     0.039 C 
ENDROOT
BRANCH   2   4
ATOM      4  C   UNL     1       9.941  17.163 -18.834  1.00  0.00     0.032 C 
BRANCH   4   5
ATOM      5  C   UNL     1      10.780  18.454 -18.786  1.00  0.00     0.034 C 
BRANCH   5   6
ATOM      6  C   UNL     1      11.718  18.571 -19.972  1.00  0.00    -0.077 C 
ATOM      7  C   UNL     1      12.915  17.656 -20.030  1.00  0.00     0.039 C 
ATOM      8  C   UNL     1      11.529  19.433 -20.996  1.00  0.00    -0.023 CG0
ATOM      9  G   UNL     1      10.377  20.400 -21.135  1.00  0.00     0.000 G0
ENDBRANCH   5   6
ENDBRANCH   4   5
ENDBRANCH   2   4
BRANCH   1  10
ATOM     10  C   UNL     1       8.020  17.844 -21.161  1.00  0.00     0.111 C 
BRANCH  10  11
ATOM     11  C   UNL     1       8.096  19.290 -21.584  1.00  0.00     0.163 C 
ATOM     12  O   UNL     1       7.074  20.011 -21.419  1.00  0.00    -0.294 OA
BRANCH  11  13
ATOM     13  C   UNL     1       9.350  19.889 -22.137  1.00  0.00    -0.002 C 
ATOM     14  C   UNL     1       9.610  19.905 -23.479  1.00  0.00    -0.069 C 
ATOM     15  C   UNL     1       8.678  19.250 -24.474  1.00  0.00     0.039 C 
ATOM     16  C   UNL     1      10.864  20.547 -24.031  1.00  0.00     0.039 C 
BRANCH  13  17
ATOM     17  C   UNL     1      10.362  20.416 -21.135  1.00  0.00     0.066 CG0
ATOM     18  G   UNL     1      11.510  19.444 -21.008  1.00  0.00     0.000 G0
ENDBRANCH  13  17
ENDBRANCH  11  13
ENDBRANCH  10  11
ENDBRANCH   1  10
TORSDOF 0
ENDMDL
MODEL 7
REMARK VINA RESULT:    -4.251     11.598     13.591
REMARK INTER + INTRA:          -5.073
REMARK INTER:                  -5.658
REMARK INTRA:                   0.585
REMARK UNBOUND:                 0.917
REMARK SMILES CC1=CCC(=C(C)C)C(=O)CC(C)=CCC1
REMARK SMILES IDX 12 1 14 2 13 3 15 4 16 5 2 6 1 7 3 8 11 10 9 11 10 12 5 13
REMARK SMILES IDX 6 14 7 15 8 16 4 17
REMARK H PARENT
REMARK Flexibility Score: 60.00
ROOT
ATOM      1  C   UNL     1       8.121  17.640 -20.736  1.00  0.00    -0.070 C 
ATOM      2  C   UNL     1       8.841  17.959 -19.635  1.00  0.00    -0.027 C 
ATOM      3  C   UNL     1       6.819  18.374 -20.952  1.00  0.00     0.039 C 
ENDROOT
BRANCH   2   4
ATOM      4  C   UNL     1      10.108  17.283 -19.170  1.00  0.00     0.032 C 
BRANCH   4   5
ATOM      5  C   UNL     1      11.317  18.238 -19.153  1.00  0.00     0.034 C 
BRANCH   5   6
ATOM      6  C   UNL     1      11.420  19.055 -20.426  1.00  0.00    -0.077 C 
ATOM      7  C   UNL     1      11.286  20.554 -20.326  1.00  0.00     0.039 C 
ATOM      8  C   UNL     1      11.653  18.519 -21.644  1.00  0.00    -0.023 CG0
ATOM      9  G   UNL     1      11.851  17.051 -21.940  1.00  0.00     0.000 G0
ENDBRANCH   5   6
ENDBRANCH   4   5
ENDBRANCH   2   4
BRANCH   1  10
ATOM     10  C   UNL     1       8.516  16.550 -21.719  1.00  0.00     0.111 C 
BRANCH  10  11
ATOM     11  C   UNL     1       9.439  17.076 -22.790  1.00  0.00     0.163 C 
ATOM     12  O   UNL     1       9.020  18.007 -23.529  1.00  0.00    -0.294 OA
BRANCH  11  13
ATOM     13  C   UNL     1      10.834  16.562 -22.957  1.00  0.00    -0.002 C 
ATOM     14  C   UNL     1      11.152  15.643 -23.917  1.00  0.00    -0.069 C 
ATOM     15  C   UNL     1      10.097  15.039 -24.817  1.00  0.00     0.039 C 
ATOM     16  C   UNL     1      12.573  15.157 -24.103  1.00  0.00     0.039 C 
BRANCH  13  17
ATOM     17  C   UNL     1      11.872  17.050 -21.962  1.00  0.00     0.066 CG0
ATOM     18  G   UNL     1      11.645  18.513 -21.663  1.00  0.00     0.000 G0
ENDBRANCH  13  17
ENDBRANCH  11  13
ENDBRANCH  10  11
ENDBRANCH   1  10
TORSDOF 0
ENDMDL
MODEL 8
REMARK VINA RESULT:    -4.151     12.337     14.500
REMARK INTER + INTRA:          -4.932
REMARK INTER:                  -5.641
REMARK INTRA:                   0.709
REMARK UNBOUND:                 0.917
REMARK SMILES CC1=CCC(=C(C)C)C(=O)CC(C)=CCC1
REMARK SMILES IDX 12 1 14 2 13 3 15 4 16 5 2 6 1 7 3 8 11 10 9 11 10 12 5 13
REMARK SMILES IDX 6 14 7 15 8 16 4 17
REMARK H PARENT
REMARK Flexibility Score: 60.00
ROOT
ATOM      1  C   UNL     1      11.214  18.144 -19.848  1.00  0.00    -0.070 C 
ATOM      2  C   UNL     1      10.437  17.519 -18.932  1.00  0.00    -0.027 C 
ATOM      3  C   UNL     1      12.640  17.672 -19.989  1.00  0.00     0.039 C 
ENDROOT
BRANCH   2   4
ATOM      4  C   UNL     1       9.025  17.894 -18.552  1.00  0.00     0.032 C 
BRANCH   4   5
ATOM      5  C   UNL     1       7.973  16.990 -19.221  1.00  0.00     0.034 C 
BRANCH   5   6
ATOM      6  C   UNL     1       7.387  17.619 -20.470  1.00  0.00    -0.077 C 
ATOM      7  C   UNL     1       6.199  18.536 -20.319  1.00  0.00     0.039 C 
ATOM      8  C   UNL     1       7.885  17.426 -21.712  1.00  0.00    -0.023 CG0
ATOM      9  G   UNL     1       9.084  16.576 -22.060  1.00  0.00     0.000 G0
ENDBRANCH   5   6
ENDBRANCH   4   5
ENDBRANCH   2   4
BRANCH   1  10
ATOM     10  C   UNL     1      10.750  19.325 -20.685  1.00  0.00     0.111 C 
BRANCH  10  11
ATOM     11  C   UNL     1      10.215  18.881 -22.024  1.00  0.00     0.163 C 
ATOM     12  O   UNL     1       9.763  19.762 -22.804  1.00  0.00    -0.294 OA
BRANCH  11  13
ATOM     13  C   UNL     1      10.258  17.450 -22.459  1.00  0.00    -0.002 C 
ATOM     14  C   UNL     1      11.276  16.962 -23.230  1.00  0.00    -0.069 C 
ATOM     15  C   UNL     1      12.378  17.859 -23.747  1.00  0.00     0.039 C 
ATOM     16  C   UNL     1      11.330  15.505 -23.634  1.00  0.00     0.039 C 
BRANCH  13  17
ATOM     17  C   UNL     1       9.079  16.576 -22.069  1.00  0.00     0.066 CG0
ATOM     18  G   UNL     1       7.896  17.443 -21.709  1.00  0.00     0.000 G0
ENDBRANCH  13  17
ENDBRANCH  11  13
ENDBRANCH  10  11
ENDBRANCH   1  10
TORSDOF 0
ENDMDL
MODEL 9
REMARK VINA RESULT:    -3.989     12.967     14.911
REMARK INTER + INTRA:          -4.705
REMARK INTER:                  -5.302
REMARK INTRA:                   0.597
REMARK UNBOUND:                 0.917
REMARK SMILES CC1=CCC(=C(C)C)C(=O)CC(C)=CCC1
REMARK SMILES IDX 12 1 14 2 13 3 15 4 16 5 2 6 1 7 3 8 11 10 9 11 10 12 5 13
REMARK SMILES IDX 6 14 7 15 8 16 4 17
REMARK H PARENT
REMARK Flexibility Score: 60.00
ROOT
ATOM      1  C   UNL     1      11.925  17.574 -22.319  1.00  0.00    -0.070 C 
ATOM      2  C   UNL     1      12.142  17.473 -20.986  1.00  0.00    -0.027 C 
ATOM      3  C   UNL     1      11.941  16.298 -23.124  1.00  0.00     0.039 C 
ENDROOT
BRANCH   2   4
ATOM      4  C   UNL     1      12.274  18.619 -20.013  1.00  0.00     0.032 C 
BRANCH   4   5
ATOM      5  C   UNL     1      11.162  18.622 -18.947  1.00  0.00     0.034 C 
BRANCH   5   6
ATOM      6  C   UNL     1       9.791  18.375 -19.547  1.00  0.00    -0.077 C 
ATOM      7  C   UNL     1       9.043  17.133 -19.135  1.00  0.00     0.039 C 
ATOM      8  C   UNL     1       9.188  19.221 -20.412  1.00  0.00    -0.023 CG0
ATOM      9  G   UNL     1       9.759  20.526 -20.914  1.00  0.00     0.000 G0
ENDBRANCH   5   6
ENDBRANCH   4   5
ENDBRANCH   2   4
BRANCH   1  10
ATOM     10  C   UNL     1      11.734  18.895 -23.047  1.00  0.00     0.111 C 
BRANCH  10  11
ATOM     11  C   UNL     1      10.280  19.293 -23.101  1.00  0.00     0.163 C 
ATOM     12  O   UNL     1       9.476  18.522 -23.691  1.00  0.00    -0.294 OA
BRANCH  11  13
ATOM     13  C   UNL     1       9.773  20.534 -22.438  1.00  0.00    -0.002 C 
ATOM     14  C   UNL     1       9.419  21.641 -23.157  1.00  0.00    -0.069 C 
ATOM     15  C   UNL     1       9.591  21.700 -24.658  1.00  0.00     0.039 C 
ATOM     16  C   UNL     1       8.871  22.879 -22.479  1.00  0.00     0.039 C 
BRANCH  13  17
ATOM     17  C   UNL     1       9.737  20.539 -20.920  1.00  0.00     0.066 CG0
ATOM     18  G   UNL     1       9.191  19.223 -20.417  1.00  0.00     0.000 G0
ENDBRANCH  13  17
ENDBRANCH  11  13
ENDBRANCH  10  11
ENDBRANCH   1  10
TORSDOF 0
ENDMDL
