MODEL 1
REMARK VINA RESULT:    -4.142      0.000      0.000
REMARK INTER + INTRA:          -6.373
REMARK INTER:                  -6.321
REMARK INTRA:                  -0.053
REMARK UNBOUND:                -0.053
REMARK SMILES CC1=CCC[C@@H](C)C(=O)C[C@@H](C(C)C)C(=O)C1
REMARK SMILES IDX 8 1 9 2 6 3 7 4 5 5 4 6 3 7 2 8 1 9 10 11 11 12 15 13 16 14
REMARK SMILES IDX 17 15 12 17 13 18 14 19
REMARK H PARENT
REMARK Flexibility Score: 70.00
ROOT
ATOM      1  C   UNL     1      -9.657  18.516   8.869  1.00  0.00     0.136 C 
ATOM      2  O   UNL     1      -9.501  18.903  10.018  1.00  0.00    -0.299 OA
ENDROOT
BRANCH   1   3
ATOM      3  C   UNL     1      -9.205  17.121   8.482  1.00  0.00     0.053 C 
ATOM      4  C   UNL     1      -9.691  16.122   9.537  1.00  0.00     0.016 C 
BRANCH   3   5
ATOM      5  C   UNL     1      -7.667  17.024   8.326  1.00  0.00     0.015 C 
BRANCH   5   6
ATOM      6  C   UNL     1      -7.182  16.986   6.868  1.00  0.00     0.028 C 
BRANCH   6   7
ATOM      7  C   UNL     1      -6.302  18.171   6.545  1.00  0.00    -0.028 C 
ATOM      8  C   UNL     1      -6.620  19.165   5.684  1.00  0.00    -0.070 CG0
ATOM      9  C   UNL     1      -5.612  20.267   5.471  1.00  0.00     0.039 C 
ATOM     10  G   UNL     1      -7.932  19.211   4.921  1.00  0.00     0.000 G0
ENDBRANCH   6   7
ENDBRANCH   5   6
ENDBRANCH   3   5
ENDBRANCH   1   3
BRANCH   1  11
ATOM     11  C   UNL     1     -10.343  19.424   7.873  1.00  0.00     0.087 C 
BRANCH  11  12
ATOM     12  C   UNL     1     -10.136  18.980   6.402  1.00  0.00     0.066 C 
BRANCH  12  13
ATOM     13  C   UNL     1      -9.087  19.835   5.703  1.00  0.00     0.140 C 
ATOM     14  O   UNL     1      -9.192  21.053   5.729  1.00  0.00    -0.299 OA
BRANCH  13  15
ATOM     15  C   UNL     1      -7.947  19.234   4.911  1.00  0.00     0.106 CG0
ATOM     16  G   UNL     1      -6.635  19.170   5.671  1.00  0.00     0.000 G0
ENDBRANCH  13  15
ENDBRANCH  12  13
BRANCH  12  17
ATOM     17  C   UNL     1     -11.452  18.929   5.566  1.00  0.00    -0.006 C 
ATOM     18  C   UNL     1     -11.245  19.122   4.053  1.00  0.00     0.008 C 
ATOM     19  C   UNL     1     -12.497  19.930   6.083  1.00  0.00     0.008 C 
ENDBRANCH  12  17
ENDBRANCH  11  12
ENDBRANCH   1  11
TORSDOF 1
ENDMDL
MODEL 2
REMARK VINA RESULT:    -3.968      4.676      6.844
REMARK INTER + INTRA:          -6.109
REMARK INTER:                  -5.744
REMARK INTRA:                  -0.364
REMARK UNBOUND:                -0.053
REMARK SMILES CC1=CCC[C@@H](C)C(=O)C[C@@H](C(C)C)C(=O)C1
REMARK SMILES IDX 8 1 9 2 6 3 7 4 5 5 4 6 3 7 2 8 1 9 10 11 11 12 15 13 16 14
REMARK SMILES IDX 17 15 12 17 13 18 14 19
REMARK H PARENT
REMARK Flexibility Score: 70.00
ROOT
ATOM      1  C   UNL     1     -10.941  17.294  12.441  1.00  0.00     0.136 C 
ATOM      2  O   UNL     1     -11.960  17.809  12.880  1.00  0.00    -0.299 OA
ENDROOT
BRANCH   1   3
ATOM      3  C   UNL     1     -10.654  15.835  12.735  1.00  0.00     0.053 C 
ATOM      4  C   UNL     1     -11.868  14.991  12.336  1.00  0.00     0.016 C 
BRANCH   3   5
ATOM      5  C   UNL     1     -10.305  15.593  14.224  1.00  0.00     0.015 C 
BRANCH   5   6
ATOM      6  C   UNL     1      -9.613  16.782  14.911  1.00  0.00     0.028 C 
BRANCH   6   7
ATOM      7  C   UNL     1      -8.121  16.566  15.024  1.00  0.00    -0.028 C 
ATOM      8  C   UNL     1      -7.180  17.262  14.344  1.00  0.00    -0.070 CG0
ATOM      9  C   UNL     1      -5.733  16.902  14.571  1.00  0.00     0.039 C 
ATOM     10  G   UNL     1      -7.519  18.369  13.363  1.00  0.00     0.000 G0
ENDBRANCH   6   7
ENDBRANCH   5   6
ENDBRANCH   3   5
ENDBRANCH   1   3
BRANCH   1  11
ATOM     11  C   UNL     1     -10.016  18.119  11.573  1.00  0.00     0.087 C 
BRANCH  11  12
ATOM     12  C   UNL     1      -8.704  17.377  11.208  1.00  0.00     0.066 C 
BRANCH  12  13
ATOM     13  C   UNL     1      -7.502  17.993  11.911  1.00  0.00     0.140 C 
ATOM     14  O   UNL     1      -6.453  18.130  11.296  1.00  0.00    -0.299 OA
BRANCH  13  15
ATOM     15  C   UNL     1      -7.528  18.382  13.373  1.00  0.00     0.106 CG0
ATOM     16  G   UNL     1      -7.181  17.247  14.318  1.00  0.00     0.000 G0
ENDBRANCH  13  15
ENDBRANCH  12  13
BRANCH  12  17
ATOM     17  C   UNL     1      -8.447  17.263   9.674  1.00  0.00    -0.006 C 
ATOM     18  C   UNL     1      -9.462  18.030   8.806  1.00  0.00     0.008 C 
ATOM     19  C   UNL     1      -8.367  15.799   9.215  1.00  0.00     0.008 C 
ENDBRANCH  12  17
ENDBRANCH  11  12
ENDBRANCH   1  11
TORSDOF 1
ENDMDL
MODEL 3
REMARK VINA RESULT:    -3.938      2.454      4.805
REMARK INTER + INTRA:          -6.063
REMARK INTER:                  -6.228
REMARK INTRA:                   0.165
REMARK UNBOUND:                -0.053
REMARK SMILES CC1=CCC[C@@H](C)C(=O)C[C@@H](C(C)C)C(=O)C1
REMARK SMILES IDX 8 1 9 2 6 3 7 4 5 5 4 6 3 7 2 8 1 9 10 11 11 12 15 13 16 14
REMARK SMILES IDX 17 15 12 17 13 18 14 19
REMARK H PARENT
REMARK Flexibility Score: 70.00
ROOT
ATOM      1  C   UNL     1      -9.479  19.614   7.160  1.00  0.00     0.136 C 
ATOM      2  O   UNL     1      -8.352  20.065   7.311  1.00  0.00    -0.299 OA
ENDROOT
BRANCH   1   3
ATOM      3  C   UNL     1     -10.177  19.778   5.823  1.00  0.00     0.053 C 
ATOM      4  C   UNL     1     -11.676  19.984   6.057  1.00  0.00     0.016 C 
BRANCH   3   5
ATOM      5  C   UNL     1      -9.946  18.565   4.888  1.00  0.00     0.015 C 
BRANCH   5   6
ATOM      6  C   UNL     1     -10.746  17.310   5.273  1.00  0.00     0.028 C 
BRANCH   6   7
ATOM      7  C   UNL     1      -9.909  16.058   5.146  1.00  0.00    -0.028 C 
ATOM      8  C   UNL     1      -9.404  15.352   6.184  1.00  0.00    -0.070 CG0
ATOM      9  C   UNL     1      -8.577  14.130   5.872  1.00  0.00     0.039 C 
ATOM     10  G   UNL     1      -9.624  15.741   7.635  1.00  0.00     0.000 G0
ENDBRANCH   6   7
ENDBRANCH   5   6
ENDBRANCH   3   5
ENDBRANCH   1   3
BRANCH   1  11
ATOM     11  C   UNL     1     -10.128  18.861   8.299  1.00  0.00     0.087 C 
BRANCH  11  12
ATOM     12  C   UNL     1      -9.139  17.940   9.059  1.00  0.00     0.066 C 
BRANCH  12  13
ATOM     13  C   UNL     1      -8.675  16.779   8.188  1.00  0.00     0.140 C 
ATOM     14  O   UNL     1      -7.499  16.708   7.861  1.00  0.00    -0.299 OA
BRANCH  13  15
ATOM     15  C   UNL     1      -9.631  15.740   7.647  1.00  0.00     0.106 CG0
ATOM     16  G   UNL     1      -9.399  15.390   6.188  1.00  0.00     0.000 G0
ENDBRANCH  13  15
ENDBRANCH  12  13
BRANCH  12  17
ATOM     17  C   UNL     1      -9.681  17.420  10.426  1.00  0.00    -0.006 C 
ATOM     18  C   UNL     1     -10.102  18.534  11.402  1.00  0.00     0.008 C 
ATOM     19  C   UNL     1      -8.687  16.471  11.113  1.00  0.00     0.008 C 
ENDBRANCH  12  17
ENDBRANCH  11  12
ENDBRANCH   1  11
TORSDOF 1
ENDMDL
MODEL 4
REMARK VINA RESULT:    -3.771      2.663      3.691
REMARK INTER + INTRA:          -5.808
REMARK INTER:                  -5.581
REMARK INTRA:                  -0.227
REMARK UNBOUND:                -0.053
REMARK SMILES CC1=CCC[C@@H](C)C(=O)C[C@@H](C(C)C)C(=O)C1
REMARK SMILES IDX 8 1 9 2 6 3 7 4 5 5 4 6 3 7 2 8 1 9 10 11 11 12 15 13 16 14
REMARK SMILES IDX 17 15 12 17 13 18 14 19
REMARK H PARENT
REMARK Flexibility Score: 70.00
ROOT
ATOM      1  C   UNL     1      -9.615  18.668   8.972  1.00  0.00     0.136 C 
ATOM      2  O   UNL     1      -9.877  19.849   9.156  1.00  0.00    -0.299 OA
ENDROOT
BRANCH   1   3
ATOM      3  C   UNL     1      -9.802  17.676  10.103  1.00  0.00     0.053 C 
ATOM      4  C   UNL     1      -9.961  18.436  11.422  1.00  0.00     0.016 C 
BRANCH   3   5
ATOM      5  C   UNL     1      -8.626  16.673  10.205  1.00  0.00     0.015 C 
BRANCH   5   6
ATOM      6  C   UNL     1      -9.018  15.211   9.936  1.00  0.00     0.028 C 
BRANCH   6   7
ATOM      7  C   UNL     1      -8.238  14.631   8.779  1.00  0.00    -0.028 C 
ATOM      8  C   UNL     1      -8.674  14.569   7.499  1.00  0.00    -0.070 CG0
ATOM      9  C   UNL     1      -7.765  13.943   6.472  1.00  0.00     0.039 C 
ATOM     10  G   UNL     1     -10.032  15.088   7.062  1.00  0.00     0.000 G0
ENDBRANCH   6   7
ENDBRANCH   5   6
ENDBRANCH   3   5
ENDBRANCH   1   3
BRANCH   1  11
ATOM     11  C   UNL     1      -9.157  18.222   7.601  1.00  0.00     0.087 C 
BRANCH  11  12
ATOM     12  C   UNL     1     -10.316  17.696   6.715  1.00  0.00     0.066 C 
BRANCH  12  13
ATOM     13  C   UNL     1     -10.015  16.305   6.173  1.00  0.00     0.140 C 
ATOM     14  O   UNL     1      -9.799  16.161   4.978  1.00  0.00    -0.299 OA
BRANCH  13  15
ATOM     15  C   UNL     1     -10.042  15.070   7.046  1.00  0.00     0.106 CG0
ATOM     16  G   UNL     1      -8.670  14.602   7.495  1.00  0.00     0.000 G0
ENDBRANCH  13  15
ENDBRANCH  12  13
BRANCH  12  17
ATOM     17  C   UNL     1     -10.719  18.663   5.560  1.00  0.00    -0.006 C 
ATOM     18  C   UNL     1      -9.553  19.499   5.002  1.00  0.00     0.008 C 
ATOM     19  C   UNL     1     -11.878  19.587   5.966  1.00  0.00     0.008 C 
ENDBRANCH  12  17
ENDBRANCH  11  12
ENDBRANCH   1  11
TORSDOF 1
ENDMDL
MODEL 5
REMARK VINA RESULT:    -3.757      1.645      4.002
REMARK INTER + INTRA:          -5.786
REMARK INTER:                  -5.444
REMARK INTRA:                  -0.343
REMARK UNBOUND:                -0.053
REMARK SMILES CC1=CCC[C@@H](C)C(=O)C[C@@H](C(C)C)C(=O)C1
REMARK SMILES IDX 8 1 9 2 6 3 7 4 5 5 4 6 3 7 2 8 1 9 10 11 11 12 15 13 16 14
REMARK SMILES IDX 17 15 12 17 13 18 14 19
REMARK H PARENT
REMARK Flexibility Score: 70.00
ROOT
ATOM      1  C   UNL     1      -9.992  18.996   8.229  1.00  0.00     0.136 C 
ATOM      2  O   UNL     1      -9.853  19.563   9.304  1.00  0.00    -0.299 OA
ENDROOT
BRANCH   1   3
ATOM      3  C   UNL     1     -10.530  19.768   7.040  1.00  0.00     0.053 C 
ATOM      4  C   UNL     1     -10.689  18.818   5.850  1.00  0.00     0.016 C 
BRANCH   3   5
ATOM      5  C   UNL     1      -9.619  20.959   6.653  1.00  0.00     0.015 C 
BRANCH   5   6
ATOM      6  C   UNL     1      -8.548  20.619   5.603  1.00  0.00     0.028 C 
BRANCH   6   7
ATOM      7  C   UNL     1      -7.172  20.534   6.223  1.00  0.00    -0.028 C 
ATOM      8  C   UNL     1      -6.528  19.384   6.534  1.00  0.00    -0.070 CG0
ATOM      9  C   UNL     1      -5.161  19.487   7.161  1.00  0.00     0.039 C 
ATOM     10  G   UNL     1      -7.125  18.010   6.291  1.00  0.00     0.000 G0
ENDBRANCH   6   7
ENDBRANCH   5   6
ENDBRANCH   3   5
ENDBRANCH   1   3
BRANCH   1  11
ATOM     11  C   UNL     1      -9.576  17.548   8.104  1.00  0.00     0.087 C 
BRANCH  11  12
ATOM     12  C   UNL     1      -8.143  17.280   8.632  1.00  0.00     0.066 C 
BRANCH  12  13
ATOM     13  C   UNL     1      -7.154  17.087   7.490  1.00  0.00     0.140 C 
ATOM     14  O   UNL     1      -6.312  16.204   7.568  1.00  0.00    -0.299 OA
BRANCH  13  15
ATOM     15  C   UNL     1      -7.123  17.997   6.281  1.00  0.00     0.106 CG0
ATOM     16  G   UNL     1      -6.521  19.363   6.554  1.00  0.00     0.000 G0
ENDBRANCH  13  15
ENDBRANCH  12  13
BRANCH  12  17
ATOM     17  C   UNL     1      -8.052  16.097   9.644  1.00  0.00    -0.006 C 
ATOM     18  C   UNL     1      -9.290  15.181   9.656  1.00  0.00     0.008 C 
ATOM     19  C   UNL     1      -7.749  16.585  11.070  1.00  0.00     0.008 C 
ENDBRANCH  12  17
ENDBRANCH  11  12
ENDBRANCH   1  11
TORSDOF 1
ENDMDL
MODEL 6
REMARK VINA RESULT:    -3.734      1.951      4.273
REMARK INTER + INTRA:          -5.751
REMARK INTER:                  -5.671
REMARK INTRA:                  -0.079
REMARK UNBOUND:                -0.053
REMARK SMILES CC1=CCC[C@@H](C)C(=O)C[C@@H](C(C)C)C(=O)C1
REMARK SMILES IDX 8 1 9 2 6 3 7 4 5 5 4 6 3 7 2 8 1 9 10 11 11 12 15 13 16 14
REMARK SMILES IDX 17 15 12 17 13 18 14 19
REMARK H PARENT
REMARK Flexibility Score: 70.00
ROOT
ATOM      1  C   UNL     1     -10.308  19.971   5.971  1.00  0.00     0.136 C 
ATOM      2  O   UNL     1     -11.128  20.869   6.109  1.00  0.00    -0.299 OA
ENDROOT
BRANCH   1   3
ATOM      3  C   UNL     1     -10.587  18.848   4.992  1.00  0.00     0.053 C 
ATOM      4  C   UNL     1     -11.816  19.205   4.150  1.00  0.00     0.016 C 
BRANCH   3   5
ATOM      5  C   UNL     1     -10.805  17.490   5.703  1.00  0.00     0.015 C 
BRANCH   5   6
ATOM      6  C   UNL     1      -9.768  16.414   5.340  1.00  0.00     0.028 C 
BRANCH   6   7
ATOM      7  C   UNL     1      -9.246  15.708   6.570  1.00  0.00    -0.028 C 
ATOM      8  C   UNL     1      -8.017  15.887   7.107  1.00  0.00    -0.070 CG0
ATOM      9  C   UNL     1      -7.658  15.086   8.334  1.00  0.00     0.039 C 
ATOM     10  G   UNL     1      -6.991  16.841   6.525  1.00  0.00     0.000 G0
ENDBRANCH   6   7
ENDBRANCH   5   6
ENDBRANCH   3   5
ENDBRANCH   1   3
BRANCH   1  11
ATOM     11  C   UNL     1      -9.012  20.035   6.748  1.00  0.00     0.087 C 
BRANCH  11  12
ATOM     12  C   UNL     1      -7.842  19.309   6.037  1.00  0.00     0.066 C 
BRANCH  12  13
ATOM     13  C   UNL     1      -7.181  18.286   6.951  1.00  0.00     0.140 C 
ATOM     14  O   UNL     1      -6.744  18.645   8.036  1.00  0.00    -0.299 OA
BRANCH  13  15
ATOM     15  C   UNL     1      -6.975  16.844   6.542  1.00  0.00     0.106 CG0
ATOM     16  G   UNL     1      -8.012  15.890   7.105  1.00  0.00     0.000 G0
ENDBRANCH  13  15
ENDBRANCH  12  13
BRANCH  12  17
ATOM     17  C   UNL     1      -6.777  20.272   5.427  1.00  0.00    -0.006 C 
ATOM     18  C   UNL     1      -7.373  21.444   4.625  1.00  0.00     0.008 C 
ATOM     19  C   UNL     1      -5.749  19.519   4.567  1.00  0.00     0.008 C 
ENDBRANCH  12  17
ENDBRANCH  11  12
ENDBRANCH   1  11
TORSDOF 1
ENDMDL
MODEL 7
REMARK VINA RESULT:    -3.608     11.229     13.220
REMARK INTER + INTRA:          -5.558
REMARK INTER:                  -5.088
REMARK INTRA:                  -0.470
REMARK UNBOUND:                -0.053
REMARK SMILES CC1=CCC[C@@H](C)C(=O)C[C@@H](C(C)C)C(=O)C1
REMARK SMILES IDX 8 1 9 2 6 3 7 4 5 5 4 6 3 7 2 8 1 9 10 11 11 12 15 13 16 14
REMARK SMILES IDX 17 15 12 17 13 18 14 19
REMARK H PARENT
REMARK Flexibility Score: 70.00
ROOT
ATOM      1  C   UNL     1      -7.525  18.710  17.486  1.00  0.00     0.136 C 
ATOM      2  O   UNL     1      -8.042  17.948  16.681  1.00  0.00    -0.299 OA
ENDROOT
BRANCH   1   3
ATOM      3  C   UNL     1      -6.322  19.533  17.070  1.00  0.00     0.053 C 
ATOM      4  C   UNL     1      -6.718  20.463  15.919  1.00  0.00     0.016 C 
BRANCH   3   5
ATOM      5  C   UNL     1      -5.121  18.649  16.650  1.00  0.00     0.015 C 
BRANCH   5   6
ATOM      6  C   UNL     1      -4.473  17.873  17.809  1.00  0.00     0.028 C 
BRANCH   6   7
ATOM      7  C   UNL     1      -3.793  18.803  18.787  1.00  0.00    -0.028 C 
ATOM      8  C   UNL     1      -4.250  19.099  20.026  1.00  0.00    -0.070 CG0
ATOM      9  C   UNL     1      -3.446  20.062  20.864  1.00  0.00     0.039 C 
ATOM     10  G   UNL     1      -5.531  18.519  20.595  1.00  0.00     0.000 G0
ENDBRANCH   6   7
ENDBRANCH   5   6
ENDBRANCH   3   5
ENDBRANCH   1   3
BRANCH   1  11
ATOM     11  C   UNL     1      -8.134  18.846  18.863  1.00  0.00     0.087 C 
BRANCH  11  12
ATOM     12  C   UNL     1      -7.533  20.020  19.679  1.00  0.00     0.066 C 
BRANCH  12  13
ATOM     13  C   UNL     1      -6.656  19.517  20.818  1.00  0.00     0.140 C 
ATOM     14  O   UNL     1      -6.805  19.980  21.940  1.00  0.00    -0.299 OA
BRANCH  13  15
ATOM     15  C   UNL     1      -5.548  18.509  20.604  1.00  0.00     0.106 CG0
ATOM     16  G   UNL     1      -4.273  19.106  20.037  1.00  0.00     0.000 G0
ENDBRANCH  13  15
ENDBRANCH  12  13
BRANCH  12  17
ATOM     17  C   UNL     1      -8.596  21.032  20.208  1.00  0.00    -0.006 C 
ATOM     18  C   UNL     1     -10.042  20.506  20.166  1.00  0.00     0.008 C 
ATOM     19  C   UNL     1      -8.509  22.384  19.483  1.00  0.00     0.008 C 
ENDBRANCH  12  17
ENDBRANCH  11  12
ENDBRANCH   1  11
TORSDOF 1
ENDMDL
MODEL 8
REMARK VINA RESULT:    -3.488      3.346      5.112
REMARK INTER + INTRA:          -5.376
REMARK INTER:                  -5.394
REMARK INTRA:                   0.019
REMARK UNBOUND:                -0.053
REMARK SMILES CC1=CCC[C@@H](C)C(=O)C[C@@H](C(C)C)C(=O)C1
REMARK SMILES IDX 8 1 9 2 6 3 7 4 5 5 4 6 3 7 2 8 1 9 10 11 11 12 15 13 16 14
REMARK SMILES IDX 17 15 12 17 13 18 14 19
REMARK H PARENT
REMARK Flexibility Score: 70.00
ROOT
ATOM      1  C   UNL     1      -9.786  18.436  11.300  1.00  0.00     0.136 C 
ATOM      2  O   UNL     1      -9.354  19.481  11.763  1.00  0.00    -0.299 OA
ENDROOT
BRANCH   1   3
ATOM      3  C   UNL     1     -10.239  17.333  12.237  1.00  0.00     0.053 C 
ATOM      4  C   UNL     1     -11.579  17.724  12.868  1.00  0.00     0.016 C 
BRANCH   3   5
ATOM      5  C   UNL     1      -9.197  17.038  13.344  1.00  0.00     0.015 C 
BRANCH   5   6
ATOM      6  C   UNL     1      -8.342  15.785  13.087  1.00  0.00     0.028 C 
BRANCH   6   7
ATOM      7  C   UNL     1      -6.910  16.147  12.768  1.00  0.00    -0.028 C 
ATOM      8  C   UNL     1      -6.363  16.143  11.530  1.00  0.00    -0.070 CG0
ATOM      9  C   UNL     1      -4.909  16.520  11.398  1.00  0.00     0.039 C 
ATOM     10  G   UNL     1      -7.142  15.768  10.283  1.00  0.00     0.000 G0
ENDBRANCH   6   7
ENDBRANCH   5   6
ENDBRANCH   3   5
ENDBRANCH   1   3
BRANCH   1  11
ATOM     11  C   UNL     1      -9.904  18.291   9.799  1.00  0.00     0.087 C 
BRANCH  11  12
ATOM     12  C   UNL     1      -9.260  16.986   9.262  1.00  0.00     0.066 C 
BRANCH  12  13
ATOM     13  C   UNL     1      -7.767  16.939   9.557  1.00  0.00     0.140 C 
ATOM     14  O   UNL     1      -7.050  17.849   9.166  1.00  0.00    -0.299 OA
BRANCH  13  15
ATOM     15  C   UNL     1      -7.115  15.768  10.259  1.00  0.00     0.106 CG0
ATOM     16  G   UNL     1      -6.368  16.147  11.525  1.00  0.00     0.000 G0
ENDBRANCH  13  15
ENDBRANCH  12  13
BRANCH  12  17
ATOM     17  C   UNL     1      -9.532  16.723   7.749  1.00  0.00    -0.006 C 
ATOM     18  C   UNL     1      -8.517  15.777   7.082  1.00  0.00     0.008 C 
ATOM     19  C   UNL     1      -9.633  18.031   6.950  1.00  0.00     0.008 C 
ENDBRANCH  12  17
ENDBRANCH  11  12
ENDBRANCH   1  11
TORSDOF 1
ENDMDL
MODEL 9
REMARK VINA RESULT:    -3.281     11.316     13.701
REMARK INTER + INTRA:          -5.059
REMARK INTER:                  -4.696
REMARK INTRA:                  -0.364
REMARK UNBOUND:                -0.053
REMARK SMILES CC1=CCC[C@@H](C)C(=O)C[C@@H](C(C)C)C(=O)C1
REMARK SMILES IDX 8 1 9 2 6 3 7 4 5 5 4 6 3 7 2 8 1 9 10 11 11 12 15 13 16 14
REMARK SMILES IDX 17 15 12 17 13 18 14 19
REMARK H PARENT
REMARK Flexibility Score: 70.00
ROOT
ATOM      1  C   UNL     1      -6.192  19.831  17.101  1.00  0.00     0.136 C 
ATOM      2  O   UNL     1      -6.540  20.624  16.237  1.00  0.00    -0.299 OA
ENDROOT
BRANCH   1   3
ATOM      3  C   UNL     1      -6.757  18.424  17.097  1.00  0.00     0.053 C 
ATOM      4  C   UNL     1      -6.729  17.872  15.669  1.00  0.00     0.016 C 
BRANCH   3   5
ATOM      5  C   UNL     1      -8.198  18.368  17.661  1.00  0.00     0.015 C 
BRANCH   5   6
ATOM      6  C   UNL     1      -8.275  18.064  19.166  1.00  0.00     0.028 C 
BRANCH   6   7
ATOM      7  C   UNL     1      -8.393  19.331  19.983  1.00  0.00    -0.028 C 
ATOM      8  C   UNL     1      -7.496  19.748  20.906  1.00  0.00    -0.070 CG0
ATOM      9  C   UNL     1      -7.782  21.034  21.639  1.00  0.00     0.039 C 
ATOM     10  G   UNL     1      -6.233  18.976  21.240  1.00  0.00     0.000 G0
ENDBRANCH   6   7
ENDBRANCH   5   6
ENDBRANCH   3   5
ENDBRANCH   1   3
BRANCH   1  11
ATOM     11  C   UNL     1      -5.166  20.265  18.124  1.00  0.00     0.087 C 
BRANCH  11  12
ATOM     12  C   UNL     1      -4.724  19.115  19.066  1.00  0.00     0.066 C 
BRANCH  12  13
ATOM     13  C   UNL     1      -4.991  19.457  20.526  1.00  0.00     0.140 C 
ATOM     14  O   UNL     1      -4.155  20.088  21.157  1.00  0.00    -0.299 OA
BRANCH  13  15
ATOM     15  C   UNL     1      -6.228  18.983  21.257  1.00  0.00     0.106 CG0
ATOM     16  G   UNL     1      -7.490  19.742  20.890  1.00  0.00     0.000 G0
ENDBRANCH  13  15
ENDBRANCH  12  13
BRANCH  12  17
ATOM     17  C   UNL     1      -3.244  18.667  18.867  1.00  0.00    -0.006 C 
ATOM     18  C   UNL     1      -2.871  18.354  17.406  1.00  0.00     0.008 C 
ATOM     19  C   UNL     1      -2.881  17.474  19.766  1.00  0.00     0.008 C 
ENDBRANCH  12  17
ENDBRANCH  11  12
ENDBRANCH   1  11
TORSDOF 1
ENDMDL
