MODEL 1
REMARK VINA RESULT:    -4.514      0.000      0.000
REMARK INTER + INTRA:          -7.109
REMARK INTER:                  -6.889
REMARK INTRA:                  -0.221
REMARK UNBOUND:                -0.221
REMARK SMILES CC1=CCC[C@H](C)C(=O)C[C@H](C(C)C)C(=O)C1
REMARK SMILES IDX 8 1 9 2 6 3 7 4 5 5 4 6 3 7 2 8 1 9 10 11 11 12 15 13 16 14
REMARK SMILES IDX 17 15 12 17 13 18 14 19
REMARK H PARENT
REMARK Flexibility Score: 70.00
ROOT
ATOM      1  C   UNL     1       0.134  10.892  46.150  1.00  0.00     0.136 C 
ATOM      2  O   UNL     1       0.710  10.263  45.273  1.00  0.00    -0.299 OA
ENDROOT
BRANCH   1   3
ATOM      3  C   UNL     1      -1.379  10.761  46.233  1.00  0.00     0.053 C 
ATOM      4  C   UNL     1      -1.742   9.920  47.462  1.00  0.00     0.016 C 
BRANCH   3   5
ATOM      5  C   UNL     1      -2.166  12.089  46.249  1.00  0.00     0.015 C 
BRANCH   5   6
ATOM      6  C   UNL     1      -1.666  13.120  45.213  1.00  0.00     0.028 C 
BRANCH   6   7
ATOM      7  C   UNL     1      -1.392  14.446  45.878  1.00  0.00    -0.028 C 
ATOM      8  C   UNL     1      -0.182  15.034  46.004  1.00  0.00    -0.070 CG0
ATOM      9  C   UNL     1      -0.131  16.374  46.697  1.00  0.00     0.039 C 
ATOM     10  G   UNL     1       1.083  14.489  45.363  1.00  0.00     0.000 G0
ENDBRANCH   6   7
ENDBRANCH   5   6
ENDBRANCH   3   5
ENDBRANCH   1   3
BRANCH   1  11
ATOM     11  C   UNL     1       0.980  11.675  47.140  1.00  0.00     0.087 C 
BRANCH  11  12
ATOM     12  C   UNL     1       2.235  12.301  46.475  1.00  0.00     0.066 C 
BRANCH  12  13
ATOM     13  C   UNL     1       2.064  13.811  46.318  1.00  0.00     0.140 C 
ATOM     14  O   UNL     1       2.747  14.537  47.028  1.00  0.00    -0.299 OA
BRANCH  13  15
ATOM     15  C   UNL     1       1.079  14.483  45.376  1.00  0.00     0.106 CG0
ATOM     16  G   UNL     1      -0.178  15.037  46.025  1.00  0.00     0.000 G0
ENDBRANCH  13  15
ENDBRANCH  12  13
BRANCH  12  17
ATOM     17  C   UNL     1       3.582  11.908  47.160  1.00  0.00    -0.006 C 
ATOM     18  C   UNL     1       4.391  10.945  46.271  1.00  0.00     0.008 C 
ATOM     19  C   UNL     1       3.378  11.250  48.536  1.00  0.00     0.008 C 
ENDBRANCH  12  17
ENDBRANCH  11  12
ENDBRANCH   1  11
TORSDOF 1
ENDMDL
MODEL 2
REMARK VINA RESULT:    -4.512      1.614      3.774
REMARK INTER + INTRA:          -7.106
REMARK INTER:                  -7.196
REMARK INTRA:                   0.089
REMARK UNBOUND:                -0.221
REMARK SMILES CC1=CCC[C@H](C)C(=O)C[C@H](C(C)C)C(=O)C1
REMARK SMILES IDX 8 1 9 2 6 3 7 4 5 5 4 6 3 7 2 8 1 9 10 11 11 12 15 13 16 14
REMARK SMILES IDX 17 15 12 17 13 18 14 19
REMARK H PARENT
REMARK Flexibility Score: 70.00
ROOT
ATOM      1  C   UNL     1       0.471  14.932  46.552  1.00  0.00     0.136 C 
ATOM      2  O   UNL     1       0.738  15.227  47.708  1.00  0.00    -0.299 OA
ENDROOT
BRANCH   1   3
ATOM      3  C   UNL     1      -0.746  15.590  45.920  1.00  0.00     0.053 C 
ATOM      4  C   UNL     1      -0.444  15.894  44.448  1.00  0.00     0.016 C 
BRANCH   3   5
ATOM      5  C   UNL     1      -2.068  14.802  46.037  1.00  0.00     0.015 C 
BRANCH   5   6
ATOM      6  C   UNL     1      -2.100  13.513  45.185  1.00  0.00     0.028 C 
BRANCH   6   7
ATOM      7  C   UNL     1      -2.143  12.295  46.073  1.00  0.00    -0.028 C 
ATOM      8  C   UNL     1      -1.218  11.310  46.113  1.00  0.00    -0.070 CG0
ATOM      9  C   UNL     1      -1.448  10.181  47.088  1.00  0.00     0.039 C 
ATOM     10  G   UNL     1       0.091  11.362  45.343  1.00  0.00     0.000 G0
ENDBRANCH   6   7
ENDBRANCH   5   6
ENDBRANCH   3   5
ENDBRANCH   1   3
BRANCH   1  11
ATOM     11  C   UNL     1       1.426  14.011  45.811  1.00  0.00     0.087 C 
BRANCH  11  12
ATOM     12  C   UNL     1       1.920  12.839  46.700  1.00  0.00     0.066 C 
BRANCH  12  13
ATOM     13  C   UNL     1       1.348  11.511  46.208  1.00  0.00     0.140 C 
ATOM     14  O   UNL     1       1.962  10.490  46.488  1.00  0.00    -0.299 OA
BRANCH  13  15
ATOM     15  C   UNL     1       0.097  11.363  45.359  1.00  0.00     0.106 CG0
ATOM     16  G   UNL     1      -1.214  11.303  46.123  1.00  0.00     0.000 G0
ENDBRANCH  13  15
ENDBRANCH  12  13
BRANCH  12  17
ATOM     17  C   UNL     1       3.469  12.799  46.899  1.00  0.00    -0.006 C 
ATOM     18  C   UNL     1       3.841  12.007  48.166  1.00  0.00     0.008 C 
ATOM     19  C   UNL     1       4.090  14.204  47.000  1.00  0.00     0.008 C 
ENDBRANCH  12  17
ENDBRANCH  11  12
ENDBRANCH   1  11
TORSDOF 1
ENDMDL
MODEL 3
REMARK VINA RESULT:    -4.093      1.916      4.921
REMARK INTER + INTRA:          -6.468
REMARK INTER:                  -6.695
REMARK INTRA:                   0.227
REMARK UNBOUND:                -0.221
REMARK SMILES CC1=CCC[C@H](C)C(=O)C[C@H](C(C)C)C(=O)C1
REMARK SMILES IDX 8 1 9 2 6 3 7 4 5 5 4 6 3 7 2 8 1 9 10 11 11 12 15 13 16 14
REMARK SMILES IDX 17 15 12 17 13 18 14 19
REMARK H PARENT
REMARK Flexibility Score: 70.00
ROOT
ATOM      1  C   UNL     1       2.421  13.903  46.783  1.00  0.00     0.136 C 
ATOM      2  O   UNL     1       3.211  14.833  46.697  1.00  0.00    -0.299 OA
ENDROOT
BRANCH   1   3
ATOM      3  C   UNL     1       2.988  12.492  46.752  1.00  0.00     0.053 C 
ATOM      4  C   UNL     1       4.332  12.476  47.489  1.00  0.00     0.016 C 
BRANCH   3   5
ATOM      5  C   UNL     1       2.065  11.388  47.311  1.00  0.00     0.015 C 
BRANCH   5   6
ATOM      6  C   UNL     1       1.215  10.683  46.230  1.00  0.00     0.028 C 
BRANCH   6   7
ATOM      7  C   UNL     1      -0.167  10.385  46.757  1.00  0.00    -0.028 C 
ATOM      8  C   UNL     1      -1.301  11.040  46.422  1.00  0.00    -0.070 CG0
ATOM      9  C   UNL     1      -2.586  10.572  47.059  1.00  0.00     0.039 C 
ATOM     10  G   UNL     1      -1.361  12.107  45.343  1.00  0.00     0.000 G0
ENDBRANCH   6   7
ENDBRANCH   5   6
ENDBRANCH   3   5
ENDBRANCH   1   3
BRANCH   1  11
ATOM     11  C   UNL     1       0.955  14.231  47.008  1.00  0.00     0.087 C 
BRANCH  11  12
ATOM     12  C   UNL     1       0.161  14.317  45.677  1.00  0.00     0.066 C 
BRANCH  12  13
ATOM     13  C   UNL     1      -1.156  13.550  45.785  1.00  0.00     0.140 C 
ATOM     14  O   UNL     1      -2.104  14.119  46.307  1.00  0.00    -0.299 OA
BRANCH  13  15
ATOM     15  C   UNL     1      -1.367  12.115  45.332  1.00  0.00     0.106 CG0
ATOM     16  G   UNL     1      -1.296  11.062  46.424  1.00  0.00     0.000 G0
ENDBRANCH  13  15
ENDBRANCH  12  13
BRANCH  12  17
ATOM     17  C   UNL     1      -0.024  15.772  45.139  1.00  0.00    -0.006 C 
ATOM     18  C   UNL     1      -0.201  16.770  46.298  1.00  0.00     0.008 C 
ATOM     19  C   UNL     1      -1.229  15.904  44.190  1.00  0.00     0.008 C 
ENDBRANCH  12  17
ENDBRANCH  11  12
ENDBRANCH   1  11
TORSDOF 1
ENDMDL
MODEL 4
REMARK VINA RESULT:    -4.006      1.793      5.094
REMARK INTER + INTRA:          -6.334
REMARK INTER:                  -6.282
REMARK INTRA:                  -0.052
REMARK UNBOUND:                -0.221
REMARK SMILES CC1=CCC[C@H](C)C(=O)C[C@H](C(C)C)C(=O)C1
REMARK SMILES IDX 8 1 9 2 6 3 7 4 5 5 4 6 3 7 2 8 1 9 10 11 11 12 15 13 16 14
REMARK SMILES IDX 17 15 12 17 13 18 14 19
REMARK H PARENT
REMARK Flexibility Score: 70.00
ROOT
ATOM      1  C   UNL     1       3.284  14.209  46.993  1.00  0.00     0.136 C 
ATOM      2  O   UNL     1       3.688  15.337  46.746  1.00  0.00    -0.299 OA
ENDROOT
BRANCH   1   3
ATOM      3  C   UNL     1       4.302  13.080  46.990  1.00  0.00     0.053 C 
ATOM      4  C   UNL     1       5.557  13.535  47.743  1.00  0.00     0.016 C 
BRANCH   3   5
ATOM      5  C   UNL     1       3.806  11.731  47.555  1.00  0.00     0.015 C 
BRANCH   5   6
ATOM      6  C   UNL     1       3.270  10.764  46.476  1.00  0.00     0.028 C 
BRANCH   6   7
ATOM      7  C   UNL     1       1.827  10.419  46.746  1.00  0.00    -0.028 C 
ATOM      8  C   UNL     1       0.751  11.055  46.233  1.00  0.00    -0.070 CG0
ATOM      9  C   UNL     1      -0.612  10.539  46.626  1.00  0.00     0.039 C 
ATOM     10  G   UNL     1       0.849  12.150  45.185  1.00  0.00     0.000 G0
ENDBRANCH   6   7
ENDBRANCH   5   6
ENDBRANCH   3   5
ENDBRANCH   1   3
BRANCH   1  11
ATOM     11  C   UNL     1       1.822  14.043  47.375  1.00  0.00     0.087 C 
BRANCH  11  12
ATOM     12  C   UNL     1       0.864  14.612  46.295  1.00  0.00     0.066 C 
BRANCH  12  13
ATOM     13  C   UNL     1       0.205  13.481  45.509  1.00  0.00     0.140 C 
ATOM     14  O   UNL     1      -0.953  13.640  45.147  1.00  0.00    -0.299 OA
BRANCH  13  15
ATOM     15  C   UNL     1       0.863  12.152  45.178  1.00  0.00     0.106 CG0
ATOM     16  G   UNL     1       0.741  11.074  46.242  1.00  0.00     0.000 G0
ENDBRANCH  13  15
ENDBRANCH  12  13
BRANCH  12  17
ATOM     17  C   UNL     1      -0.164  15.654  46.841  1.00  0.00    -0.006 C 
ATOM     18  C   UNL     1      -0.230  16.892  45.927  1.00  0.00     0.008 C 
ATOM     19  C   UNL     1       0.165  16.118  48.271  1.00  0.00     0.008 C 
ENDBRANCH  12  17
ENDBRANCH  11  12
ENDBRANCH   1  11
TORSDOF 1
ENDMDL
MODEL 5
REMARK VINA RESULT:    -3.969      1.631      4.025
REMARK INTER + INTRA:          -6.278
REMARK INTER:                  -6.528
REMARK INTRA:                   0.250
REMARK UNBOUND:                -0.221
REMARK SMILES CC1=CCC[C@H](C)C(=O)C[C@H](C(C)C)C(=O)C1
REMARK SMILES IDX 8 1 9 2 6 3 7 4 5 5 4 6 3 7 2 8 1 9 10 11 11 12 15 13 16 14
REMARK SMILES IDX 17 15 12 17 13 18 14 19
REMARK H PARENT
REMARK Flexibility Score: 70.00
ROOT
ATOM      1  C   UNL     1       1.745  11.963  46.504  1.00  0.00     0.136 C 
ATOM      2  O   UNL     1       2.050  10.809  46.775  1.00  0.00    -0.299 OA
ENDROOT
BRANCH   1   3
ATOM      3  C   UNL     1       2.538  13.076  47.171  1.00  0.00     0.053 C 
ATOM      4  C   UNL     1       4.033  12.842  46.925  1.00  0.00     0.016 C 
BRANCH   3   5
ATOM      5  C   UNL     1       2.152  14.512  46.756  1.00  0.00     0.015 C 
BRANCH   5   6
ATOM      6  C   UNL     1       0.925  15.068  47.512  1.00  0.00     0.028 C 
BRANCH   6   7
ATOM      7  C   UNL     1       0.259  16.157  46.709  1.00  0.00    -0.028 C 
ATOM      8  C   UNL     1      -0.935  16.063  46.083  1.00  0.00    -0.070 CG0
ATOM      9  C   UNL     1      -1.426  17.281  45.339  1.00  0.00     0.039 C 
ATOM     10  G   UNL     1      -1.854  14.861  46.214  1.00  0.00     0.000 G0
ENDBRANCH   6   7
ENDBRANCH   5   6
ENDBRANCH   3   5
ENDBRANCH   1   3
BRANCH   1  11
ATOM     11  C   UNL     1       0.668  12.189  45.456  1.00  0.00     0.087 C 
BRANCH  11  12
ATOM     12  C   UNL     1      -0.732  12.406  46.090  1.00  0.00     0.066 C 
BRANCH  12  13
ATOM     13  C   UNL     1      -1.427  13.611  45.459  1.00  0.00     0.140 C 
ATOM     14  O   UNL     1      -1.615  13.590  44.251  1.00  0.00    -0.299 OA
BRANCH  13  15
ATOM     15  C   UNL     1      -1.866  14.856  46.212  1.00  0.00     0.106 CG0
ATOM     16  G   UNL     1      -0.952  16.062  46.079  1.00  0.00     0.000 G0
ENDBRANCH  13  15
ENDBRANCH  12  13
BRANCH  12  17
ATOM     17  C   UNL     1      -1.628  11.127  46.110  1.00  0.00    -0.006 C 
ATOM     18  C   UNL     1      -3.111  11.497  46.302  1.00  0.00     0.008 C 
ATOM     19  C   UNL     1      -1.223  10.136  47.216  1.00  0.00     0.008 C 
ENDBRANCH  12  17
ENDBRANCH  11  12
ENDBRANCH   1  11
TORSDOF 1
ENDMDL
MODEL 6
REMARK VINA RESULT:    -3.914      1.609      4.151
REMARK INTER + INTRA:          -6.194
REMARK INTER:                  -6.295
REMARK INTRA:                   0.101
REMARK UNBOUND:                -0.221
REMARK SMILES CC1=CCC[C@H](C)C(=O)C[C@H](C(C)C)C(=O)C1
REMARK SMILES IDX 8 1 9 2 6 3 7 4 5 5 4 6 3 7 2 8 1 9 10 11 11 12 15 13 16 14
REMARK SMILES IDX 17 15 12 17 13 18 14 19
REMARK H PARENT
REMARK Flexibility Score: 70.00
ROOT
ATOM      1  C   UNL     1      -1.625  12.122  45.888  1.00  0.00     0.136 C 
ATOM      2  O   UNL     1      -2.791  11.837  45.655  1.00  0.00    -0.299 OA
ENDROOT
BRANCH   1   3
ATOM      3  C   UNL     1      -0.815  11.144  46.725  1.00  0.00     0.053 C 
ATOM      4  C   UNL     1      -1.767  10.132  47.374  1.00  0.00     0.016 C 
BRANCH   3   5
ATOM      5  C   UNL     1       0.317  10.403  45.980  1.00  0.00     0.015 C 
BRANCH   5   6
ATOM      6  C   UNL     1       1.325  11.346  45.288  1.00  0.00     0.028 C 
BRANCH   6   7
ATOM      7  C   UNL     1       2.296  11.911  46.294  1.00  0.00    -0.028 C 
ATOM      8  C   UNL     1       2.515  13.223  46.534  1.00  0.00    -0.070 CG0
ATOM      9  C   UNL     1       3.527  13.574  47.597  1.00  0.00     0.039 C 
ATOM     10  G   UNL     1       1.697  14.336  45.900  1.00  0.00     0.000 G0
ENDBRANCH   6   7
ENDBRANCH   5   6
ENDBRANCH   3   5
ENDBRANCH   1   3
BRANCH   1  11
ATOM     11  C   UNL     1      -1.054  13.375  45.247  1.00  0.00     0.087 C 
BRANCH  11  12
ATOM     12  C   UNL     1      -0.973  14.561  46.245  1.00  0.00     0.066 C 
BRANCH  12  13
ATOM     13  C   UNL     1       0.474  14.812  46.667  1.00  0.00     0.140 C 
ATOM     14  O   UNL     1       0.664  15.473  47.679  1.00  0.00    -0.299 OA
BRANCH  13  15
ATOM     15  C   UNL     1       1.698  14.341  45.901  1.00  0.00     0.106 CG0
ATOM     16  G   UNL     1       2.487  13.216  46.548  1.00  0.00     0.000 G0
ENDBRANCH  13  15
ENDBRANCH  12  13
BRANCH  12  17
ATOM     17  C   UNL     1      -1.699  15.856  45.757  1.00  0.00    -0.006 C 
ATOM     18  C   UNL     1      -3.088  15.524  45.182  1.00  0.00     0.008 C 
ATOM     19  C   UNL     1      -0.895  16.619  44.689  1.00  0.00     0.008 C 
ENDBRANCH  12  17
ENDBRANCH  11  12
ENDBRANCH   1  11
TORSDOF 1
ENDMDL
MODEL 7
REMARK VINA RESULT:    -3.875      1.653      4.214
REMARK INTER + INTRA:          -6.135
REMARK INTER:                  -6.851
REMARK INTRA:                   0.717
REMARK UNBOUND:                -0.221
REMARK SMILES CC1=CCC[C@H](C)C(=O)C[C@H](C(C)C)C(=O)C1
REMARK SMILES IDX 8 1 9 2 6 3 7 4 5 5 4 6 3 7 2 8 1 9 10 11 11 12 15 13 16 14
REMARK SMILES IDX 17 15 12 17 13 18 14 19
REMARK H PARENT
REMARK Flexibility Score: 70.00
ROOT
ATOM      1  C   UNL     1       2.438  11.155  47.557  1.00  0.00     0.136 C 
ATOM      2  O   UNL     1       1.980  11.256  48.687  1.00  0.00    -0.299 OA
ENDROOT
BRANCH   1   3
ATOM      3  C   UNL     1       3.946  11.269  47.397  1.00  0.00     0.053 C 
ATOM      4  C   UNL     1       4.321  10.952  45.944  1.00  0.00     0.016 C 
BRANCH   3   5
ATOM      5  C   UNL     1       4.563  12.620  47.819  1.00  0.00     0.015 C 
BRANCH   5   6
ATOM      6  C   UNL     1       4.214  13.786  46.867  1.00  0.00     0.028 C 
BRANCH   6   7
ATOM      7  C   UNL     1       2.999  14.527  47.364  1.00  0.00    -0.028 C 
ATOM      8  C   UNL     1       1.801  14.595  46.740  1.00  0.00    -0.070 CG0
ATOM      9  C   UNL     1       0.709  15.384  47.419  1.00  0.00     0.039 C 
ATOM     10  G   UNL     1       1.468  13.805  45.486  1.00  0.00     0.000 G0
ENDBRANCH   6   7
ENDBRANCH   5   6
ENDBRANCH   3   5
ENDBRANCH   1   3
BRANCH   1  11
ATOM     11  C   UNL     1       1.480  10.829  46.424  1.00  0.00     0.087 C 
BRANCH  11  12
ATOM     12  C   UNL     1       0.171  11.659  46.505  1.00  0.00     0.066 C 
BRANCH  12  13
ATOM     13  C   UNL     1       0.252  12.884  45.595  1.00  0.00     0.140 C 
ATOM     14  O   UNL     1      -0.706  13.119  44.872  1.00  0.00    -0.299 OA
BRANCH  13  15
ATOM     15  C   UNL     1       1.452  13.809  45.486  1.00  0.00     0.106 CG0
ATOM     16  G   UNL     1       1.791  14.598  46.739  1.00  0.00     0.000 G0
ENDBRANCH  13  15
ENDBRANCH  12  13
BRANCH  12  17
ATOM     17  C   UNL     1      -1.130  10.822  46.285  1.00  0.00    -0.006 C 
ATOM     18  C   UNL     1      -2.371  11.734  46.247  1.00  0.00     0.008 C 
ATOM     19  C   UNL     1      -1.339   9.755  47.374  1.00  0.00     0.008 C 
ENDBRANCH  12  17
ENDBRANCH  11  12
ENDBRANCH   1  11
TORSDOF 1
ENDMDL
MODEL 8
REMARK VINA RESULT:    -3.598      2.285      5.385
REMARK INTER + INTRA:          -5.712
REMARK INTER:                  -5.551
REMARK INTRA:                  -0.161
REMARK UNBOUND:                -0.221
REMARK SMILES CC1=CCC[C@H](C)C(=O)C[C@H](C(C)C)C(=O)C1
REMARK SMILES IDX 8 1 9 2 6 3 7 4 5 5 4 6 3 7 2 8 1 9 10 11 11 12 15 13 16 14
REMARK SMILES IDX 17 15 12 17 13 18 14 19
REMARK H PARENT
REMARK Flexibility Score: 70.00
ROOT
ATOM      1  C   UNL     1       0.688  15.122  46.973  1.00  0.00     0.136 C 
ATOM      2  O   UNL     1       0.334  14.889  48.121  1.00  0.00    -0.299 OA
ENDROOT
BRANCH   1   3
ATOM      3  C   UNL     1       1.772  14.238  46.378  1.00  0.00     0.053 C 
ATOM      4  C   UNL     1       3.135  14.680  46.923  1.00  0.00     0.016 C 
BRANCH   3   5
ATOM      5  C   UNL     1       1.587  12.719  46.587  1.00  0.00     0.015 C 
BRANCH   5   6
ATOM      6  C   UNL     1       0.701  12.048  45.513  1.00  0.00     0.028 C 
BRANCH   6   7
ATOM      7  C   UNL     1      -0.617  11.620  46.108  1.00  0.00    -0.028 C 
ATOM      8  C   UNL     1      -1.821  12.178  45.853  1.00  0.00    -0.070 CG0
ATOM      9  C   UNL     1      -3.021  11.586  46.550  1.00  0.00     0.039 C 
ATOM     10  G   UNL     1      -2.036  13.257  44.806  1.00  0.00     0.000 G0
ENDBRANCH   6   7
ENDBRANCH   5   6
ENDBRANCH   3   5
ENDBRANCH   1   3
BRANCH   1  11
ATOM     11  C   UNL     1      -0.046  16.209  46.207  1.00  0.00     0.087 C 
BRANCH  11  12
ATOM     12  C   UNL     1      -0.743  15.661  44.932  1.00  0.00     0.066 C 
BRANCH  12  13
ATOM     13  C   UNL     1      -1.875  14.705  45.306  1.00  0.00     0.140 C 
ATOM     14  O   UNL     1      -2.719  15.105  46.096  1.00  0.00    -0.299 OA
BRANCH  13  15
ATOM     15  C   UNL     1      -2.010  13.278  44.804  1.00  0.00     0.106 CG0
ATOM     16  G   UNL     1      -1.828  12.192  45.851  1.00  0.00     0.000 G0
ENDBRANCH  13  15
ENDBRANCH  12  13
BRANCH  12  17
ATOM     17  C   UNL     1      -1.188  16.767  43.923  1.00  0.00    -0.006 C 
ATOM     18  C   UNL     1      -1.436  18.104  44.647  1.00  0.00     0.008 C 
ATOM     19  C   UNL     1      -2.462  16.385  43.149  1.00  0.00     0.008 C 
ENDBRANCH  12  17
ENDBRANCH  11  12
ENDBRANCH   1  11
TORSDOF 1
ENDMDL
MODEL 9
REMARK VINA RESULT:    -3.456      1.965      2.749
REMARK INTER + INTRA:          -5.495
REMARK INTER:                  -6.238
REMARK INTRA:                   0.743
REMARK UNBOUND:                -0.221
REMARK SMILES CC1=CCC[C@H](C)C(=O)C[C@H](C(C)C)C(=O)C1
REMARK SMILES IDX 8 1 9 2 6 3 7 4 5 5 4 6 3 7 2 8 1 9 10 11 11 12 15 13 16 14
REMARK SMILES IDX 17 15 12 17 13 18 14 19
REMARK H PARENT
REMARK Flexibility Score: 70.00
ROOT
ATOM      1  C   UNL     1       2.952  11.316  47.504  1.00  0.00     0.136 C 
ATOM      2  O   UNL     1       2.337  10.880  48.468  1.00  0.00    -0.299 OA
ENDROOT
BRANCH   1   3
ATOM      3  C   UNL     1       2.302  11.182  46.136  1.00  0.00     0.053 C 
ATOM      4  C   UNL     1       2.850   9.929  45.442  1.00  0.00     0.016 C 
BRANCH   3   5
ATOM      5  C   UNL     1       0.758  11.159  46.128  1.00  0.00     0.015 C 
BRANCH   5   6
ATOM      6  C   UNL     1       0.126  12.260  45.247  1.00  0.00     0.028 C 
BRANCH   6   7
ATOM      7  C   UNL     1      -0.172  13.488  46.070  1.00  0.00    -0.028 C 
ATOM      8  C   UNL     1       0.723  14.431  46.439  1.00  0.00    -0.070 CG0
ATOM      9  C   UNL     1       0.210  15.591  47.257  1.00  0.00     0.039 C 
ATOM     10  G   UNL     1       2.162  14.452  45.954  1.00  0.00     0.000 G0
ENDBRANCH   6   7
ENDBRANCH   5   6
ENDBRANCH   3   5
ENDBRANCH   1   3
BRANCH   1  11
ATOM     11  C   UNL     1       4.264  12.037  47.761  1.00  0.00     0.087 C 
BRANCH  11  12
ATOM     12  C   UNL     1       4.436  13.285  46.856  1.00  0.00     0.066 C 
BRANCH  12  13
ATOM     13  C   UNL     1       3.242  14.226  47.003  1.00  0.00     0.140 C 
ATOM     14  O   UNL     1       3.113  14.819  48.065  1.00  0.00    -0.299 OA
BRANCH  13  15
ATOM     15  C   UNL     1       2.174  14.450  45.945  1.00  0.00     0.106 CG0
ATOM     16  G   UNL     1       0.740  14.433  46.444  1.00  0.00     0.000 G0
ENDBRANCH  13  15
ENDBRANCH  12  13
BRANCH  12  17
ATOM     17  C   UNL     1       5.809  14.012  47.025  1.00  0.00    -0.006 C 
ATOM     18  C   UNL     1       6.754  13.683  45.855  1.00  0.00     0.008 C 
ATOM     19  C   UNL     1       6.515  13.645  48.343  1.00  0.00     0.008 C 
ENDBRANCH  12  17
ENDBRANCH  11  12
ENDBRANCH   1  11
TORSDOF 1
ENDMDL
