MODEL 1
REMARK VINA RESULT:     8.942      0.000      0.000
REMARK INTER + INTRA:          13.307
REMARK INTER:                  14.693
REMARK INTRA:                  -1.386
REMARK UNBOUND:                -1.386
REMARK SMILES COc1ccc([C@@H]2CC(=O)c3c(O)cc(O[C@@H]4O[C@@H](CO[C@H]5O[C@H](C)[C@@H](O)[C@H](O)[C@H]5O)[C@H](O)[C@H](O)[C@H]4O)cc3O2)cc1O
REMARK SMILES IDX 19 1 32 2 34 3 36 4 17 5 18 6 20 7 21 8 22 9 25 10 24 11
REMARK SMILES IDX 26 12 23 13 28 14 30 15 27 16 29 18 31 20 33 22 35 24 16 26
REMARK SMILES IDX 15 27 14 28 38 29 12 30 39 31 11 32 40 33 9 34 7 35 10 36
REMARK SMILES IDX 8 37 13 38 6 40 41 41 5 42 42 43 4 44 3 45 43 46 2 48 1 49
REMARK SMILES IDX 37 50
REMARK H PARENT 27 17 29 19 31 21 33 23 35 25 13 39 43 47 37 51
REMARK Flexibility Score: inf
ROOT
ATOM      1  C   UNL     1      76.138  38.725  27.104  1.00  0.00     0.180 C 
ATOM      2  C   UNL     1      76.859  37.398  27.447  1.00  0.00     0.177 C 
ATOM      3  C   UNL     1      78.144  37.259  26.578  1.00  0.00     0.180 C 
ATOM      4  C   UNL     1      77.906  37.662  25.069  1.00  0.00     0.214 C 
ATOM      5  C   UNL     1      76.711  38.632  24.816  1.00  0.00     0.339 C 
ATOM      6  O   UNL     1      75.671  38.672  25.778  1.00  0.00    -0.332 OA
ENDROOT
BRANCH   1   7
ATOM      7  C   UNL     1      74.895  38.897  27.998  1.00  0.00     0.198 C 
BRANCH   7   8
ATOM      8  O   UNL     1      75.246  39.548  29.209  1.00  0.00    -0.347 OA
BRANCH   8   9
ATOM      9  C   UNL     1      75.378  40.948  29.010  1.00  0.00     0.281 C 
ATOM     10  C   UNL     1      71.872  42.052  29.000  1.00  0.00     0.041 C 
ATOM     11  C   UNL     1      73.096  41.317  29.553  1.00  0.00     0.150 C 
ATOM     12  C   UNL     1      73.455  41.887  30.966  1.00  0.00     0.174 C 
ATOM     13  O   UNL     1      74.138  41.498  28.607  1.00  0.00    -0.344 OA
ATOM     14  C   UNL     1      74.836  41.415  31.411  1.00  0.00     0.179 C 
ATOM     15  C   UNL     1      75.841  41.688  30.293  1.00  0.00     0.202 C 
BRANCH  12  16
ATOM     16  O   UNL     1      72.485  41.493  31.894  1.00  0.00    -0.388 OA
ATOM     17  H   UNL     1      72.455  42.173  32.627  1.00  0.00     0.211 HD
ENDBRANCH  12  16
BRANCH  14  18
ATOM     18  O   UNL     1      75.226  42.124  32.573  1.00  0.00    -0.387 OA
ATOM     19  H   UNL     1      75.500  41.464  33.258  1.00  0.00     0.211 HD
ENDBRANCH  14  18
BRANCH  15  20
ATOM     20  O   UNL     1      77.123  41.257  30.678  1.00  0.00    -0.385 OA
ATOM     21  H   UNL     1      76.988  40.738  31.507  1.00  0.00     0.211 HD
ENDBRANCH  15  20
ENDBRANCH   8   9
ENDBRANCH   7   8
ENDBRANCH   1   7
BRANCH   2  22
ATOM     22  O   UNL     1      77.165  37.346  28.821  1.00  0.00    -0.387 OA
ATOM     23  H   UNL     1      76.892  38.224  29.196  1.00  0.00     0.211 HD
ENDBRANCH   2  22
BRANCH   3  24
ATOM     24  O   UNL     1      79.266  37.941  27.112  1.00  0.00    -0.387 OA
ATOM     25  H   UNL     1      79.008  38.385  27.977  1.00  0.00     0.211 HD
ENDBRANCH   3  24
BRANCH   5  26
ATOM     26  O   UNL     1      77.034  39.957  24.346  1.00  0.00    -0.462 OA
BRANCH  26  27
ATOM     27  C   UNL     1      76.768  40.507  23.075  1.00  0.00     0.130 A 
ATOM     28  C   UNL     1      77.764  40.875  22.169  1.00  0.00     0.093 A 
ATOM     29  C   UNL     1      75.428  40.618  22.697  1.00  0.00     0.094 A 
ATOM     30  C   UNL     1      77.460  41.432  20.916  1.00  0.00     0.133 A 
ATOM     31  C   UNL     1      75.102  41.146  21.444  1.00  0.00     0.138 A 
ATOM     32  C   UNL     1      76.109  41.502  20.518  1.00  0.00     0.102 A 
ATOM     33  O   UNL     1      73.755  41.326  21.112  1.00  0.00    -0.484 OA
ATOM     34  C   UNL     1      75.704  41.755  19.112  1.00  0.00     0.174 C 
ATOM     35  C   UNL     1      73.391  42.119  19.964  1.00  0.00     0.211 C 
ATOM     36  O   UNL     1      76.541  41.904  18.188  1.00  0.00    -0.294 OA
ATOM     37  C   UNL     1      74.245  41.657  18.762  1.00  0.00     0.131 C 
BRANCH  30  38
ATOM     38  O   UNL     1      78.516  41.949  20.158  1.00  0.00    -0.507 OA
ATOM     39  H   UNL     1      79.208  41.334  19.746  1.00  0.00     0.293 HD
ENDBRANCH  30  38
BRANCH  35  40
ATOM     40  C   UNL     1      71.884  42.068  19.745  1.00  0.00    -0.003 A 
ATOM     41  C   UNL     1      70.968  42.014  20.813  1.00  0.00     0.057 A 
ATOM     42  C   UNL     1      71.388  42.039  18.424  1.00  0.00     0.011 A 
ATOM     43  C   UNL     1      69.605  41.846  20.568  1.00  0.00     0.158 A 
ATOM     44  C   UNL     1      70.020  41.889  18.184  1.00  0.00     0.051 A 
ATOM     45  C   UNL     1      69.117  41.749  19.257  1.00  0.00     0.160 A 
BRANCH  43  46
ATOM     46  O   UNL     1      68.720  41.771  21.645  1.00  0.00    -0.504 OA
ATOM     47  H   UNL     1      68.448  40.872  22.070  1.00  0.00     0.293 HD
ENDBRANCH  43  46
BRANCH  45  48
ATOM     48  O   UNL     1      67.755  41.464  19.057  1.00  0.00    -0.493 OA
ATOM     49  C   UNL     1      67.253  40.526  18.108  1.00  0.00     0.278 C 
ENDBRANCH  45  48
ENDBRANCH  35  40
ENDBRANCH  26  27
ENDBRANCH   5  26
BRANCH   4  50
ATOM     50  O   UNL     1      77.758  36.547  24.217  1.00  0.00    -0.384 OA
ATOM     51  H   UNL     1      78.592  36.349  23.712  1.00  0.00     0.211 HD
ENDBRANCH   4  50
TORSDOF 15
ENDMDL
MODEL 2
REMARK VINA RESULT:    10.651      2.604      9.002
REMARK INTER + INTRA:          16.115
REMARK INTER:                  13.432
REMARK INTRA:                   2.682
REMARK UNBOUND:                -1.386
REMARK SMILES COc1ccc([C@@H]2CC(=O)c3c(O)cc(O[C@@H]4O[C@@H](CO[C@H]5O[C@H](C)[C@@H](O)[C@H](O)[C@H]5O)[C@H](O)[C@H](O)[C@H]4O)cc3O2)cc1O
REMARK SMILES IDX 19 1 32 2 34 3 36 4 17 5 18 6 20 7 21 8 22 9 25 10 24 11
REMARK SMILES IDX 26 12 23 13 28 14 30 15 27 16 29 18 31 20 33 22 35 24 16 26
REMARK SMILES IDX 15 27 14 28 38 29 12 30 39 31 11 32 40 33 9 34 7 35 10 36
REMARK SMILES IDX 8 37 13 38 6 40 41 41 5 42 42 43 4 44 3 45 43 46 2 48 1 49
REMARK SMILES IDX 37 50
REMARK H PARENT 27 17 29 19 31 21 33 23 35 25 13 39 43 47 37 51
REMARK Flexibility Score: inf
ROOT
ATOM      1  C   UNL     1      72.443  40.808  20.777  1.00  0.00     0.180 C 
ATOM      2  C   UNL     1      71.913  39.373  21.019  1.00  0.00     0.177 C 
ATOM      3  C   UNL     1      72.902  38.338  20.405  1.00  0.00     0.180 C 
ATOM      4  C   UNL     1      73.414  38.761  18.972  1.00  0.00     0.214 C 
ATOM      5  C   UNL     1      73.354  40.288  18.663  1.00  0.00     0.339 C 
ATOM      6  O   UNL     1      72.437  41.081  19.398  1.00  0.00    -0.332 OA
ENDROOT
BRANCH   1   7
ATOM      7  C   UNL     1      71.499  41.836  21.429  1.00  0.00     0.198 C 
BRANCH   7   8
ATOM      8  O   UNL     1      70.411  42.125  20.564  1.00  0.00    -0.347 OA
BRANCH   8   9
ATOM      9  C   UNL     1      69.991  40.957  19.874  1.00  0.00     0.281 C 
ATOM     10  C   UNL     1      68.070  39.190  22.461  1.00  0.00     0.041 C 
ATOM     11  C   UNL     1      68.463  40.394  21.601  1.00  0.00     0.150 C 
ATOM     12  C   UNL     1      67.231  40.856  20.753  1.00  0.00     0.174 C 
ATOM     13  O   UNL     1      69.557  39.979  20.800  1.00  0.00    -0.344 OA
ATOM     14  C   UNL     1      67.654  41.834  19.662  1.00  0.00     0.179 C 
ATOM     15  C   UNL     1      68.829  41.238  18.886  1.00  0.00     0.202 C 
BRANCH  12  16
ATOM     16  O   UNL     1      66.276  41.445  21.590  1.00  0.00    -0.388 OA
ATOM     17  H   UNL     1      66.423  42.434  21.589  1.00  0.00     0.211 HD
ENDBRANCH  12  16
BRANCH  14  18
ATOM     18  O   UNL     1      66.571  42.051  18.776  1.00  0.00    -0.387 OA
ATOM     19  H   UNL     1      66.393  43.024  18.741  1.00  0.00     0.211 HD
ENDBRANCH  14  18
BRANCH  15  20
ATOM     20  O   UNL     1      69.240  42.125  17.875  1.00  0.00    -0.385 OA
ATOM     21  H   UNL     1      68.411  42.542  17.537  1.00  0.00     0.211 HD
ENDBRANCH  15  20
ENDBRANCH   8   9
ENDBRANCH   7   8
ENDBRANCH   1   7
BRANCH   2  22
ATOM     22  O   UNL     1      71.725  39.144  22.396  1.00  0.00    -0.387 OA
ATOM     23  H   UNL     1      70.790  38.823  22.495  1.00  0.00     0.211 HD
ENDBRANCH   2  22
BRANCH   3  24
ATOM     24  O   UNL     1      73.988  38.019  21.256  1.00  0.00    -0.387 OA
ATOM     25  H   UNL     1      73.881  38.501  22.133  1.00  0.00     0.211 HD
ENDBRANCH   3  24
BRANCH   5  26
ATOM     26  O   UNL     1      74.615  40.970  18.501  1.00  0.00    -0.462 OA
BRANCH  26  27
ATOM     27  C   UNL     1      75.706  40.984  19.394  1.00  0.00     0.130 A 
ATOM     28  C   UNL     1      76.949  41.541  19.086  1.00  0.00     0.093 A 
ATOM     29  C   UNL     1      75.490  40.467  20.674  1.00  0.00     0.094 A 
ATOM     30  C   UNL     1      78.017  41.525  19.998  1.00  0.00     0.133 A 
ATOM     31  C   UNL     1      76.531  40.464  21.607  1.00  0.00     0.138 A 
ATOM     32  C   UNL     1      77.785  41.045  21.303  1.00  0.00     0.102 A 
ATOM     33  O   UNL     1      76.323  39.870  22.856  1.00  0.00    -0.484 OA
ATOM     34  C   UNL     1      78.729  41.288  22.423  1.00  0.00     0.174 C 
ATOM     35  C   UNL     1      77.441  39.598  23.724  1.00  0.00     0.211 C 
ATOM     36  O   UNL     1      79.784  41.954  22.280  1.00  0.00    -0.294 OA
ATOM     37  C   UNL     1      78.316  40.869  23.807  1.00  0.00     0.131 C 
BRANCH  30  38
ATOM     38  O   UNL     1      79.275  41.928  19.537  1.00  0.00    -0.507 OA
ATOM     39  H   UNL     1      79.360  42.588  18.772  1.00  0.00     0.293 HD
ENDBRANCH  30  38
BRANCH  35  40
ATOM     40  C   UNL     1      76.950  39.062  25.063  1.00  0.00    -0.003 A 
ATOM     41  C   UNL     1      75.788  39.552  25.691  1.00  0.00     0.057 A 
ATOM     42  C   UNL     1      77.703  38.065  25.718  1.00  0.00     0.011 A 
ATOM     43  C   UNL     1      75.441  39.122  26.971  1.00  0.00     0.158 A 
ATOM     44  C   UNL     1      77.341  37.623  26.992  1.00  0.00     0.051 A 
ATOM     45  C   UNL     1      76.226  38.180  27.651  1.00  0.00     0.160 A 
BRANCH  43  46
ATOM     46  O   UNL     1      74.297  39.640  27.581  1.00  0.00    -0.504 OA
ATOM     47  H   UNL     1      74.293  40.559  28.050  1.00  0.00     0.293 HD
ENDBRANCH  43  46
BRANCH  45  48
ATOM     48  O   UNL     1      75.907  37.860  28.981  1.00  0.00    -0.493 OA
ATOM     49  C   UNL     1      74.808  37.042  29.379  1.00  0.00     0.278 C 
ENDBRANCH  45  48
ENDBRANCH  35  40
ENDBRANCH  26  27
ENDBRANCH   5  26
BRANCH   4  50
ATOM     50  O   UNL     1      72.759  38.073  17.927  1.00  0.00    -0.384 OA
ATOM     51  H   UNL     1      72.455  38.689  17.208  1.00  0.00     0.211 HD
ENDBRANCH   4  50
TORSDOF 15
ENDMDL
