MODEL 1
REMARK VINA RESULT:    -1.331      0.000      0.000
REMARK INTER + INTRA:          -0.195
REMARK INTER:                  -2.265
REMARK INTRA:                   2.069
REMARK UNBOUND:                 2.069
REMARK SMILES CCCCCCCCCCCCCC(=O)[O-]
REMARK SMILES IDX 8 1 9 2 10 3 11 4 12 5 13 6 14 7 15 8 16 9 7 10 6 11 5 12
REMARK SMILES IDX 4 13 3 14 2 15 1 16
REMARK H PARENT
REMARK Flexibility Score: inf
ROOT
ATOM      1  C   UNL     1     -29.181 -20.078 -24.902  1.00  0.00     0.000 C 
ENDROOT
BRANCH   1   2
ATOM      2  C   UNL     1     -30.099 -20.427 -26.085  1.00  0.00     0.000 C 
BRANCH   2   3
ATOM      3  C   UNL     1     -30.753 -21.811 -25.936  1.00  0.00     0.000 C 
BRANCH   3   4
ATOM      4  C   UNL     1     -31.739 -21.877 -24.756  1.00  0.00     0.000 C 
BRANCH   4   5
ATOM      5  C   UNL     1     -31.059 -21.674 -23.390  1.00  0.00     0.006 C 
BRANCH   5   6
ATOM      6  C   UNL     1     -31.908 -20.881 -22.382  1.00  0.00     0.053 C 
BRANCH   6   7
ATOM      7  C   UNL     1     -32.120 -19.458 -22.802  1.00  0.00     0.041 C 
ATOM      8  O   UNL     1     -31.657 -19.045 -23.898  1.00  0.00    -0.550 OA
ATOM      9  O   UNL     1     -32.857 -18.595 -21.999  1.00  0.00    -0.550 OA
ENDBRANCH   6   7
ENDBRANCH   5   6
ENDBRANCH   4   5
ENDBRANCH   3   4
ENDBRANCH   2   3
ENDBRANCH   1   2
BRANCH   1  10
ATOM     10  C   UNL     1     -28.634 -21.327 -24.192  1.00  0.00     0.000 C 
BRANCH  10  11
ATOM     11  C   UNL     1     -27.480 -21.001 -23.229  1.00  0.00    -0.000 C 
BRANCH  11  12
ATOM     12  C   UNL     1     -27.311 -22.055 -22.120  1.00  0.00    -0.000 C 
BRANCH  12  13
ATOM     13  C   UNL     1     -28.464 -22.123 -21.097  1.00  0.00    -0.000 C 
BRANCH  13  14
ATOM     14  C   UNL     1     -28.379 -21.103 -19.949  1.00  0.00    -0.000 C 
BRANCH  14  15
ATOM     15  C   UNL     1     -28.537 -21.749 -18.565  1.00  0.00    -0.003 C 
ATOM     16  C   UNL     1     -27.178 -22.094 -17.961  1.00  0.00     0.004 C 
ENDBRANCH  14  15
ENDBRANCH  13  14
ENDBRANCH  12  13
ENDBRANCH  11  12
ENDBRANCH  10  11
ENDBRANCH   1  10
TORSDOF 12
ENDMDL
MODEL 2
REMARK VINA RESULT:    -0.506      3.791      7.356
REMARK INTER + INTRA:           1.209
REMARK INTER:                   1.631
REMARK INTRA:                  -0.422
REMARK UNBOUND:                 2.069
REMARK SMILES CCCCCCCCCCCCCC(=O)[O-]
REMARK SMILES IDX 8 1 9 2 10 3 11 4 12 5 13 6 14 7 15 8 16 9 7 10 6 11 5 12
REMARK SMILES IDX 4 13 3 14 2 15 1 16
REMARK H PARENT
REMARK Flexibility Score: inf
ROOT
ATOM      1  C   UNL     1     -28.425 -21.038 -19.290  1.00  0.00     0.000 C 
ENDROOT
BRANCH   1   2
ATOM      2  C   UNL     1     -27.586 -22.094 -18.552  1.00  0.00     0.000 C 
BRANCH   2   3
ATOM      3  C   UNL     1     -27.873 -22.125 -17.042  1.00  0.00     0.000 C 
BRANCH   3   4
ATOM      4  C   UNL     1     -29.379 -22.122 -16.724  1.00  0.00     0.000 C 
BRANCH   4   5
ATOM      5  C   UNL     1     -29.675 -22.042 -15.215  1.00  0.00     0.006 C 
BRANCH   5   6
ATOM      6  C   UNL     1     -31.167 -21.872 -14.880  1.00  0.00     0.053 C 
BRANCH   6   7
ATOM      7  C   UNL     1     -31.432 -20.663 -14.036  1.00  0.00     0.041 C 
ATOM      8  O   UNL     1     -32.610 -20.370 -13.699  1.00  0.00    -0.550 OA
ATOM      9  O   UNL     1     -30.375 -19.876 -13.591  1.00  0.00    -0.550 OA
ENDBRANCH   6   7
ENDBRANCH   5   6
ENDBRANCH   4   5
ENDBRANCH   3   4
ENDBRANCH   2   3
ENDBRANCH   1   2
BRANCH   1  10
ATOM     10  C   UNL     1     -28.280 -21.132 -20.818  1.00  0.00     0.000 C 
BRANCH  10  11
ATOM     11  C   UNL     1     -29.546 -20.675 -21.561  1.00  0.00    -0.000 C 
BRANCH  11  12
ATOM     12  C   UNL     1     -29.878 -21.560 -22.776  1.00  0.00    -0.000 C 
BRANCH  12  13
ATOM     13  C   UNL     1     -29.290 -21.079 -24.119  1.00  0.00    -0.000 C 
BRANCH  13  14
ATOM     14  C   UNL     1     -30.068 -19.942 -24.802  1.00  0.00    -0.000 C 
BRANCH  14  15
ATOM     15  C   UNL     1     -31.032 -20.446 -25.887  1.00  0.00    -0.003 C 
ATOM     16  C   UNL     1     -30.275 -21.141 -27.015  1.00  0.00     0.004 C 
ENDBRANCH  14  15
ENDBRANCH  13  14
ENDBRANCH  12  13
ENDBRANCH  11  12
ENDBRANCH  10  11
ENDBRANCH   1  10
TORSDOF 12
ENDMDL
MODEL 3
REMARK VINA RESULT:    -0.122      2.616      4.918
REMARK INTER + INTRA:           1.862
REMARK INTER:                   1.996
REMARK INTRA:                  -0.134
REMARK UNBOUND:                 2.069
REMARK SMILES CCCCCCCCCCCCCC(=O)[O-]
REMARK SMILES IDX 8 1 9 2 10 3 11 4 12 5 13 6 14 7 15 8 16 9 7 10 6 11 5 12
REMARK SMILES IDX 4 13 3 14 2 15 1 16
REMARK H PARENT
REMARK Flexibility Score: inf
ROOT
ATOM      1  C   UNL     1     -29.594 -21.014 -25.335  1.00  0.00     0.000 C 
ENDROOT
BRANCH   1   2
ATOM      2  C   UNL     1     -28.856 -20.776 -24.007  1.00  0.00     0.000 C 
BRANCH   2   3
ATOM      3  C   UNL     1     -27.821 -21.871 -23.703  1.00  0.00     0.000 C 
BRANCH   3   4
ATOM      4  C   UNL     1     -27.258 -21.776 -22.274  1.00  0.00     0.000 C 
BRANCH   4   5
ATOM      5  C   UNL     1     -28.319 -21.368 -21.236  1.00  0.00     0.006 C 
BRANCH   5   6
ATOM      6  C   UNL     1     -28.210 -22.125 -19.902  1.00  0.00     0.053 C 
BRANCH   6   7
ATOM      7  C   UNL     1     -27.834 -21.228 -18.761  1.00  0.00     0.041 C 
ATOM      8  O   UNL     1     -27.177 -21.683 -17.787  1.00  0.00    -0.550 OA
ATOM      9  O   UNL     1     -28.178 -19.882 -18.787  1.00  0.00    -0.550 OA
ENDBRANCH   6   7
ENDBRANCH   5   6
ENDBRANCH   4   5
ENDBRANCH   3   4
ENDBRANCH   2   3
ENDBRANCH   1   2
BRANCH   1  10
ATOM     10  C   UNL     1     -30.616 -19.909 -25.649  1.00  0.00     0.000 C 
BRANCH  10  11
ATOM     11  C   UNL     1     -31.806 -19.912 -24.675  1.00  0.00    -0.000 C 
BRANCH  11  12
ATOM     12  C   UNL     1     -31.796 -18.708 -23.716  1.00  0.00    -0.000 C 
BRANCH  12  13
ATOM     13  C   UNL     1     -32.169 -19.030 -22.254  1.00  0.00    -0.000 C 
BRANCH  13  14
ATOM     14  C   UNL     1     -32.987 -20.317 -22.057  1.00  0.00    -0.000 C 
BRANCH  14  15
ATOM     15  C   UNL     1     -32.189 -21.432 -21.365  1.00  0.00    -0.003 C 
ATOM     16  C   UNL     1     -31.105 -21.985 -22.286  1.00  0.00     0.004 C 
ENDBRANCH  14  15
ENDBRANCH  13  14
ENDBRANCH  12  13
ENDBRANCH  11  12
ENDBRANCH  10  11
ENDBRANCH   1  10
TORSDOF 12
ENDMDL
MODEL 4
REMARK VINA RESULT:     0.012      1.790      4.924
REMARK INTER + INTRA:           2.089
REMARK INTER:                   2.567
REMARK INTRA:                  -0.478
REMARK UNBOUND:                 2.069
REMARK SMILES CCCCCCCCCCCCCC(=O)[O-]
REMARK SMILES IDX 8 1 9 2 10 3 11 4 12 5 13 6 14 7 15 8 16 9 7 10 6 11 5 12
REMARK SMILES IDX 4 13 3 14 2 15 1 16
REMARK H PARENT
REMARK Flexibility Score: inf
ROOT
ATOM      1  C   UNL     1     -27.913 -21.306 -19.231  1.00  0.00     0.000 C 
ENDROOT
BRANCH   1   2
ATOM      2  C   UNL     1     -27.720 -20.793 -20.669  1.00  0.00     0.000 C 
BRANCH   2   3
ATOM      3  C   UNL     1     -27.440 -21.929 -21.667  1.00  0.00     0.000 C 
BRANCH   3   4
ATOM      4  C   UNL     1     -27.460 -21.452 -23.130  1.00  0.00     0.000 C 
BRANCH   4   5
ATOM      5  C   UNL     1     -28.854 -21.546 -23.775  1.00  0.00     0.006 C 
BRANCH   5   6
ATOM      6  C   UNL     1     -29.153 -20.422 -24.781  1.00  0.00     0.053 C 
BRANCH   6   7
ATOM      7  C   UNL     1     -30.283 -20.763 -25.705  1.00  0.00     0.041 C 
ATOM      8  O   UNL     1     -30.488 -20.072 -26.737  1.00  0.00    -0.550 OA
ATOM      9  O   UNL     1     -31.090 -21.864 -25.444  1.00  0.00    -0.550 OA
ENDBRANCH   6   7
ENDBRANCH   5   6
ENDBRANCH   4   5
ENDBRANCH   3   4
ENDBRANCH   2   3
ENDBRANCH   1   2
BRANCH   1  10
ATOM     10  C   UNL     1     -29.211 -22.113 -19.063  1.00  0.00     0.000 C 
BRANCH  10  11
ATOM     11  C   UNL     1     -30.069 -22.122 -20.339  1.00  0.00    -0.000 C 
BRANCH  11  12
ATOM     12  C   UNL     1     -31.580 -22.123 -20.042  1.00  0.00    -0.000 C 
BRANCH  12  13
ATOM     13  C   UNL     1     -32.450 -21.361 -21.063  1.00  0.00    -0.000 C 
BRANCH  13  14
ATOM     14  C   UNL     1     -31.724 -20.932 -22.349  1.00  0.00    -0.000 C 
BRANCH  14  15
ATOM     15  C   UNL     1     -31.557 -19.410 -22.460  1.00  0.00    -0.003 C 
ATOM     16  C   UNL     1     -32.664 -18.797 -23.314  1.00  0.00     0.004 C 
ENDBRANCH  14  15
ENDBRANCH  13  14
ENDBRANCH  12  13
ENDBRANCH  11  12
ENDBRANCH  10  11
ENDBRANCH   1  10
TORSDOF 12
ENDMDL
MODEL 5
REMARK VINA RESULT:     0.190      1.161      4.822
REMARK INTER + INTRA:           2.392
REMARK INTER:                   2.585
REMARK INTRA:                  -0.193
REMARK UNBOUND:                 2.069
REMARK SMILES CCCCCCCCCCCCCC(=O)[O-]
REMARK SMILES IDX 8 1 9 2 10 3 11 4 12 5 13 6 14 7 15 8 16 9 7 10 6 11 5 12
REMARK SMILES IDX 4 13 3 14 2 15 1 16
REMARK H PARENT
REMARK Flexibility Score: inf
ROOT
ATOM      1  C   UNL     1     -27.830 -20.941 -21.045  1.00  0.00     0.000 C 
ENDROOT
BRANCH   1   2
ATOM      2  C   UNL     1     -28.465 -22.125 -20.296  1.00  0.00     0.000 C 
BRANCH   2   3
ATOM      3  C   UNL     1     -29.948 -21.887 -19.966  1.00  0.00     0.000 C 
BRANCH   3   4
ATOM      4  C   UNL     1     -30.650 -20.990 -21.002  1.00  0.00     0.000 C 
BRANCH   4   5
ATOM      5  C   UNL     1     -31.796 -21.705 -21.739  1.00  0.00     0.006 C 
BRANCH   5   6
ATOM      6  C   UNL     1     -32.735 -20.756 -22.502  1.00  0.00     0.053 C 
BRANCH   6   7
ATOM      7  C   UNL     1     -32.247 -19.339 -22.499  1.00  0.00     0.041 C 
ATOM      8  O   UNL     1     -32.455 -18.599 -21.502  1.00  0.00    -0.550 OA
ATOM      9  O   UNL     1     -31.532 -18.844 -23.583  1.00  0.00    -0.550 OA
ENDBRANCH   6   7
ENDBRANCH   5   6
ENDBRANCH   4   5
ENDBRANCH   3   4
ENDBRANCH   2   3
ENDBRANCH   1   2
BRANCH   1  10
ATOM     10  C   UNL     1     -27.333 -21.329 -22.447  1.00  0.00     0.000 C 
BRANCH  10  11
ATOM     11  C   UNL     1     -28.380 -22.125 -23.245  1.00  0.00    -0.000 C 
BRANCH  11  12
ATOM     12  C   UNL     1     -29.075 -21.279 -24.326  1.00  0.00    -0.000 C 
BRANCH  12  13
ATOM     13  C   UNL     1     -30.489 -21.752 -24.722  1.00  0.00    -0.000 C 
BRANCH  13  14
ATOM     14  C   UNL     1     -30.742 -21.858 -26.236  1.00  0.00    -0.000 C 
BRANCH  14  15
ATOM     15  C   UNL     1     -30.130 -20.692 -27.026  1.00  0.00    -0.003 C 
ATOM     16  C   UNL     1     -30.724 -19.357 -26.585  1.00  0.00     0.004 C 
ENDBRANCH  14  15
ENDBRANCH  13  14
ENDBRANCH  12  13
ENDBRANCH  11  12
ENDBRANCH  10  11
ENDBRANCH   1  10
TORSDOF 12
ENDMDL
MODEL 6
REMARK VINA RESULT:     0.246      2.661      4.738
REMARK INTER + INTRA:           2.488
REMARK INTER:                   2.869
REMARK INTRA:                  -0.381
REMARK UNBOUND:                 2.069
REMARK SMILES CCCCCCCCCCCCCC(=O)[O-]
REMARK SMILES IDX 8 1 9 2 10 3 11 4 12 5 13 6 14 7 15 8 16 9 7 10 6 11 5 12
REMARK SMILES IDX 4 13 3 14 2 15 1 16
REMARK H PARENT
REMARK Flexibility Score: inf
ROOT
ATOM      1  C   UNL     1     -28.553 -20.825 -19.468  1.00  0.00     0.000 C 
ENDROOT
BRANCH   1   2
ATOM      2  C   UNL     1     -28.792 -21.032 -20.973  1.00  0.00     0.000 C 
BRANCH   2   3
ATOM      3  C   UNL     1     -30.245 -21.420 -21.291  1.00  0.00     0.000 C 
BRANCH   3   4
ATOM      4  C   UNL     1     -30.481 -21.662 -22.792  1.00  0.00     0.000 C 
BRANCH   4   5
ATOM      5  C   UNL     1     -31.403 -20.610 -23.434  1.00  0.00     0.006 C 
BRANCH   5   6
ATOM      6  C   UNL     1     -31.494 -20.712 -24.966  1.00  0.00     0.053 C 
BRANCH   6   7
ATOM      7  C   UNL     1     -30.181 -20.452 -25.639  1.00  0.00     0.041 C 
ATOM      8  O   UNL     1     -29.896 -21.034 -26.719  1.00  0.00    -0.550 OA
ATOM      9  O   UNL     1     -29.284 -19.541 -25.093  1.00  0.00    -0.550 OA
ENDBRANCH   6   7
ENDBRANCH   5   6
ENDBRANCH   4   5
ENDBRANCH   3   4
ENDBRANCH   2   3
ENDBRANCH   1   2
BRANCH   1  10
ATOM     10  C   UNL     1     -28.074 -22.106 -18.766  1.00  0.00     0.000 C 
BRANCH  10  11
ATOM     11  C   UNL     1     -27.090 -21.818 -17.619  1.00  0.00    -0.000 C 
BRANCH  11  12
ATOM     12  C   UNL     1     -27.684 -22.124 -16.232  1.00  0.00    -0.000 C 
BRANCH  12  13
ATOM     13  C   UNL     1     -29.225 -22.105 -16.159  1.00  0.00    -0.000 C 
BRANCH  13  14
ATOM     14  C   UNL     1     -29.811 -21.372 -14.940  1.00  0.00    -0.000 C 
BRANCH  14  15
ATOM     15  C   UNL     1     -31.246 -21.810 -14.614  1.00  0.00    -0.003 C 
ATOM     16  C   UNL     1     -32.061 -20.649 -14.050  1.00  0.00     0.004 C 
ENDBRANCH  14  15
ENDBRANCH  13  14
ENDBRANCH  12  13
ENDBRANCH  11  12
ENDBRANCH  10  11
ENDBRANCH   1  10
TORSDOF 12
ENDMDL
