MODEL 1
REMARK VINA RESULT:    -7.628      0.000      0.000
REMARK INTER + INTRA:          -8.674
REMARK INTER:                  -8.966
REMARK INTRA:                   0.291
REMARK UNBOUND:                 0.291
REMARK SMILES O=c1c(O)c(-c2ccc(O)c(O)c2)oc2cc(O)ccc12
REMARK SMILES IDX 5 1 3 2 2 3 1 4 21 5 15 6 14 7 16 8 17 9 19 10 20 11 6 12
REMARK SMILES IDX 7 13 8 14 9 15 13 16 11 17 10 18 12 20 4 22 18 24
REMARK H PARENT 10 19 12 21 4 23 18 25
REMARK Flexibility Score: inf
ROOT
ATOM      1  C   UNL     1       2.474   7.282  38.425  1.00  0.00     0.180 A 
ATOM      2  C   UNL     1       2.659   7.736  37.102  1.00  0.00     0.208 A 
ATOM      3  C   UNL     1       2.750   9.116  36.868  1.00  0.00     0.235 A 
ATOM      4  O   UNL     1       2.928   9.547  35.695  1.00  0.00    -0.285 OA
ATOM      5  C   UNL     1       2.636  10.009  37.945  1.00  0.00     0.069 A 
ATOM      6  C   UNL     1       2.427   9.476  39.236  1.00  0.00     0.142 A 
ATOM      7  O   UNL     1       2.355   8.162  39.417  1.00  0.00    -0.452 OA
ATOM      8  C   UNL     1       2.297  10.333  40.334  1.00  0.00     0.094 A 
ATOM      9  C   UNL     1       2.376  11.721  40.159  1.00  0.00     0.119 A 
ATOM     10  C   UNL     1       2.584  12.252  38.881  1.00  0.00     0.047 A 
ATOM     11  C   UNL     1       2.713  11.404  37.778  1.00  0.00     0.020 A 
ENDROOT
BRANCH   1  12
ATOM     12  C   UNL     1       2.385   5.842  38.757  1.00  0.00     0.025 A 
ATOM     13  C   UNL     1       1.557   5.379  39.795  1.00  0.00     0.016 A 
ATOM     14  C   UNL     1       1.471   4.013  40.075  1.00  0.00     0.051 A 
ATOM     15  C   UNL     1       2.198   3.089  39.317  1.00  0.00     0.157 A 
ATOM     16  C   UNL     1       3.097   4.909  37.986  1.00  0.00     0.062 A 
ATOM     17  C   UNL     1       3.013   3.538  38.265  1.00  0.00     0.158 A 
BRANCH  15  18
ATOM     18  O   UNL     1       2.093   1.732  39.622  1.00  0.00    -0.504 OA
ATOM     19  H   UNL     1       1.213   1.233  39.559  1.00  0.00     0.293 HD
ENDBRANCH  15  18
BRANCH  17  20
ATOM     20  O   UNL     1       3.734   2.622  37.501  1.00  0.00    -0.504 OA
ATOM     21  H   UNL     1       3.595   2.537  36.501  1.00  0.00     0.293 HD
ENDBRANCH  17  20
ENDBRANCH   1  12
BRANCH   2  22
ATOM     22  O   UNL     1       2.721   6.826  36.044  1.00  0.00    -0.502 OA
ATOM     23  H   UNL     1       3.600   6.525  35.640  1.00  0.00     0.293 HD
ENDBRANCH   2  22
BRANCH   9  24
ATOM     24  O   UNL     1       2.248  12.583  41.247  1.00  0.00    -0.508 OA
ATOM     25  H   UNL     1       3.042  12.817  41.832  1.00  0.00     0.293 HD
ENDBRANCH   9  24
TORSDOF 5
ENDMDL
MODEL 2
REMARK VINA RESULT:    -7.557      4.011      6.762
REMARK INTER + INTRA:          -8.591
REMARK INTER:                  -8.443
REMARK INTRA:                  -0.148
REMARK UNBOUND:                 0.291
REMARK SMILES O=c1c(O)c(-c2ccc(O)c(O)c2)oc2cc(O)ccc12
REMARK SMILES IDX 5 1 3 2 2 3 1 4 21 5 15 6 14 7 16 8 17 9 19 10 20 11 6 12
REMARK SMILES IDX 7 13 8 14 9 15 13 16 11 17 10 18 12 20 4 22 18 24
REMARK H PARENT 10 19 12 21 4 23 18 25
REMARK Flexibility Score: inf
ROOT
ATOM      1  C   UNL     1       2.789   9.950  36.368  1.00  0.00     0.180 A 
ATOM      2  C   UNL     1       1.743   9.223  35.760  1.00  0.00     0.208 A 
ATOM      3  C   UNL     1       2.003   8.537  34.564  1.00  0.00     0.235 A 
ATOM      4  O   UNL     1       1.087   7.870  34.008  1.00  0.00    -0.285 OA
ATOM      5  C   UNL     1       3.283   8.605  33.993  1.00  0.00     0.069 A 
ATOM      6  C   UNL     1       4.268   9.373  34.649  1.00  0.00     0.142 A 
ATOM      7  O   UNL     1       3.985  10.001  35.785  1.00  0.00    -0.452 OA
ATOM      8  C   UNL     1       5.554   9.474  34.106  1.00  0.00     0.094 A 
ATOM      9  C   UNL     1       5.869   8.813  32.911  1.00  0.00     0.119 A 
ATOM     10  C   UNL     1       4.894   8.050  32.259  1.00  0.00     0.047 A 
ATOM     11  C   UNL     1       3.607   7.944  32.793  1.00  0.00     0.020 A 
ENDROOT
BRANCH   1  12
ATOM     12  C   UNL     1       2.601  10.685  37.638  1.00  0.00     0.025 A 
ATOM     13  C   UNL     1       2.676  12.089  37.690  1.00  0.00     0.016 A 
ATOM     14  C   UNL     1       2.471  12.764  38.896  1.00  0.00     0.051 A 
ATOM     15  C   UNL     1       2.175  12.051  40.063  1.00  0.00     0.157 A 
ATOM     16  C   UNL     1       2.283   9.976  38.808  1.00  0.00     0.062 A 
ATOM     17  C   UNL     1       2.077  10.651  40.020  1.00  0.00     0.158 A 
BRANCH  15  18
ATOM     18  O   UNL     1       1.977  12.753  41.253  1.00  0.00    -0.504 OA
ATOM     19  H   UNL     1       2.751  13.106  41.804  1.00  0.00     0.293 HD
ENDBRANCH  15  18
BRANCH  17  20
ATOM     20  O   UNL     1       1.776   9.936  41.177  1.00  0.00    -0.504 OA
ATOM     21  H   UNL     1       2.085  10.247  42.091  1.00  0.00     0.293 HD
ENDBRANCH  17  20
ENDBRANCH   1  12
BRANCH   2  22
ATOM     22  O   UNL     1       0.467   9.213  36.327  1.00  0.00    -0.502 OA
ATOM     23  H   UNL     1      -0.031  10.067  36.554  1.00  0.00     0.293 HD
ENDBRANCH   2  22
BRANCH   9  24
ATOM     24  O   UNL     1       7.146   8.908  32.363  1.00  0.00    -0.508 OA
ATOM     25  H   UNL     1       7.975   8.715  32.914  1.00  0.00     0.293 HD
ENDBRANCH   9  24
TORSDOF 5
ENDMDL
MODEL 3
REMARK VINA RESULT:    -7.543      0.742      1.527
REMARK INTER + INTRA:          -8.575
REMARK INTER:                  -8.751
REMARK INTRA:                   0.176
REMARK UNBOUND:                 0.291
REMARK SMILES O=c1c(O)c(-c2ccc(O)c(O)c2)oc2cc(O)ccc12
REMARK SMILES IDX 5 1 3 2 2 3 1 4 21 5 15 6 14 7 16 8 17 9 19 10 20 11 6 12
REMARK SMILES IDX 7 13 8 14 9 15 13 16 11 17 10 18 12 20 4 22 18 24
REMARK H PARENT 10 19 12 21 4 23 18 25
REMARK Flexibility Score: inf
ROOT
ATOM      1  C   UNL     1       2.528   6.889  38.328  1.00  0.00     0.180 A 
ATOM      2  C   UNL     1       2.695   7.361  37.008  1.00  0.00     0.208 A 
ATOM      3  C   UNL     1       2.785   8.744  36.792  1.00  0.00     0.235 A 
ATOM      4  O   UNL     1       2.946   9.191  35.622  1.00  0.00    -0.285 OA
ATOM      5  C   UNL     1       2.687   9.623  37.883  1.00  0.00     0.069 A 
ATOM      6  C   UNL     1       2.496   9.073  39.168  1.00  0.00     0.142 A 
ATOM      7  O   UNL     1       2.424   7.756  39.333  1.00  0.00    -0.452 OA
ATOM      8  C   UNL     1       2.383   9.915  40.280  1.00  0.00     0.094 A 
ATOM      9  C   UNL     1       2.461  11.305  40.123  1.00  0.00     0.119 A 
ATOM     10  C   UNL     1       2.651  11.852  38.849  1.00  0.00     0.047 A 
ATOM     11  C   UNL     1       2.764  11.019  37.733  1.00  0.00     0.020 A 
ENDROOT
BRANCH   1  12
ATOM     12  C   UNL     1       2.443   5.445  38.641  1.00  0.00     0.025 A 
ATOM     13  C   UNL     1       3.195   4.495  37.927  1.00  0.00     0.016 A 
ATOM     14  C   UNL     1       3.117   3.139  38.256  1.00  0.00     0.051 A 
ATOM     15  C   UNL     1       2.300   2.714  39.309  1.00  0.00     0.157 A 
ATOM     16  C   UNL     1       1.640   5.015  39.710  1.00  0.00     0.062 A 
ATOM     17  C   UNL     1       1.560   3.655  40.042  1.00  0.00     0.158 A 
BRANCH  15  18
ATOM     18  O   UNL     1       2.241   1.353  39.613  1.00  0.00    -0.504 OA
ATOM     19  H   UNL     1       1.504   0.963  40.189  1.00  0.00     0.293 HD
ENDBRANCH  15  18
BRANCH  17  20
ATOM     20  O   UNL     1       0.749   3.238  41.096  1.00  0.00    -0.504 OA
ATOM     21  H   UNL     1      -0.251   3.120  40.984  1.00  0.00     0.293 HD
ENDBRANCH  17  20
ENDBRANCH   1  12
BRANCH   2  22
ATOM     22  O   UNL     1       2.741   6.466  35.938  1.00  0.00    -0.502 OA
ATOM     23  H   UNL     1       3.607   6.225  35.470  1.00  0.00     0.293 HD
ENDBRANCH   2  22
BRANCH   9  24
ATOM     24  O   UNL     1       2.350  12.152  41.223  1.00  0.00    -0.508 OA
ATOM     25  H   UNL     1       2.803  13.059  41.241  1.00  0.00     0.293 HD
ENDBRANCH   9  24
TORSDOF 5
ENDMDL
MODEL 4
REMARK VINA RESULT:    -7.444      2.293      7.255
REMARK INTER + INTRA:          -8.458
REMARK INTER:                  -8.141
REMARK INTRA:                  -0.317
REMARK UNBOUND:                 0.291
REMARK SMILES O=c1c(O)c(-c2ccc(O)c(O)c2)oc2cc(O)ccc12
REMARK SMILES IDX 5 1 3 2 2 3 1 4 21 5 15 6 14 7 16 8 17 9 19 10 20 11 6 12
REMARK SMILES IDX 7 13 8 14 9 15 13 16 11 17 10 18 12 20 4 22 18 24
REMARK H PARENT 10 19 12 21 4 23 18 25
REMARK Flexibility Score: inf
ROOT
ATOM      1  C   UNL     1       2.642   7.287  37.534  1.00  0.00     0.180 A 
ATOM      2  C   UNL     1       2.509   6.994  38.908  1.00  0.00     0.208 A 
ATOM      3  C   UNL     1       2.565   5.655  39.323  1.00  0.00     0.235 A 
ATOM      4  O   UNL     1       2.460   5.369  40.548  1.00  0.00    -0.285 OA
ATOM      5  C   UNL     1       2.732   4.642  38.366  1.00  0.00     0.069 A 
ATOM      6  C   UNL     1       2.834   5.015  37.009  1.00  0.00     0.142 A 
ATOM      7  O   UNL     1       2.784   6.295  36.657  1.00  0.00    -0.452 OA
ATOM      8  C   UNL     1       2.991   4.033  36.023  1.00  0.00     0.094 A 
ATOM      9  C   UNL     1       3.050   2.679  36.379  1.00  0.00     0.119 A 
ATOM     10  C   UNL     1       2.950   2.308  37.724  1.00  0.00     0.047 A 
ATOM     11  C   UNL     1       2.792   3.280  38.716  1.00  0.00     0.020 A 
ENDROOT
BRANCH   1  12
ATOM     12  C   UNL     1       2.611   8.674  37.019  1.00  0.00     0.025 A 
ATOM     13  C   UNL     1       3.762   9.482  37.023  1.00  0.00     0.016 A 
ATOM     14  C   UNL     1       3.716  10.781  36.509  1.00  0.00     0.051 A 
ATOM     15  C   UNL     1       2.528  11.286  35.972  1.00  0.00     0.157 A 
ATOM     16  C   UNL     1       1.426   9.178  36.459  1.00  0.00     0.062 A 
ATOM     17  C   UNL     1       1.377  10.481  35.944  1.00  0.00     0.158 A 
BRANCH  15  18
ATOM     18  O   UNL     1       2.511  12.587  35.468  1.00  0.00    -0.504 OA
ATOM     19  H   UNL     1       3.359  13.131  35.358  1.00  0.00     0.293 HD
ENDBRANCH  15  18
BRANCH  17  20
ATOM     20  O   UNL     1       0.191  10.976  35.403  1.00  0.00    -0.504 OA
ATOM     21  H   UNL     1      -0.070  10.797  34.441  1.00  0.00     0.293 HD
ENDBRANCH  17  20
ENDBRANCH   1  12
BRANCH   2  22
ATOM     22  O   UNL     1       2.295   8.020  39.831  1.00  0.00    -0.502 OA
ATOM     23  H   UNL     1       2.990   8.282  40.520  1.00  0.00     0.293 HD
ENDBRANCH   2  22
BRANCH   9  24
ATOM     24  O   UNL     1       3.206   1.695  35.406  1.00  0.00    -0.508 OA
ATOM     25  H   UNL     1       3.340   1.933  34.429  1.00  0.00     0.293 HD
ENDBRANCH   9  24
TORSDOF 5
ENDMDL
MODEL 5
REMARK VINA RESULT:    -7.419      4.077      6.837
REMARK INTER + INTRA:          -8.429
REMARK INTER:                  -8.217
REMARK INTRA:                  -0.212
REMARK UNBOUND:                 0.291
REMARK SMILES O=c1c(O)c(-c2ccc(O)c(O)c2)oc2cc(O)ccc12
REMARK SMILES IDX 5 1 3 2 2 3 1 4 21 5 15 6 14 7 16 8 17 9 19 10 20 11 6 12
REMARK SMILES IDX 7 13 8 14 9 15 13 16 11 17 10 18 12 20 4 22 18 24
REMARK H PARENT 10 19 12 21 4 23 18 25
REMARK Flexibility Score: inf
ROOT
ATOM      1  C   UNL     1       3.184  10.059  36.409  1.00  0.00     0.180 A 
ATOM      2  C   UNL     1       4.486  10.050  35.864  1.00  0.00     0.208 A 
ATOM      3  C   UNL     1       4.712   9.356  34.666  1.00  0.00     0.235 A 
ATOM      4  O   UNL     1       5.865   9.343  34.153  1.00  0.00    -0.285 OA
ATOM      5  C   UNL     1       3.650   8.675  34.051  1.00  0.00     0.069 A 
ATOM      6  C   UNL     1       2.383   8.712  34.672  1.00  0.00     0.142 A 
ATOM      7  O   UNL     1       2.208   9.387  35.802  1.00  0.00    -0.452 OA
ATOM      8  C   UNL     1       1.302   8.037  34.095  1.00  0.00     0.094 A 
ATOM      9  C   UNL     1       1.470   7.324  32.900  1.00  0.00     0.119 A 
ATOM     10  C   UNL     1       2.725   7.287  32.283  1.00  0.00     0.047 A 
ATOM     11  C   UNL     1       3.812   7.957  32.851  1.00  0.00     0.020 A 
ENDROOT
BRANCH   1  12
ATOM     12  C   UNL     1       2.860  10.781  37.660  1.00  0.00     0.025 A 
ATOM     13  C   UNL     1       2.896  12.186  37.724  1.00  0.00     0.016 A 
ATOM     14  C   UNL     1       2.563  12.848  38.908  1.00  0.00     0.051 A 
ATOM     15  C   UNL     1       2.177  12.122  40.040  1.00  0.00     0.157 A 
ATOM     16  C   UNL     1       2.452  10.057  38.791  1.00  0.00     0.062 A 
ATOM     17  C   UNL     1       2.118  10.720  39.982  1.00  0.00     0.158 A 
BRANCH  15  18
ATOM     18  O   UNL     1       1.852  12.810  41.209  1.00  0.00    -0.504 OA
ATOM     19  H   UNL     1       0.906  13.114  41.408  1.00  0.00     0.293 HD
ENDBRANCH  15  18
BRANCH  17  20
ATOM     20  O   UNL     1       1.728   9.990  41.103  1.00  0.00    -0.504 OA
ATOM     21  H   UNL     1       1.740  10.394  42.032  1.00  0.00     0.293 HD
ENDBRANCH  17  20
ENDBRANCH   1  12
BRANCH   2  22
ATOM     22  O   UNL     1       5.533  10.696  36.525  1.00  0.00    -0.502 OA
ATOM     23  H   UNL     1       5.641  10.663  37.532  1.00  0.00     0.293 HD
ENDBRANCH   2  22
BRANCH   9  24
ATOM     24  O   UNL     1       0.399   6.649  32.319  1.00  0.00    -0.508 OA
ATOM     25  H   UNL     1      -0.553   6.981  32.420  1.00  0.00     0.293 HD
ENDBRANCH   9  24
TORSDOF 5
ENDMDL
MODEL 6
REMARK VINA RESULT:    -7.036      2.312      4.033
REMARK INTER + INTRA:          -7.979
REMARK INTER:                  -8.046
REMARK INTRA:                   0.067
REMARK UNBOUND:                 0.291
REMARK SMILES O=c1c(O)c(-c2ccc(O)c(O)c2)oc2cc(O)ccc12
REMARK SMILES IDX 5 1 3 2 2 3 1 4 21 5 15 6 14 7 16 8 17 9 19 10 20 11 6 12
REMARK SMILES IDX 7 13 8 14 9 15 13 16 11 17 10 18 12 20 4 22 18 24
REMARK H PARENT 10 19 12 21 4 23 18 25
REMARK Flexibility Score: inf
ROOT
ATOM      1  C   UNL     1       2.944   9.970  38.347  1.00  0.00     0.180 A 
ATOM      2  C   UNL     1       2.121  10.799  39.140  1.00  0.00     0.208 A 
ATOM      3  C   UNL     1       2.350  12.183  39.133  1.00  0.00     0.235 A 
ATOM      4  O   UNL     1       1.620  12.947  39.825  1.00  0.00    -0.285 OA
ATOM      5  C   UNL     1       3.397  12.707  38.359  1.00  0.00     0.069 A 
ATOM      6  C   UNL     1       4.190  11.809  37.613  1.00  0.00     0.142 A 
ATOM      7  O   UNL     1       3.936  10.505  37.639  1.00  0.00    -0.452 OA
ATOM      8  C   UNL     1       5.250  12.291  36.837  1.00  0.00     0.094 A 
ATOM      9  C   UNL     1       5.528  13.664  36.796  1.00  0.00     0.119 A 
ATOM     10  C   UNL     1       4.742  14.556  37.534  1.00  0.00     0.047 A 
ATOM     11  C   UNL     1       3.682  14.084  38.313  1.00  0.00     0.020 A 
ENDROOT
BRANCH   1  12
ATOM     12  C   UNL     1       2.756   8.504  38.286  1.00  0.00     0.025 A 
ATOM     13  C   UNL     1       2.750   7.817  37.058  1.00  0.00     0.016 A 
ATOM     14  C   UNL     1       2.596   6.429  37.026  1.00  0.00     0.051 A 
ATOM     15  C   UNL     1       2.457   5.705  38.214  1.00  0.00     0.157 A 
ATOM     16  C   UNL     1       2.637   7.770  39.477  1.00  0.00     0.062 A 
ATOM     17  C   UNL     1       2.481   6.377  39.447  1.00  0.00     0.158 A 
BRANCH  15  18
ATOM     18  O   UNL     1       2.302   4.320  38.150  1.00  0.00    -0.504 OA
ATOM     19  H   UNL     1       1.394   3.876  38.228  1.00  0.00     0.293 HD
ENDBRANCH  15  18
BRANCH  17  20
ATOM     20  O   UNL     1       2.350   5.661  40.636  1.00  0.00    -0.504 OA
ATOM     21  H   UNL     1       1.571   5.033  40.796  1.00  0.00     0.293 HD
ENDBRANCH  17  20
ENDBRANCH   1  12
BRANCH   2  22
ATOM     22  O   UNL     1       1.118  10.244  39.937  1.00  0.00    -0.502 OA
ATOM     23  H   UNL     1       0.322   9.755  39.544  1.00  0.00     0.293 HD
ENDBRANCH   2  22
BRANCH   9  24
ATOM     24  O   UNL     1       6.581  14.153  36.026  1.00  0.00    -0.508 OA
ATOM     25  H   UNL     1       6.479  14.312  35.030  1.00  0.00     0.293 HD
ENDBRANCH   9  24
TORSDOF 5
ENDMDL
MODEL 7
REMARK VINA RESULT:    -6.885      1.910      3.717
REMARK INTER + INTRA:          -7.801
REMARK INTER:                  -7.895
REMARK INTRA:                   0.094
REMARK UNBOUND:                 0.291
REMARK SMILES O=c1c(O)c(-c2ccc(O)c(O)c2)oc2cc(O)ccc12
REMARK SMILES IDX 5 1 3 2 2 3 1 4 21 5 15 6 14 7 16 8 17 9 19 10 20 11 6 12
REMARK SMILES IDX 7 13 8 14 9 15 13 16 11 17 10 18 12 20 4 22 18 24
REMARK H PARENT 10 19 12 21 4 23 18 25
REMARK Flexibility Score: inf
ROOT
ATOM      1  C   UNL     1       2.519   6.425  38.102  1.00  0.00     0.180 A 
ATOM      2  C   UNL     1       2.627   7.657  38.782  1.00  0.00     0.208 A 
ATOM      3  C   UNL     1       2.845   8.824  38.035  1.00  0.00     0.235 A 
ATOM      4  O   UNL     1       2.934   9.940  38.619  1.00  0.00    -0.285 OA
ATOM      5  C   UNL     1       2.971   8.739  36.639  1.00  0.00     0.069 A 
ATOM      6  C   UNL     1       2.875   7.466  36.037  1.00  0.00     0.142 A 
ATOM      7  O   UNL     1       2.659   6.385  36.779  1.00  0.00    -0.452 OA
ATOM      8  C   UNL     1       3.005   7.337  34.650  1.00  0.00     0.094 A 
ATOM      9  C   UNL     1       3.228   8.468  33.853  1.00  0.00     0.119 A 
ATOM     10  C   UNL     1       3.322   9.731  34.449  1.00  0.00     0.047 A 
ATOM     11  C   UNL     1       3.196   9.870  35.834  1.00  0.00     0.020 A 
ENDROOT
BRANCH   1  12
ATOM     12  C   UNL     1       2.271   5.152  38.816  1.00  0.00     0.025 A 
ATOM     13  C   UNL     1       1.345   5.074  39.872  1.00  0.00     0.016 A 
ATOM     14  C   UNL     1       1.109   3.856  40.515  1.00  0.00     0.051 A 
ATOM     15  C   UNL     1       1.782   2.699  40.108  1.00  0.00     0.157 A 
ATOM     16  C   UNL     1       2.928   3.985  38.397  1.00  0.00     0.062 A 
ATOM     17  C   UNL     1       2.693   2.762  39.042  1.00  0.00     0.158 A 
BRANCH  15  18
ATOM     18  O   UNL     1       1.527   1.498  40.771  1.00  0.00    -0.504 OA
ATOM     19  H   UNL     1       2.137   0.695  40.680  1.00  0.00     0.293 HD
ENDBRANCH  15  18
BRANCH  17  20
ATOM     20  O   UNL     1       3.362   1.611  38.626  1.00  0.00    -0.504 OA
ATOM     21  H   UNL     1       3.878   1.031  39.276  1.00  0.00     0.293 HD
ENDBRANCH  17  20
ENDBRANCH   1  12
BRANCH   2  22
ATOM     22  O   UNL     1       2.546   7.705  40.175  1.00  0.00    -0.502 OA
ATOM     23  H   UNL     1       2.723   6.894  40.756  1.00  0.00     0.293 HD
ENDBRANCH   2  22
BRANCH   9  24
ATOM     24  O   UNL     1       3.359   8.350  32.472  1.00  0.00    -0.508 OA
ATOM     25  H   UNL     1       3.365   9.165  31.869  1.00  0.00     0.293 HD
ENDBRANCH   9  24
TORSDOF 5
ENDMDL
MODEL 8
REMARK VINA RESULT:    -6.754      2.161      6.926
REMARK INTER + INTRA:          -7.647
REMARK INTER:                  -7.432
REMARK INTRA:                  -0.215
REMARK UNBOUND:                 0.291
REMARK SMILES O=c1c(O)c(-c2ccc(O)c(O)c2)oc2cc(O)ccc12
REMARK SMILES IDX 5 1 3 2 2 3 1 4 21 5 15 6 14 7 16 8 17 9 19 10 20 11 6 12
REMARK SMILES IDX 7 13 8 14 9 15 13 16 11 17 10 18 12 20 4 22 18 24
REMARK H PARENT 10 19 12 21 4 23 18 25
REMARK Flexibility Score: inf
ROOT
ATOM      1  C   UNL     1       3.145   9.833  37.382  1.00  0.00     0.180 A 
ATOM      2  C   UNL     1       3.156   9.159  36.143  1.00  0.00     0.208 A 
ATOM      3  C   UNL     1       2.940   7.773  36.125  1.00  0.00     0.235 A 
ATOM      4  O   UNL     1       2.934   7.150  35.027  1.00  0.00    -0.285 OA
ATOM      5  C   UNL     1       2.738   7.090  37.334  1.00  0.00     0.069 A 
ATOM      6  C   UNL     1       2.766   7.832  38.534  1.00  0.00     0.142 A 
ATOM      7  O   UNL     1       2.965   9.146  38.508  1.00  0.00    -0.452 OA
ATOM      8  C   UNL     1       2.580   7.186  39.761  1.00  0.00     0.094 A 
ATOM      9  C   UNL     1       2.363   5.802  39.804  1.00  0.00     0.119 A 
ATOM     10  C   UNL     1       2.335   5.064  38.616  1.00  0.00     0.047 A 
ATOM     11  C   UNL     1       2.521   5.701  37.385  1.00  0.00     0.020 A 
ENDROOT
BRANCH   1  12
ATOM     12  C   UNL     1       3.347  11.296  37.484  1.00  0.00     0.025 A 
ATOM     13  C   UNL     1       2.299  12.155  37.862  1.00  0.00     0.016 A 
ATOM     14  C   UNL     1       2.519  13.531  37.975  1.00  0.00     0.051 A 
ATOM     15  C   UNL     1       3.787  14.066  37.727  1.00  0.00     0.157 A 
ATOM     16  C   UNL     1       4.623  11.836  37.256  1.00  0.00     0.062 A 
ATOM     17  C   UNL     1       4.845  13.216  37.369  1.00  0.00     0.158 A 
BRANCH  15  18
ATOM     18  O   UNL     1       3.976  15.443  37.846  1.00  0.00    -0.504 OA
ATOM     19  H   UNL     1       3.538  16.103  37.213  1.00  0.00     0.293 HD
ENDBRANCH  15  18
BRANCH  17  20
ATOM     20  O   UNL     1       6.114  13.742  37.126  1.00  0.00    -0.504 OA
ATOM     21  H   UNL     1       6.258  14.733  36.975  1.00  0.00     0.293 HD
ENDBRANCH  17  20
ENDBRANCH   1  12
BRANCH   2  22
ATOM     22  O   UNL     1       3.407   9.859  34.960  1.00  0.00    -0.502 OA
ATOM     23  H   UNL     1       3.357  10.870  34.908  1.00  0.00     0.293 HD
ENDBRANCH   2  22
BRANCH   9  24
ATOM     24  O   UNL     1       2.177   5.150  41.021  1.00  0.00    -0.508 OA
ATOM     25  H   UNL     1       2.951   4.974  41.651  1.00  0.00     0.293 HD
ENDBRANCH   9  24
TORSDOF 5
ENDMDL
MODEL 9
REMARK VINA RESULT:    -6.672      4.623      6.107
REMARK INTER + INTRA:          -7.550
REMARK INTER:                  -7.296
REMARK INTRA:                  -0.254
REMARK UNBOUND:                 0.291
REMARK SMILES O=c1c(O)c(-c2ccc(O)c(O)c2)oc2cc(O)ccc12
REMARK SMILES IDX 5 1 3 2 2 3 1 4 21 5 15 6 14 7 16 8 17 9 19 10 20 11 6 12
REMARK SMILES IDX 7 13 8 14 9 15 13 16 11 17 10 18 12 20 4 22 18 24
REMARK H PARENT 10 19 12 21 4 23 18 25
REMARK Flexibility Score: inf
ROOT
ATOM      1  C   UNL     1       3.505  11.221  36.196  1.00  0.00     0.180 A 
ATOM      2  C   UNL     1       3.492  11.007  37.591  1.00  0.00     0.208 A 
ATOM      3  C   UNL     1       2.878  11.961  38.416  1.00  0.00     0.235 A 
ATOM      4  O   UNL     1       2.843  11.786  39.665  1.00  0.00    -0.285 OA
ATOM      5  C   UNL     1       2.311  13.109  37.841  1.00  0.00     0.069 A 
ATOM      6  C   UNL     1       2.387  13.262  36.440  1.00  0.00     0.142 A 
ATOM      7  O   UNL     1       2.970  12.331  35.692  1.00  0.00    -0.452 OA
ATOM      8  C   UNL     1       1.843  14.397  35.829  1.00  0.00     0.094 A 
ATOM      9  C   UNL     1       1.221  15.385  36.603  1.00  0.00     0.119 A 
ATOM     10  C   UNL     1       1.144  15.236  37.992  1.00  0.00     0.047 A 
ATOM     11  C   UNL     1       1.685  14.106  38.612  1.00  0.00     0.020 A 
ENDROOT
BRANCH   1  12
ATOM     12  C   UNL     1       4.117  10.254  35.258  1.00  0.00     0.025 A 
ATOM     13  C   UNL     1       3.503   9.021  34.973  1.00  0.00     0.016 A 
ATOM     14  C   UNL     1       4.086   8.133  34.065  1.00  0.00     0.051 A 
ATOM     15  C   UNL     1       5.281   8.467  33.420  1.00  0.00     0.157 A 
ATOM     16  C   UNL     1       5.305  10.593  34.592  1.00  0.00     0.062 A 
ATOM     17  C   UNL     1       5.893   9.703  33.681  1.00  0.00     0.158 A 
BRANCH  15  18
ATOM     18  O   UNL     1       5.841   7.560  32.520  1.00  0.00    -0.504 OA
ATOM     19  H   UNL     1       6.836   7.368  32.499  1.00  0.00     0.293 HD
ENDBRANCH  15  18
BRANCH  17  20
ATOM     20  O   UNL     1       7.081  10.045  33.035  1.00  0.00    -0.504 OA
ATOM     21  H   UNL     1       7.255   9.790  32.071  1.00  0.00     0.293 HD
ENDBRANCH  17  20
ENDBRANCH   1  12
BRANCH   2  22
ATOM     22  O   UNL     1       4.106   9.878  38.139  1.00  0.00    -0.502 OA
ATOM     23  H   UNL     1       3.600   9.206  38.703  1.00  0.00     0.293 HD
ENDBRANCH   2  22
BRANCH   9  24
ATOM     24  O   UNL     1       0.677  16.519  36.005  1.00  0.00    -0.508 OA
ATOM     25  H   UNL     1       1.176  17.029  35.285  1.00  0.00     0.293 HD
ENDBRANCH   9  24
TORSDOF 5
ENDMDL
