MODEL 1
REMARK VINA RESULT:    -4.304      0.000      0.000
REMARK INTER + INTRA:          -6.105
REMARK INTER:                  -5.814
REMARK INTRA:                  -0.291
REMARK UNBOUND:                -0.291
REMARK SMILES CCCCCCCC(=O)[O-]
REMARK SMILES IDX 5 1 6 2 7 3 8 4 9 5 10 6 4 7 3 8 2 9 1 10
REMARK H PARENT
REMARK Flexibility Score: inf
ROOT
ATOM      1  C   UNL     1       2.129 -37.512  18.037  1.00  0.00     0.000 C 
ENDROOT
BRANCH   1   2
ATOM      2  C   UNL     1       2.788 -37.494  19.422  1.00  0.00     0.006 C 
BRANCH   2   3
ATOM      3  C   UNL     1       4.277 -37.150  19.316  1.00  0.00     0.053 C 
BRANCH   3   4
ATOM      4  C   UNL     1       4.630 -36.053  20.270  1.00  0.00     0.041 C 
ATOM      5  O   UNL     1       3.750 -35.566  21.029  1.00  0.00    -0.550 OA
ATOM      6  O   UNL     1       5.918 -35.534  20.287  1.00  0.00    -0.550 OA
ENDBRANCH   3   4
ENDBRANCH   2   3
ENDBRANCH   1   2
BRANCH   1   7
ATOM      7  C   UNL     1       2.995 -36.781  17.005  1.00  0.00     0.000 C 
BRANCH   7   8
ATOM      8  C   UNL     1       2.162 -36.371  15.781  1.00  0.00    -0.000 C 
BRANCH   8   9
ATOM      9  C   UNL     1       2.826 -36.771  14.454  1.00  0.00    -0.003 C 
ATOM     10  C   UNL     1       3.803 -37.937  14.609  1.00  0.00     0.004 C 
ENDBRANCH   8   9
ENDBRANCH   7   8
ENDBRANCH   1   7
TORSDOF 6
ENDMDL
MODEL 2
REMARK VINA RESULT:    -4.069      3.027      5.752
REMARK INTER + INTRA:          -5.788
REMARK INTER:                  -5.640
REMARK INTRA:                  -0.148
REMARK UNBOUND:                -0.291
REMARK SMILES CCCCCCCC(=O)[O-]
REMARK SMILES IDX 5 1 6 2 7 3 8 4 9 5 10 6 4 7 3 8 2 9 1 10
REMARK H PARENT
REMARK Flexibility Score: inf
ROOT
ATOM      1  C   UNL     1       4.540 -37.354  19.555  1.00  0.00     0.000 C 
ENDROOT
BRANCH   1   2
ATOM      2  C   UNL     1       3.368 -37.482  18.575  1.00  0.00     0.006 C 
BRANCH   2   3
ATOM      3  C   UNL     1       3.510 -36.491  17.416  1.00  0.00     0.053 C 
BRANCH   3   4
ATOM      4  C   UNL     1       2.862 -37.033  16.181  1.00  0.00     0.041 C 
ATOM      5  O   UNL     1       3.447 -37.910  15.492  1.00  0.00    -0.550 OA
ATOM      6  O   UNL     1       1.635 -36.533  15.763  1.00  0.00    -0.550 OA
ENDBRANCH   3   4
ENDBRANCH   2   3
ENDBRANCH   1   2
BRANCH   1   7
ATOM      7  C   UNL     1       4.471 -36.032  20.329  1.00  0.00     0.000 C 
BRANCH   7   8
ATOM      8  C   UNL     1       5.813 -35.721  21.007  1.00  0.00    -0.000 C 
BRANCH   8   9
ATOM      9  C   UNL     1       5.819 -36.085  22.500  1.00  0.00    -0.003 C 
ATOM     10  C   UNL     1       5.856 -34.857  23.408  1.00  0.00     0.004 C 
ENDBRANCH   8   9
ENDBRANCH   7   8
ENDBRANCH   1   7
TORSDOF 6
ENDMDL
MODEL 3
REMARK VINA RESULT:    -4.057      2.833      4.547
REMARK INTER + INTRA:          -5.771
REMARK INTER:                  -5.325
REMARK INTRA:                  -0.446
REMARK UNBOUND:                -0.291
REMARK SMILES CCCCCCCC(=O)[O-]
REMARK SMILES IDX 5 1 6 2 7 3 8 4 9 5 10 6 4 7 3 8 2 9 1 10
REMARK H PARENT
REMARK Flexibility Score: inf
ROOT
ATOM      1  C   UNL     1       2.805 -37.534  19.666  1.00  0.00     0.000 C 
ENDROOT
BRANCH   1   2
ATOM      2  C   UNL     1       2.122 -37.549  18.294  1.00  0.00     0.006 C 
BRANCH   2   3
ATOM      3  C   UNL     1       3.155 -37.478  17.165  1.00  0.00     0.053 C 
BRANCH   3   4
ATOM      4  C   UNL     1       2.567 -36.818  15.958  1.00  0.00     0.041 C 
ATOM      5  O   UNL     1       1.510 -36.140  16.058  1.00  0.00    -0.550 OA
ATOM      6  O   UNL     1       3.158 -36.992  14.713  1.00  0.00    -0.550 OA
ENDBRANCH   3   4
ENDBRANCH   2   3
ENDBRANCH   1   2
BRANCH   1   7
ATOM      7  C   UNL     1       4.327 -37.404  19.523  1.00  0.00     0.000 C 
BRANCH   7   8
ATOM      8  C   UNL     1       4.861 -36.239  20.369  1.00  0.00    -0.000 C 
BRANCH   8   9
ATOM      9  C   UNL     1       5.818 -35.329  19.583  1.00  0.00    -0.003 C 
ATOM     10  C   UNL     1       5.132 -34.608  18.424  1.00  0.00     0.004 C 
ENDBRANCH   8   9
ENDBRANCH   7   8
ENDBRANCH   1   7
TORSDOF 6
ENDMDL
MODEL 4
REMARK VINA RESULT:    -3.850      2.067      2.915
REMARK INTER + INTRA:          -5.492
REMARK INTER:                  -5.391
REMARK INTRA:                  -0.102
REMARK UNBOUND:                -0.291
REMARK SMILES CCCCCCCC(=O)[O-]
REMARK SMILES IDX 5 1 6 2 7 3 8 4 9 5 10 6 4 7 3 8 2 9 1 10
REMARK H PARENT
REMARK Flexibility Score: inf
ROOT
ATOM      1  C   UNL     1       4.601 -37.034  19.884  1.00  0.00     0.000 C 
ENDROOT
BRANCH   1   2
ATOM      2  C   UNL     1       4.524 -35.986  21.002  1.00  0.00     0.006 C 
BRANCH   2   3
ATOM      3  C   UNL     1       5.918 -35.665  21.550  1.00  0.00     0.053 C 
BRANCH   3   4
ATOM      4  C   UNL     1       5.890 -35.591  23.044  1.00  0.00     0.041 C 
ATOM      5  O   UNL     1       5.825 -34.473  23.621  1.00  0.00    -0.550 OA
ATOM      6  O   UNL     1       5.985 -36.752  23.800  1.00  0.00    -0.550 OA
ENDBRANCH   3   4
ENDBRANCH   2   3
ENDBRANCH   1   2
BRANCH   1   7
ATOM      7  C   UNL     1       4.040 -36.478  18.569  1.00  0.00     0.000 C 
BRANCH   7   8
ATOM      8  C   UNL     1       3.066 -37.475  17.923  1.00  0.00    -0.000 C 
BRANCH   8   9
ATOM      9  C   UNL     1       3.015 -37.343  16.393  1.00  0.00    -0.003 C 
ATOM     10  C   UNL     1       1.876 -36.444  15.914  1.00  0.00     0.004 C 
ENDBRANCH   8   9
ENDBRANCH   7   8
ENDBRANCH   1   7
TORSDOF 6
ENDMDL
MODEL 5
REMARK VINA RESULT:    -3.795      2.865      6.032
REMARK INTER + INTRA:          -5.417
REMARK INTER:                  -5.179
REMARK INTRA:                  -0.238
REMARK UNBOUND:                -0.291
REMARK SMILES CCCCCCCC(=O)[O-]
REMARK SMILES IDX 5 1 6 2 7 3 8 4 9 5 10 6 4 7 3 8 2 9 1 10
REMARK H PARENT
REMARK Flexibility Score: inf
ROOT
ATOM      1  C   UNL     1       4.361 -35.777  20.781  1.00  0.00     0.000 C 
ENDROOT
BRANCH   1   2
ATOM      2  C   UNL     1       4.520 -36.050  19.281  1.00  0.00     0.006 C 
BRANCH   2   3
ATOM      3  C   UNL     1       4.101 -37.482  18.936  1.00  0.00     0.053 C 
BRANCH   3   4
ATOM      4  C   UNL     1       2.707 -37.503  18.390  1.00  0.00     0.041 C 
ATOM      5  O   UNL     1       1.748 -37.876  19.117  1.00  0.00    -0.550 OA
ATOM      6  O   UNL     1       2.474 -37.158  17.066  1.00  0.00    -0.550 OA
ENDBRANCH   3   4
ENDBRANCH   2   3
ENDBRANCH   1   2
BRANCH   1   7
ATOM      7  C   UNL     1       5.727 -35.670  21.470  1.00  0.00     0.000 C 
BRANCH   7   8
ATOM      8  C   UNL     1       5.779 -36.552  22.726  1.00  0.00    -0.000 C 
BRANCH   8   9
ATOM      9  C   UNL     1       6.123 -35.755  23.994  1.00  0.00    -0.003 C 
ATOM     10  C   UNL     1       6.125 -34.245  23.761  1.00  0.00     0.004 C 
ENDBRANCH   8   9
ENDBRANCH   7   8
ENDBRANCH   1   7
TORSDOF 6
ENDMDL
MODEL 6
REMARK VINA RESULT:    -3.756      2.977      4.131
REMARK INTER + INTRA:          -5.365
REMARK INTER:                  -5.112
REMARK INTRA:                  -0.252
REMARK UNBOUND:                -0.291
REMARK SMILES CCCCCCCC(=O)[O-]
REMARK SMILES IDX 5 1 6 2 7 3 8 4 9 5 10 6 4 7 3 8 2 9 1 10
REMARK H PARENT
REMARK Flexibility Score: inf
ROOT
ATOM      1  C   UNL     1       5.394 -35.793  19.867  1.00  0.00     0.000 C 
ENDROOT
BRANCH   1   2
ATOM      2  C   UNL     1       6.124 -35.512  21.185  1.00  0.00     0.006 C 
BRANCH   2   3
ATOM      3  C   UNL     1       5.436 -36.219  22.356  1.00  0.00     0.053 C 
BRANCH   3   4
ATOM      4  C   UNL     1       5.806 -35.569  23.652  1.00  0.00     0.041 C 
ATOM      5  O   UNL     1       5.858 -36.251  24.710  1.00  0.00    -0.550 OA
ATOM      6  O   UNL     1       6.043 -34.202  23.701  1.00  0.00    -0.550 OA
ENDBRANCH   3   4
ENDBRANCH   2   3
ENDBRANCH   1   2
BRANCH   1   7
ATOM      7  C   UNL     1       4.955 -37.260  19.782  1.00  0.00     0.000 C 
BRANCH   7   8
ATOM      8  C   UNL     1       3.697 -37.408  18.914  1.00  0.00    -0.000 C 
BRANCH   8   9
ATOM      9  C   UNL     1       2.423 -37.607  19.750  1.00  0.00    -0.003 C 
ATOM     10  C   UNL     1       1.201 -37.939  18.896  1.00  0.00     0.004 C 
ENDBRANCH   8   9
ENDBRANCH   7   8
ENDBRANCH   1   7
TORSDOF 6
ENDMDL
MODEL 7
REMARK VINA RESULT:    -3.610      2.856      6.078
REMARK INTER + INTRA:          -5.167
REMARK INTER:                  -4.950
REMARK INTRA:                  -0.217
REMARK UNBOUND:                -0.291
REMARK SMILES CCCCCCCC(=O)[O-]
REMARK SMILES IDX 5 1 6 2 7 3 8 4 9 5 10 6 4 7 3 8 2 9 1 10
REMARK H PARENT
REMARK Flexibility Score: inf
ROOT
ATOM      1  C   UNL     1       5.330 -35.493  19.983  1.00  0.00     0.000 C 
ENDROOT
BRANCH   1   2
ATOM      2  C   UNL     1       4.170 -36.466  20.221  1.00  0.00     0.006 C 
BRANCH   2   3
ATOM      3  C   UNL     1       4.119 -37.538  19.128  1.00  0.00     0.053 C 
BRANCH   3   4
ATOM      4  C   UNL     1       2.789 -37.525  18.443  1.00  0.00     0.041 C 
ATOM      5  O   UNL     1       2.703 -37.189  17.232  1.00  0.00    -0.550 OA
ATOM      6  O   UNL     1       1.637 -37.835  19.155  1.00  0.00    -0.550 OA
ENDBRANCH   3   4
ENDBRANCH   2   3
ENDBRANCH   1   2
BRANCH   1   7
ATOM      7  C   UNL     1       6.125 -35.257  21.274  1.00  0.00     0.000 C 
BRANCH   7   8
ATOM      8  C   UNL     1       5.254 -35.518  22.511  1.00  0.00    -0.000 C 
BRANCH   8   9
ATOM      9  C   UNL     1       6.042 -35.399  23.825  1.00  0.00    -0.003 C 
ATOM     10  C   UNL     1       5.746 -36.539  24.797  1.00  0.00     0.004 C 
ENDBRANCH   8   9
ENDBRANCH   7   8
ENDBRANCH   1   7
TORSDOF 6
ENDMDL
MODEL 8
REMARK VINA RESULT:    -3.056      3.016      5.139
REMARK INTER + INTRA:          -4.419
REMARK INTER:                  -4.181
REMARK INTRA:                  -0.239
REMARK UNBOUND:                -0.291
REMARK SMILES CCCCCCCC(=O)[O-]
REMARK SMILES IDX 5 1 6 2 7 3 8 4 9 5 10 6 4 7 3 8 2 9 1 10
REMARK H PARENT
REMARK Flexibility Score: inf
ROOT
ATOM      1  C   UNL     1       4.980 -35.443  18.721  1.00  0.00     0.000 C 
ENDROOT
BRANCH   1   2
ATOM      2  C   UNL     1       3.876 -35.542  17.661  1.00  0.00     0.006 C 
BRANCH   2   3
ATOM      3  C   UNL     1       3.421 -36.993  17.477  1.00  0.00     0.053 C 
BRANCH   3   4
ATOM      4  C   UNL     1       2.905 -37.208  16.089  1.00  0.00     0.041 C 
ATOM      5  O   UNL     1       3.529 -37.957  15.291  1.00  0.00    -0.550 OA
ATOM      6  O   UNL     1       1.764 -36.543  15.660  1.00  0.00    -0.550 OA
ENDBRANCH   3   4
ENDBRANCH   2   3
ENDBRANCH   1   2
BRANCH   1   7
ATOM      7  C   UNL     1       4.415 -35.668  20.129  1.00  0.00     0.000 C 
BRANCH   7   8
ATOM      8  C   UNL     1       5.268 -36.679  20.908  1.00  0.00    -0.000 C 
BRANCH   8   9
ATOM      9  C   UNL     1       5.307 -38.061  20.238  1.00  0.00    -0.003 C 
ATOM     10  C   UNL     1       5.527 -39.197  21.236  1.00  0.00     0.004 C 
ENDBRANCH   8   9
ENDBRANCH   7   8
ENDBRANCH   1   7
TORSDOF 6
ENDMDL
MODEL 9
REMARK VINA RESULT:    -2.274      3.486      6.760
REMARK INTER + INTRA:          -3.362
REMARK INTER:                  -3.120
REMARK INTRA:                  -0.243
REMARK UNBOUND:                -0.291
REMARK SMILES CCCCCCCC(=O)[O-]
REMARK SMILES IDX 5 1 6 2 7 3 8 4 9 5 10 6 4 7 3 8 2 9 1 10
REMARK H PARENT
REMARK Flexibility Score: inf
ROOT
ATOM      1  C   UNL     1       5.354 -35.502  22.800  1.00  0.00     0.000 C 
ENDROOT
BRANCH   1   2
ATOM      2  C   UNL     1       5.747 -35.951  21.387  1.00  0.00     0.006 C 
BRANCH   2   3
ATOM      3  C   UNL     1       4.559 -35.844  20.426  1.00  0.00     0.053 C 
BRANCH   3   4
ATOM      4  C   UNL     1       4.258 -37.176  19.815  1.00  0.00     0.041 C 
ATOM      5  O   UNL     1       3.118 -37.407  19.330  1.00  0.00    -0.550 OA
ATOM      6  O   UNL     1       5.218 -38.179  19.825  1.00  0.00    -0.550 OA
ENDBRANCH   3   4
ENDBRANCH   2   3
ENDBRANCH   1   2
BRANCH   1   7
ATOM      7  C   UNL     1       6.125 -36.292  23.864  1.00  0.00     0.000 C 
BRANCH   7   8
ATOM      8  C   UNL     1       5.341 -36.348  25.183  1.00  0.00    -0.000 C 
BRANCH   8   9
ATOM      9  C   UNL     1       4.998 -37.785  25.606  1.00  0.00    -0.003 C 
ATOM     10  C   UNL     1       5.194 -38.797  24.478  1.00  0.00     0.004 C 
ENDBRANCH   8   9
ENDBRANCH   7   8
ENDBRANCH   1   7
TORSDOF 6
ENDMDL
