MODEL 1
REMARK VINA RESULT:    -3.911      0.000      0.000
REMARK INTER + INTRA:          -9.158
REMARK INTER:                  -6.884
REMARK INTRA:                  -2.274
REMARK UNBOUND:                -2.274
REMARK SMILES CCCCCCC=CCCCCCCCC(=O)[O-]
REMARK SMILES IDX 10 1 11 2 12 3 13 4 14 5 15 6 16 7 17 8 18 9 9 10 8 11 7 12
REMARK SMILES IDX 6 13 5 14 4 15 3 16 2 17 1 18
REMARK H PARENT
REMARK Flexibility Score: inf
ROOT
ATOM      1  C   UNL     1       5.897  -7.803  13.329  1.00  0.00     0.004 C 
ENDROOT
BRANCH   1   2
ATOM      2  C   UNL     1       6.732  -7.329  14.536  1.00  0.00     0.000 C 
BRANCH   2   3
ATOM      3  C   UNL     1       6.361  -7.975  15.886  1.00  0.00     0.000 C 
BRANCH   3   4
ATOM      4  C   UNL     1       6.928  -7.263  17.127  1.00  0.00     0.000 C 
BRANCH   4   5
ATOM      5  C   UNL     1       6.046  -7.446  18.374  1.00  0.00     0.006 C 
BRANCH   5   6
ATOM      6  C   UNL     1       6.784  -7.067  19.665  1.00  0.00     0.053 C 
BRANCH   6   7
ATOM      7  C   UNL     1       6.111  -5.934  20.376  1.00  0.00     0.041 C 
ATOM      8  O   UNL     1       5.792  -6.048  21.589  1.00  0.00    -0.550 OA
ATOM      9  O   UNL     1       5.802  -4.766  19.691  1.00  0.00    -0.550 OA
ENDBRANCH   6   7
ENDBRANCH   5   6
ENDBRANCH   4   5
ENDBRANCH   3   4
ENDBRANCH   2   3
ENDBRANCH   1   2
BRANCH   1  10
ATOM     10  C   UNL     1       5.287  -6.665  12.494  1.00  0.00     0.027 C 
BRANCH  10  11
ATOM     11  C   UNL     1       6.284  -6.069  11.529  1.00  0.00    -0.031 C 
ATOM     12  C   UNL     1       6.618  -4.766  11.480  1.00  0.00    -0.031 C 
BRANCH  12  13
ATOM     13  C   UNL     1       6.119  -3.718  12.442  1.00  0.00     0.027 C 
BRANCH  13  14
ATOM     14  C   UNL     1       7.113  -3.522  13.595  1.00  0.00     0.004 C 
BRANCH  14  15
ATOM     15  C   UNL     1       6.470  -3.720  14.979  1.00  0.00     0.000 C 
BRANCH  15  16
ATOM     16  C   UNL     1       4.941  -3.896  14.964  1.00  0.00    -0.000 C 
BRANCH  16  17
ATOM     17  C   UNL     1       4.427  -4.747  16.135  1.00  0.00    -0.003 C 
ATOM     18  C   UNL     1       3.381  -5.754  15.664  1.00  0.00     0.004 C 
ENDBRANCH  16  17
ENDBRANCH  15  16
ENDBRANCH  14  15
ENDBRANCH  13  14
ENDBRANCH  12  13
ENDBRANCH  10  11
ENDBRANCH   1  10
TORSDOF 13
ENDMDL
MODEL 2
REMARK VINA RESULT:    -3.803     10.250     12.150
REMARK INTER + INTRA:          -8.968
REMARK INTER:                  -6.919
REMARK INTRA:                  -2.049
REMARK UNBOUND:                -2.274
REMARK SMILES CCCCCCC=CCCCCCCCC(=O)[O-]
REMARK SMILES IDX 10 1 11 2 12 3 13 4 14 5 15 6 16 7 17 8 18 9 9 10 8 11 7 12
REMARK SMILES IDX 6 13 5 14 4 15 3 16 2 17 1 18
REMARK H PARENT
REMARK Flexibility Score: inf
ROOT
ATOM      1  C   UNL     1       0.465   0.213  16.242  1.00  0.00     0.004 C 
ENDROOT
BRANCH   1   2
ATOM      2  C   UNL     1      -1.007   0.238  15.782  1.00  0.00     0.000 C 
BRANCH   2   3
ATOM      3  C   UNL     1      -2.023  -0.313  16.802  1.00  0.00     0.000 C 
BRANCH   3   4
ATOM      4  C   UNL     1      -2.370   0.645  17.956  1.00  0.00     0.000 C 
BRANCH   4   5
ATOM      5  C   UNL     1      -3.841   1.094  17.935  1.00  0.00     0.006 C 
BRANCH   5   6
ATOM      6  C   UNL     1      -4.093   2.295  18.857  1.00  0.00     0.053 C 
BRANCH   6   7
ATOM      7  C   UNL     1      -5.517   2.352  19.317  1.00  0.00     0.041 C 
ATOM      8  O   UNL     1      -6.063   1.333  19.817  1.00  0.00    -0.550 OA
ATOM      9  O   UNL     1      -6.254   3.519  19.159  1.00  0.00    -0.550 OA
ENDBRANCH   6   7
ENDBRANCH   5   6
ENDBRANCH   4   5
ENDBRANCH   3   4
ENDBRANCH   2   3
ENDBRANCH   1   2
BRANCH   1  10
ATOM     10  C   UNL     1       1.300   1.412  15.765  1.00  0.00     0.027 C 
BRANCH  10  11
ATOM     11  C   UNL     1       1.602   2.378  16.885  1.00  0.00    -0.031 C 
ATOM     12  C   UNL     1       1.030   3.588  17.028  1.00  0.00    -0.031 C 
BRANCH  12  13
ATOM     13  C   UNL     1      -0.067   4.126  16.145  1.00  0.00     0.027 C 
BRANCH  13  14
ATOM     14  C   UNL     1      -1.415   4.104  16.880  1.00  0.00     0.004 C 
BRANCH  14  15
ATOM     15  C   UNL     1      -2.608   3.875  15.935  1.00  0.00     0.000 C 
BRANCH  15  16
ATOM     16  C   UNL     1      -2.230   3.429  14.511  1.00  0.00    -0.000 C 
BRANCH  16  17
ATOM     17  C   UNL     1      -2.916   4.267  13.422  1.00  0.00    -0.003 C 
ATOM     18  C   UNL     1      -2.573   5.747  13.570  1.00  0.00     0.004 C 
ENDBRANCH  16  17
ENDBRANCH  15  16
ENDBRANCH  14  15
ENDBRANCH  13  14
ENDBRANCH  12  13
ENDBRANCH  10  11
ENDBRANCH   1  10
TORSDOF 13
ENDMDL
MODEL 3
REMARK VINA RESULT:    -3.760      1.596      3.775
REMARK INTER + INTRA:          -8.893
REMARK INTER:                  -7.524
REMARK INTRA:                  -1.369
REMARK UNBOUND:                -2.274
REMARK SMILES CCCCCCC=CCCCCCCCC(=O)[O-]
REMARK SMILES IDX 10 1 11 2 12 3 13 4 14 5 15 6 16 7 17 8 18 9 9 10 8 11 7 12
REMARK SMILES IDX 6 13 5 14 4 15 3 16 2 17 1 18
REMARK H PARENT
REMARK Flexibility Score: inf
ROOT
ATOM      1  C   UNL     1       5.804  -6.560  17.183  1.00  0.00     0.004 C 
ENDROOT
BRANCH   1   2
ATOM      2  C   UNL     1       5.146  -7.666  18.034  1.00  0.00     0.000 C 
BRANCH   2   3
ATOM      3  C   UNL     1       5.325  -7.515  19.558  1.00  0.00     0.000 C 
BRANCH   3   4
ATOM      4  C   UNL     1       6.490  -6.607  19.989  1.00  0.00     0.000 C 
BRANCH   4   5
ATOM      5  C   UNL     1       6.103  -5.637  21.118  1.00  0.00     0.006 C 
BRANCH   5   6
ATOM      6  C   UNL     1       7.123  -4.503  21.281  1.00  0.00     0.053 C 
BRANCH   6   7
ATOM      7  C   UNL     1       6.651  -3.235  20.637  1.00  0.00     0.041 C 
ATOM      8  O   UNL     1       7.078  -2.122  21.043  1.00  0.00    -0.550 OA
ATOM      9  O   UNL     1       5.712  -3.280  19.615  1.00  0.00    -0.550 OA
ENDBRANCH   6   7
ENDBRANCH   5   6
ENDBRANCH   4   5
ENDBRANCH   3   4
ENDBRANCH   2   3
ENDBRANCH   1   2
BRANCH   1  10
ATOM     10  C   UNL     1       6.812  -7.076  16.143  1.00  0.00     0.027 C 
BRANCH  10  11
ATOM     11  C   UNL     1       6.362  -8.368  15.505  1.00  0.00    -0.031 C 
ATOM     12  C   UNL     1       5.998  -8.500  14.216  1.00  0.00    -0.031 C 
BRANCH  12  13
ATOM     13  C   UNL     1       6.074  -7.400  13.188  1.00  0.00     0.027 C 
BRANCH  13  14
ATOM     14  C   UNL     1       4.707  -6.724  13.014  1.00  0.00     0.004 C 
BRANCH  14  15
ATOM     15  C   UNL     1       4.694  -5.266  13.509  1.00  0.00     0.000 C 
BRANCH  15  16
ATOM     16  C   UNL     1       6.053  -4.547  13.444  1.00  0.00    -0.000 C 
BRANCH  16  17
ATOM     17  C   UNL     1       6.177  -3.617  12.228  1.00  0.00    -0.003 C 
ATOM     18  C   UNL     1       6.537  -4.403  10.969  1.00  0.00     0.004 C 
ENDBRANCH  16  17
ENDBRANCH  15  16
ENDBRANCH  14  15
ENDBRANCH  13  14
ENDBRANCH  12  13
ENDBRANCH  10  11
ENDBRANCH   1  10
TORSDOF 13
ENDMDL
MODEL 4
REMARK VINA RESULT:    -3.726      2.982      6.675
REMARK INTER + INTRA:          -8.832
REMARK INTER:                  -8.025
REMARK INTRA:                  -0.807
REMARK UNBOUND:                -2.274
REMARK SMILES CCCCCCC=CCCCCCCCC(=O)[O-]
REMARK SMILES IDX 10 1 11 2 12 3 13 4 14 5 15 6 16 7 17 8 18 9 9 10 8 11 7 12
REMARK SMILES IDX 6 13 5 14 4 15 3 16 2 17 1 18
REMARK H PARENT
REMARK Flexibility Score: inf
ROOT
ATOM      1  C   UNL     1       6.764  -7.370  15.228  1.00  0.00     0.004 C 
ENDROOT
BRANCH   1   2
ATOM      2  C   UNL     1       5.395  -7.645  14.571  1.00  0.00     0.000 C 
BRANCH   2   3
ATOM      3  C   UNL     1       5.099  -6.820  13.302  1.00  0.00     0.000 C 
BRANCH   3   4
ATOM      4  C   UNL     1       6.325  -6.137  12.670  1.00  0.00     0.000 C 
BRANCH   4   5
ATOM      5  C   UNL     1       6.043  -4.687  12.238  1.00  0.00     0.006 C 
BRANCH   5   6
ATOM      6  C   UNL     1       5.254  -3.911  13.300  1.00  0.00     0.053 C 
BRANCH   6   7
ATOM      7  C   UNL     1       5.872  -2.577  13.586  1.00  0.00     0.041 C 
ATOM      8  O   UNL     1       7.122  -2.434  13.535  1.00  0.00    -0.550 OA
ATOM      9  O   UNL     1       5.071  -1.500  13.946  1.00  0.00    -0.550 OA
ENDBRANCH   6   7
ENDBRANCH   5   6
ENDBRANCH   4   5
ENDBRANCH   3   4
ENDBRANCH   2   3
ENDBRANCH   1   2
BRANCH   1  10
ATOM     10  C   UNL     1       6.702  -7.136  16.746  1.00  0.00     0.027 C 
BRANCH  10  11
ATOM     11  C   UNL     1       5.333  -7.423  17.312  1.00  0.00    -0.031 C 
ATOM     12  C   UNL     1       5.074  -7.659  18.612  1.00  0.00    -0.031 C 
BRANCH  12  13
ATOM     13  C   UNL     1       6.098  -7.580  19.716  1.00  0.00     0.027 C 
BRANCH  13  14
ATOM     14  C   UNL     1       6.350  -6.120  20.117  1.00  0.00     0.004 C 
BRANCH  14  15
ATOM     15  C   UNL     1       6.067  -5.852  21.606  1.00  0.00     0.000 C 
BRANCH  15  16
ATOM     16  C   UNL     1       6.695  -4.562  22.163  1.00  0.00    -0.000 C 
BRANCH  16  17
ATOM     17  C   UNL     1       6.932  -4.620  23.680  1.00  0.00    -0.003 C 
ATOM     18  C   UNL     1       5.810  -5.380  24.382  1.00  0.00     0.004 C 
ENDBRANCH  16  17
ENDBRANCH  15  16
ENDBRANCH  14  15
ENDBRANCH  13  14
ENDBRANCH  12  13
ENDBRANCH  10  11
ENDBRANCH   1  10
TORSDOF 13
ENDMDL
MODEL 5
REMARK VINA RESULT:    -3.680      7.726      9.850
REMARK INTER + INTRA:          -8.752
REMARK INTER:                  -7.597
REMARK INTRA:                  -1.155
REMARK UNBOUND:                -2.274
REMARK SMILES CCCCCCC=CCCCCCCCC(=O)[O-]
REMARK SMILES IDX 10 1 11 2 12 3 13 4 14 5 15 6 16 7 17 8 18 9 9 10 8 11 7 12
REMARK SMILES IDX 6 13 5 14 4 15 3 16 2 17 1 18
REMARK H PARENT
REMARK Flexibility Score: inf
ROOT
ATOM      1  C   UNL     1       1.001  -0.270  14.815  1.00  0.00     0.004 C 
ENDROOT
BRANCH   1   2
ATOM      2  C   UNL     1       2.529  -0.168  14.630  1.00  0.00     0.000 C 
BRANCH   2   3
ATOM      3  C   UNL     1       3.244  -1.501  14.332  1.00  0.00     0.000 C 
BRANCH   3   4
ATOM      4  C   UNL     1       4.704  -1.366  13.861  1.00  0.00     0.000 C 
BRANCH   4   5
ATOM      5  C   UNL     1       5.497  -2.677  13.998  1.00  0.00     0.006 C 
BRANCH   5   6
ATOM      6  C   UNL     1       6.242  -3.039  12.707  1.00  0.00     0.053 C 
BRANCH   6   7
ATOM      7  C   UNL     1       5.296  -3.404  11.604  1.00  0.00     0.041 C 
ATOM      8  O   UNL     1       4.623  -4.466  11.673  1.00  0.00    -0.550 OA
ATOM      9  O   UNL     1       5.186  -2.591  10.483  1.00  0.00    -0.550 OA
ENDBRANCH   6   7
ENDBRANCH   5   6
ENDBRANCH   4   5
ENDBRANCH   3   4
ENDBRANCH   2   3
ENDBRANCH   1   2
BRANCH   1  10
ATOM     10  C   UNL     1       0.351   0.986  15.421  1.00  0.00     0.027 C 
BRANCH  10  11
ATOM     11  C   UNL     1       1.111   2.243  15.074  1.00  0.00    -0.031 C 
ATOM     12  C   UNL     1       1.031   3.400  15.759  1.00  0.00    -0.031 C 
BRANCH  12  13
ATOM     13  C   UNL     1       0.244   3.589  17.030  1.00  0.00     0.027 C 
BRANCH  13  14
ATOM     14  C   UNL     1      -1.032   4.399  16.763  1.00  0.00     0.004 C 
BRANCH  14  15
ATOM     15  C   UNL     1      -2.296   3.522  16.707  1.00  0.00     0.000 C 
BRANCH  15  16
ATOM     16  C   UNL     1      -2.975   3.452  15.328  1.00  0.00    -0.000 C 
BRANCH  16  17
ATOM     17  C   UNL     1      -2.164   4.151  14.227  1.00  0.00    -0.003 C 
ATOM     18  C   UNL     1      -2.870   5.414  13.742  1.00  0.00     0.004 C 
ENDBRANCH  16  17
ENDBRANCH  15  16
ENDBRANCH  14  15
ENDBRANCH  13  14
ENDBRANCH  12  13
ENDBRANCH  10  11
ENDBRANCH   1  10
TORSDOF 13
ENDMDL
MODEL 6
REMARK VINA RESULT:    -3.665      1.182      2.197
REMARK INTER + INTRA:          -8.724
REMARK INTER:                  -6.688
REMARK INTRA:                  -2.036
REMARK UNBOUND:                -2.274
REMARK SMILES CCCCCCC=CCCCCCCCC(=O)[O-]
REMARK SMILES IDX 10 1 11 2 12 3 13 4 14 5 15 6 16 7 17 8 18 9 9 10 8 11 7 12
REMARK SMILES IDX 6 13 5 14 4 15 3 16 2 17 1 18
REMARK H PARENT
REMARK Flexibility Score: inf
ROOT
ATOM      1  C   UNL     1       4.905  -7.830  15.246  1.00  0.00     0.004 C 
ENDROOT
BRANCH   1   2
ATOM      2  C   UNL     1       6.351  -7.962  15.768  1.00  0.00     0.000 C 
BRANCH   2   3
ATOM      3  C   UNL     1       6.753  -6.942  16.852  1.00  0.00     0.000 C 
BRANCH   3   4
ATOM      4  C   UNL     1       6.745  -7.487  18.292  1.00  0.00     0.000 C 
BRANCH   4   5
ATOM      5  C   UNL     1       5.611  -6.895  19.146  1.00  0.00     0.006 C 
BRANCH   5   6
ATOM      6  C   UNL     1       5.232  -5.477  18.702  1.00  0.00     0.053 C 
BRANCH   6   7
ATOM      7  C   UNL     1       5.649  -4.449  19.709  1.00  0.00     0.041 C 
ATOM      8  O   UNL     1       5.414  -3.229  19.504  1.00  0.00    -0.550 OA
ATOM      9  O   UNL     1       6.330  -4.835  20.857  1.00  0.00    -0.550 OA
ENDBRANCH   6   7
ENDBRANCH   5   6
ENDBRANCH   4   5
ENDBRANCH   3   4
ENDBRANCH   2   3
ENDBRANCH   1   2
BRANCH   1  10
ATOM     10  C   UNL     1       4.791  -7.200  13.848  1.00  0.00     0.027 C 
BRANCH  10  11
ATOM     11  C   UNL     1       6.103  -7.228  13.102  1.00  0.00    -0.031 C 
ATOM     12  C   UNL     1       6.380  -6.489  12.011  1.00  0.00    -0.031 C 
BRANCH  12  13
ATOM     13  C   UNL     1       5.459  -5.450  11.425  1.00  0.00     0.027 C 
BRANCH  13  14
ATOM     14  C   UNL     1       6.171  -4.096  11.310  1.00  0.00     0.004 C 
BRANCH  14  15
ATOM     15  C   UNL     1       5.921  -3.184  12.524  1.00  0.00     0.000 C 
BRANCH  15  16
ATOM     16  C   UNL     1       7.120  -3.030  13.477  1.00  0.00    -0.000 C 
BRANCH  16  17
ATOM     17  C   UNL     1       7.013  -3.927  14.720  1.00  0.00    -0.003 C 
ATOM     18  C   UNL     1       5.604  -3.885  15.307  1.00  0.00     0.004 C 
ENDBRANCH  16  17
ENDBRANCH  15  16
ENDBRANCH  14  15
ENDBRANCH  13  14
ENDBRANCH  12  13
ENDBRANCH  10  11
ENDBRANCH   1  10
TORSDOF 13
ENDMDL
MODEL 7
REMARK VINA RESULT:    -3.635     11.453     13.290
REMARK INTER + INTRA:          -8.672
REMARK INTER:                  -6.872
REMARK INTRA:                  -1.800
REMARK UNBOUND:                -2.274
REMARK SMILES CCCCCCC=CCCCCCCCC(=O)[O-]
REMARK SMILES IDX 10 1 11 2 12 3 13 4 14 5 15 6 16 7 17 8 18 9 9 10 8 11 7 12
REMARK SMILES IDX 6 13 5 14 4 15 3 16 2 17 1 18
REMARK H PARENT
REMARK Flexibility Score: inf
ROOT
ATOM      1  C   UNL     1      -4.383   0.803  17.095  1.00  0.00     0.004 C 
ENDROOT
BRANCH   1   2
ATOM      2  C   UNL     1      -4.814   1.816  18.175  1.00  0.00     0.000 C 
BRANCH   2   3
ATOM      3  C   UNL     1      -3.715   2.208  19.183  1.00  0.00     0.000 C 
BRANCH   3   4
ATOM      4  C   UNL     1      -3.965   1.749  20.631  1.00  0.00     0.000 C 
BRANCH   4   5
ATOM      5  C   UNL     1      -5.422   1.320  20.876  1.00  0.00     0.006 C 
BRANCH   5   6
ATOM      6  C   UNL     1      -6.196   2.351  21.708  1.00  0.00     0.053 C 
BRANCH   6   7
ATOM      7  C   UNL     1      -7.619   2.475  21.255  1.00  0.00     0.041 C 
ATOM      8  O   UNL     1      -7.880   2.909  20.102  1.00  0.00    -0.550 OA
ATOM      9  O   UNL     1      -8.656   2.146  22.118  1.00  0.00    -0.550 OA
ENDBRANCH   6   7
ENDBRANCH   5   6
ENDBRANCH   4   5
ENDBRANCH   3   4
ENDBRANCH   2   3
ENDBRANCH   1   2
BRANCH   1  10
ATOM     10  C   UNL     1      -2.883   0.835  16.757  1.00  0.00     0.027 C 
BRANCH  10  11
ATOM     11  C   UNL     1      -2.635   1.068  15.287  1.00  0.00    -0.031 C 
ATOM     12  C   UNL     1      -2.761   2.257  14.667  1.00  0.00    -0.031 C 
BRANCH  12  13
ATOM     13  C   UNL     1      -3.075   3.556  15.364  1.00  0.00     0.027 C 
BRANCH  13  14
ATOM     14  C   UNL     1      -1.799   4.385  15.567  1.00  0.00     0.004 C 
BRANCH  14  15
ATOM     15  C   UNL     1      -1.068   4.047  16.879  1.00  0.00     0.000 C 
BRANCH  15  16
ATOM     16  C   UNL     1       0.444   3.799  16.733  1.00  0.00    -0.000 C 
BRANCH  16  17
ATOM     17  C   UNL     1       0.782   2.327  16.452  1.00  0.00    -0.003 C 
ATOM     18  C   UNL     1       1.347   2.152  15.045  1.00  0.00     0.004 C 
ENDBRANCH  16  17
ENDBRANCH  15  16
ENDBRANCH  14  15
ENDBRANCH  13  14
ENDBRANCH  12  13
ENDBRANCH  10  11
ENDBRANCH   1  10
TORSDOF 13
ENDMDL
MODEL 8
REMARK VINA RESULT:    -3.626      4.280      6.170
REMARK INTER + INTRA:          -8.657
REMARK INTER:                  -6.232
REMARK INTRA:                  -2.425
REMARK UNBOUND:                -2.274
REMARK SMILES CCCCCCC=CCCCCCCCC(=O)[O-]
REMARK SMILES IDX 10 1 11 2 12 3 13 4 14 5 15 6 16 7 17 8 18 9 9 10 8 11 7 12
REMARK SMILES IDX 6 13 5 14 4 15 3 16 2 17 1 18
REMARK H PARENT
REMARK Flexibility Score: inf
ROOT
ATOM      1  C   UNL     1       6.042  -8.139  15.156  1.00  0.00     0.004 C 
ENDROOT
BRANCH   1   2
ATOM      2  C   UNL     1       5.731  -8.170  13.645  1.00  0.00     0.000 C 
BRANCH   2   3
ATOM      3  C   UNL     1       6.454  -7.100  12.803  1.00  0.00     0.000 C 
BRANCH   3   4
ATOM      4  C   UNL     1       5.531  -6.066  12.134  1.00  0.00     0.000 C 
BRANCH   4   5
ATOM      5  C   UNL     1       5.966  -5.720  10.699  1.00  0.00     0.006 C 
BRANCH   5   6
ATOM      6  C   UNL     1       6.172  -4.212  10.505  1.00  0.00     0.053 C 
BRANCH   6   7
ATOM      7  C   UNL     1       5.107  -3.614   9.636  1.00  0.00     0.041 C 
ATOM      8  O   UNL     1       4.070  -4.274   9.362  1.00  0.00    -0.550 OA
ATOM      9  O   UNL     1       5.277  -2.345   9.099  1.00  0.00    -0.550 OA
ENDBRANCH   6   7
ENDBRANCH   5   6
ENDBRANCH   4   5
ENDBRANCH   3   4
ENDBRANCH   2   3
ENDBRANCH   1   2
BRANCH   1  10
ATOM     10  C   UNL     1       6.841  -6.907  15.613  1.00  0.00     0.027 C 
BRANCH  10  11
ATOM     11  C   UNL     1       5.943  -5.792  16.090  1.00  0.00    -0.031 C 
ATOM     12  C   UNL     1       6.087  -4.495  15.756  1.00  0.00    -0.031 C 
BRANCH  12  13
ATOM     13  C   UNL     1       7.109  -3.972  14.779  1.00  0.00     0.027 C 
BRANCH  13  14
ATOM     14  C   UNL     1       6.509  -2.858  13.911  1.00  0.00     0.004 C 
BRANCH  14  15
ATOM     15  C   UNL     1       5.031  -2.575  14.238  1.00  0.00     0.000 C 
BRANCH  15  16
ATOM     16  C   UNL     1       4.145  -2.266  13.018  1.00  0.00    -0.000 C 
BRANCH  16  17
ATOM     17  C   UNL     1       3.052  -3.322  12.792  1.00  0.00    -0.003 C 
ATOM     18  C   UNL     1       2.855  -4.183  14.037  1.00  0.00     0.004 C 
ENDBRANCH  16  17
ENDBRANCH  15  16
ENDBRANCH  14  15
ENDBRANCH  13  14
ENDBRANCH  12  13
ENDBRANCH  10  11
ENDBRANCH   1  10
TORSDOF 13
ENDMDL
MODEL 9
REMARK VINA RESULT:    -3.588      2.964      5.939
REMARK INTER + INTRA:          -8.590
REMARK INTER:                  -6.441
REMARK INTRA:                  -2.149
REMARK UNBOUND:                -2.274
REMARK SMILES CCCCCCC=CCCCCCCCC(=O)[O-]
REMARK SMILES IDX 10 1 11 2 12 3 13 4 14 5 15 6 16 7 17 8 18 9 9 10 8 11 7 12
REMARK SMILES IDX 6 13 5 14 4 15 3 16 2 17 1 18
REMARK H PARENT
REMARK Flexibility Score: inf
ROOT
ATOM      1  C   UNL     1       5.284  -7.849  17.188  1.00  0.00     0.004 C 
ENDROOT
BRANCH   1   2
ATOM      2  C   UNL     1       6.675  -7.460  16.645  1.00  0.00     0.000 C 
BRANCH   2   3
ATOM      3  C   UNL     1       6.753  -7.277  15.116  1.00  0.00     0.000 C 
BRANCH   3   4
ATOM      4  C   UNL     1       5.499  -6.663  14.469  1.00  0.00     0.000 C 
BRANCH   4   5
ATOM      5  C   UNL     1       5.835  -5.611  13.398  1.00  0.00     0.006 C 
BRANCH   5   6
ATOM      6  C   UNL     1       6.483  -4.358  14.002  1.00  0.00     0.053 C 
BRANCH   6   7
ATOM      7  C   UNL     1       6.152  -3.128  13.214  1.00  0.00     0.041 C 
ATOM      8  O   UNL     1       6.713  -2.033  13.483  1.00  0.00    -0.550 OA
ATOM      9  O   UNL     1       5.197  -3.181  12.207  1.00  0.00    -0.550 OA
ENDBRANCH   6   7
ENDBRANCH   5   6
ENDBRANCH   4   5
ENDBRANCH   3   4
ENDBRANCH   2   3
ENDBRANCH   1   2
BRANCH   1  10
ATOM     10  C   UNL     1       5.163  -7.789  18.720  1.00  0.00     0.027 C 
BRANCH  10  11
ATOM     11  C   UNL     1       6.495  -7.543  19.387  1.00  0.00    -0.031 C 
ATOM     12  C   UNL     1       6.747  -6.537  20.245  1.00  0.00    -0.031 C 
BRANCH  12  13
ATOM     13  C   UNL     1       5.715  -5.558  20.744  1.00  0.00     0.027 C 
BRANCH  13  14
ATOM     14  C   UNL     1       5.957  -4.164  20.150  1.00  0.00     0.004 C 
BRANCH  14  15
ATOM     15  C   UNL     1       4.901  -3.769  19.102  1.00  0.00     0.000 C 
BRANCH  15  16
ATOM     16  C   UNL     1       5.218  -4.213  17.663  1.00  0.00    -0.000 C 
BRANCH  16  17
ATOM     17  C   UNL     1       3.957  -4.411  16.808  1.00  0.00    -0.003 C 
ATOM     18  C   UNL     1       3.608  -3.138  16.041  1.00  0.00     0.004 C 
ENDBRANCH  16  17
ENDBRANCH  15  16
ENDBRANCH  14  15
ENDBRANCH  13  14
ENDBRANCH  12  13
ENDBRANCH  10  11
ENDBRANCH   1  10
TORSDOF 13
ENDMDL
