MODEL 1
REMARK VINA RESULT:    -4.827      0.000      0.000
REMARK INTER + INTRA:          -8.183
REMARK INTER:                  -7.648
REMARK INTRA:                  -0.535
REMARK UNBOUND:                -0.535
REMARK SMILES CCCCCCCCCCCC(=O)[O-]
REMARK SMILES IDX 7 1 8 2 9 3 10 4 11 5 12 6 13 7 14 8 6 9 5 10 4 11 3 12 2 13
REMARK SMILES IDX 1 14
REMARK H PARENT
REMARK Flexibility Score: inf
ROOT
ATOM      1  C   UNL     1     -10.298  23.676 -26.505  1.00  0.00     0.000 C 
ENDROOT
BRANCH   1   2
ATOM      2  C   UNL     1      -9.284  24.828 -26.496  1.00  0.00     0.000 C 
BRANCH   2   3
ATOM      3  C   UNL     1      -9.531  25.786 -27.670  1.00  0.00     0.000 C 
BRANCH   3   4
ATOM      4  C   UNL     1      -8.330  25.812 -28.622  1.00  0.00     0.006 C 
BRANCH   4   5
ATOM      5  C   UNL     1      -7.014  25.892 -27.844  1.00  0.00     0.053 C 
BRANCH   5   6
ATOM      6  C   UNL     1      -6.722  27.306 -27.453  1.00  0.00     0.041 C 
ATOM      7  O   UNL     1      -6.188  28.094 -28.278  1.00  0.00    -0.550 OA
ATOM      8  O   UNL     1      -6.994  27.741 -26.163  1.00  0.00    -0.550 OA
ENDBRANCH   5   6
ENDBRANCH   4   5
ENDBRANCH   3   4
ENDBRANCH   2   3
ENDBRANCH   1   2
BRANCH   1   9
ATOM      9  C   UNL     1      -9.725  22.375 -25.918  1.00  0.00     0.000 C 
BRANCH   9  10
ATOM     10  C   UNL     1     -10.214  22.108 -24.484  1.00  0.00    -0.000 C 
BRANCH  10  11
ATOM     11  C   UNL     1      -9.276  22.702 -23.421  1.00  0.00    -0.000 C 
BRANCH  11  12
ATOM     12  C   UNL     1     -10.032  23.222 -22.186  1.00  0.00    -0.000 C 
BRANCH  12  13
ATOM     13  C   UNL     1      -9.365  22.801 -20.867  1.00  0.00    -0.003 C 
ATOM     14  C   UNL     1     -10.341  22.135 -19.899  1.00  0.00     0.004 C 
ENDBRANCH  12  13
ENDBRANCH  11  12
ENDBRANCH  10  11
ENDBRANCH   9  10
ENDBRANCH   1   9
TORSDOF 10
ENDMDL
MODEL 2
REMARK VINA RESULT:    -4.789      3.372      6.465
REMARK INTER + INTRA:          -8.123
REMARK INTER:                  -7.578
REMARK INTRA:                  -0.545
REMARK UNBOUND:                -0.535
REMARK SMILES CCCCCCCCCCCC(=O)[O-]
REMARK SMILES IDX 7 1 8 2 9 3 10 4 11 5 12 6 13 7 14 8 6 9 5 10 4 11 3 12 2 13
REMARK SMILES IDX 1 14
REMARK H PARENT
REMARK Flexibility Score: inf
ROOT
ATOM      1  C   UNL     1      -9.708  24.287 -26.147  1.00  0.00     0.000 C 
ENDROOT
BRANCH   1   2
ATOM      2  C   UNL     1      -9.712  22.770 -25.908  1.00  0.00     0.000 C 
BRANCH   2   3
ATOM      3  C   UNL     1     -10.388  22.427 -24.573  1.00  0.00     0.000 C 
BRANCH   3   4
ATOM      4  C   UNL     1      -9.442  22.683 -23.394  1.00  0.00     0.006 C 
BRANCH   4   5
ATOM      5  C   UNL     1     -10.201  23.259 -22.196  1.00  0.00     0.053 C 
BRANCH   5   6
ATOM      6  C   UNL     1      -9.577  22.806 -20.914  1.00  0.00     0.041 C 
ATOM      7  O   UNL     1      -8.351  22.997 -20.704  1.00  0.00    -0.550 OA
ATOM      8  O   UNL     1     -10.340  22.130 -19.970  1.00  0.00    -0.550 OA
ENDBRANCH   5   6
ENDBRANCH   4   5
ENDBRANCH   3   4
ENDBRANCH   2   3
ENDBRANCH   1   2
BRANCH   1   9
ATOM      9  C   UNL     1      -8.914  24.688 -27.402  1.00  0.00     0.000 C 
BRANCH   9  10
ATOM     10  C   UNL     1      -8.821  26.213 -27.579  1.00  0.00    -0.000 C 
BRANCH  10  11
ATOM     11  C   UNL     1      -7.369  26.717 -27.599  1.00  0.00    -0.000 C 
BRANCH  11  12
ATOM     12  C   UNL     1      -7.104  27.805 -26.544  1.00  0.00    -0.000 C 
BRANCH  12  13
ATOM     13  C   UNL     1      -8.087  27.734 -25.365  1.00  0.00    -0.003 C 
ATOM     14  C   UNL     1      -7.452  28.156 -24.041  1.00  0.00     0.004 C 
ENDBRANCH  12  13
ENDBRANCH  11  12
ENDBRANCH  10  11
ENDBRANCH   9  10
ENDBRANCH   1   9
TORSDOF 10
ENDMDL
MODEL 3
REMARK VINA RESULT:    -4.592      8.308      9.650
REMARK INTER + INTRA:          -7.811
REMARK INTER:                  -6.667
REMARK INTRA:                  -1.144
REMARK UNBOUND:                -0.535
REMARK SMILES CCCCCCCCCCCC(=O)[O-]
REMARK SMILES IDX 7 1 8 2 9 3 10 4 11 5 12 6 13 7 14 8 6 9 5 10 4 11 3 12 2 13
REMARK SMILES IDX 1 14
REMARK H PARENT
REMARK Flexibility Score: inf
ROOT
ATOM      1  C   UNL     1      -6.495  28.118 -18.867  1.00  0.00     0.000 C 
ENDROOT
BRANCH   1   2
ATOM      2  C   UNL     1      -6.306  29.642 -18.840  1.00  0.00     0.000 C 
BRANCH   2   3
ATOM      3  C   UNL     1      -6.237  30.211 -20.263  1.00  0.00     0.000 C 
BRANCH   3   4
ATOM      4  C   UNL     1      -5.863  31.698 -20.245  1.00  0.00     0.006 C 
BRANCH   4   5
ATOM      5  C   UNL     1      -6.860  32.505 -19.410  1.00  0.00     0.053 C 
BRANCH   5   6
ATOM      6  C   UNL     1      -6.378  33.911 -19.234  1.00  0.00     0.041 C 
ATOM      7  O   UNL     1      -6.288  34.410 -18.082  1.00  0.00    -0.550 OA
ATOM      8  O   UNL     1      -6.075  34.686 -20.346  1.00  0.00    -0.550 OA
ENDBRANCH   5   6
ENDBRANCH   4   5
ENDBRANCH   3   4
ENDBRANCH   2   3
ENDBRANCH   1   2
BRANCH   1   9
ATOM      9  C   UNL     1      -5.964  27.476 -20.159  1.00  0.00     0.000 C 
BRANCH   9  10
ATOM     10  C   UNL     1      -5.106  26.228 -19.888  1.00  0.00    -0.000 C 
BRANCH  10  11
ATOM     11  C   UNL     1      -3.621  26.449 -20.220  1.00  0.00    -0.000 C 
BRANCH  11  12
ATOM     12  C   UNL     1      -3.309  27.907 -20.603  1.00  0.00    -0.000 C 
BRANCH  12  13
ATOM     13  C   UNL     1      -2.681  28.697 -19.444  1.00  0.00    -0.003 C 
ATOM     14  C   UNL     1      -2.485  30.175 -19.777  1.00  0.00     0.004 C 
ENDBRANCH  12  13
ENDBRANCH  11  12
ENDBRANCH  10  11
ENDBRANCH   9  10
ENDBRANCH   1   9
TORSDOF 10
ENDMDL
MODEL 4
REMARK VINA RESULT:    -4.571      7.852     10.159
REMARK INTER + INTRA:          -7.778
REMARK INTER:                  -6.345
REMARK INTRA:                  -1.432
REMARK UNBOUND:                -0.535
REMARK SMILES CCCCCCCCCCCC(=O)[O-]
REMARK SMILES IDX 7 1 8 2 9 3 10 4 11 5 12 6 13 7 14 8 6 9 5 10 4 11 3 12 2 13
REMARK SMILES IDX 1 14
REMARK H PARENT
REMARK Flexibility Score: inf
ROOT
ATOM      1  C   UNL     1      -7.009  31.832 -18.278  1.00  0.00     0.000 C 
ENDROOT
BRANCH   1   2
ATOM      2  C   UNL     1      -6.783  30.375 -17.850  1.00  0.00     0.000 C 
BRANCH   2   3
ATOM      3  C   UNL     1      -6.621  29.462 -19.073  1.00  0.00     0.000 C 
BRANCH   3   4
ATOM      4  C   UNL     1      -5.865  28.179 -18.708  1.00  0.00     0.006 C 
BRANCH   4   5
ATOM      5  C   UNL     1      -5.761  27.242 -19.914  1.00  0.00     0.053 C 
BRANCH   5   6
ATOM      6  C   UNL     1      -4.447  26.525 -19.908  1.00  0.00     0.041 C 
ATOM      7  O   UNL     1      -4.354  25.371 -20.400  1.00  0.00    -0.550 OA
ATOM      8  O   UNL     1      -3.337  27.114 -19.316  1.00  0.00    -0.550 OA
ENDBRANCH   5   6
ENDBRANCH   4   5
ENDBRANCH   3   4
ENDBRANCH   2   3
ENDBRANCH   1   2
BRANCH   1   9
ATOM      9  C   UNL     1      -6.728  32.063 -19.772  1.00  0.00     0.000 C 
BRANCH   9  10
ATOM     10  C   UNL     1      -5.544  33.017 -20.009  1.00  0.00    -0.000 C 
BRANCH  10  11
ATOM     11  C   UNL     1      -4.506  32.437 -20.984  1.00  0.00    -0.000 C 
BRANCH  11  12
ATOM     12  C   UNL     1      -3.628  31.350 -20.339  1.00  0.00    -0.000 C 
BRANCH  12  13
ATOM     13  C   UNL     1      -3.623  30.043 -21.146  1.00  0.00    -0.003 C 
ATOM     14  C   UNL     1      -4.723  30.000 -22.206  1.00  0.00     0.004 C 
ENDBRANCH  12  13
ENDBRANCH  11  12
ENDBRANCH  10  11
ENDBRANCH   9  10
ENDBRANCH   1   9
TORSDOF 10
ENDMDL
MODEL 5
REMARK VINA RESULT:    -4.548      3.646      5.085
REMARK INTER + INTRA:          -7.741
REMARK INTER:                  -7.314
REMARK INTRA:                  -0.427
REMARK UNBOUND:                -0.535
REMARK SMILES CCCCCCCCCCCC(=O)[O-]
REMARK SMILES IDX 7 1 8 2 9 3 10 4 11 5 12 6 13 7 14 8 6 9 5 10 4 11 3 12 2 13
REMARK SMILES IDX 1 14
REMARK H PARENT
REMARK Flexibility Score: inf
ROOT
ATOM      1  C   UNL     1      -8.628  27.290 -26.204  1.00  0.00     0.000 C 
ENDROOT
BRANCH   1   2
ATOM      2  C   UNL     1      -7.335  27.827 -25.573  1.00  0.00     0.000 C 
BRANCH   2   3
ATOM      3  C   UNL     1      -7.553  28.190 -24.098  1.00  0.00     0.000 C 
BRANCH   3   4
ATOM      4  C   UNL     1      -6.271  28.751 -23.473  1.00  0.00     0.006 C 
BRANCH   4   5
ATOM      5  C   UNL     1      -6.473  29.054 -21.986  1.00  0.00     0.053 C 
BRANCH   5   6
ATOM      6  C   UNL     1      -5.556  28.215 -21.151  1.00  0.00     0.041 C 
ATOM      7  O   UNL     1      -4.324  28.469 -21.114  1.00  0.00    -0.550 OA
ATOM      8  O   UNL     1      -6.056  27.124 -20.453  1.00  0.00    -0.550 OA
ENDBRANCH   5   6
ENDBRANCH   4   5
ENDBRANCH   3   4
ENDBRANCH   2   3
ENDBRANCH   1   2
BRANCH   1   9
ATOM      9  C   UNL     1      -8.374  26.499 -27.497  1.00  0.00     0.000 C 
BRANCH   9  10
ATOM     10  C   UNL     1      -9.026  25.105 -27.475  1.00  0.00    -0.000 C 
BRANCH  10  11
ATOM     11  C   UNL     1      -9.386  24.645 -26.053  1.00  0.00    -0.000 C 
BRANCH  11  12
ATOM     12  C   UNL     1      -9.678  23.137 -25.972  1.00  0.00    -0.000 C 
BRANCH  12  13
ATOM     13  C   UNL     1     -10.417  22.748 -24.682  1.00  0.00    -0.003 C 
ATOM     14  C   UNL     1      -9.566  22.957 -23.430  1.00  0.00     0.004 C 
ENDBRANCH  12  13
ENDBRANCH  11  12
ENDBRANCH  10  11
ENDBRANCH   9  10
ENDBRANCH   1   9
TORSDOF 10
ENDMDL
MODEL 6
REMARK VINA RESULT:    -4.546      8.252      9.601
REMARK INTER + INTRA:          -7.739
REMARK INTER:                  -6.518
REMARK INTRA:                  -1.220
REMARK UNBOUND:                -0.535
REMARK SMILES CCCCCCCCCCCC(=O)[O-]
REMARK SMILES IDX 7 1 8 2 9 3 10 4 11 5 12 6 13 7 14 8 6 9 5 10 4 11 3 12 2 13
REMARK SMILES IDX 1 14
REMARK H PARENT
REMARK Flexibility Score: inf
ROOT
ATOM      1  C   UNL     1      -2.914  30.315 -19.931  1.00  0.00     0.000 C 
ENDROOT
BRANCH   1   2
ATOM      2  C   UNL     1      -3.609  30.462 -21.291  1.00  0.00     0.000 C 
BRANCH   2   3
ATOM      3  C   UNL     1      -4.945  31.204 -21.148  1.00  0.00     0.000 C 
BRANCH   3   4
ATOM      4  C   UNL     1      -5.332  31.362 -19.673  1.00  0.00     0.006 C 
BRANCH   4   5
ATOM      5  C   UNL     1      -6.739  31.949 -19.534  1.00  0.00     0.053 C 
BRANCH   5   6
ATOM      6  C   UNL     1      -6.675  33.335 -18.971  1.00  0.00     0.041 C 
ATOM      7  O   UNL     1      -6.396  34.309 -19.718  1.00  0.00    -0.550 OA
ATOM      8  O   UNL     1      -6.875  33.543 -17.613  1.00  0.00    -0.550 OA
ENDBRANCH   5   6
ENDBRANCH   4   5
ENDBRANCH   3   4
ENDBRANCH   2   3
ENDBRANCH   1   2
BRANCH   1   9
ATOM      9  C   UNL     1      -2.671  28.847 -19.542  1.00  0.00     0.000 C 
BRANCH   9  10
ATOM     10  C   UNL     1      -3.212  27.862 -20.593  1.00  0.00    -0.000 C 
BRANCH  10  11
ATOM     11  C   UNL     1      -3.601  26.505 -19.984  1.00  0.00    -0.000 C 
BRANCH  11  12
ATOM     12  C   UNL     1      -5.119  26.256 -20.007  1.00  0.00    -0.000 C 
BRANCH  12  13
ATOM     13  C   UNL     1      -5.926  27.557 -20.150  1.00  0.00    -0.003 C 
ATOM     14  C   UNL     1      -6.497  28.045 -18.819  1.00  0.00     0.004 C 
ENDBRANCH  12  13
ENDBRANCH  11  12
ENDBRANCH  10  11
ENDBRANCH   9  10
ENDBRANCH   1   9
TORSDOF 10
ENDMDL
MODEL 7
REMARK VINA RESULT:    -4.525      8.169      9.801
REMARK INTER + INTRA:          -7.705
REMARK INTER:                  -6.590
REMARK INTRA:                  -1.115
REMARK UNBOUND:                -0.535
REMARK SMILES CCCCCCCCCCCC(=O)[O-]
REMARK SMILES IDX 7 1 8 2 9 3 10 4 11 5 12 6 13 7 14 8 6 9 5 10 4 11 3 12 2 13
REMARK SMILES IDX 1 14
REMARK H PARENT
REMARK Flexibility Score: inf
ROOT
ATOM      1  C   UNL     1      -3.694  32.156 -20.405  1.00  0.00     0.000 C 
ENDROOT
BRANCH   1   2
ATOM      2  C   UNL     1      -3.783  30.625 -20.483  1.00  0.00     0.000 C 
BRANCH   2   3
ATOM      3  C   UNL     1      -2.661  29.967 -19.668  1.00  0.00     0.000 C 
BRANCH   3   4
ATOM      4  C   UNL     1      -2.890  28.458 -19.532  1.00  0.00     0.006 C 
BRANCH   4   5
ATOM      5  C   UNL     1      -3.484  27.875 -20.817  1.00  0.00     0.053 C 
BRANCH   5   6
ATOM      6  C   UNL     1      -4.667  27.014 -20.504  1.00  0.00     0.041 C 
ATOM      7  O   UNL     1      -4.508  25.900 -19.939  1.00  0.00    -0.550 OA
ATOM      8  O   UNL     1      -5.941  27.420 -20.879  1.00  0.00    -0.550 OA
ENDBRANCH   5   6
ENDBRANCH   4   5
ENDBRANCH   3   4
ENDBRANCH   2   3
ENDBRANCH   1   2
BRANCH   1   9
ATOM      9  C   UNL     1      -5.074  32.829 -20.345  1.00  0.00     0.000 C 
BRANCH   9  10
ATOM     10  C   UNL     1      -6.191  31.852 -19.938  1.00  0.00    -0.000 C 
BRANCH  10  11
ATOM     11  C   UNL     1      -6.783  32.175 -18.556  1.00  0.00    -0.000 C 
BRANCH  11  12
ATOM     12  C   UNL     1      -6.971  30.922 -17.683  1.00  0.00    -0.000 C 
BRANCH  12  13
ATOM     13  C   UNL     1      -6.642  29.624 -18.438  1.00  0.00    -0.003 C 
ATOM     14  C   UNL     1      -6.758  28.383 -17.554  1.00  0.00     0.004 C 
ENDBRANCH  12  13
ENDBRANCH  11  12
ENDBRANCH  10  11
ENDBRANCH   9  10
ENDBRANCH   1   9
TORSDOF 10
ENDMDL
MODEL 8
REMARK VINA RESULT:    -4.474      8.009      9.336
REMARK INTER + INTRA:          -7.624
REMARK INTER:                  -6.527
REMARK INTRA:                  -1.097
REMARK UNBOUND:                -0.535
REMARK SMILES CCCCCCCCCCCC(=O)[O-]
REMARK SMILES IDX 7 1 8 2 9 3 10 4 11 5 12 6 13 7 14 8 6 9 5 10 4 11 3 12 2 13
REMARK SMILES IDX 1 14
REMARK H PARENT
REMARK Flexibility Score: inf
ROOT
ATOM      1  C   UNL     1      -4.403  27.439 -20.583  1.00  0.00     0.000 C 
ENDROOT
BRANCH   1   2
ATOM      2  C   UNL     1      -3.350  27.460 -19.466  1.00  0.00     0.000 C 
BRANCH   2   3
ATOM      3  C   UNL     1      -2.723  28.854 -19.329  1.00  0.00     0.000 C 
BRANCH   3   4
ATOM      4  C   UNL     1      -3.230  29.797 -20.426  1.00  0.00     0.006 C 
BRANCH   4   5
ATOM      5  C   UNL     1      -2.921  31.256 -20.083  1.00  0.00     0.053 C 
BRANCH   5   6
ATOM      6  C   UNL     1      -2.931  32.099 -21.319  1.00  0.00     0.041 C 
ATOM      7  O   UNL     1      -4.017  32.355 -21.901  1.00  0.00    -0.550 OA
ATOM      8  O   UNL     1      -1.736  32.560 -21.856  1.00  0.00    -0.550 OA
ENDBRANCH   5   6
ENDBRANCH   4   5
ENDBRANCH   3   4
ENDBRANCH   2   3
ENDBRANCH   1   2
BRANCH   1   9
ATOM      9  C   UNL     1      -5.799  27.041 -20.075  1.00  0.00     0.000 C 
BRANCH   9  10
ATOM     10  C   UNL     1      -6.239  27.865 -18.852  1.00  0.00    -0.000 C 
BRANCH  10  11
ATOM     11  C   UNL     1      -6.610  29.311 -19.218  1.00  0.00    -0.000 C 
BRANCH  11  12
ATOM     12  C   UNL     1      -6.931  30.172 -17.983  1.00  0.00    -0.000 C 
BRANCH  12  13
ATOM     13  C   UNL     1      -6.911  31.677 -18.294  1.00  0.00    -0.003 C 
ATOM     14  C   UNL     1      -6.805  31.968 -19.790  1.00  0.00     0.004 C 
ENDBRANCH  12  13
ENDBRANCH  11  12
ENDBRANCH  10  11
ENDBRANCH   9  10
ENDBRANCH   1   9
TORSDOF 10
ENDMDL
MODEL 9
REMARK VINA RESULT:    -4.414      8.752     10.557
REMARK INTER + INTRA:          -7.530
REMARK INTER:                  -6.804
REMARK INTRA:                  -0.726
REMARK UNBOUND:                -0.535
REMARK SMILES CCCCCCCCCCCC(=O)[O-]
REMARK SMILES IDX 7 1 8 2 9 3 10 4 11 5 12 6 13 7 14 8 6 9 5 10 4 11 3 12 2 13
REMARK SMILES IDX 1 14
REMARK H PARENT
REMARK Flexibility Score: inf
ROOT
ATOM      1  C   UNL     1      -6.600  29.560 -18.282  1.00  0.00     0.000 C 
ENDROOT
BRANCH   1   2
ATOM      2  C   UNL     1      -6.464  28.084 -18.680  1.00  0.00     0.000 C 
BRANCH   2   3
ATOM      3  C   UNL     1      -5.938  27.948 -20.114  1.00  0.00     0.000 C 
BRANCH   3   4
ATOM      4  C   UNL     1      -4.760  26.969 -20.180  1.00  0.00     0.006 C 
BRANCH   4   5
ATOM      5  C   UNL     1      -3.477  27.681 -20.617  1.00  0.00     0.053 C 
BRANCH   5   6
ATOM      6  C   UNL     1      -2.837  28.368 -19.451  1.00  0.00     0.041 C 
ATOM      7  O   UNL     1      -2.781  27.796 -18.331  1.00  0.00    -0.550 OA
ATOM      8  O   UNL     1      -2.346  29.660 -19.591  1.00  0.00    -0.550 OA
ENDBRANCH   5   6
ENDBRANCH   4   5
ENDBRANCH   3   4
ENDBRANCH   2   3
ENDBRANCH   1   2
BRANCH   1   9
ATOM      9  C   UNL     1      -5.879  30.507 -19.255  1.00  0.00     0.000 C 
BRANCH   9  10
ATOM     10  C   UNL     1      -6.819  31.570 -19.851  1.00  0.00    -0.000 C 
BRANCH  10  11
ATOM     11  C   UNL     1      -6.609  32.959 -19.226  1.00  0.00    -0.000 C 
BRANCH  11  12
ATOM     12  C   UNL     1      -5.777  33.893 -20.122  1.00  0.00    -0.000 C 
BRANCH  12  13
ATOM     13  C   UNL     1      -6.263  35.350 -20.064  1.00  0.00    -0.003 C 
ATOM     14  C   UNL     1      -7.005  35.672 -18.767  1.00  0.00     0.004 C 
ENDBRANCH  12  13
ENDBRANCH  11  12
ENDBRANCH  10  11
ENDBRANCH   9  10
ENDBRANCH   1   9
TORSDOF 10
ENDMDL
