MODEL 1
REMARK VINA RESULT:    -4.069      0.000      0.000
REMARK INTER + INTRA:          -5.601
REMARK INTER:                  -5.497
REMARK INTRA:                  -0.104
REMARK UNBOUND:                -0.104
REMARK SMILES O=C[C@@H](O)[C@H](O)[C@H](O)CO
REMARK SMILES IDX 7 1 9 2 10 3 5 5 3 6 2 7 1 8 4 9 6 11 8 13
REMARK H PARENT 10 4 4 10 6 12 8 14
REMARK Flexibility Score: inf
ROOT
ATOM      1  C   UNL     1      -7.306  -6.428   3.602  1.00  0.00     0.171 C 
ENDROOT
BRANCH   1   2
ATOM      2  C   UNL     1      -8.742  -6.005   3.971  1.00  0.00     0.190 C 
BRANCH   2   3
ATOM      3  O   UNL     1      -9.017  -4.701   3.531  1.00  0.00    -0.394 OA
ATOM      4  H   UNL     1      -8.158  -4.315   3.218  1.00  0.00     0.210 HD
ENDBRANCH   2   3
ENDBRANCH   1   2
BRANCH   1   5
ATOM      5  C   UNL     1      -6.706  -7.463   4.600  1.00  0.00     0.181 C 
BRANCH   5   6
ATOM      6  C   UNL     1      -5.429  -6.939   5.311  1.00  0.00     0.209 C 
BRANCH   6   7
ATOM      7  C   UNL     1      -5.577  -6.949   6.807  1.00  0.00     0.258 C 
ATOM      8  O   UNL     1      -4.847  -6.269   7.510  1.00  0.00    -0.300 OA
ENDBRANCH   6   7
BRANCH   6   9
ATOM      9  O   UNL     1      -4.326  -7.743   4.975  1.00  0.00    -0.383 OA
ATOM     10  H   UNL     1      -4.348  -7.872   3.991  1.00  0.00     0.211 HD
ENDBRANCH   6   9
ENDBRANCH   5   6
BRANCH   5  11
ATOM     11  O   UNL     1      -6.417  -8.669   3.932  1.00  0.00    -0.387 OA
ATOM     12  H   UNL     1      -6.900  -8.653   3.065  1.00  0.00     0.211 HD
ENDBRANCH   5  11
ENDBRANCH   1   5
BRANCH   1  13
ATOM     13  O   UNL     1      -6.487  -5.291   3.481  1.00  0.00    -0.388 OA
ATOM     14  H   UNL     1      -7.002  -4.599   2.989  1.00  0.00     0.211 HD
ENDBRANCH   1  13
TORSDOF 8
ENDMDL
MODEL 2
REMARK VINA RESULT:    -3.876      1.531      4.465
REMARK INTER + INTRA:          -5.339
REMARK INTER:                  -4.816
REMARK INTRA:                  -0.523
REMARK UNBOUND:                -0.104
REMARK SMILES O=C[C@@H](O)[C@H](O)[C@H](O)CO
REMARK SMILES IDX 7 1 9 2 10 3 5 5 3 6 2 7 1 8 4 9 6 11 8 13
REMARK H PARENT 10 4 4 10 6 12 8 14
REMARK Flexibility Score: inf
ROOT
ATOM      1  C   UNL     1      -6.432  -7.718   4.683  1.00  0.00     0.171 C 
ENDROOT
BRANCH   1   2
ATOM      2  C   UNL     1      -5.216  -7.127   5.423  1.00  0.00     0.190 C 
BRANCH   2   3
ATOM      3  O   UNL     1      -4.011  -7.585   4.870  1.00  0.00    -0.394 OA
ATOM      4  H   UNL     1      -3.770  -8.417   5.354  1.00  0.00     0.210 HD
ENDBRANCH   2   3
ENDBRANCH   1   2
BRANCH   1   5
ATOM      5  C   UNL     1      -7.421  -6.625   4.177  1.00  0.00     0.181 C 
BRANCH   5   6
ATOM      6  C   UNL     1      -8.483  -7.186   3.193  1.00  0.00     0.209 C 
BRANCH   6   7
ATOM      7  C   UNL     1      -8.681  -6.282   2.008  1.00  0.00     0.258 C 
ATOM      8  O   UNL     1      -7.920  -6.328   1.055  1.00  0.00    -0.300 OA
ENDBRANCH   6   7
BRANCH   6   9
ATOM      9  O   UNL     1      -8.083  -8.447   2.720  1.00  0.00    -0.383 OA
ATOM     10  H   UNL     1      -8.909  -8.973   2.556  1.00  0.00     0.211 HD
ENDBRANCH   6   9
ENDBRANCH   5   6
BRANCH   5  11
ATOM     11  O   UNL     1      -6.711  -5.575   3.562  1.00  0.00    -0.387 OA
ATOM     12  H   UNL     1      -6.972  -5.561   2.604  1.00  0.00     0.211 HD
ENDBRANCH   5  11
ENDBRANCH   1   5
BRANCH   1  13
ATOM     13  O   UNL     1      -7.079  -8.662   5.500  1.00  0.00    -0.388 OA
ATOM     14  H   UNL     1      -6.517  -9.479   5.520  1.00  0.00     0.211 HD
ENDBRANCH   1  13
TORSDOF 8
ENDMDL
MODEL 3
REMARK VINA RESULT:    -3.786      1.650      4.178
REMARK INTER + INTRA:          -5.218
REMARK INTER:                  -4.699
REMARK INTRA:                  -0.519
REMARK UNBOUND:                -0.104
REMARK SMILES O=C[C@@H](O)[C@H](O)[C@H](O)CO
REMARK SMILES IDX 7 1 9 2 10 3 5 5 3 6 2 7 1 8 4 9 6 11 8 13
REMARK H PARENT 10 4 4 10 6 12 8 14
REMARK Flexibility Score: inf
ROOT
ATOM      1  C   UNL     1      -6.563  -6.805   4.585  1.00  0.00     0.171 C 
ENDROOT
BRANCH   1   2
ATOM      2  C   UNL     1      -5.436  -7.154   5.578  1.00  0.00     0.190 C 
BRANCH   2   3
ATOM      3  O   UNL     1      -4.345  -7.747   4.922  1.00  0.00    -0.394 OA
ATOM      4  H   UNL     1      -3.602  -7.089   4.948  1.00  0.00     0.210 HD
ENDBRANCH   2   3
ENDBRANCH   1   2
BRANCH   1   5
ATOM      5  C   UNL     1      -6.936  -7.995   3.652  1.00  0.00     0.181 C 
BRANCH   5   6
ATOM      6  C   UNL     1      -8.367  -7.871   3.064  1.00  0.00     0.209 C 
BRANCH   6   7
ATOM      7  C   UNL     1      -8.348  -7.369   1.647  1.00  0.00     0.258 C 
ATOM      8  O   UNL     1      -7.771  -6.332   1.360  1.00  0.00    -0.300 OA
ENDBRANCH   6   7
BRANCH   6   9
ATOM      9  O   UNL     1      -9.004  -9.124   3.077  1.00  0.00    -0.383 OA
ATOM     10  H   UNL     1      -9.967  -8.960   3.255  1.00  0.00     0.211 HD
ENDBRANCH   6   9
ENDBRANCH   5   6
BRANCH   5  11
ATOM     11  O   UNL     1      -6.812  -9.214   4.348  1.00  0.00    -0.387 OA
ATOM     12  H   UNL     1      -7.116  -9.937   3.738  1.00  0.00     0.211 HD
ENDBRANCH   5  11
ENDBRANCH   1   5
BRANCH   1  13
ATOM     13  O   UNL     1      -6.214  -5.659   3.847  1.00  0.00    -0.388 OA
ATOM     14  H   UNL     1      -6.460  -4.865   4.390  1.00  0.00     0.211 HD
ENDBRANCH   1  13
TORSDOF 8
ENDMDL
MODEL 4
REMARK VINA RESULT:    -3.619     13.865     15.097
REMARK INTER + INTRA:          -4.992
REMARK INTER:                  -4.319
REMARK INTRA:                  -0.674
REMARK UNBOUND:                -0.104
REMARK SMILES O=C[C@@H](O)[C@H](O)[C@H](O)CO
REMARK SMILES IDX 7 1 9 2 10 3 5 5 3 6 2 7 1 8 4 9 6 11 8 13
REMARK H PARENT 10 4 4 10 6 12 8 14
REMARK Flexibility Score: inf
ROOT
ATOM      1  C   UNL     1       5.123  -3.601  -0.986  1.00  0.00     0.171 C 
ENDROOT
BRANCH   1   2
ATOM      2  C   UNL     1       5.462  -3.012   0.398  1.00  0.00     0.190 C 
BRANCH   2   3
ATOM      3  O   UNL     1       6.546  -3.684   0.986  1.00  0.00    -0.394 OA
ATOM      4  H   UNL     1       7.307  -3.048   0.997  1.00  0.00     0.210 HD
ENDBRANCH   2   3
ENDBRANCH   1   2
BRANCH   1   5
ATOM      5  C   UNL     1       6.270  -3.407  -2.022  1.00  0.00     0.181 C 
BRANCH   5   6
ATOM      6  C   UNL     1       6.808  -4.752  -2.581  1.00  0.00     0.209 C 
BRANCH   6   7
ATOM      7  C   UNL     1       8.024  -4.554  -3.443  1.00  0.00     0.258 C 
ATOM      8  O   UNL     1       8.173  -3.526  -4.083  1.00  0.00    -0.300 OA
ENDBRANCH   6   7
BRANCH   6   9
ATOM      9  O   UNL     1       7.156  -5.609  -1.522  1.00  0.00    -0.383 OA
ATOM     10  H   UNL     1       8.122  -5.471  -1.339  1.00  0.00     0.211 HD
ENDBRANCH   6   9
ENDBRANCH   5   6
BRANCH   5  11
ATOM     11  O   UNL     1       7.326  -2.676  -1.445  1.00  0.00    -0.387 OA
ATOM     12  H   UNL     1       7.231  -1.732  -1.740  1.00  0.00     0.211 HD
ENDBRANCH   5  11
ENDBRANCH   1   5
BRANCH   1  13
ATOM     13  O   UNL     1       3.909  -3.064  -1.451  1.00  0.00    -0.388 OA
ATOM     14  H   UNL     1       3.399  -2.744  -0.662  1.00  0.00     0.211 HD
ENDBRANCH   1  13
TORSDOF 8
ENDMDL
MODEL 5
REMARK VINA RESULT:    -3.573      1.754      2.564
REMARK INTER + INTRA:          -4.931
REMARK INTER:                  -4.218
REMARK INTRA:                  -0.713
REMARK UNBOUND:                -0.104
REMARK SMILES O=C[C@@H](O)[C@H](O)[C@H](O)CO
REMARK SMILES IDX 7 1 9 2 10 3 5 5 3 6 2 7 1 8 4 9 6 11 8 13
REMARK H PARENT 10 4 4 10 6 12 8 14
REMARK Flexibility Score: inf
ROOT
ATOM      1  C   UNL     1      -8.667  -6.816   3.468  1.00  0.00     0.171 C 
ENDROOT
BRANCH   1   2
ATOM      2  C   UNL     1      -8.988  -6.220   2.082  1.00  0.00     0.190 C 
BRANCH   2   3
ATOM      3  O   UNL     1      -7.892  -6.332   1.213  1.00  0.00    -0.394 OA
ATOM      4  H   UNL     1      -7.516  -5.420   1.106  1.00  0.00     0.210 HD
ENDBRANCH   2   3
ENDBRANCH   1   2
BRANCH   1   5
ATOM      5  C   UNL     1      -7.137  -6.906   3.746  1.00  0.00     0.181 C 
BRANCH   5   6
ATOM      6  C   UNL     1      -6.812  -7.630   5.081  1.00  0.00     0.209 C 
BRANCH   6   7
ATOM      7  C   UNL     1      -5.507  -7.166   5.666  1.00  0.00     0.258 C 
ATOM      8  O   UNL     1      -4.479  -7.206   5.009  1.00  0.00    -0.300 OA
ENDBRANCH   6   7
BRANCH   6   9
ATOM      9  O   UNL     1      -7.827  -7.384   6.022  1.00  0.00    -0.383 OA
ATOM     10  H   UNL     1      -8.179  -6.474   5.841  1.00  0.00     0.211 HD
ENDBRANCH   6   9
ENDBRANCH   5   6
BRANCH   5  11
ATOM     11  O   UNL     1      -6.569  -5.617   3.754  1.00  0.00    -0.387 OA
ATOM     12  H   UNL     1      -5.701  -5.677   4.234  1.00  0.00     0.211 HD
ENDBRANCH   5  11
ENDBRANCH   1   5
BRANCH   1  13
ATOM     13  O   UNL     1      -9.293  -8.068   3.608  1.00  0.00    -0.388 OA
ATOM     14  H   UNL     1      -9.000  -8.638   2.850  1.00  0.00     0.211 HD
ENDBRANCH   1  13
TORSDOF 8
ENDMDL
MODEL 6
REMARK VINA RESULT:    -3.502     13.644     14.873
REMARK INTER + INTRA:          -4.835
REMARK INTER:                  -4.355
REMARK INTRA:                  -0.480
REMARK UNBOUND:                -0.104
REMARK SMILES O=C[C@@H](O)[C@H](O)[C@H](O)CO
REMARK SMILES IDX 7 1 9 2 10 3 5 5 3 6 2 7 1 8 4 9 6 11 8 13
REMARK H PARENT 10 4 4 10 6 12 8 14
REMARK Flexibility Score: inf
ROOT
ATOM      1  C   UNL     1       5.317  -3.325  -0.852  1.00  0.00     0.171 C 
ENDROOT
BRANCH   1   2
ATOM      2  C   UNL     1       5.348  -3.247   0.687  1.00  0.00     0.190 C 
BRANCH   2   3
ATOM      3  O   UNL     1       6.615  -3.586   1.189  1.00  0.00    -0.394 OA
ATOM      4  H   UNL     1       6.830  -2.924   1.896  1.00  0.00     0.210 HD
ENDBRANCH   2   3
ENDBRANCH   1   2
BRANCH   1   5
ATOM      5  C   UNL     1       6.222  -2.253  -1.530  1.00  0.00     0.181 C 
BRANCH   5   6
ATOM      6  C   UNL     1       5.825  -1.979  -3.006  1.00  0.00     0.209 C 
BRANCH   6   7
ATOM      7  C   UNL     1       5.081  -0.681  -3.154  1.00  0.00     0.258 C 
ATOM      8  O   UNL     1       3.974  -0.537  -2.660  1.00  0.00    -0.300 OA
ENDBRANCH   6   7
BRANCH   6   9
ATOM      9  O   UNL     1       6.975  -1.920  -3.811  1.00  0.00    -0.383 OA
ATOM     10  H   UNL     1       7.749  -1.777  -3.206  1.00  0.00     0.211 HD
ENDBRANCH   6   9
ENDBRANCH   5   6
BRANCH   5  11
ATOM     11  O   UNL     1       7.572  -2.649  -1.467  1.00  0.00    -0.387 OA
ATOM     12  H   UNL     1       8.051  -2.194  -2.210  1.00  0.00     0.211 HD
ENDBRANCH   5  11
ENDBRANCH   1   5
BRANCH   1  13
ATOM     13  O   UNL     1       3.989  -3.245  -1.310  1.00  0.00    -0.388 OA
ATOM     14  H   UNL     1       3.560  -4.125  -1.146  1.00  0.00     0.211 HD
ENDBRANCH   1  13
TORSDOF 8
ENDMDL
MODEL 7
REMARK VINA RESULT:    -3.415     13.920     15.024
REMARK INTER + INTRA:          -4.717
REMARK INTER:                  -3.954
REMARK INTRA:                  -0.763
REMARK UNBOUND:                -0.104
REMARK SMILES O=C[C@@H](O)[C@H](O)[C@H](O)CO
REMARK SMILES IDX 7 1 9 2 10 3 5 5 3 6 2 7 1 8 4 9 6 11 8 13
REMARK H PARENT 10 4 4 10 6 12 8 14
REMARK Flexibility Score: inf
ROOT
ATOM      1  C   UNL     1       6.633  -2.267  -2.400  1.00  0.00     0.171 C 
ENDROOT
BRANCH   1   2
ATOM      2  C   UNL     1       8.008  -2.294  -3.098  1.00  0.00     0.190 C 
BRANCH   2   3
ATOM      3  O   UNL     1       9.037  -2.574  -2.185  1.00  0.00    -0.394 OA
ATOM      4  H   UNL     1       9.569  -3.317  -2.571  1.00  0.00     0.210 HD
ENDBRANCH   2   3
ENDBRANCH   1   2
BRANCH   1   5
ATOM      5  C   UNL     1       6.041  -3.690  -2.176  1.00  0.00     0.181 C 
BRANCH   5   6
ATOM      6  C   UNL     1       4.876  -3.701  -1.150  1.00  0.00     0.209 C 
BRANCH   6   7
ATOM      7  C   UNL     1       5.269  -3.057   0.151  1.00  0.00     0.258 C 
ATOM      8  O   UNL     1       6.168  -3.526   0.831  1.00  0.00    -0.300 OA
ENDBRANCH   6   7
BRANCH   6   9
ATOM      9  O   UNL     1       3.771  -3.003  -1.668  1.00  0.00    -0.383 OA
ATOM     10  H   UNL     1       4.126  -2.222  -2.168  1.00  0.00     0.211 HD
ENDBRANCH   6   9
ENDBRANCH   5   6
BRANCH   5  11
ATOM     11  O   UNL     1       7.052  -4.576  -1.756  1.00  0.00    -0.387 OA
ATOM     12  H   UNL     1       6.609  -5.336  -1.295  1.00  0.00     0.211 HD
ENDBRANCH   5  11
ENDBRANCH   1   5
BRANCH   1  13
ATOM     13  O   UNL     1       5.747  -1.445  -3.119  1.00  0.00    -0.388 OA
ATOM     14  H   UNL     1       5.064  -2.031  -3.538  1.00  0.00     0.211 HD
ENDBRANCH   1  13
TORSDOF 8
ENDMDL
MODEL 8
REMARK VINA RESULT:    -3.384      1.632      2.291
REMARK INTER + INTRA:          -4.675
REMARK INTER:                  -4.038
REMARK INTRA:                  -0.638
REMARK UNBOUND:                -0.104
REMARK SMILES O=C[C@@H](O)[C@H](O)[C@H](O)CO
REMARK SMILES IDX 7 1 9 2 10 3 5 5 3 6 2 7 1 8 4 9 6 11 8 13
REMARK H PARENT 10 4 4 10 6 12 8 14
REMARK Flexibility Score: inf
ROOT
ATOM      1  C   UNL     1      -7.765  -7.064   4.779  1.00  0.00     0.171 C 
ENDROOT
BRANCH   1   2
ATOM      2  C   UNL     1      -7.788  -6.387   3.394  1.00  0.00     0.190 C 
BRANCH   2   3
ATOM      3  O   UNL     1      -6.908  -5.294   3.346  1.00  0.00    -0.394 OA
ATOM      4  H   UNL     1      -6.430  -5.348   2.479  1.00  0.00     0.210 HD
ENDBRANCH   2   3
ENDBRANCH   1   2
BRANCH   1   5
ATOM      5  C   UNL     1      -6.383  -7.697   5.119  1.00  0.00     0.181 C 
BRANCH   5   6
ATOM      6  C   UNL     1      -6.376  -8.421   6.492  1.00  0.00     0.209 C 
BRANCH   6   7
ATOM      7  C   UNL     1      -6.829  -7.518   7.604  1.00  0.00     0.258 C 
ATOM      8  O   UNL     1      -6.057  -6.721   8.114  1.00  0.00    -0.300 OA
ENDBRANCH   6   7
BRANCH   6   9
ATOM      9  O   UNL     1      -7.234  -9.534   6.453  1.00  0.00    -0.383 OA
ATOM     10  H   UNL     1      -7.468  -9.756   7.393  1.00  0.00     0.211 HD
ENDBRANCH   6   9
ENDBRANCH   5   6
BRANCH   5  11
ATOM     11  O   UNL     1      -5.379  -6.709   5.098  1.00  0.00    -0.387 OA
ATOM     12  H   UNL     1      -5.548  -6.129   4.309  1.00  0.00     0.211 HD
ENDBRANCH   5  11
ENDBRANCH   1   5
BRANCH   1  13
ATOM     13  O   UNL     1      -8.803  -8.010   4.867  1.00  0.00    -0.388 OA
ATOM     14  H   UNL     1      -9.618  -7.601   4.474  1.00  0.00     0.211 HD
ENDBRANCH   1  13
TORSDOF 8
ENDMDL
MODEL 9
REMARK VINA RESULT:    -3.314     13.971     15.121
REMARK INTER + INTRA:          -4.581
REMARK INTER:                  -4.073
REMARK INTRA:                  -0.508
REMARK UNBOUND:                -0.104
REMARK SMILES O=C[C@@H](O)[C@H](O)[C@H](O)CO
REMARK SMILES IDX 7 1 9 2 10 3 5 5 3 6 2 7 1 8 4 9 6 11 8 13
REMARK H PARENT 10 4 4 10 6 12 8 14
REMARK Flexibility Score: inf
ROOT
ATOM      1  C   UNL     1       5.759  -3.032  -0.727  1.00  0.00     0.171 C 
ENDROOT
BRANCH   1   2
ATOM      2  C   UNL     1       4.339  -3.616  -0.859  1.00  0.00     0.190 C 
BRANCH   2   3
ATOM      3  O   UNL     1       3.595  -2.931  -1.833  1.00  0.00    -0.394 OA
ATOM      4  H   UNL     1       3.919  -3.246  -2.716  1.00  0.00     0.210 HD
ENDBRANCH   2   3
ENDBRANCH   1   2
BRANCH   1   5
ATOM      5  C   UNL     1       6.564  -3.093  -2.059  1.00  0.00     0.181 C 
BRANCH   5   6
ATOM      6  C   UNL     1       6.593  -4.516  -2.679  1.00  0.00     0.209 C 
BRANCH   6   7
ATOM      7  C   UNL     1       7.415  -4.564  -3.936  1.00  0.00     0.258 C 
ATOM      8  O   UNL     1       8.635  -4.541  -3.884  1.00  0.00    -0.300 OA
ENDBRANCH   6   7
BRANCH   6   9
ATOM      9  O   UNL     1       7.140  -5.430  -1.762  1.00  0.00    -0.383 OA
ATOM     10  H   UNL     1       6.405  -5.714  -1.158  1.00  0.00     0.211 HD
ENDBRANCH   6   9
ENDBRANCH   5   6
BRANCH   5  11
ATOM     11  O   UNL     1       7.881  -2.639  -1.852  1.00  0.00    -0.387 OA
ATOM     12  H   UNL     1       7.896  -2.155  -0.985  1.00  0.00     0.211 HD
ENDBRANCH   5  11
ENDBRANCH   1   5
BRANCH   1  13
ATOM     13  O   UNL     1       6.445  -3.673   0.321  1.00  0.00    -0.388 OA
ATOM     14  H   UNL     1       6.281  -3.154   1.151  1.00  0.00     0.211 HD
ENDBRANCH   1  13
TORSDOF 8
ENDMDL
