MODEL 1
REMARK VINA RESULT:    -4.506      0.000      0.000
REMARK INTER + INTRA:          -6.636
REMARK INTER:                  -6.350
REMARK INTRA:                  -0.286
REMARK UNBOUND:                -0.286
REMARK SMILES CCCCCCCCC(=O)[O-]
REMARK SMILES IDX 6 1 7 2 8 3 9 4 10 5 11 6 5 7 4 8 3 9 2 10 1 11
REMARK H PARENT
REMARK Flexibility Score: inf
ROOT
ATOM      1  C   UNL     1      48.083  33.443  14.778  1.00  0.00     0.000 C 
ENDROOT
BRANCH   1   2
ATOM      2  C   UNL     1      47.932  33.986  16.204  1.00  0.00     0.006 C 
BRANCH   2   3
ATOM      3  C   UNL     1      49.088  33.523  17.095  1.00  0.00     0.053 C 
BRANCH   3   4
ATOM      4  C   UNL     1      48.909  32.089  17.481  1.00  0.00     0.041 C 
ATOM      5  O   UNL     1      49.773  31.233  17.158  1.00  0.00    -0.550 OA
ATOM      6  O   UNL     1      47.813  31.706  18.244  1.00  0.00    -0.550 OA
ENDBRANCH   3   4
ENDBRANCH   2   3
ENDBRANCH   1   2
BRANCH   1   7
ATOM      7  C   UNL     1      48.769  34.472  13.867  1.00  0.00     0.000 C 
BRANCH   7   8
ATOM      8  C   UNL     1      49.269  33.860  12.548  1.00  0.00    -0.000 C 
BRANCH   8   9
ATOM      9  C   UNL     1      48.117  33.451  11.614  1.00  0.00    -0.000 C 
BRANCH   9  10
ATOM     10  C   UNL     1      48.472  33.631  10.130  1.00  0.00    -0.003 C 
ATOM     11  C   UNL     1      49.979  33.647   9.878  1.00  0.00     0.004 C 
ENDBRANCH   9  10
ENDBRANCH   8   9
ENDBRANCH   7   8
ENDBRANCH   1   7
TORSDOF 7
ENDMDL
MODEL 2
REMARK VINA RESULT:    -4.478      3.073      5.920
REMARK INTER + INTRA:          -6.596
REMARK INTER:                  -6.208
REMARK INTRA:                  -0.389
REMARK UNBOUND:                -0.286
REMARK SMILES CCCCCCCCC(=O)[O-]
REMARK SMILES IDX 6 1 7 2 8 3 9 4 10 5 11 6 5 7 4 8 3 9 2 10 1 11
REMARK H PARENT
REMARK Flexibility Score: inf
ROOT
ATOM      1  C   UNL     1      48.488  33.223  14.657  1.00  0.00     0.000 C 
ENDROOT
BRANCH   1   2
ATOM      2  C   UNL     1      48.873  34.296  13.631  1.00  0.00     0.006 C 
BRANCH   2   3
ATOM      3  C   UNL     1      48.242  34.005  12.267  1.00  0.00     0.053 C 
BRANCH   3   4
ATOM      4  C   UNL     1      49.299  33.702  11.254  1.00  0.00     0.041 C 
ATOM      5  O   UNL     1      50.499  33.568  11.611  1.00  0.00    -0.550 OA
ATOM      6  O   UNL     1      48.953  33.516   9.921  1.00  0.00    -0.550 OA
ENDBRANCH   3   4
ENDBRANCH   2   3
ENDBRANCH   1   2
BRANCH   1   7
ATOM      7  C   UNL     1      47.821  33.854  15.888  1.00  0.00     0.000 C 
BRANCH   7   8
ATOM      8  C   UNL     1      48.754  33.903  17.110  1.00  0.00    -0.000 C 
BRANCH   8   9
ATOM      9  C   UNL     1      49.186  32.504  17.580  1.00  0.00    -0.000 C 
BRANCH   9  10
ATOM     10  C   UNL     1      47.999  31.649  18.048  1.00  0.00    -0.003 C 
ATOM     11  C   UNL     1      47.884  30.327  17.290  1.00  0.00     0.004 C 
ENDBRANCH   9  10
ENDBRANCH   8   9
ENDBRANCH   7   8
ENDBRANCH   1   7
TORSDOF 7
ENDMDL
MODEL 3
REMARK VINA RESULT:    -4.361     11.655     13.539
REMARK INTER + INTRA:          -6.432
REMARK INTER:                  -5.678
REMARK INTRA:                  -0.754
REMARK UNBOUND:                -0.286
REMARK SMILES CCCCCCCCC(=O)[O-]
REMARK SMILES IDX 6 1 7 2 8 3 9 4 10 5 11 6 5 7 4 8 3 9 2 10 1 11
REMARK H PARENT
REMARK Flexibility Score: inf
ROOT
ATOM      1  C   UNL     1      39.853  36.069  24.023  1.00  0.00     0.000 C 
ENDROOT
BRANCH   1   2
ATOM      2  C   UNL     1      40.984  37.105  23.992  1.00  0.00     0.006 C 
BRANCH   2   3
ATOM      3  C   UNL     1      41.573  37.233  22.585  1.00  0.00     0.053 C 
BRANCH   3   4
ATOM      4  C   UNL     1      42.651  38.269  22.561  1.00  0.00     0.041 C 
ATOM      5  O   UNL     1      43.845  37.947  22.800  1.00  0.00    -0.550 OA
ATOM      6  O   UNL     1      42.348  39.582  22.224  1.00  0.00    -0.550 OA
ENDBRANCH   3   4
ENDBRANCH   2   3
ENDBRANCH   1   2
BRANCH   1   7
ATOM      7  C   UNL     1      38.570  36.636  23.396  1.00  0.00     0.000 C 
BRANCH   7   8
ATOM      8  C   UNL     1      38.064  37.898  24.114  1.00  0.00    -0.000 C 
BRANCH   8   9
ATOM      9  C   UNL     1      37.607  38.992  23.134  1.00  0.00    -0.000 C 
BRANCH   9  10
ATOM     10  C   UNL     1      38.786  39.770  22.529  1.00  0.00    -0.003 C 
ATOM     11  C   UNL     1      38.972  39.501  21.036  1.00  0.00     0.004 C 
ENDBRANCH   9  10
ENDBRANCH   8   9
ENDBRANCH   7   8
ENDBRANCH   1   7
TORSDOF 7
ENDMDL
MODEL 4
REMARK VINA RESULT:    -4.295     11.771     13.753
REMARK INTER + INTRA:          -6.339
REMARK INTER:                  -5.595
REMARK INTRA:                  -0.744
REMARK UNBOUND:                -0.286
REMARK SMILES CCCCCCCCC(=O)[O-]
REMARK SMILES IDX 6 1 7 2 8 3 9 4 10 5 11 6 5 7 4 8 3 9 2 10 1 11
REMARK H PARENT
REMARK Flexibility Score: inf
ROOT
ATOM      1  C   UNL     1      38.235  38.248  23.851  1.00  0.00     0.000 C 
ENDROOT
BRANCH   1   2
ATOM      2  C   UNL     1      38.145  39.352  22.791  1.00  0.00     0.006 C 
BRANCH   2   3
ATOM      3  C   UNL     1      38.936  38.975  21.535  1.00  0.00     0.053 C 
BRANCH   3   4
ATOM      4  C   UNL     1      40.104  39.892  21.357  1.00  0.00     0.041 C 
ATOM      5  O   UNL     1      40.255  40.882  22.120  1.00  0.00    -0.550 OA
ATOM      6  O   UNL     1      41.055  39.625  20.380  1.00  0.00    -0.550 OA
ENDBRANCH   3   4
ENDBRANCH   2   3
ENDBRANCH   1   2
BRANCH   1   7
ATOM      7  C   UNL     1      38.520  36.885  23.203  1.00  0.00     0.000 C 
BRANCH   7   8
ATOM      8  C   UNL     1      39.684  36.139  23.875  1.00  0.00    -0.000 C 
BRANCH   8   9
ATOM      9  C   UNL     1      40.961  36.992  23.962  1.00  0.00    -0.000 C 
BRANCH   9  10
ATOM     10  C   UNL     1      41.829  36.883  22.699  1.00  0.00    -0.003 C 
ATOM     11  C   UNL     1      43.059  37.789  22.744  1.00  0.00     0.004 C 
ENDBRANCH   9  10
ENDBRANCH   8   9
ENDBRANCH   7   8
ENDBRANCH   1   7
TORSDOF 7
ENDMDL
MODEL 5
REMARK VINA RESULT:    -4.265     12.554     13.425
REMARK INTER + INTRA:          -6.296
REMARK INTER:                  -5.531
REMARK INTRA:                  -0.765
REMARK UNBOUND:                -0.286
REMARK SMILES CCCCCCCCC(=O)[O-]
REMARK SMILES IDX 6 1 7 2 8 3 9 4 10 5 11 6 5 7 4 8 3 9 2 10 1 11
REMARK H PARENT
REMARK Flexibility Score: inf
ROOT
ATOM      1  C   UNL     1      41.627  37.240  22.617  1.00  0.00     0.000 C 
ENDROOT
BRANCH   1   2
ATOM      2  C   UNL     1      40.952  36.869  23.943  1.00  0.00     0.006 C 
BRANCH   2   3
ATOM      3  C   UNL     1      39.480  36.506  23.729  1.00  0.00     0.053 C 
BRANCH   3   4
ATOM      4  C   UNL     1      38.599  37.663  24.074  1.00  0.00     0.041 C 
ATOM      5  O   UNL     1      39.083  38.685  24.629  1.00  0.00    -0.550 OA
ATOM      6  O   UNL     1      37.251  37.637  23.738  1.00  0.00    -0.550 OA
ENDBRANCH   3   4
ENDBRANCH   2   3
ENDBRANCH   1   2
BRANCH   1   7
ATOM      7  C   UNL     1      42.616  38.399  22.808  1.00  0.00     0.000 C 
BRANCH   7   8
ATOM      8  C   UNL     1      42.124  39.712  22.177  1.00  0.00    -0.000 C 
BRANCH   8   9
ATOM      9  C   UNL     1      41.048  39.483  21.102  1.00  0.00    -0.000 C 
BRANCH   9  10
ATOM     10  C   UNL     1      39.705  40.133  21.467  1.00  0.00    -0.003 C 
ATOM     11  C   UNL     1      38.514  39.461  20.783  1.00  0.00     0.004 C 
ENDBRANCH   9  10
ENDBRANCH   8   9
ENDBRANCH   7   8
ENDBRANCH   1   7
TORSDOF 7
ENDMDL
MODEL 6
REMARK VINA RESULT:    -4.251      1.282      2.223
REMARK INTER + INTRA:          -6.277
REMARK INTER:                  -5.874
REMARK INTRA:                  -0.403
REMARK UNBOUND:                -0.286
REMARK SMILES CCCCCCCCC(=O)[O-]
REMARK SMILES IDX 6 1 7 2 8 3 9 4 10 5 11 6 5 7 4 8 3 9 2 10 1 11
REMARK H PARENT
REMARK Flexibility Score: inf
ROOT
ATOM      1  C   UNL     1      48.026  33.961  16.930  1.00  0.00     0.000 C 
ENDROOT
BRANCH   1   2
ATOM      2  C   UNL     1      48.936  32.830  17.423  1.00  0.00     0.006 C 
BRANCH   2   3
ATOM      3  C   UNL     1      48.113  31.629  17.899  1.00  0.00     0.053 C 
BRANCH   3   4
ATOM      4  C   UNL     1      48.413  30.425  17.065  1.00  0.00     0.041 C 
ATOM      5  O   UNL     1      47.796  29.346  17.264  1.00  0.00    -0.550 OA
ATOM      6  O   UNL     1      49.339  30.506  16.032  1.00  0.00    -0.550 OA
ENDBRANCH   3   4
ENDBRANCH   2   3
ENDBRANCH   1   2
BRANCH   1   7
ATOM      7  C   UNL     1      47.529  33.685  15.503  1.00  0.00     0.000 C 
BRANCH   7   8
ATOM      8  C   UNL     1      48.587  34.004  14.433  1.00  0.00    -0.000 C 
BRANCH   8   9
ATOM      9  C   UNL     1      48.658  32.930  13.334  1.00  0.00    -0.000 C 
BRANCH   9  10
ATOM     10  C   UNL     1      49.131  33.497  11.987  1.00  0.00    -0.003 C 
ATOM     11  C   UNL     1      48.052  33.437  10.906  1.00  0.00     0.004 C 
ENDBRANCH   9  10
ENDBRANCH   8   9
ENDBRANCH   7   8
ENDBRANCH   1   7
TORSDOF 7
ENDMDL
MODEL 7
REMARK VINA RESULT:    -4.246     11.964     13.930
REMARK INTER + INTRA:          -6.270
REMARK INTER:                  -5.547
REMARK INTRA:                  -0.723
REMARK UNBOUND:                -0.286
REMARK SMILES CCCCCCCCC(=O)[O-]
REMARK SMILES IDX 6 1 7 2 8 3 9 4 10 5 11 6 5 7 4 8 3 9 2 10 1 11
REMARK H PARENT
REMARK Flexibility Score: inf
ROOT
ATOM      1  C   UNL     1      40.993  36.939  24.059  1.00  0.00     0.000 C 
ENDROOT
BRANCH   1   2
ATOM      2  C   UNL     1      41.658  36.945  22.676  1.00  0.00     0.006 C 
BRANCH   2   3
ATOM      3  C   UNL     1      42.600  38.142  22.524  1.00  0.00     0.053 C 
BRANCH   3   4
ATOM      4  C   UNL     1      41.846  39.346  22.059  1.00  0.00     0.041 C 
ATOM      5  O   UNL     1      42.272  40.501  22.321  1.00  0.00    -0.550 OA
ATOM      6  O   UNL     1      40.698  39.195  21.291  1.00  0.00    -0.550 OA
ENDBRANCH   3   4
ENDBRANCH   2   3
ENDBRANCH   1   2
BRANCH   1   7
ATOM      7  C   UNL     1      39.676  36.149  24.032  1.00  0.00     0.000 C 
BRANCH   7   8
ATOM      8  C   UNL     1      38.613  36.794  23.128  1.00  0.00    -0.000 C 
BRANCH   8   9
ATOM      9  C   UNL     1      37.677  37.740  23.899  1.00  0.00    -0.000 C 
BRANCH   9  10
ATOM     10  C   UNL     1      37.843  39.207  23.474  1.00  0.00    -0.003 C 
ATOM     11  C   UNL     1      38.880  39.954  24.314  1.00  0.00     0.004 C 
ENDBRANCH   9  10
ENDBRANCH   8   9
ENDBRANCH   7   8
ENDBRANCH   1   7
TORSDOF 7
ENDMDL
MODEL 8
REMARK VINA RESULT:    -4.230     12.293     13.853
REMARK INTER + INTRA:          -6.246
REMARK INTER:                  -5.515
REMARK INTRA:                  -0.731
REMARK UNBOUND:                -0.286
REMARK SMILES CCCCCCCCC(=O)[O-]
REMARK SMILES IDX 6 1 7 2 8 3 9 4 10 5 11 6 5 7 4 8 3 9 2 10 1 11
REMARK H PARENT
REMARK Flexibility Score: inf
ROOT
ATOM      1  C   UNL     1      42.345  38.302  22.364  1.00  0.00     0.000 C 
ENDROOT
BRANCH   1   2
ATOM      2  C   UNL     1      41.601  39.138  21.315  1.00  0.00     0.006 C 
BRANCH   2   3
ATOM      3  C   UNL     1      40.439  39.908  21.948  1.00  0.00     0.053 C 
BRANCH   3   4
ATOM      4  C   UNL     1      40.913  40.695  23.129  1.00  0.00     0.041 C 
ATOM      5  O   UNL     1      41.699  41.665  22.969  1.00  0.00    -0.550 OA
ATOM      6  O   UNL     1      40.447  40.389  24.401  1.00  0.00    -0.550 OA
ENDBRANCH   3   4
ENDBRANCH   2   3
ENDBRANCH   1   2
BRANCH   1   7
ATOM      7  C   UNL     1      41.621  36.971  22.620  1.00  0.00     0.000 C 
BRANCH   7   8
ATOM      8  C   UNL     1      40.983  36.899  24.017  1.00  0.00    -0.000 C 
BRANCH   8   9
ATOM      9  C   UNL     1      39.640  36.148  24.015  1.00  0.00    -0.000 C 
BRANCH   9  10
ATOM     10  C   UNL     1      38.578  36.845  23.151  1.00  0.00    -0.003 C 
ATOM     11  C   UNL     1      37.717  37.827  23.945  1.00  0.00     0.004 C 
ENDBRANCH   9  10
ENDBRANCH   8   9
ENDBRANCH   7   8
ENDBRANCH   1   7
TORSDOF 7
ENDMDL
MODEL 9
REMARK VINA RESULT:    -4.209     12.016     13.238
REMARK INTER + INTRA:          -6.217
REMARK INTER:                  -5.527
REMARK INTRA:                  -0.689
REMARK UNBOUND:                -0.286
REMARK SMILES CCCCCCCCC(=O)[O-]
REMARK SMILES IDX 6 1 7 2 8 3 9 4 10 5 11 6 5 7 4 8 3 9 2 10 1 11
REMARK H PARENT
REMARK Flexibility Score: inf
ROOT
ATOM      1  C   UNL     1      38.890  36.882  23.517  1.00  0.00     0.000 C 
ENDROOT
BRANCH   1   2
ATOM      2  C   UNL     1      40.271  36.471  24.042  1.00  0.00     0.006 C 
BRANCH   2   3
ATOM      3  C   UNL     1      41.365  36.791  23.020  1.00  0.00     0.053 C 
BRANCH   3   4
ATOM      4  C   UNL     1      42.435  37.630  23.643  1.00  0.00     0.041 C 
ATOM      5  O   UNL     1      42.345  37.978  24.850  1.00  0.00    -0.550 OA
ATOM      6  O   UNL     1      43.557  37.986  22.907  1.00  0.00    -0.550 OA
ENDBRANCH   3   4
ENDBRANCH   2   3
ENDBRANCH   1   2
BRANCH   1   7
ATOM      7  C   UNL     1      38.513  38.289  24.004  1.00  0.00     0.000 C 
BRANCH   7   8
ATOM      8  C   UNL     1      38.131  39.235  22.853  1.00  0.00    -0.000 C 
BRANCH   8   9
ATOM      9  C   UNL     1      38.642  38.741  21.489  1.00  0.00    -0.000 C 
BRANCH   9  10
ATOM     10  C   UNL     1      39.432  39.819  20.731  1.00  0.00    -0.003 C 
ATOM     11  C   UNL     1      40.929  39.783  21.037  1.00  0.00     0.004 C 
ENDBRANCH   9  10
ENDBRANCH   8   9
ENDBRANCH   7   8
ENDBRANCH   1   7
TORSDOF 7
ENDMDL
