MODEL 1
REMARK VINA RESULT:    -6.033      0.000      0.000
REMARK INTER + INTRA:          -6.562
REMARK INTER:                  -6.562
REMARK INTRA:                   0.000
REMARK UNBOUND:                 0.000
REMARK SMILES Cc1cc(O)c2c(c1)C(=O)c1cc(O)cc(O)c1C2=O
REMARK SMILES IDX 1 1 2 2 8 3 7 4 6 5 4 6 3 7 19 8 20 9 18 10 11 11 9 12 10 13
REMARK SMILES IDX 12 14 13 15 15 16 16 17 5 18 17 20 14 22
REMARK H PARENT 5 19 17 21 14 23
REMARK Flexibility Score: inf
ROOT
ATOM      1  C   UNL     1      -6.730   8.481  -3.332  1.00  0.00     0.044 C 
ATOM      2  C   UNL     1      -5.926   8.310  -2.075  1.00  0.00    -0.047 A 
ATOM      3  C   UNL     1      -6.420   7.529  -1.024  1.00  0.00     0.016 A 
ATOM      4  C   UNL     1      -5.696   7.398   0.173  1.00  0.00     0.038 A 
ATOM      5  C   UNL     1      -4.469   8.081   0.331  1.00  0.00     0.076 A 
ATOM      6  C   UNL     1      -3.952   8.834  -0.754  1.00  0.00     0.127 A 
ATOM      7  C   UNL     1      -4.700   8.965  -1.928  1.00  0.00     0.050 A 
ATOM      8  C   UNL     1      -3.808   8.036   1.661  1.00  0.00     0.201 C 
ATOM      9  O   UNL     1      -3.100   9.007   2.042  1.00  0.00    -0.288 OA
ATOM     10  C   UNL     1      -4.135   6.941   2.611  1.00  0.00     0.076 A 
ATOM     11  C   UNL     1      -5.362   6.260   2.449  1.00  0.00     0.041 A 
ATOM     12  C   UNL     1      -6.213   6.543   1.268  1.00  0.00     0.194 C 
ATOM     13  O   UNL     1      -7.364   6.036   1.184  1.00  0.00    -0.289 OA
ATOM     14  C   UNL     1      -5.769   5.316   3.405  1.00  0.00     0.059 A 
ATOM     15  C   UNL     1      -4.964   5.030   4.508  1.00  0.00     0.120 A 
ATOM     16  C   UNL     1      -3.731   5.672   4.652  1.00  0.00     0.093 A 
ATOM     17  C   UNL     1      -3.293   6.601   3.703  1.00  0.00     0.131 A 
ENDROOT
BRANCH   6  18
ATOM     18  O   UNL     1      -2.692   9.436  -0.724  1.00  0.00    -0.507 OA
ATOM     19  H   UNL     1      -2.505  10.359  -1.093  1.00  0.00     0.293 HD
ENDBRANCH   6  18
BRANCH  17  20
ATOM     20  O   UNL     1      -2.012   7.133   3.864  1.00  0.00    -0.507 OA
ATOM     21  H   UNL     1      -1.265   7.003   3.196  1.00  0.00     0.293 HD
ENDBRANCH  17  20
BRANCH  15  22
ATOM     22  O   UNL     1      -5.394   4.099   5.451  1.00  0.00    -0.508 OA
ATOM     23  H   UNL     1      -5.107   3.129   5.407  1.00  0.00     0.293 HD
ENDBRANCH  15  22
TORSDOF 3
ENDMDL
MODEL 2
REMARK VINA RESULT:    -5.961      2.284      5.789
REMARK INTER + INTRA:          -6.484
REMARK INTER:                  -6.484
REMARK INTRA:                   0.000
REMARK UNBOUND:                 0.000
REMARK SMILES Cc1cc(O)c2c(c1)C(=O)c1cc(O)cc(O)c1C2=O
REMARK SMILES IDX 1 1 2 2 8 3 7 4 6 5 4 6 3 7 19 8 20 9 18 10 11 11 9 12 10 13
REMARK SMILES IDX 12 14 13 15 15 16 16 17 5 18 17 20 14 22
REMARK H PARENT 5 19 17 21 14 23
REMARK Flexibility Score: inf
ROOT
ATOM      1  C   UNL     1      -8.155   6.377   7.780  1.00  0.00     0.044 C 
ATOM      2  C   UNL     1      -7.064   6.331   6.749  1.00  0.00    -0.047 A 
ATOM      3  C   UNL     1      -7.384   6.259   5.388  1.00  0.00     0.016 A 
ATOM      4  C   UNL     1      -6.372   6.170   4.418  1.00  0.00     0.038 A 
ATOM      5  C   UNL     1      -5.017   6.127   4.817  1.00  0.00     0.076 A 
ATOM      6  C   UNL     1      -4.697   6.247   6.194  1.00  0.00     0.127 A 
ATOM      7  C   UNL     1      -5.723   6.314   7.142  1.00  0.00     0.050 A 
ATOM      8  C   UNL     1      -3.986   5.886   3.774  1.00  0.00     0.201 C 
ATOM      9  O   UNL     1      -2.919   5.287   4.075  1.00  0.00    -0.288 OA
ATOM     10  C   UNL     1      -4.294   6.177   2.350  1.00  0.00     0.076 A 
ATOM     11  C   UNL     1      -5.650   6.220   1.955  1.00  0.00     0.041 A 
ATOM     12  C   UNL     1      -6.720   6.125   2.978  1.00  0.00     0.194 C 
ATOM     13  O   UNL     1      -7.926   6.033   2.621  1.00  0.00    -0.289 OA
ATOM     14  C   UNL     1      -5.979   6.355   0.597  1.00  0.00     0.059 A 
ATOM     15  C   UNL     1      -4.977   6.465  -0.368  1.00  0.00     0.120 A 
ATOM     16  C   UNL     1      -3.635   6.464   0.021  1.00  0.00     0.093 A 
ATOM     17  C   UNL     1      -3.282   6.351   1.370  1.00  0.00     0.131 A 
ENDROOT
BRANCH   6  18
ATOM     18  O   UNL     1      -3.384   6.337   6.660  1.00  0.00    -0.507 OA
ATOM     19  H   UNL     1      -3.088   6.000   7.566  1.00  0.00     0.293 HD
ENDBRANCH   6  18
BRANCH  17  20
ATOM     20  O   UNL     1      -1.926   6.449   1.692  1.00  0.00    -0.507 OA
ATOM     21  H   UNL     1      -1.346   5.653   1.916  1.00  0.00     0.293 HD
ENDBRANCH  17  20
BRANCH  15  22
ATOM     22  O   UNL     1      -5.327   6.585  -1.711  1.00  0.00    -0.508 OA
ATOM     23  H   UNL     1      -5.779   7.418  -2.069  1.00  0.00     0.293 HD
ENDBRANCH  15  22
TORSDOF 3
ENDMDL
MODEL 3
REMARK VINA RESULT:    -5.629      2.427      3.246
REMARK INTER + INTRA:          -6.123
REMARK INTER:                  -6.123
REMARK INTRA:                   0.000
REMARK UNBOUND:                 0.000
REMARK SMILES Cc1cc(O)c2c(c1)C(=O)c1cc(O)cc(O)c1C2=O
REMARK SMILES IDX 1 1 2 2 8 3 7 4 6 5 4 6 3 7 19 8 20 9 18 10 11 11 9 12 10 13
REMARK SMILES IDX 12 14 13 15 15 16 16 17 5 18 17 20 14 22
REMARK H PARENT 5 19 17 21 14 23
REMARK Flexibility Score: inf
ROOT
ATOM      1  C   UNL     1      -8.224   9.789  -1.151  1.00  0.00     0.044 C 
ATOM      2  C   UNL     1      -7.440   9.288   0.027  1.00  0.00    -0.047 A 
ATOM      3  C   UNL     1      -6.433   8.334  -0.150  1.00  0.00     0.016 A 
ATOM      4  C   UNL     1      -5.724   7.826   0.951  1.00  0.00     0.038 A 
ATOM      5  C   UNL     1      -6.046   8.261   2.256  1.00  0.00     0.076 A 
ATOM      6  C   UNL     1      -7.036   9.263   2.427  1.00  0.00     0.127 A 
ATOM      7  C   UNL     1      -7.742   9.738   1.316  1.00  0.00     0.050 A 
ATOM      8  C   UNL     1      -5.377   7.595   3.403  1.00  0.00     0.201 C 
ATOM      9  O   UNL     1      -5.976   7.497   4.508  1.00  0.00    -0.288 OA
ATOM     10  C   UNL     1      -4.091   6.881   3.195  1.00  0.00     0.076 A 
ATOM     11  C   UNL     1      -3.772   6.447   1.888  1.00  0.00     0.041 A 
ATOM     12  C   UNL     1      -4.637   6.838   0.749  1.00  0.00     0.194 C 
ATOM     13  O   UNL     1      -4.431   6.350  -0.395  1.00  0.00    -0.289 OA
ATOM     14  C   UNL     1      -2.635   5.652   1.673  1.00  0.00     0.059 A 
ATOM     15  C   UNL     1      -1.806   5.298   2.737  1.00  0.00     0.120 A 
ATOM     16  C   UNL     1      -2.094   5.757   4.025  1.00  0.00     0.093 A 
ATOM     17  C   UNL     1      -3.209   6.567   4.262  1.00  0.00     0.131 A 
ENDROOT
BRANCH   6  18
ATOM     18  O   UNL     1      -7.327   9.835   3.667  1.00  0.00    -0.507 OA
ATOM     19  H   UNL     1      -6.732  10.514   4.122  1.00  0.00     0.293 HD
ENDBRANCH   6  18
BRANCH  17  20
ATOM     20  O   UNL     1      -3.382   7.064   5.556  1.00  0.00    -0.507 OA
ATOM     21  H   UNL     1      -3.315   6.493   6.387  1.00  0.00     0.293 HD
ENDBRANCH  17  20
BRANCH  15  22
ATOM     22  O   UNL     1      -0.691   4.496   2.503  1.00  0.00    -0.508 OA
ATOM     23  H   UNL     1       0.079   4.814   1.926  1.00  0.00     0.293 HD
ENDBRANCH  15  22
TORSDOF 3
ENDMDL
MODEL 4
REMARK VINA RESULT:    -5.590      2.044      2.939
REMARK INTER + INTRA:          -6.080
REMARK INTER:                  -6.080
REMARK INTRA:                   0.000
REMARK UNBOUND:                 0.000
REMARK SMILES Cc1cc(O)c2c(c1)C(=O)c1cc(O)cc(O)c1C2=O
REMARK SMILES IDX 1 1 2 2 8 3 7 4 6 5 4 6 3 7 19 8 20 9 18 10 11 11 9 12 10 13
REMARK SMILES IDX 12 14 13 15 15 16 16 17 5 18 17 20 14 22
REMARK H PARENT 5 19 17 21 14 23
REMARK Flexibility Score: inf
ROOT
ATOM      1  C   UNL     1      -5.846   7.508  -3.486  1.00  0.00     0.044 C 
ATOM      2  C   UNL     1      -5.880   7.563  -1.986  1.00  0.00    -0.047 A 
ATOM      3  C   UNL     1      -4.851   6.983  -1.236  1.00  0.00     0.016 A 
ATOM      4  C   UNL     1      -4.895   6.991   0.168  1.00  0.00     0.038 A 
ATOM      5  C   UNL     1      -6.001   7.566   0.833  1.00  0.00     0.076 A 
ATOM      6  C   UNL     1      -7.019   8.193   0.069  1.00  0.00     0.127 A 
ATOM      7  C   UNL     1      -6.962   8.155  -1.328  1.00  0.00     0.050 A 
ATOM      8  C   UNL     1      -6.083   7.424   2.310  1.00  0.00     0.201 C 
ATOM      9  O   UNL     1      -7.209   7.374   2.874  1.00  0.00    -0.288 OA
ATOM     10  C   UNL     1      -4.851   7.151   3.094  1.00  0.00     0.076 A 
ATOM     11  C   UNL     1      -3.747   6.576   2.425  1.00  0.00     0.041 A 
ATOM     12  C   UNL     1      -3.786   6.401   0.953  1.00  0.00     0.194 C 
ATOM     13  O   UNL     1      -2.861   5.774   0.368  1.00  0.00    -0.289 OA
ATOM     14  C   UNL     1      -2.616   6.176   3.156  1.00  0.00     0.059 A 
ATOM     15  C   UNL     1      -2.566   6.357   4.538  1.00  0.00     0.120 A 
ATOM     16  C   UNL     1      -3.638   6.961   5.200  1.00  0.00     0.093 A 
ATOM     17  C   UNL     1      -4.766   7.386   4.492  1.00  0.00     0.131 A 
ENDROOT
BRANCH   6  18
ATOM     18  O   UNL     1      -8.080   8.890   0.651  1.00  0.00    -0.507 OA
ATOM     19  H   UNL     1      -8.966   9.046   0.189  1.00  0.00     0.293 HD
ENDBRANCH   6  18
BRANCH  17  20
ATOM     20  O   UNL     1      -5.758   8.064   5.205  1.00  0.00    -0.507 OA
ATOM     21  H   UNL     1      -5.572   8.626   6.024  1.00  0.00     0.293 HD
ENDBRANCH  17  20
BRANCH  15  22
ATOM     22  O   UNL     1      -1.439   5.941   5.245  1.00  0.00    -0.508 OA
ATOM     23  H   UNL     1      -0.947   5.088   5.005  1.00  0.00     0.293 HD
ENDBRANCH  15  22
TORSDOF 3
ENDMDL
MODEL 5
REMARK VINA RESULT:    -5.580      2.942      4.781
REMARK INTER + INTRA:          -6.069
REMARK INTER:                  -6.069
REMARK INTRA:                   0.000
REMARK UNBOUND:                 0.000
REMARK SMILES Cc1cc(O)c2c(c1)C(=O)c1cc(O)cc(O)c1C2=O
REMARK SMILES IDX 1 1 2 2 8 3 7 4 6 5 4 6 3 7 19 8 20 9 18 10 11 11 9 12 10 13
REMARK SMILES IDX 12 14 13 15 15 16 16 17 5 18 17 20 14 22
REMARK H PARENT 5 19 17 21 14 23
REMARK Flexibility Score: inf
ROOT
ATOM      1  C   UNL     1      -3.743   6.541   0.269  1.00  0.00     0.044 C 
ATOM      2  C   UNL     1      -3.852   6.373   1.756  1.00  0.00    -0.047 A 
ATOM      3  C   UNL     1      -5.089   6.523   2.394  1.00  0.00     0.016 A 
ATOM      4  C   UNL     1      -5.194   6.410   3.790  1.00  0.00     0.038 A 
ATOM      5  C   UNL     1      -4.037   6.170   4.566  1.00  0.00     0.076 A 
ATOM      6  C   UNL     1      -2.794   5.973   3.911  1.00  0.00     0.127 A 
ATOM      7  C   UNL     1      -2.712   6.110   2.521  1.00  0.00     0.050 A 
ATOM      8  C   UNL     1      -4.165   6.205   6.045  1.00  0.00     0.201 C 
ATOM      9  O   UNL     1      -3.186   6.569   6.751  1.00  0.00    -0.288 OA
ATOM     10  C   UNL     1      -5.494   5.997   6.676  1.00  0.00     0.076 A 
ATOM     11  C   UNL     1      -6.648   6.238   5.898  1.00  0.00     0.041 A 
ATOM     12  C   UNL     1      -6.514   6.540   4.453  1.00  0.00     0.194 C 
ATOM     13  O   UNL     1      -7.526   6.881   3.783  1.00  0.00    -0.289 OA
ATOM     14  C   UNL     1      -7.918   6.186   6.495  1.00  0.00     0.059 A 
ATOM     15  C   UNL     1      -8.053   5.882   7.850  1.00  0.00     0.120 A 
ATOM     16  C   UNL     1      -6.918   5.604   8.615  1.00  0.00     0.093 A 
ATOM     17  C   UNL     1      -5.643   5.629   8.040  1.00  0.00     0.131 A 
ENDROOT
BRANCH   6  18
ATOM     18  O   UNL     1      -1.630   5.611   4.592  1.00  0.00    -0.507 OA
ATOM     19  H   UNL     1      -0.809   5.238   4.135  1.00  0.00     0.293 HD
ENDBRANCH   6  18
BRANCH  17  20
ATOM     20  O   UNL     1      -4.565   5.250   8.843  1.00  0.00    -0.507 OA
ATOM     21  H   UNL     1      -4.435   4.313   9.198  1.00  0.00     0.293 HD
ENDBRANCH  17  20
BRANCH  15  22
ATOM     22  O   UNL     1      -9.322   5.850   8.424  1.00  0.00    -0.508 OA
ATOM     23  H   UNL     1      -9.963   6.630   8.339  1.00  0.00     0.293 HD
ENDBRANCH  15  22
TORSDOF 3
ENDMDL
MODEL 6
REMARK VINA RESULT:    -5.572     13.532     14.897
REMARK INTER + INTRA:          -6.060
REMARK INTER:                  -6.060
REMARK INTRA:                   0.000
REMARK UNBOUND:                 0.000
REMARK SMILES Cc1cc(O)c2c(c1)C(=O)c1cc(O)cc(O)c1C2=O
REMARK SMILES IDX 1 1 2 2 8 3 7 4 6 5 4 6 3 7 19 8 20 9 18 10 11 11 9 12 10 13
REMARK SMILES IDX 12 14 13 15 15 16 16 17 5 18 17 20 14 22
REMARK H PARENT 5 19 17 21 14 23
REMARK Flexibility Score: inf
ROOT
ATOM      1  C   UNL     1      -8.112  -8.686   7.324  1.00  0.00     0.044 C 
ATOM      2  C   UNL     1      -6.923  -8.048   6.666  1.00  0.00    -0.047 A 
ATOM      3  C   UNL     1      -6.004  -7.319   7.429  1.00  0.00     0.016 A 
ATOM      4  C   UNL     1      -4.912  -6.681   6.817  1.00  0.00     0.038 A 
ATOM      5  C   UNL     1      -4.751  -6.751   5.415  1.00  0.00     0.076 A 
ATOM      6  C   UNL     1      -5.660  -7.529   4.653  1.00  0.00     0.127 A 
ATOM      7  C   UNL     1      -6.750  -8.139   5.282  1.00  0.00     0.050 A 
ATOM      8  C   UNL     1      -3.671  -5.943   4.792  1.00  0.00     0.201 C 
ATOM      9  O   UNL     1      -3.813  -5.506   3.618  1.00  0.00    -0.288 OA
ATOM     10  C   UNL     1      -2.517  -5.494   5.613  1.00  0.00     0.076 A 
ATOM     11  C   UNL     1      -2.682  -5.425   7.015  1.00  0.00     0.041 A 
ATOM     12  C   UNL     1      -3.926  -5.937   7.637  1.00  0.00     0.194 C 
ATOM     13  O   UNL     1      -4.132  -5.762   8.869  1.00  0.00    -0.289 OA
ATOM     14  C   UNL     1      -1.664  -4.877   7.812  1.00  0.00     0.059 A 
ATOM     15  C   UNL     1      -0.483  -4.412   7.234  1.00  0.00     0.120 A 
ATOM     16  C   UNL     1      -0.298  -4.514   5.853  1.00  0.00     0.093 A 
ATOM     17  C   UNL     1      -1.288  -5.075   5.039  1.00  0.00     0.131 A 
ENDROOT
BRANCH   6  18
ATOM     18  O   UNL     1      -5.501  -7.750   3.283  1.00  0.00    -0.507 OA
ATOM     19  H   UNL     1      -4.621  -7.638   2.797  1.00  0.00     0.293 HD
ENDBRANCH   6  18
BRANCH  17  20
ATOM     20  O   UNL     1      -0.996  -5.228   3.682  1.00  0.00    -0.507 OA
ATOM     21  H   UNL     1      -1.578  -4.863   2.941  1.00  0.00     0.293 HD
ENDBRANCH  17  20
BRANCH  15  22
ATOM     22  O   UNL     1       0.508  -3.859   8.044  1.00  0.00    -0.508 OA
ATOM     23  H   UNL     1       0.313  -3.083   8.665  1.00  0.00     0.293 HD
ENDBRANCH  15  22
TORSDOF 3
ENDMDL
MODEL 7
REMARK VINA RESULT:    -5.564      2.578      3.467
REMARK INTER + INTRA:          -6.051
REMARK INTER:                  -6.051
REMARK INTRA:                   0.000
REMARK UNBOUND:                 0.000
REMARK SMILES Cc1cc(O)c2c(c1)C(=O)c1cc(O)cc(O)c1C2=O
REMARK SMILES IDX 1 1 2 2 8 3 7 4 6 5 4 6 3 7 19 8 20 9 18 10 11 11 9 12 10 13
REMARK SMILES IDX 12 14 13 15 15 16 16 17 5 18 17 20 14 22
REMARK H PARENT 5 19 17 21 14 23
REMARK Flexibility Score: inf
ROOT
ATOM      1  C   UNL     1      -2.702   9.556  -0.936  1.00  0.00     0.044 C 
ATOM      2  C   UNL     1      -3.010   8.552   0.138  1.00  0.00    -0.047 A 
ATOM      3  C   UNL     1      -3.960   8.843   1.122  1.00  0.00     0.016 A 
ATOM      4  C   UNL     1      -4.224   7.929   2.156  1.00  0.00     0.038 A 
ATOM      5  C   UNL     1      -3.504   6.714   2.221  1.00  0.00     0.076 A 
ATOM      6  C   UNL     1      -2.575   6.405   1.195  1.00  0.00     0.127 A 
ATOM      7  C   UNL     1      -2.316   7.339   0.187  1.00  0.00     0.050 A 
ATOM      8  C   UNL     1      -3.705   5.843   3.408  1.00  0.00     0.201 C 
ATOM      9  O   UNL     1      -2.763   5.112   3.816  1.00  0.00    -0.288 OA
ATOM     10  C   UNL     1      -4.942   5.975   4.220  1.00  0.00     0.076 A 
ATOM     11  C   UNL     1      -5.659   7.191   4.152  1.00  0.00     0.041 A 
ATOM     12  C   UNL     1      -5.255   8.232   3.177  1.00  0.00     0.194 C 
ATOM     13  O   UNL     1      -5.807   9.366   3.200  1.00  0.00    -0.289 OA
ATOM     14  C   UNL     1      -6.753   7.407   5.006  1.00  0.00     0.059 A 
ATOM     15  C   UNL     1      -7.151   6.423   5.911  1.00  0.00     0.120 A 
ATOM     16  C   UNL     1      -6.471   5.203   5.954  1.00  0.00     0.093 A 
ATOM     17  C   UNL     1      -5.391   4.956   5.101  1.00  0.00     0.131 A 
ENDROOT
BRANCH   6  18
ATOM     18  O   UNL     1      -1.915   5.176   1.118  1.00  0.00    -0.507 OA
ATOM     19  H   UNL     1      -1.002   5.058   0.700  1.00  0.00     0.293 HD
ENDBRANCH   6  18
BRANCH  17  20
ATOM     20  O   UNL     1      -4.819   3.682   5.137  1.00  0.00    -0.507 OA
ATOM     21  H   UNL     1      -4.145   3.353   4.460  1.00  0.00     0.293 HD
ENDBRANCH  17  20
BRANCH  15  22
ATOM     22  O   UNL     1      -8.231   6.664   6.758  1.00  0.00    -0.508 OA
ATOM     23  H   UNL     1      -8.401   6.092   7.576  1.00  0.00     0.293 HD
ENDBRANCH  15  22
TORSDOF 3
ENDMDL
MODEL 8
REMARK VINA RESULT:    -5.443     13.546     15.218
REMARK INTER + INTRA:          -5.920
REMARK INTER:                  -5.920
REMARK INTRA:                   0.000
REMARK UNBOUND:                 0.000
REMARK SMILES Cc1cc(O)c2c(c1)C(=O)c1cc(O)cc(O)c1C2=O
REMARK SMILES IDX 1 1 2 2 8 3 7 4 6 5 4 6 3 7 19 8 20 9 18 10 11 11 9 12 10 13
REMARK SMILES IDX 12 14 13 15 15 16 16 17 5 18 17 20 14 22
REMARK H PARENT 5 19 17 21 14 23
REMARK Flexibility Score: inf
ROOT
ATOM      1  C   UNL     1       7.400   3.346   6.360  1.00  0.00     0.044 C 
ATOM      2  C   UNL     1       7.238   1.859   6.486  1.00  0.00    -0.047 A 
ATOM      3  C   UNL     1       5.996   1.312   6.827  1.00  0.00     0.016 A 
ATOM      4  C   UNL     1       5.844  -0.075   6.990  1.00  0.00     0.038 A 
ATOM      5  C   UNL     1       6.960  -0.928   6.836  1.00  0.00     0.076 A 
ATOM      6  C   UNL     1       8.206  -0.373   6.446  1.00  0.00     0.127 A 
ATOM      7  C   UNL     1       8.337   1.012   6.308  1.00  0.00     0.050 A 
ATOM      8  C   UNL     1       6.792  -2.368   7.161  1.00  0.00     0.201 C 
ATOM      9  O   UNL     1       7.771  -3.031   7.595  1.00  0.00    -0.288 OA
ATOM     10  C   UNL     1       5.435  -2.973   7.155  1.00  0.00     0.076 A 
ATOM     11  C   UNL     1       4.321  -2.117   7.309  1.00  0.00     0.041 A 
ATOM     12  C   UNL     1       4.517  -0.647   7.321  1.00  0.00     0.194 C 
ATOM     13  O   UNL     1       3.548   0.116   7.586  1.00  0.00    -0.289 OA
ATOM     14  C   UNL     1       3.034  -2.661   7.446  1.00  0.00     0.059 A 
ATOM     15  C   UNL     1       2.841  -4.042   7.416  1.00  0.00     0.120 A 
ATOM     16  C   UNL     1       3.934  -4.892   7.223  1.00  0.00     0.093 A 
ATOM     17  C   UNL     1       5.223  -4.374   7.063  1.00  0.00     0.131 A 
ENDROOT
BRANCH   6  18
ATOM     18  O   UNL     1       9.324  -1.157   6.153  1.00  0.00    -0.507 OA
ATOM     19  H   UNL     1       9.911  -1.578   6.860  1.00  0.00     0.293 HD
ENDBRANCH   6  18
BRANCH  17  20
ATOM     20  O   UNL     1       6.251  -5.277   6.784  1.00  0.00    -0.507 OA
ATOM     21  H   UNL     1       7.095  -5.027   6.287  1.00  0.00     0.293 HD
ENDBRANCH  17  20
BRANCH  15  22
ATOM     22  O   UNL     1       1.557  -4.561   7.567  1.00  0.00    -0.508 OA
ATOM     23  H   UNL     1       0.873  -4.116   8.169  1.00  0.00     0.293 HD
ENDBRANCH  15  22
TORSDOF 3
ENDMDL
MODEL 9
REMARK VINA RESULT:    -5.286     12.909     14.592
REMARK INTER + INTRA:          -5.749
REMARK INTER:                  -5.749
REMARK INTRA:                   0.000
REMARK UNBOUND:                 0.000
REMARK SMILES Cc1cc(O)c2c(c1)C(=O)c1cc(O)cc(O)c1C2=O
REMARK SMILES IDX 1 1 2 2 8 3 7 4 6 5 4 6 3 7 19 8 20 9 18 10 11 11 9 12 10 13
REMARK SMILES IDX 12 14 13 15 15 16 16 17 5 18 17 20 14 22
REMARK H PARENT 5 19 17 21 14 23
REMARK Flexibility Score: inf
ROOT
ATOM      1  C   UNL     1      -8.775  -6.595   3.281  1.00  0.00     0.044 C 
ATOM      2  C   UNL     1      -7.645  -6.611   4.269  1.00  0.00    -0.047 A 
ATOM      3  C   UNL     1      -6.429  -5.993   3.960  1.00  0.00     0.016 A 
ATOM      4  C   UNL     1      -5.351  -6.039   4.859  1.00  0.00     0.038 A 
ATOM      5  C   UNL     1      -5.484  -6.739   6.080  1.00  0.00     0.076 A 
ATOM      6  C   UNL     1      -6.733  -7.325   6.409  1.00  0.00     0.127 A 
ATOM      7  C   UNL     1      -7.785  -7.282   5.488  1.00  0.00     0.050 A 
ATOM      8  C   UNL     1      -4.279  -6.891   6.936  1.00  0.00     0.201 C 
ATOM      9  O   UNL     1      -4.156  -7.908   7.671  1.00  0.00    -0.288 OA
ATOM     10  C   UNL     1      -3.141  -5.948   6.783  1.00  0.00     0.076 A 
ATOM     11  C   UNL     1      -3.012  -5.250   5.561  1.00  0.00     0.041 A 
ATOM     12  C   UNL     1      -4.077  -5.355   4.535  1.00  0.00     0.194 C 
ATOM     13  O   UNL     1      -3.908  -4.840   3.396  1.00  0.00    -0.289 OA
ATOM     14  C   UNL     1      -1.878  -4.455   5.326  1.00  0.00     0.059 A 
ATOM     15  C   UNL     1      -0.883  -4.336   6.296  1.00  0.00     0.120 A 
ATOM     16  C   UNL     1      -1.024  -4.992   7.521  1.00  0.00     0.093 A 
ATOM     17  C   UNL     1      -2.154  -5.772   7.788  1.00  0.00     0.131 A 
ENDROOT
BRANCH   6  18
ATOM     18  O   UNL     1      -6.984  -7.926   7.644  1.00  0.00    -0.507 OA
ATOM     19  H   UNL     1      -7.376  -7.434   8.436  1.00  0.00     0.293 HD
ENDBRANCH   6  18
BRANCH  17  20
ATOM     20  O   UNL     1      -2.270  -6.323   9.066  1.00  0.00    -0.507 OA
ATOM     21  H   UNL     1      -2.003  -5.836   9.911  1.00  0.00     0.293 HD
ENDBRANCH  17  20
BRANCH  15  22
ATOM     22  O   UNL     1       0.241  -3.553   6.035  1.00  0.00    -0.508 OA
ATOM     23  H   UNL     1       0.199  -2.541   6.059  1.00  0.00     0.293 HD
ENDBRANCH  15  22
TORSDOF 3
ENDMDL
