MODEL 1
REMARK VINA RESULT:    -3.175      0.000      0.000
REMARK INTER + INTRA:          -4.541
REMARK INTER:                  -4.289
REMARK INTRA:                  -0.252
REMARK UNBOUND:                -0.252
REMARK SMILES CCCCCCCC(=O)[O-]
REMARK SMILES IDX 5 1 6 2 7 3 8 4 9 5 10 6 4 7 3 8 2 9 1 10
REMARK H PARENT
REMARK Flexibility Score: inf
ROOT
ATOM      1  C   UNL     1      30.342  18.219  52.558  1.00  0.00     0.000 C 
ENDROOT
BRANCH   1   2
ATOM      2  C   UNL     1      29.241  18.290  51.493  1.00  0.00     0.006 C 
BRANCH   2   3
ATOM      3  C   UNL     1      28.326  17.063  51.566  1.00  0.00     0.053 C 
BRANCH   3   4
ATOM      4  C   UNL     1      26.923  17.473  51.881  1.00  0.00     0.041 C 
ATOM      5  O   UNL     1      26.669  18.093  52.947  1.00  0.00    -0.550 OA
ATOM      6  O   UNL     1      25.902  17.214  50.976  1.00  0.00    -0.550 OA
ENDBRANCH   3   4
ENDBRANCH   2   3
ENDBRANCH   1   2
BRANCH   1   7
ATOM      7  C   UNL     1      31.077  16.871  52.499  1.00  0.00     0.000 C 
BRANCH   7   8
ATOM      8  C   UNL     1      31.964  16.726  51.249  1.00  0.00    -0.000 C 
BRANCH   8   9
ATOM      9  C   UNL     1      33.125  15.725  51.392  1.00  0.00    -0.003 C 
ATOM     10  C   UNL     1      33.049  14.900  52.676  1.00  0.00     0.004 C 
ENDBRANCH   8   9
ENDBRANCH   7   8
ENDBRANCH   1   7
TORSDOF 6
ENDMDL
MODEL 2
REMARK VINA RESULT:    -3.056     16.246     17.535
REMARK INTER + INTRA:          -4.380
REMARK INTER:                  -4.087
REMARK INTRA:                  -0.293
REMARK UNBOUND:                -0.252
REMARK SMILES CCCCCCCC(=O)[O-]
REMARK SMILES IDX 5 1 6 2 7 3 8 4 9 5 10 6 4 7 3 8 2 9 1 10
REMARK H PARENT
REMARK Flexibility Score: inf
ROOT
ATOM      1  C   UNL     1      18.639  28.578  55.723  1.00  0.00     0.000 C 
ENDROOT
BRANCH   1   2
ATOM      2  C   UNL     1      19.922  28.808  56.530  1.00  0.00     0.006 C 
BRANCH   2   3
ATOM      3  C   UNL     1      20.773  29.917  55.904  1.00  0.00     0.053 C 
BRANCH   3   4
ATOM      4  C   UNL     1      21.888  30.304  56.823  1.00  0.00     0.041 C 
ATOM      5  O   UNL     1      21.734  30.231  58.071  1.00  0.00    -0.550 OA
ATOM      6  O   UNL     1      23.114  30.698  56.304  1.00  0.00    -0.550 OA
ENDBRANCH   3   4
ENDBRANCH   2   3
ENDBRANCH   1   2
BRANCH   1   7
ATOM      7  C   UNL     1      18.571  29.526  54.516  1.00  0.00     0.000 C 
BRANCH   7   8
ATOM      8  C   UNL     1      17.138  29.990  54.198  1.00  0.00    -0.000 C 
BRANCH   8   9
ATOM      9  C   UNL     1      16.059  29.466  55.162  1.00  0.00    -0.003 C 
ATOM     10  C   UNL     1      15.141  28.424  54.523  1.00  0.00     0.004 C 
ENDBRANCH   8   9
ENDBRANCH   7   8
ENDBRANCH   1   7
TORSDOF 6
ENDMDL
MODEL 3
REMARK VINA RESULT:    -3.050     16.112     17.534
REMARK INTER + INTRA:          -4.373
REMARK INTER:                  -4.204
REMARK INTRA:                  -0.169
REMARK UNBOUND:                -0.252
REMARK SMILES CCCCCCCC(=O)[O-]
REMARK SMILES IDX 5 1 6 2 7 3 8 4 9 5 10 6 4 7 3 8 2 9 1 10
REMARK H PARENT
REMARK Flexibility Score: inf
ROOT
ATOM      1  C   UNL     1      20.414  29.220  55.521  1.00  0.00     0.000 C 
ENDROOT
BRANCH   1   2
ATOM      2  C   UNL     1      21.105  30.225  56.449  1.00  0.00     0.006 C 
BRANCH   2   3
ATOM      3  C   UNL     1      21.697  29.523  57.676  1.00  0.00     0.053 C 
BRANCH   3   4
ATOM      4  C   UNL     1      20.728  29.549  58.814  1.00  0.00     0.041 C 
ATOM      5  O   UNL     1      19.866  28.639  58.933  1.00  0.00    -0.550 OA
ATOM      6  O   UNL     1      20.806  30.551  59.772  1.00  0.00    -0.550 OA
ENDBRANCH   3   4
ENDBRANCH   2   3
ENDBRANCH   1   2
BRANCH   1   7
ATOM      7  C   UNL     1      19.160  29.835  54.881  1.00  0.00     0.000 C 
BRANCH   7   8
ATOM      8  C   UNL     1      17.880  29.031  55.177  1.00  0.00    -0.000 C 
BRANCH   8   9
ATOM      9  C   UNL     1      16.571  29.718  54.748  1.00  0.00    -0.003 C 
ATOM     10  C   UNL     1      15.395  28.748  54.639  1.00  0.00     0.004 C 
ENDBRANCH   8   9
ENDBRANCH   7   8
ENDBRANCH   1   7
TORSDOF 6
ENDMDL
MODEL 4
REMARK VINA RESULT:    -3.002     12.890     14.439
REMARK INTER + INTRA:          -4.308
REMARK INTER:                  -4.083
REMARK INTRA:                  -0.225
REMARK UNBOUND:                -0.252
REMARK SMILES CCCCCCCC(=O)[O-]
REMARK SMILES IDX 5 1 6 2 7 3 8 4 9 5 10 6 4 7 3 8 2 9 1 10
REMARK H PARENT
REMARK Flexibility Score: inf
ROOT
ATOM      1  C   UNL     1      16.303  18.972  50.298  1.00  0.00     0.000 C 
ENDROOT
BRANCH   1   2
ATOM      2  C   UNL     1      15.962  19.003  48.804  1.00  0.00     0.006 C 
BRANCH   2   3
ATOM      3  C   UNL     1      14.450  18.885  48.582  1.00  0.00     0.053 C 
BRANCH   3   4
ATOM      4  C   UNL     1      14.151  18.617  47.142  1.00  0.00     0.041 C 
ATOM      5  O   UNL     1      13.734  19.543  46.399  1.00  0.00    -0.550 OA
ATOM      6  O   UNL     1      14.379  17.355  46.607  1.00  0.00    -0.550 OA
ENDBRANCH   3   4
ENDBRANCH   2   3
ENDBRANCH   1   2
BRANCH   1   7
ATOM      7  C   UNL     1      17.748  18.503  50.522  1.00  0.00     0.000 C 
BRANCH   7   8
ATOM      8  C   UNL     1      17.928  17.721  51.837  1.00  0.00    -0.000 C 
BRANCH   8   9
ATOM      9  C   UNL     1      16.625  17.447  52.609  1.00  0.00    -0.003 C 
ATOM     10  C   UNL     1      16.588  18.122  53.980  1.00  0.00     0.004 C 
ENDBRANCH   8   9
ENDBRANCH   7   8
ENDBRANCH   1   7
TORSDOF 6
ENDMDL
MODEL 5
REMARK VINA RESULT:    -2.986     13.154     14.102
REMARK INTER + INTRA:          -4.286
REMARK INTER:                  -4.129
REMARK INTRA:                  -0.157
REMARK UNBOUND:                -0.252
REMARK SMILES CCCCCCCC(=O)[O-]
REMARK SMILES IDX 5 1 6 2 7 3 8 4 9 5 10 6 4 7 3 8 2 9 1 10
REMARK H PARENT
REMARK Flexibility Score: inf
ROOT
ATOM      1  C   UNL     1      17.262  19.208  49.074  1.00  0.00     0.000 C 
ENDROOT
BRANCH   1   2
ATOM      2  C   UNL     1      17.340  18.293  47.848  1.00  0.00     0.006 C 
BRANCH   2   3
ATOM      3  C   UNL     1      16.397  18.774  46.741  1.00  0.00     0.053 C 
BRANCH   3   4
ATOM      4  C   UNL     1      15.088  18.055  46.819  1.00  0.00     0.041 C 
ATOM      5  O   UNL     1      14.902  17.004  46.151  1.00  0.00    -0.550 OA
ATOM      6  O   UNL     1      14.089  18.517  47.667  1.00  0.00    -0.550 OA
ENDBRANCH   3   4
ENDBRANCH   2   3
ENDBRANCH   1   2
BRANCH   1   7
ATOM      7  C   UNL     1      17.688  18.461  50.347  1.00  0.00     0.000 C 
BRANCH   7   8
ATOM      8  C   UNL     1      16.563  18.369  51.394  1.00  0.00    -0.000 C 
BRANCH   8   9
ATOM      9  C   UNL     1      16.875  17.468  52.602  1.00  0.00    -0.003 C 
ATOM     10  C   UNL     1      16.617  18.155  53.943  1.00  0.00     0.004 C 
ENDBRANCH   8   9
ENDBRANCH   7   8
ENDBRANCH   1   7
TORSDOF 6
ENDMDL
MODEL 6
REMARK VINA RESULT:    -2.860     12.015     13.279
REMARK INTER + INTRA:          -4.115
REMARK INTER:                  -3.956
REMARK INTRA:                  -0.159
REMARK UNBOUND:                -0.252
REMARK SMILES CCCCCCCC(=O)[O-]
REMARK SMILES IDX 5 1 6 2 7 3 8 4 9 5 10 6 4 7 3 8 2 9 1 10
REMARK H PARENT
REMARK Flexibility Score: inf
ROOT
ATOM      1  C   UNL     1      17.723  18.892  50.717  1.00  0.00     0.000 C 
ENDROOT
BRANCH   1   2
ATOM      2  C   UNL     1      18.091  17.851  51.781  1.00  0.00     0.006 C 
BRANCH   2   3
ATOM      3  C   UNL     1      16.878  17.499  52.649  1.00  0.00     0.053 C 
BRANCH   3   4
ATOM      4  C   UNL     1      16.795  18.414  53.829  1.00  0.00     0.041 C 
ATOM      5  O   UNL     1      15.684  18.641  54.377  1.00  0.00    -0.550 OA
ATOM      6  O   UNL     1      17.949  18.977  54.356  1.00  0.00    -0.550 OA
ENDBRANCH   3   4
ENDBRANCH   2   3
ENDBRANCH   1   2
BRANCH   1   7
ATOM      7  C   UNL     1      17.730  18.268  49.313  1.00  0.00     0.000 C 
BRANCH   7   8
ATOM      8  C   UNL     1      16.828  19.021  48.318  1.00  0.00    -0.000 C 
BRANCH   8   9
ATOM      9  C   UNL     1      16.571  18.284  46.992  1.00  0.00    -0.003 C 
ATOM     10  C   UNL     1      17.520  18.715  45.874  1.00  0.00     0.004 C 
ENDBRANCH   8   9
ENDBRANCH   7   8
ENDBRANCH   1   7
TORSDOF 6
ENDMDL
MODEL 7
REMARK VINA RESULT:    -2.841     15.992     16.866
REMARK INTER + INTRA:          -4.090
REMARK INTER:                  -3.816
REMARK INTRA:                  -0.274
REMARK UNBOUND:                -0.252
REMARK SMILES CCCCCCCC(=O)[O-]
REMARK SMILES IDX 5 1 6 2 7 3 8 4 9 5 10 6 4 7 3 8 2 9 1 10
REMARK H PARENT
REMARK Flexibility Score: inf
ROOT
ATOM      1  C   UNL     1      20.415  30.271  55.829  1.00  0.00     0.000 C 
ENDROOT
BRANCH   1   2
ATOM      2  C   UNL     1      19.657  29.164  55.087  1.00  0.00     0.006 C 
BRANCH   2   3
ATOM      3  C   UNL     1      18.340  29.692  54.509  1.00  0.00     0.053 C 
BRANCH   3   4
ATOM      4  C   UNL     1      17.178  29.184  55.302  1.00  0.00     0.041 C 
ATOM      5  O   UNL     1      17.371  28.476  56.325  1.00  0.00    -0.550 OA
ATOM      6  O   UNL     1      15.883  29.533  54.942  1.00  0.00    -0.550 OA
ENDBRANCH   3   4
ENDBRANCH   2   3
ENDBRANCH   1   2
BRANCH   1   7
ATOM      7  C   UNL     1      21.903  29.916  55.972  1.00  0.00     0.000 C 
BRANCH   7   8
ATOM      8  C   UNL     1      22.360  29.832  57.440  1.00  0.00    -0.000 C 
BRANCH   8   9
ATOM      9  C   UNL     1      21.403  30.483  58.455  1.00  0.00    -0.003 C 
ATOM     10  C   UNL     1      20.819  29.484  59.453  1.00  0.00     0.004 C 
ENDBRANCH   8   9
ENDBRANCH   7   8
ENDBRANCH   1   7
TORSDOF 6
ENDMDL
MODEL 8
REMARK VINA RESULT:    -2.838     16.151     17.202
REMARK INTER + INTRA:          -4.085
REMARK INTER:                  -3.843
REMARK INTRA:                  -0.242
REMARK UNBOUND:                -0.252
REMARK SMILES CCCCCCCC(=O)[O-]
REMARK SMILES IDX 5 1 6 2 7 3 8 4 9 5 10 6 4 7 3 8 2 9 1 10
REMARK H PARENT
REMARK Flexibility Score: inf
ROOT
ATOM      1  C   UNL     1      18.469  29.069  54.222  1.00  0.00     0.000 C 
ENDROOT
BRANCH   1   2
ATOM      2  C   UNL     1      17.226  29.967  54.216  1.00  0.00     0.006 C 
BRANCH   2   3
ATOM      3  C   UNL     1      16.173  29.455  55.203  1.00  0.00     0.053 C 
BRANCH   3   4
ATOM      4  C   UNL     1      15.502  28.231  54.666  1.00  0.00     0.041 C 
ATOM      5  O   UNL     1      14.856  28.285  53.587  1.00  0.00    -0.550 OA
ATOM      6  O   UNL     1      15.633  27.018  55.329  1.00  0.00    -0.550 OA
ENDBRANCH   3   4
ENDBRANCH   2   3
ENDBRANCH   1   2
BRANCH   1   7
ATOM      7  C   UNL     1      19.186  29.133  55.579  1.00  0.00     0.000 C 
BRANCH   7   8
ATOM      8  C   UNL     1      20.493  29.946  55.529  1.00  0.00    -0.000 C 
BRANCH   8   9
ATOM      9  C   UNL     1      21.104  30.274  56.904  1.00  0.00    -0.003 C 
ATOM     10  C   UNL     1      22.631  30.328  56.882  1.00  0.00     0.004 C 
ENDBRANCH   8   9
ENDBRANCH   7   8
ENDBRANCH   1   7
TORSDOF 6
ENDMDL
MODEL 9
REMARK VINA RESULT:    -2.821     16.172     17.784
REMARK INTER + INTRA:          -4.062
REMARK INTER:                  -3.671
REMARK INTRA:                  -0.392
REMARK UNBOUND:                -0.252
REMARK SMILES CCCCCCCC(=O)[O-]
REMARK SMILES IDX 5 1 6 2 7 3 8 4 9 5 10 6 4 7 3 8 2 9 1 10
REMARK H PARENT
REMARK Flexibility Score: inf
ROOT
ATOM      1  C   UNL     1      17.403  30.025  54.119  1.00  0.00     0.000 C 
ENDROOT
BRANCH   1   2
ATOM      2  C   UNL     1      18.653  29.175  54.368  1.00  0.00     0.006 C 
BRANCH   2   3
ATOM      3  C   UNL     1      19.653  29.915  55.263  1.00  0.00     0.053 C 
BRANCH   3   4
ATOM      4  C   UNL     1      20.053  29.059  56.422  1.00  0.00     0.041 C 
ATOM      5  O   UNL     1      19.183  28.415  57.064  1.00  0.00    -0.550 OA
ATOM      6  O   UNL     1      21.394  28.932  56.763  1.00  0.00    -0.550 OA
ENDBRANCH   3   4
ENDBRANCH   2   3
ENDBRANCH   1   2
BRANCH   1   7
ATOM      7  C   UNL     1      16.212  29.507  54.939  1.00  0.00     0.000 C 
BRANCH   7   8
ATOM      8  C   UNL     1      16.223  27.976  55.109  1.00  0.00    -0.000 C 
BRANCH   8   9
ATOM      9  C   UNL     1      14.869  27.288  54.857  1.00  0.00    -0.003 C 
ATOM     10  C   UNL     1      14.045  27.970  53.766  1.00  0.00     0.004 C 
ENDBRANCH   8   9
ENDBRANCH   7   8
ENDBRANCH   1   7
TORSDOF 6
ENDMDL
