MODEL 1
REMARK VINA RESULT:     2.038      0.000      0.000
REMARK INTER + INTRA:           2.240
REMARK INTER:                   2.456
REMARK INTRA:                  -0.216
REMARK UNBOUND:                -0.216
REMARK SMILES O=c1c(O)c(-c2ccc(O)cc2O)oc2cc(O)cc(O)c12
REMARK SMILES IDX 5 1 3 2 2 3 1 4 22 5 20 6 19 7 17 8 16 9 15 10 14 11 6 12
REMARK SMILES IDX 8 13 7 14 9 15 11 16 12 17 10 18 13 20 4 22 21 24 18 26
REMARK H PARENT 10 19 13 21 4 23 21 25 18 27
REMARK Flexibility Score: inf
ROOT
ATOM      1  C   UNL     1     -37.532 -35.478 -33.833  1.00  0.00     0.184 A 
ATOM      2  C   UNL     1     -36.129 -35.460 -33.884  1.00  0.00     0.208 A 
ATOM      3  C   UNL     1     -35.490 -35.592 -35.128  1.00  0.00     0.238 A 
ATOM      4  O   UNL     1     -34.236 -35.502 -35.173  1.00  0.00    -0.285 OA
ATOM      5  C   UNL     1     -36.262 -35.792 -36.298  1.00  0.00     0.111 A 
ATOM      6  C   UNL     1     -35.720 -35.982 -37.605  1.00  0.00     0.134 A 
ATOM      7  C   UNL     1     -36.582 -36.064 -38.706  1.00  0.00     0.093 A 
ATOM      8  C   UNL     1     -37.968 -36.026 -38.540  1.00  0.00     0.123 A 
ATOM      9  C   UNL     1     -38.508 -35.895 -37.263  1.00  0.00     0.094 A 
ATOM     10  C   UNL     1     -37.673 -35.774 -36.148  1.00  0.00     0.146 A 
ATOM     11  O   UNL     1     -38.231 -35.630 -34.952  1.00  0.00    -0.451 OA
ENDROOT
BRANCH   1  12
ATOM     12  C   UNL     1     -38.272 -35.330 -32.559  1.00  0.00     0.063 A 
ATOM     13  C   UNL     1     -38.615 -35.962 -30.233  1.00  0.00     0.047 A 
ATOM     14  C   UNL     1     -37.935 -36.119 -31.444  1.00  0.00     0.020 A 
ATOM     15  C   UNL     1     -39.631 -35.007 -30.115  1.00  0.00     0.119 A 
ATOM     16  C   UNL     1     -39.962 -34.207 -31.214  1.00  0.00     0.093 A 
ATOM     17  C   UNL     1     -39.288 -34.361 -32.433  1.00  0.00     0.130 A 
BRANCH  15  18
ATOM     18  O   UNL     1     -40.314 -34.840 -28.913  1.00  0.00    -0.508 OA
ATOM     19  H   UNL     1     -39.830 -34.587 -28.059  1.00  0.00     0.293 HD
ENDBRANCH  15  18
BRANCH  17  20
ATOM     20  O   UNL     1     -39.632 -33.561 -33.523  1.00  0.00    -0.507 OA
ATOM     21  H   UNL     1     -40.551 -33.610 -33.949  1.00  0.00     0.293 HD
ENDBRANCH  17  20
ENDBRANCH   1  12
BRANCH   2  22
ATOM     22  O   UNL     1     -35.387 -35.329 -32.707  1.00  0.00    -0.502 OA
ATOM     23  H   UNL     1     -35.442 -36.002 -31.951  1.00  0.00     0.293 HD
ENDBRANCH   2  22
BRANCH   6  24
ATOM     24  O   UNL     1     -34.354 -36.124 -37.874  1.00  0.00    -0.507 OA
ATOM     25  H   UNL     1     -33.802 -36.936 -37.645  1.00  0.00     0.293 HD
ENDBRANCH   6  24
BRANCH   8  26
ATOM     26  O   UNL     1     -38.819 -36.123 -39.638  1.00  0.00    -0.508 OA
ATOM     27  H   UNL     1     -39.112 -35.302 -40.155  1.00  0.00     0.293 HD
ENDBRANCH   8  26
TORSDOF 6
ENDMDL
