MODEL 1
REMARK VINA RESULT:    -3.730      0.000      0.000
REMARK INTER + INTRA:          -7.255
REMARK INTER:                  -5.911
REMARK INTRA:                  -1.345
REMARK UNBOUND:                -1.345
REMARK SMILES CCCCCCCCCCCC(=O)[O-]
REMARK SMILES IDX 7 1 8 2 9 3 10 4 11 5 12 6 13 7 14 8 6 9 5 10 4 11 3 12 2 13
REMARK SMILES IDX 1 14
REMARK H PARENT
REMARK Flexibility Score: inf
ROOT
ATOM      1  C   UNL     1     -21.721 117.383  -1.986  1.00  0.00     0.000 C 
ENDROOT
BRANCH   1   2
ATOM      2  C   UNL     1     -20.508 118.107  -2.609  1.00  0.00     0.000 C 
BRANCH   2   3
ATOM      3  C   UNL     1     -19.848 119.132  -1.666  1.00  0.00     0.000 C 
BRANCH   3   4
ATOM      4  C   UNL     1     -20.233 120.597  -1.935  1.00  0.00     0.006 C 
BRANCH   4   5
ATOM      5  C   UNL     1     -21.248 121.138  -0.919  1.00  0.00     0.053 C 
BRANCH   5   6
ATOM      6  C   UNL     1     -22.642 120.936  -1.419  1.00  0.00     0.041 C 
ATOM      7  O   UNL     1     -23.613 120.964  -0.618  1.00  0.00    -0.550 OA
ATOM      8  O   UNL     1     -22.878 120.766  -2.778  1.00  0.00    -0.550 OA
ENDBRANCH   5   6
ENDBRANCH   4   5
ENDBRANCH   3   4
ENDBRANCH   2   3
ENDBRANCH   1   2
BRANCH   1   9
ATOM      9  C   UNL     1     -21.562 117.185  -0.468  1.00  0.00     0.000 C 
BRANCH   9  10
ATOM     10  C   UNL     1     -21.763 115.722  -0.034  1.00  0.00    -0.000 C 
BRANCH  10  11
ATOM     11  C   UNL     1     -21.085 114.676  -0.940  1.00  0.00    -0.000 C 
BRANCH  11  12
ATOM     12  C   UNL     1     -19.582 114.457  -0.677  1.00  0.00    -0.000 C 
BRANCH  12  13
ATOM     13  C   UNL     1     -18.660 114.805  -1.859  1.00  0.00    -0.003 C 
ATOM     14  C   UNL     1     -17.716 115.968  -1.556  1.00  0.00     0.004 C 
ENDBRANCH  12  13
ENDBRANCH  11  12
ENDBRANCH  10  11
ENDBRANCH   9  10
ENDBRANCH   1   9
TORSDOF 10
ENDMDL
MODEL 2
REMARK VINA RESULT:    -3.710      1.138      2.529
REMARK INTER + INTRA:          -7.223
REMARK INTER:                  -6.052
REMARK INTRA:                  -1.171
REMARK UNBOUND:                -1.345
REMARK SMILES CCCCCCCCCCCC(=O)[O-]
REMARK SMILES IDX 7 1 8 2 9 3 10 4 11 5 12 6 13 7 14 8 6 9 5 10 4 11 3 12 2 13
REMARK SMILES IDX 1 14
REMARK H PARENT
REMARK Flexibility Score: inf
ROOT
ATOM      1  C   UNL     1     -19.261 117.105  -1.892  1.00  0.00     0.000 C 
ENDROOT
BRANCH   1   2
ATOM      2  C   UNL     1     -20.244 118.295  -1.868  1.00  0.00     0.000 C 
BRANCH   2   3
ATOM      3  C   UNL     1     -19.601 119.620  -1.413  1.00  0.00     0.000 C 
BRANCH   3   4
ATOM      4  C   UNL     1     -20.436 120.877  -1.710  1.00  0.00     0.006 C 
BRANCH   4   5
ATOM      5  C   UNL     1     -21.623 121.040  -0.751  1.00  0.00     0.053 C 
BRANCH   5   6
ATOM      6  C   UNL     1     -22.913 120.857  -1.485  1.00  0.00     0.041 C 
ATOM      7  O   UNL     1     -24.008 120.911  -0.864  1.00  0.00    -0.550 OA
ATOM      8  O   UNL     1     -22.912 120.678  -2.862  1.00  0.00    -0.550 OA
ENDBRANCH   5   6
ENDBRANCH   4   5
ENDBRANCH   3   4
ENDBRANCH   2   3
ENDBRANCH   1   2
BRANCH   1   9
ATOM      9  C   UNL     1     -19.849 115.852  -1.220  1.00  0.00     0.000 C 
BRANCH   9  10
ATOM     10  C   UNL     1     -21.051 115.272  -1.987  1.00  0.00    -0.000 C 
BRANCH  10  11
ATOM     11  C   UNL     1     -22.413 115.442  -1.287  1.00  0.00    -0.000 C 
BRANCH  11  12
ATOM     12  C   UNL     1     -22.339 115.817   0.207  1.00  0.00    -0.000 C 
BRANCH  12  13
ATOM     13  C   UNL     1     -22.781 117.255   0.535  1.00  0.00    -0.003 C 
ATOM     14  C   UNL     1     -21.849 117.952   1.526  1.00  0.00     0.004 C 
ENDBRANCH  12  13
ENDBRANCH  11  12
ENDBRANCH  10  11
ENDBRANCH   9  10
ENDBRANCH   1   9
TORSDOF 10
ENDMDL
MODEL 3
REMARK VINA RESULT:    -3.701      2.939      5.862
REMARK INTER + INTRA:          -7.210
REMARK INTER:                  -5.895
REMARK INTRA:                  -1.314
REMARK UNBOUND:                -1.345
REMARK SMILES CCCCCCCCCCCC(=O)[O-]
REMARK SMILES IDX 7 1 8 2 9 3 10 4 11 5 12 6 13 7 14 8 6 9 5 10 4 11 3 12 2 13
REMARK SMILES IDX 1 14
REMARK H PARENT
REMARK Flexibility Score: inf
ROOT
ATOM      1  C   UNL     1     -21.761 116.961  -2.498  1.00  0.00     0.000 C 
ENDROOT
BRANCH   1   2
ATOM      2  C   UNL     1     -22.208 116.948  -1.021  1.00  0.00     0.000 C 
BRANCH   2   3
ATOM      3  C   UNL     1     -21.727 115.709  -0.240  1.00  0.00     0.000 C 
BRANCH   3   4
ATOM      4  C   UNL     1     -20.730 114.816  -0.998  1.00  0.00     0.006 C 
BRANCH   4   5
ATOM      5  C   UNL     1     -19.330 114.827  -0.372  1.00  0.00     0.053 C 
BRANCH   5   6
ATOM      6  C   UNL     1     -18.302 115.169  -1.402  1.00  0.00     0.041 C 
ATOM      7  O   UNL     1     -18.636 115.307  -2.609  1.00  0.00    -0.550 OA
ATOM      8  O   UNL     1     -16.983 115.385  -1.026  1.00  0.00    -0.550 OA
ENDBRANCH   5   6
ENDBRANCH   4   5
ENDBRANCH   3   4
ENDBRANCH   2   3
ENDBRANCH   1   2
BRANCH   1   9
ATOM      9  C   UNL     1     -20.958 118.226  -2.851  1.00  0.00     0.000 C 
BRANCH   9  10
ATOM     10  C   UNL     1     -19.888 118.566  -1.798  1.00  0.00    -0.000 C 
BRANCH  10  11
ATOM     11  C   UNL     1     -19.771 120.062  -1.450  1.00  0.00    -0.000 C 
BRANCH  11  12
ATOM     12  C   UNL     1     -20.772 120.568  -0.391  1.00  0.00    -0.000 C 
BRANCH  12  13
ATOM     13  C   UNL     1     -22.027 121.251  -0.962  1.00  0.00    -0.003 C 
ATOM     14  C   UNL     1     -23.321 120.530  -0.586  1.00  0.00     0.004 C 
ENDBRANCH  12  13
ENDBRANCH  11  12
ENDBRANCH  10  11
ENDBRANCH   9  10
ENDBRANCH   1   9
TORSDOF 10
ENDMDL
MODEL 4
REMARK VINA RESULT:    -3.691      1.735      3.020
REMARK INTER + INTRA:          -7.193
REMARK INTER:                  -5.891
REMARK INTRA:                  -1.302
REMARK UNBOUND:                -1.345
REMARK SMILES CCCCCCCCCCCC(=O)[O-]
REMARK SMILES IDX 7 1 8 2 9 3 10 4 11 5 12 6 13 7 14 8 6 9 5 10 4 11 3 12 2 13
REMARK SMILES IDX 1 14
REMARK H PARENT
REMARK Flexibility Score: inf
ROOT
ATOM      1  C   UNL     1     -19.929 118.765  -1.546  1.00  0.00     0.000 C 
ENDROOT
BRANCH   1   2
ATOM      2  C   UNL     1     -20.316 120.205  -1.945  1.00  0.00     0.000 C 
BRANCH   2   3
ATOM      3  C   UNL     1     -21.032 120.987  -0.827  1.00  0.00     0.000 C 
BRANCH   3   4
ATOM      4  C   UNL     1     -22.568 120.922  -0.878  1.00  0.00     0.006 C 
BRANCH   4   5
ATOM      5  C   UNL     1     -23.109 120.799  -2.309  1.00  0.00     0.053 C 
BRANCH   5   6
ATOM      6  C   UNL     1     -24.550 121.191  -2.356  1.00  0.00     0.041 C 
ATOM      7  O   UNL     1     -25.201 121.343  -1.288  1.00  0.00    -0.550 OA
ATOM      8  O   UNL     1     -25.166 121.439  -3.576  1.00  0.00    -0.550 OA
ENDBRANCH   5   6
ENDBRANCH   4   5
ENDBRANCH   3   4
ENDBRANCH   2   3
ENDBRANCH   1   2
BRANCH   1   9
ATOM      9  C   UNL     1     -20.420 117.726  -2.570  1.00  0.00     0.000 C 
BRANCH   9  10
ATOM     10  C   UNL     1     -21.707 117.011  -2.124  1.00  0.00    -0.000 C 
BRANCH  10  11
ATOM     11  C   UNL     1     -21.508 115.921  -1.053  1.00  0.00    -0.000 C 
BRANCH  11  12
ATOM     12  C   UNL     1     -22.385 116.072   0.206  1.00  0.00    -0.000 C 
BRANCH  12  13
ATOM     13  C   UNL     1     -22.644 117.525   0.643  1.00  0.00    -0.003 C 
ATOM     14  C   UNL     1     -21.719 117.982   1.770  1.00  0.00     0.004 C 
ENDBRANCH  12  13
ENDBRANCH  11  12
ENDBRANCH  10  11
ENDBRANCH   9  10
ENDBRANCH   1   9
TORSDOF 10
ENDMDL
MODEL 5
REMARK VINA RESULT:    -3.665      3.220      5.355
REMARK INTER + INTRA:          -7.152
REMARK INTER:                  -5.811
REMARK INTRA:                  -1.340
REMARK UNBOUND:                -1.345
REMARK SMILES CCCCCCCCCCCC(=O)[O-]
REMARK SMILES IDX 7 1 8 2 9 3 10 4 11 5 12 6 13 7 14 8 6 9 5 10 4 11 3 12 2 13
REMARK SMILES IDX 1 14
REMARK H PARENT
REMARK Flexibility Score: inf
ROOT
ATOM      1  C   UNL     1     -20.070 120.667  -1.901  1.00  0.00     0.000 C 
ENDROOT
BRANCH   1   2
ATOM      2  C   UNL     1     -20.860 119.896  -2.979  1.00  0.00     0.000 C 
BRANCH   2   3
ATOM      3  C   UNL     1     -20.730 118.364  -2.866  1.00  0.00     0.000 C 
BRANCH   3   4
ATOM      4  C   UNL     1     -19.776 117.879  -1.760  1.00  0.00     0.006 C 
BRANCH   4   5
ATOM      5  C   UNL     1     -19.638 116.351  -1.725  1.00  0.00     0.053 C 
BRANCH   5   6
ATOM      6  C   UNL     1     -18.265 115.943  -2.152  1.00  0.00     0.041 C 
ATOM      7  O   UNL     1     -17.266 116.240  -1.445  1.00  0.00    -0.550 OA
ATOM      8  O   UNL     1     -18.090 115.191  -3.307  1.00  0.00    -0.550 OA
ENDBRANCH   5   6
ENDBRANCH   4   5
ENDBRANCH   3   4
ENDBRANCH   2   3
ENDBRANCH   1   2
BRANCH   1   9
ATOM      9  C   UNL     1     -20.980 121.185  -0.773  1.00  0.00     0.000 C 
BRANCH   9  10
ATOM     10  C   UNL     1     -22.468 121.193  -1.164  1.00  0.00    -0.000 C 
BRANCH  10  11
ATOM     11  C   UNL     1     -23.385 120.353  -0.252  1.00  0.00    -0.000 C 
BRANCH  11  12
ATOM     12  C   UNL     1     -23.433 118.848  -0.580  1.00  0.00    -0.000 C 
BRANCH  12  13
ATOM     13  C   UNL     1     -23.083 117.918   0.595  1.00  0.00    -0.003 C 
ATOM     14  C   UNL     1     -21.787 118.313   1.302  1.00  0.00     0.004 C 
ENDBRANCH  12  13
ENDBRANCH  11  12
ENDBRANCH  10  11
ENDBRANCH   9  10
ENDBRANCH   1   9
TORSDOF 10
ENDMDL
MODEL 6
REMARK VINA RESULT:    -3.649      3.412      5.241
REMARK INTER + INTRA:          -7.127
REMARK INTER:                  -5.659
REMARK INTRA:                  -1.468
REMARK UNBOUND:                -1.345
REMARK SMILES CCCCCCCCCCCC(=O)[O-]
REMARK SMILES IDX 7 1 8 2 9 3 10 4 11 5 12 6 13 7 14 8 6 9 5 10 4 11 3 12 2 13
REMARK SMILES IDX 1 14
REMARK H PARENT
REMARK Flexibility Score: inf
ROOT
ATOM      1  C   UNL     1     -22.637 115.415  -0.650  1.00  0.00     0.000 C 
ENDROOT
BRANCH   1   2
ATOM      2  C   UNL     1     -21.146 115.052  -0.817  1.00  0.00     0.000 C 
BRANCH   2   3
ATOM      3  C   UNL     1     -20.690 114.968  -2.288  1.00  0.00     0.000 C 
BRANCH   3   4
ATOM      4  C   UNL     1     -19.864 116.170  -2.776  1.00  0.00     0.006 C 
BRANCH   4   5
ATOM      5  C   UNL     1     -18.760 116.570  -1.788  1.00  0.00     0.053 C 
BRANCH   5   6
ATOM      6  C   UNL     1     -17.575 115.672  -1.941  1.00  0.00     0.041 C 
ATOM      7  O   UNL     1     -16.878 115.364  -0.938  1.00  0.00    -0.550 OA
ATOM      8  O   UNL     1     -17.265 115.132  -3.183  1.00  0.00    -0.550 OA
ENDBRANCH   5   6
ENDBRANCH   4   5
ENDBRANCH   3   4
ENDBRANCH   2   3
ENDBRANCH   1   2
BRANCH   1   9
ATOM      9  C   UNL     1     -22.841 116.614   0.293  1.00  0.00     0.000 C 
BRANCH   9  10
ATOM     10  C   UNL     1     -21.549 117.417   0.524  1.00  0.00    -0.000 C 
BRANCH  10  11
ATOM     11  C   UNL     1     -21.589 118.873   0.020  1.00  0.00    -0.000 C 
BRANCH  11  12
ATOM     12  C   UNL     1     -21.973 119.042  -1.463  1.00  0.00    -0.000 C 
BRANCH  12  13
ATOM     13  C   UNL     1     -20.918 119.755  -2.327  1.00  0.00    -0.003 C 
ATOM     14  C   UNL     1     -19.743 120.292  -1.511  1.00  0.00     0.004 C 
ENDBRANCH  12  13
ENDBRANCH  11  12
ENDBRANCH  10  11
ENDBRANCH   9  10
ENDBRANCH   1   9
TORSDOF 10
ENDMDL
MODEL 7
REMARK VINA RESULT:    -3.640      3.413      5.323
REMARK INTER + INTRA:          -7.112
REMARK INTER:                  -5.878
REMARK INTRA:                  -1.234
REMARK UNBOUND:                -1.345
REMARK SMILES CCCCCCCCCCCC(=O)[O-]
REMARK SMILES IDX 7 1 8 2 9 3 10 4 11 5 12 6 13 7 14 8 6 9 5 10 4 11 3 12 2 13
REMARK SMILES IDX 1 14
REMARK H PARENT
REMARK Flexibility Score: inf
ROOT
ATOM      1  C   UNL     1     -22.512 115.682   0.126  1.00  0.00     0.000 C 
ENDROOT
BRANCH   1   2
ATOM      2  C   UNL     1     -21.567 115.281  -1.027  1.00  0.00     0.000 C 
BRANCH   2   3
ATOM      3  C   UNL     1     -20.080 115.564  -0.735  1.00  0.00     0.000 C 
BRANCH   3   4
ATOM      4  C   UNL     1     -19.443 116.645  -1.624  1.00  0.00     0.006 C 
BRANCH   4   5
ATOM      5  C   UNL     1     -19.507 116.297  -3.117  1.00  0.00     0.053 C 
BRANCH   5   6
ATOM      6  C   UNL     1     -18.327 115.466  -3.508  1.00  0.00     0.041 C 
ATOM      7  O   UNL     1     -18.380 114.731  -4.530  1.00  0.00    -0.550 OA
ATOM      8  O   UNL     1     -17.150 115.540  -2.775  1.00  0.00    -0.550 OA
ENDBRANCH   5   6
ENDBRANCH   4   5
ENDBRANCH   3   4
ENDBRANCH   2   3
ENDBRANCH   1   2
BRANCH   1   9
ATOM      9  C   UNL     1     -22.003 116.916   0.893  1.00  0.00     0.000 C 
BRANCH   9  10
ATOM     10  C   UNL     1     -22.695 118.219   0.453  1.00  0.00    -0.000 C 
BRANCH  10  11
ATOM     11  C   UNL     1     -21.778 119.234  -0.257  1.00  0.00    -0.000 C 
BRANCH  11  12
ATOM     12  C   UNL     1     -22.094 119.470  -1.748  1.00  0.00    -0.000 C 
BRANCH  12  13
ATOM     13  C   UNL     1     -20.893 119.914  -2.601  1.00  0.00    -0.003 C 
ATOM     14  C   UNL     1     -19.797 120.592  -1.780  1.00  0.00     0.004 C 
ENDBRANCH  12  13
ENDBRANCH  11  12
ENDBRANCH  10  11
ENDBRANCH   9  10
ENDBRANCH   1   9
TORSDOF 10
ENDMDL
MODEL 8
REMARK VINA RESULT:    -3.596      2.932      5.798
REMARK INTER + INTRA:          -7.042
REMARK INTER:                  -5.574
REMARK INTRA:                  -1.468
REMARK UNBOUND:                -1.345
REMARK SMILES CCCCCCCCCCCC(=O)[O-]
REMARK SMILES IDX 7 1 8 2 9 3 10 4 11 5 12 6 13 7 14 8 6 9 5 10 4 11 3 12 2 13
REMARK SMILES IDX 1 14
REMARK H PARENT
REMARK Flexibility Score: inf
ROOT
ATOM      1  C   UNL     1     -20.784 118.282  -2.924  1.00  0.00     0.000 C 
ENDROOT
BRANCH   1   2
ATOM      2  C   UNL     1     -22.011 117.377  -2.679  1.00  0.00     0.000 C 
BRANCH   2   3
ATOM      3  C   UNL     1     -22.032 116.729  -1.280  1.00  0.00     0.000 C 
BRANCH   3   4
ATOM      4  C   UNL     1     -21.589 115.257  -1.246  1.00  0.00     0.006 C 
BRANCH   4   5
ATOM      5  C   UNL     1     -20.347 115.032  -0.373  1.00  0.00     0.053 C 
BRANCH   5   6
ATOM      6  C   UNL     1     -19.123 114.933  -1.226  1.00  0.00     0.041 C 
ATOM      7  O   UNL     1     -18.005 114.679  -0.704  1.00  0.00    -0.550 OA
ATOM      8  O   UNL     1     -19.222 115.072  -2.604  1.00  0.00    -0.550 OA
ENDBRANCH   5   6
ENDBRANCH   4   5
ENDBRANCH   3   4
ENDBRANCH   2   3
ENDBRANCH   1   2
BRANCH   1   9
ATOM      9  C   UNL     1     -20.011 118.577  -1.626  1.00  0.00     0.000 C 
BRANCH   9  10
ATOM     10  C   UNL     1     -19.628 120.060  -1.484  1.00  0.00    -0.000 C 
BRANCH  10  11
ATOM     11  C   UNL     1     -20.773 120.987  -1.030  1.00  0.00    -0.000 C 
BRANCH  11  12
ATOM     12  C   UNL     1     -21.815 120.334  -0.101  1.00  0.00    -0.000 C 
BRANCH  12  13
ATOM     13  C   UNL     1     -23.246 120.289  -0.664  1.00  0.00    -0.003 C 
ATOM     14  C   UNL     1     -23.360 120.913  -2.055  1.00  0.00     0.004 C 
ENDBRANCH  12  13
ENDBRANCH  11  12
ENDBRANCH  10  11
ENDBRANCH   9  10
ENDBRANCH   1   9
TORSDOF 10
ENDMDL
MODEL 9
REMARK VINA RESULT:    -3.529      3.696      5.576
REMARK INTER + INTRA:          -6.937
REMARK INTER:                  -5.653
REMARK INTRA:                  -1.285
REMARK UNBOUND:                -1.345
REMARK SMILES CCCCCCCCCCCC(=O)[O-]
REMARK SMILES IDX 7 1 8 2 9 3 10 4 11 5 12 6 13 7 14 8 6 9 5 10 4 11 3 12 2 13
REMARK SMILES IDX 1 14
REMARK H PARENT
REMARK Flexibility Score: inf
ROOT
ATOM      1  C   UNL     1     -21.247 115.148  -1.341  1.00  0.00     0.000 C 
ENDROOT
BRANCH   1   2
ATOM      2  C   UNL     1     -21.000 115.578  -2.803  1.00  0.00     0.000 C 
BRANCH   2   3
ATOM      3  C   UNL     1     -19.536 115.962  -3.096  1.00  0.00     0.000 C 
BRANCH   3   4
ATOM      4  C   UNL     1     -18.667 116.188  -1.847  1.00  0.00     0.006 C 
BRANCH   4   5
ATOM      5  C   UNL     1     -17.270 115.567  -1.977  1.00  0.00     0.053 C 
BRANCH   5   6
ATOM      6  C   UNL     1     -17.002 114.645  -0.831  1.00  0.00     0.041 C 
ATOM      7  O   UNL     1     -15.819 114.339  -0.527  1.00  0.00    -0.550 OA
ATOM      8  O   UNL     1     -18.055 114.163  -0.064  1.00  0.00    -0.550 OA
ENDBRANCH   5   6
ENDBRANCH   4   5
ENDBRANCH   3   4
ENDBRANCH   2   3
ENDBRANCH   1   2
BRANCH   1   9
ATOM      9  C   UNL     1     -22.522 115.782  -0.757  1.00  0.00     0.000 C 
BRANCH   9  10
ATOM     10  C   UNL     1     -22.233 116.715   0.432  1.00  0.00    -0.000 C 
BRANCH  10  11
ATOM     11  C   UNL     1     -21.349 117.933   0.103  1.00  0.00    -0.000 C 
BRANCH  11  12
ATOM     12  C   UNL     1     -21.888 118.852  -1.012  1.00  0.00    -0.000 C 
BRANCH  12  13
ATOM     13  C   UNL     1     -20.836 119.313  -2.036  1.00  0.00    -0.003 C 
ATOM     14  C   UNL     1     -19.904 120.394  -1.488  1.00  0.00     0.004 C 
ENDBRANCH  12  13
ENDBRANCH  11  12
ENDBRANCH  10  11
ENDBRANCH   9  10
ENDBRANCH   1   9
TORSDOF 10
ENDMDL
