MODEL 1
REMARK VINA RESULT:    -7.269      0.000      0.000
REMARK INTER + INTRA:         -13.901
REMARK INTER:                 -11.944
REMARK INTRA:                  -1.957
REMARK UNBOUND:                -1.957
REMARK SMILES COc1ccc([C@@H]2CC(=O)c3c(O)cc(O[C@H]4O[C@H](CO[C@@H]5O[C@H](C)[C@@H](O)[C@H](O)[C@H]5O)[C@@H](O)[C@@H](O)[C@@H]4O)cc3O2)cc1O
REMARK SMILES IDX 19 1 32 2 34 3 36 4 17 5 18 6 20 7 21 8 22 9 25 10 24 11
REMARK SMILES IDX 26 12 23 13 28 14 30 15 27 16 29 18 31 20 33 22 35 24 16 26
REMARK SMILES IDX 15 27 14 28 38 29 12 30 39 31 11 32 40 33 9 34 7 35 10 36
REMARK SMILES IDX 8 37 13 38 6 40 41 41 5 42 42 43 4 44 3 45 43 46 2 48 1 49
REMARK SMILES IDX 37 50
REMARK H PARENT 27 17 29 19 31 21 33 23 35 25 13 39 43 47 37 51
REMARK Flexibility Score: inf
ROOT
ATOM      1  C   UNL     1      -5.986 -38.104 -29.051  1.00  0.00     0.180 C 
ATOM      2  C   UNL     1      -6.028 -39.466 -28.323  1.00  0.00     0.177 C 
ATOM      3  C   UNL     1      -5.118 -40.480 -29.047  1.00  0.00     0.180 C 
ATOM      4  C   UNL     1      -3.719 -39.875 -29.292  1.00  0.00     0.214 C 
ATOM      5  C   UNL     1      -3.815 -38.451 -29.890  1.00  0.00     0.339 C 
ATOM      6  O   UNL     1      -4.653 -37.611 -29.109  1.00  0.00    -0.332 OA
ENDROOT
BRANCH   1   7
ATOM      7  C   UNL     1      -6.875 -37.064 -28.340  1.00  0.00     0.198 C 
BRANCH   7   8
ATOM      8  O   UNL     1      -7.931 -36.678 -29.201  1.00  0.00    -0.347 OA
BRANCH   8   9
ATOM      9  C   UNL     1      -7.449 -36.188 -30.435  1.00  0.00     0.281 C 
ATOM     10  C   UNL     1      -5.945 -32.924 -31.150  1.00  0.00     0.041 C 
ATOM     11  C   UNL     1      -6.497 -34.317 -31.448  1.00  0.00     0.150 C 
ATOM     12  C   UNL     1      -7.577 -34.256 -32.555  1.00  0.00     0.174 C 
ATOM     13  O   UNL     1      -7.052 -34.842 -30.255  1.00  0.00    -0.344 OA
ATOM     14  C   UNL     1      -8.162 -35.659 -32.800  1.00  0.00     0.179 C 
ATOM     15  C   UNL     1      -8.597 -36.276 -31.456  1.00  0.00     0.202 C 
BRANCH  12  16
ATOM     16  O   UNL     1      -7.062 -33.716 -33.748  1.00  0.00    -0.388 OA
ATOM     17  H   UNL     1      -7.829 -33.522 -34.346  1.00  0.00     0.211 HD
ENDBRANCH  12  16
BRANCH  14  18
ATOM     18  O   UNL     1      -9.270 -35.554 -33.657  1.00  0.00    -0.387 OA
ATOM     19  H   UNL     1      -9.574 -36.477 -33.852  1.00  0.00     0.211 HD
ENDBRANCH  14  18
BRANCH  15  20
ATOM     20  O   UNL     1      -8.954 -37.623 -31.636  1.00  0.00    -0.385 OA
ATOM     21  H   UNL     1      -9.694 -37.818 -31.005  1.00  0.00     0.211 HD
ENDBRANCH  15  20
ENDBRANCH   8   9
ENDBRANCH   7   8
ENDBRANCH   1   7
BRANCH   2  22
ATOM     22  O   UNL     1      -7.350 -39.941 -28.276  1.00  0.00    -0.387 OA
ATOM     23  H   UNL     1      -7.441 -40.608 -29.004  1.00  0.00     0.211 HD
ENDBRANCH   2  22
BRANCH   3  24
ATOM     24  O   UNL     1      -5.709 -40.847 -30.271  1.00  0.00    -0.387 OA
ATOM     25  H   UNL     1      -5.623 -41.832 -30.353  1.00  0.00     0.211 HD
ENDBRANCH   3  24
BRANCH   5  26
ATOM     26  O   UNL     1      -4.278 -38.514 -31.242  1.00  0.00    -0.462 OA
BRANCH  26  27
ATOM     27  C   UNL     1      -3.479 -38.940 -32.309  1.00  0.00     0.130 A 
ATOM     28  C   UNL     1      -3.991 -39.869 -33.217  1.00  0.00     0.093 A 
ATOM     29  C   UNL     1      -2.162 -38.490 -32.446  1.00  0.00     0.094 A 
ATOM     30  C   UNL     1      -3.202 -40.367 -34.260  1.00  0.00     0.133 A 
ATOM     31  C   UNL     1      -1.356 -38.975 -33.482  1.00  0.00     0.138 A 
ATOM     32  C   UNL     1      -1.872 -39.905 -34.410  1.00  0.00     0.102 A 
ATOM     33  O   UNL     1      -0.020 -38.548 -33.563  1.00  0.00    -0.484 OA
ATOM     34  C   UNL     1      -0.942 -40.372 -35.469  1.00  0.00     0.174 C 
ATOM     35  C   UNL     1       0.815 -38.799 -34.703  1.00  0.00     0.211 C 
ATOM     36  O   UNL     1      -1.352 -40.827 -36.568  1.00  0.00    -0.294 OA
ATOM     37  C   UNL     1       0.529 -40.219 -35.230  1.00  0.00     0.131 C 
BRANCH  30  38
ATOM     38  O   UNL     1      -3.771 -41.342 -35.084  1.00  0.00    -0.507 OA
ATOM     39  H   UNL     1      -4.478 -41.155 -35.777  1.00  0.00     0.293 HD
ENDBRANCH  30  38
BRANCH  35  40
ATOM     40  C   UNL     1       0.647 -37.666 -35.716  1.00  0.00    -0.003 A 
ATOM     41  C   UNL     1      -0.098 -36.498 -35.445  1.00  0.00     0.057 A 
ATOM     42  C   UNL     1       1.158 -37.840 -37.014  1.00  0.00     0.011 A 
ATOM     43  C   UNL     1      -0.305 -35.527 -36.434  1.00  0.00     0.158 A 
ATOM     44  C   UNL     1       0.954 -36.876 -38.003  1.00  0.00     0.051 A 
ATOM     45  C   UNL     1       0.216 -35.711 -37.724  1.00  0.00     0.160 A 
BRANCH  43  46
ATOM     46  O   UNL     1      -1.046 -34.388 -36.113  1.00  0.00    -0.504 OA
ATOM     47  H   UNL     1      -1.733 -34.381 -35.370  1.00  0.00     0.293 HD
ENDBRANCH  43  46
BRANCH  45  48
ATOM     48  O   UNL     1      -0.021 -34.727 -38.698  1.00  0.00    -0.493 OA
ATOM     49  C   UNL     1       0.096 -34.935 -40.102  1.00  0.00     0.278 C 
ENDBRANCH  45  48
ENDBRANCH  35  40
ENDBRANCH  26  27
ENDBRANCH   5  26
BRANCH   4  50
ATOM     50  O   UNL     1      -2.962 -39.883 -28.104  1.00  0.00    -0.384 OA
ATOM     51  H   UNL     1      -2.831 -38.947 -27.812  1.00  0.00     0.211 HD
ENDBRANCH   4  50
TORSDOF 15
ENDMDL
MODEL 2
REMARK VINA RESULT:    -6.818      2.719      7.918
REMARK INTER + INTRA:         -13.159
REMARK INTER:                 -11.263
REMARK INTRA:                  -1.896
REMARK UNBOUND:                -1.957
REMARK SMILES COc1ccc([C@@H]2CC(=O)c3c(O)cc(O[C@H]4O[C@H](CO[C@@H]5O[C@H](C)[C@@H](O)[C@H](O)[C@H]5O)[C@@H](O)[C@@H](O)[C@@H]4O)cc3O2)cc1O
REMARK SMILES IDX 19 1 32 2 34 3 36 4 17 5 18 6 20 7 21 8 22 9 25 10 24 11
REMARK SMILES IDX 26 12 23 13 28 14 30 15 27 16 29 18 31 20 33 22 35 24 16 26
REMARK SMILES IDX 15 27 14 28 38 29 12 30 39 31 11 32 40 33 9 34 7 35 10 36
REMARK SMILES IDX 8 37 13 38 6 40 41 41 5 42 42 43 4 44 3 45 43 46 2 48 1 49
REMARK SMILES IDX 37 50
REMARK H PARENT 27 17 29 19 31 21 33 23 35 25 13 39 43 47 37 51
REMARK Flexibility Score: inf
ROOT
ATOM      1  C   UNL     1      -1.471 -38.902 -36.363  1.00  0.00     0.180 C 
ATOM      2  C   UNL     1      -0.587 -40.159 -36.208  1.00  0.00     0.177 C 
ATOM      3  C   UNL     1       0.904 -39.772 -36.300  1.00  0.00     0.180 C 
ATOM      4  C   UNL     1       1.217 -38.592 -35.354  1.00  0.00     0.214 C 
ATOM      5  C   UNL     1       0.176 -37.457 -35.502  1.00  0.00     0.339 C 
ATOM      6  O   UNL     1      -1.152 -37.943 -35.361  1.00  0.00    -0.332 OA
ENDROOT
BRANCH   1   7
ATOM      7  C   UNL     1      -2.968 -39.256 -36.259  1.00  0.00     0.198 C 
BRANCH   7   8
ATOM      8  O   UNL     1      -3.117 -40.466 -35.536  1.00  0.00    -0.347 OA
BRANCH   8   9
ATOM      9  C   UNL     1      -4.059 -40.339 -34.493  1.00  0.00     0.281 C 
ATOM     10  C   UNL     1      -4.011 -38.015 -31.659  1.00  0.00     0.041 C 
ATOM     11  C   UNL     1      -4.515 -39.165 -32.531  1.00  0.00     0.150 C 
ATOM     12  C   UNL     1      -4.688 -40.455 -31.693  1.00  0.00     0.174 C 
ATOM     13  O   UNL     1      -3.576 -39.382 -33.569  1.00  0.00    -0.344 OA
ATOM     14  C   UNL     1      -5.139 -41.615 -32.598  1.00  0.00     0.179 C 
ATOM     15  C   UNL     1      -4.198 -41.714 -33.815  1.00  0.00     0.202 C 
BRANCH  12  16
ATOM     16  O   UNL     1      -5.598 -40.265 -30.636  1.00  0.00    -0.388 OA
ATOM     17  H   UNL     1      -5.296 -39.476 -30.118  1.00  0.00     0.211 HD
ENDBRANCH  12  16
BRANCH  14  18
ATOM     18  O   UNL     1      -5.099 -42.815 -31.867  1.00  0.00    -0.387 OA
ATOM     19  H   UNL     1      -5.174 -43.556 -32.521  1.00  0.00     0.211 HD
ENDBRANCH  14  18
BRANCH  15  20
ATOM     20  O   UNL     1      -4.705 -42.639 -34.744  1.00  0.00    -0.385 OA
ATOM     21  H   UNL     1      -4.046 -42.704 -35.484  1.00  0.00     0.211 HD
ENDBRANCH  15  20
ENDBRANCH   8   9
ENDBRANCH   7   8
ENDBRANCH   1   7
BRANCH   2  22
ATOM     22  O   UNL     1      -0.911 -41.095 -37.205  1.00  0.00    -0.387 OA
ATOM     23  H   UNL     1      -1.515 -40.637 -37.844  1.00  0.00     0.211 HD
ENDBRANCH   2  22
BRANCH   3  24
ATOM     24  O   UNL     1       1.215 -39.424 -37.629  1.00  0.00    -0.387 OA
ATOM     25  H   UNL     1       1.049 -38.451 -37.722  1.00  0.00     0.211 HD
ENDBRANCH   3  24
BRANCH   5  26
ATOM     26  O   UNL     1       0.343 -36.795 -36.758  1.00  0.00    -0.462 OA
BRANCH  26  27
ATOM     27  C   UNL     1      -0.409 -35.680 -37.146  1.00  0.00     0.130 A 
ATOM     28  C   UNL     1      -1.074 -35.700 -38.374  1.00  0.00     0.093 A 
ATOM     29  C   UNL     1      -0.458 -34.532 -36.349  1.00  0.00     0.094 A 
ATOM     30  C   UNL     1      -1.785 -34.582 -38.826  1.00  0.00     0.133 A 
ATOM     31  C   UNL     1      -1.162 -33.404 -36.782  1.00  0.00     0.138 A 
ATOM     32  C   UNL     1      -1.847 -33.422 -38.016  1.00  0.00     0.102 A 
ATOM     33  O   UNL     1      -1.149 -32.246 -35.987  1.00  0.00    -0.484 OA
ATOM     34  C   UNL     1      -2.558 -32.177 -38.399  1.00  0.00     0.174 C 
ATOM     35  C   UNL     1      -2.015 -31.125 -36.219  1.00  0.00     0.211 C 
ATOM     36  O   UNL     1      -3.527 -32.178 -39.202  1.00  0.00    -0.294 OA
ATOM     37  C   UNL     1      -2.142 -30.898 -37.739  1.00  0.00     0.131 C 
BRANCH  30  38
ATOM     38  O   UNL     1      -2.366 -34.664 -40.094  1.00  0.00    -0.507 OA
ATOM     39  H   UNL     1      -2.712 -33.870 -40.609  1.00  0.00     0.293 HD
ENDBRANCH  30  38
BRANCH  35  40
ATOM     40  C   UNL     1      -3.329 -31.333 -35.466  1.00  0.00    -0.003 A 
ATOM     41  C   UNL     1      -3.406 -32.008 -34.228  1.00  0.00     0.057 A 
ATOM     42  C   UNL     1      -4.530 -30.938 -36.081  1.00  0.00     0.011 A 
ATOM     43  C   UNL     1      -4.642 -32.259 -33.617  1.00  0.00     0.158 A 
ATOM     44  C   UNL     1      -5.763 -31.186 -35.476  1.00  0.00     0.051 A 
ATOM     45  C   UNL     1      -5.832 -31.853 -34.240  1.00  0.00     0.160 A 
BRANCH  43  46
ATOM     46  O   UNL     1      -4.662 -32.926 -32.391  1.00  0.00    -0.504 OA
ATOM     47  H   UNL     1      -3.824 -33.302 -31.965  1.00  0.00     0.293 HD
ENDBRANCH  43  46
BRANCH  45  48
ATOM     48  O   UNL     1      -7.056 -32.132 -33.609  1.00  0.00    -0.493 OA
ATOM     49  C   UNL     1      -7.741 -33.378 -33.689  1.00  0.00     0.278 C 
ENDBRANCH  45  48
ENDBRANCH  35  40
ENDBRANCH  26  27
ENDBRANCH   5  26
BRANCH   4  50
ATOM     50  O   UNL     1       1.305 -39.038 -34.021  1.00  0.00    -0.384 OA
ATOM     51  H   UNL     1       1.019 -39.985 -33.990  1.00  0.00     0.211 HD
ENDBRANCH   4  50
TORSDOF 15
ENDMDL
MODEL 3
REMARK VINA RESULT:    -6.790      1.457      2.248
REMARK INTER + INTRA:         -13.114
REMARK INTER:                 -11.299
REMARK INTRA:                  -1.815
REMARK UNBOUND:                -1.957
REMARK SMILES COc1ccc([C@@H]2CC(=O)c3c(O)cc(O[C@H]4O[C@H](CO[C@@H]5O[C@H](C)[C@@H](O)[C@H](O)[C@H]5O)[C@@H](O)[C@@H](O)[C@@H]4O)cc3O2)cc1O
REMARK SMILES IDX 19 1 32 2 34 3 36 4 17 5 18 6 20 7 21 8 22 9 25 10 24 11
REMARK SMILES IDX 26 12 23 13 28 14 30 15 27 16 29 18 31 20 33 22 35 24 16 26
REMARK SMILES IDX 15 27 14 28 38 29 12 30 39 31 11 32 40 33 9 34 7 35 10 36
REMARK SMILES IDX 8 37 13 38 6 40 41 41 5 42 42 43 4 44 3 45 43 46 2 48 1 49
REMARK SMILES IDX 37 50
REMARK H PARENT 27 17 29 19 31 21 33 23 35 25 13 39 43 47 37 51
REMARK Flexibility Score: inf
ROOT
ATOM      1  C   UNL     1      -4.640 -38.334 -30.209  1.00  0.00     0.180 C 
ATOM      2  C   UNL     1      -4.715 -39.672 -29.440  1.00  0.00     0.177 C 
ATOM      3  C   UNL     1      -3.763 -40.703 -30.081  1.00  0.00     0.180 C 
ATOM      4  C   UNL     1      -2.355 -40.098 -30.269  1.00  0.00     0.214 C 
ATOM      5  C   UNL     1      -2.425 -38.694 -30.918  1.00  0.00     0.339 C 
ATOM      6  O   UNL     1      -3.308 -37.835 -30.211  1.00  0.00    -0.332 OA
ENDROOT
BRANCH   1   7
ATOM      7  C   UNL     1      -5.571 -37.277 -29.581  1.00  0.00     0.198 C 
BRANCH   7   8
ATOM      8  O   UNL     1      -6.829 -37.309 -30.233  1.00  0.00    -0.347 OA
BRANCH   8   9
ATOM      9  C   UNL     1      -6.821 -36.550 -31.423  1.00  0.00     0.281 C 
ATOM     10  C   UNL     1      -4.897 -33.522 -32.173  1.00  0.00     0.041 C 
ATOM     11  C   UNL     1      -5.909 -34.643 -32.407  1.00  0.00     0.150 C 
ATOM     12  C   UNL     1      -7.295 -34.064 -32.781  1.00  0.00     0.174 C 
ATOM     13  O   UNL     1      -6.007 -35.411 -31.220  1.00  0.00    -0.344 OA
ATOM     14  C   UNL     1      -8.314 -35.205 -32.955  1.00  0.00     0.179 C 
ATOM     15  C   UNL     1      -8.271 -36.126 -31.719  1.00  0.00     0.202 C 
BRANCH  12  16
ATOM     16  O   UNL     1      -7.227 -33.275 -33.944  1.00  0.00    -0.388 OA
ATOM     17  H   UNL     1      -7.616 -33.803 -34.688  1.00  0.00     0.211 HD
ENDBRANCH  12  16
BRANCH  14  18
ATOM     18  O   UNL     1      -9.600 -34.657 -33.095  1.00  0.00    -0.387 OA
ATOM     19  H   UNL     1     -10.239 -35.416 -33.104  1.00  0.00     0.211 HD
ENDBRANCH  14  18
BRANCH  15  20
ATOM     20  O   UNL     1      -9.052 -37.272 -31.944  1.00  0.00    -0.385 OA
ATOM     21  H   UNL     1      -9.910 -36.970 -32.340  1.00  0.00     0.211 HD
ENDBRANCH  15  20
ENDBRANCH   8   9
ENDBRANCH   7   8
ENDBRANCH   1   7
BRANCH   2  22
ATOM     22  O   UNL     1      -6.035 -40.154 -29.449  1.00  0.00    -0.387 OA
ATOM     23  H   UNL     1      -5.980 -41.144 -29.436  1.00  0.00     0.211 HD
ENDBRANCH   2  22
BRANCH   3  24
ATOM     24  O   UNL     1      -4.285 -41.114 -31.322  1.00  0.00    -0.387 OA
ATOM     25  H   UNL     1      -3.512 -41.311 -31.913  1.00  0.00     0.211 HD
ENDBRANCH   3  24
BRANCH   5  26
ATOM     26  O   UNL     1      -2.813 -38.804 -32.290  1.00  0.00    -0.462 OA
BRANCH  26  27
ATOM     27  C   UNL     1      -1.899 -38.824 -33.349  1.00  0.00     0.130 A 
ATOM     28  C   UNL     1      -1.740 -39.995 -34.092  1.00  0.00     0.093 A 
ATOM     29  C   UNL     1      -1.107 -37.707 -33.636  1.00  0.00     0.094 A 
ATOM     30  C   UNL     1      -0.791 -40.074 -35.118  1.00  0.00     0.133 A 
ATOM     31  C   UNL     1      -0.152 -37.765 -34.656  1.00  0.00     0.138 A 
ATOM     32  C   UNL     1       0.005 -38.941 -35.420  1.00  0.00     0.102 A 
ATOM     33  O   UNL     1       0.668 -36.648 -34.887  1.00  0.00    -0.484 OA
ATOM     34  C   UNL     1       1.048 -38.915 -36.475  1.00  0.00     0.174 C 
ATOM     35  C   UNL     1       1.509 -36.516 -36.042  1.00  0.00     0.211 C 
ATOM     36  O   UNL     1       1.010 -39.677 -37.475  1.00  0.00    -0.294 OA
ATOM     37  C   UNL     1       2.134 -37.889 -36.364  1.00  0.00     0.131 C 
BRANCH  30  38
ATOM     38  O   UNL     1      -0.652 -41.303 -35.768  1.00  0.00    -0.507 OA
ATOM     39  H   UNL     1      -0.027 -41.466 -36.541  1.00  0.00     0.293 HD
ENDBRANCH  30  38
BRANCH  35  40
ATOM     40  C   UNL     1       0.718 -35.864 -37.176  1.00  0.00    -0.003 A 
ATOM     41  C   UNL     1       1.175 -35.831 -38.512  1.00  0.00     0.057 A 
ATOM     42  C   UNL     1      -0.462 -35.165 -36.862  1.00  0.00     0.011 A 
ATOM     43  C   UNL     1       0.464 -35.141 -39.502  1.00  0.00     0.158 A 
ATOM     44  C   UNL     1      -1.173 -34.477 -37.846  1.00  0.00     0.051 A 
ATOM     45  C   UNL     1      -0.715 -34.454 -39.175  1.00  0.00     0.160 A 
BRANCH  43  46
ATOM     46  O   UNL     1       0.957 -35.143 -40.808  1.00  0.00    -0.504 OA
ATOM     47  H   UNL     1       0.696 -35.850 -41.484  1.00  0.00     0.293 HD
ENDBRANCH  43  46
BRANCH  45  48
ATOM     48  O   UNL     1      -1.398 -33.759 -40.188  1.00  0.00    -0.493 OA
ATOM     49  C   UNL     1      -2.363 -32.737 -39.958  1.00  0.00     0.278 C 
ENDBRANCH  45  48
ENDBRANCH  35  40
ENDBRANCH  26  27
ENDBRANCH   5  26
BRANCH   4  50
ATOM     50  O   UNL     1      -1.664 -40.063 -29.043  1.00  0.00    -0.384 OA
ATOM     51  H   UNL     1      -1.587 -39.118 -28.756  1.00  0.00     0.211 HD
ENDBRANCH   4  50
TORSDOF 15
ENDMDL
MODEL 4
REMARK VINA RESULT:    -6.729      1.859      2.169
REMARK INTER + INTRA:         -13.013
REMARK INTER:                 -11.229
REMARK INTRA:                  -1.784
REMARK UNBOUND:                -1.957
REMARK SMILES COc1ccc([C@@H]2CC(=O)c3c(O)cc(O[C@H]4O[C@H](CO[C@@H]5O[C@H](C)[C@@H](O)[C@H](O)[C@H]5O)[C@@H](O)[C@@H](O)[C@@H]4O)cc3O2)cc1O
REMARK SMILES IDX 19 1 32 2 34 3 36 4 17 5 18 6 20 7 21 8 22 9 25 10 24 11
REMARK SMILES IDX 26 12 23 13 28 14 30 15 27 16 29 18 31 20 33 22 35 24 16 26
REMARK SMILES IDX 15 27 14 28 38 29 12 30 39 31 11 32 40 33 9 34 7 35 10 36
REMARK SMILES IDX 8 37 13 38 6 40 41 41 5 42 42 43 4 44 3 45 43 46 2 48 1 49
REMARK SMILES IDX 37 50
REMARK H PARENT 27 17 29 19 31 21 33 23 35 25 13 39 43 47 37 51
REMARK Flexibility Score: inf
ROOT
ATOM      1  C   UNL     1      -5.363 -38.822 -29.567  1.00  0.00     0.180 C 
ATOM      2  C   UNL     1      -5.834 -39.800 -28.468  1.00  0.00     0.177 C 
ATOM      3  C   UNL     1      -5.324 -41.224 -28.774  1.00  0.00     0.180 C 
ATOM      4  C   UNL     1      -3.808 -41.204 -29.071  1.00  0.00     0.214 C 
ATOM      5  C   UNL     1      -3.444 -40.086 -30.076  1.00  0.00     0.339 C 
ATOM      6  O   UNL     1      -3.943 -38.824 -29.658  1.00  0.00    -0.332 OA
ENDROOT
BRANCH   1   7
ATOM      7  C   UNL     1      -5.846 -37.386 -29.279  1.00  0.00     0.198 C 
BRANCH   7   8
ATOM      8  O   UNL     1      -7.102 -37.178 -29.900  1.00  0.00    -0.347 OA
BRANCH   8   9
ATOM      9  C   UNL     1      -6.971 -36.513 -31.138  1.00  0.00     0.281 C 
ATOM     10  C   UNL     1      -4.898 -33.600 -31.944  1.00  0.00     0.041 C 
ATOM     11  C   UNL     1      -5.921 -34.711 -32.179  1.00  0.00     0.150 C 
ATOM     12  C   UNL     1      -7.252 -34.129 -32.714  1.00  0.00     0.174 C 
ATOM     13  O   UNL     1      -6.142 -35.382 -30.951  1.00  0.00    -0.344 OA
ATOM     14  C   UNL     1      -8.287 -35.254 -32.889  1.00  0.00     0.179 C 
ATOM     15  C   UNL     1      -8.377 -36.078 -31.589  1.00  0.00     0.202 C 
BRANCH  12  16
ATOM     16  O   UNL     1      -7.062 -33.434 -33.923  1.00  0.00    -0.388 OA
ATOM     17  H   UNL     1      -6.089 -33.420 -34.112  1.00  0.00     0.211 HD
ENDBRANCH  12  16
BRANCH  14  18
ATOM     18  O   UNL     1      -9.540 -34.688 -33.181  1.00  0.00    -0.387 OA
ATOM     19  H   UNL     1      -9.426 -34.137 -33.997  1.00  0.00     0.211 HD
ENDBRANCH  14  18
BRANCH  15  20
ATOM     20  O   UNL     1      -9.171 -37.219 -31.793  1.00  0.00    -0.385 OA
ATOM     21  H   UNL     1     -10.118 -36.921 -31.799  1.00  0.00     0.211 HD
ENDBRANCH  15  20
ENDBRANCH   8   9
ENDBRANCH   7   8
ENDBRANCH   1   7
BRANCH   2  22
ATOM     22  O   UNL     1      -7.238 -39.791 -28.391  1.00  0.00    -0.387 OA
ATOM     23  H   UNL     1      -7.537 -40.731 -28.483  1.00  0.00     0.211 HD
ENDBRANCH   2  22
BRANCH   3  24
ATOM     24  O   UNL     1      -6.027 -41.747 -29.875  1.00  0.00    -0.387 OA
ATOM     25  H   UNL     1      -5.927 -41.099 -30.620  1.00  0.00     0.211 HD
ENDBRANCH   3  24
BRANCH   5  26
ATOM     26  O   UNL     1      -3.929 -40.417 -31.380  1.00  0.00    -0.462 OA
BRANCH  26  27
ATOM     27  C   UNL     1      -3.224 -40.141 -32.557  1.00  0.00     0.130 A 
ATOM     28  C   UNL     1      -3.931 -39.914 -33.739  1.00  0.00     0.093 A 
ATOM     29  C   UNL     1      -1.825 -40.143 -32.574  1.00  0.00     0.094 A 
ATOM     30  C   UNL     1      -3.261 -39.697 -34.949  1.00  0.00     0.133 A 
ATOM     31  C   UNL     1      -1.136 -39.930 -33.772  1.00  0.00     0.138 A 
ATOM     32  C   UNL     1      -1.844 -39.686 -34.968  1.00  0.00     0.102 A 
ATOM     33  O   UNL     1       0.267 -39.992 -33.771  1.00  0.00    -0.484 OA
ATOM     34  C   UNL     1      -1.031 -39.480 -36.192  1.00  0.00     0.174 C 
ATOM     35  C   UNL     1       1.072 -39.564 -34.880  1.00  0.00     0.211 C 
ATOM     36  O   UNL     1      -1.467 -38.847 -37.188  1.00  0.00    -0.294 OA
ATOM     37  C   UNL     1       0.380 -39.985 -36.192  1.00  0.00     0.131 C 
BRANCH  30  38
ATOM     38  O   UNL     1      -4.044 -39.542 -36.095  1.00  0.00    -0.507 OA
ATOM     39  H   UNL     1      -3.754 -39.033 -36.914  1.00  0.00     0.293 HD
ENDBRANCH  30  38
BRANCH  35  40
ATOM     40  C   UNL     1       1.382 -38.074 -34.740  1.00  0.00    -0.003 A 
ATOM     41  C   UNL     1       2.285 -37.394 -35.586  1.00  0.00     0.057 A 
ATOM     42  C   UNL     1       0.836 -37.370 -33.652  1.00  0.00     0.011 A 
ATOM     43  C   UNL     1       2.612 -36.050 -35.363  1.00  0.00     0.158 A 
ATOM     44  C   UNL     1       1.158 -36.031 -33.427  1.00  0.00     0.051 A 
ATOM     45  C   UNL     1       2.053 -35.358 -34.277  1.00  0.00     0.160 A 
BRANCH  43  46
ATOM     46  O   UNL     1       3.506 -35.423 -36.232  1.00  0.00    -0.504 OA
ATOM     47  H   UNL     1       3.568 -35.665 -37.213  1.00  0.00     0.293 HD
ENDBRANCH  43  46
BRANCH  45  48
ATOM     48  O   UNL     1       2.412 -34.015 -34.072  1.00  0.00    -0.493 OA
ATOM     49  C   UNL     1       1.596 -32.900 -34.415  1.00  0.00     0.278 C 
ENDBRANCH  45  48
ENDBRANCH  35  40
ENDBRANCH  26  27
ENDBRANCH   5  26
BRANCH   4  50
ATOM     50  O   UNL     1      -3.072 -41.082 -27.877  1.00  0.00    -0.384 OA
ATOM     51  H   UNL     1      -2.867 -41.991 -27.543  1.00  0.00     0.211 HD
ENDBRANCH   4  50
TORSDOF 15
ENDMDL
MODEL 5
REMARK VINA RESULT:    -6.509      1.362      2.273
REMARK INTER + INTRA:         -12.653
REMARK INTER:                 -10.780
REMARK INTRA:                  -1.873
REMARK UNBOUND:                -1.957
REMARK SMILES COc1ccc([C@@H]2CC(=O)c3c(O)cc(O[C@H]4O[C@H](CO[C@@H]5O[C@H](C)[C@@H](O)[C@H](O)[C@H]5O)[C@@H](O)[C@@H](O)[C@@H]4O)cc3O2)cc1O
REMARK SMILES IDX 19 1 32 2 34 3 36 4 17 5 18 6 20 7 21 8 22 9 25 10 24 11
REMARK SMILES IDX 26 12 23 13 28 14 30 15 27 16 29 18 31 20 33 22 35 24 16 26
REMARK SMILES IDX 15 27 14 28 38 29 12 30 39 31 11 32 40 33 9 34 7 35 10 36
REMARK SMILES IDX 8 37 13 38 6 40 41 41 5 42 42 43 4 44 3 45 43 46 2 48 1 49
REMARK SMILES IDX 37 50
REMARK H PARENT 27 17 29 19 31 21 33 23 35 25 13 39 43 47 37 51
REMARK Flexibility Score: inf
ROOT
ATOM      1  C   UNL     1      -7.227 -37.299 -31.214  1.00  0.00     0.180 C 
ATOM      2  C   UNL     1      -7.324 -37.418 -29.676  1.00  0.00     0.177 C 
ATOM      3  C   UNL     1      -6.123 -38.219 -29.132  1.00  0.00     0.180 C 
ATOM      4  C   UNL     1      -4.798 -37.661 -29.696  1.00  0.00     0.214 C 
ATOM      5  C   UNL     1      -4.879 -37.451 -31.227  1.00  0.00     0.339 C 
ATOM      6  O   UNL     1      -6.008 -36.669 -31.588  1.00  0.00    -0.332 OA
ENDROOT
BRANCH   1   7
ATOM      7  C   UNL     1      -8.408 -36.488 -31.785  1.00  0.00     0.198 C 
BRANCH   7   8
ATOM      8  O   UNL     1      -8.944 -35.656 -30.771  1.00  0.00    -0.347 OA
BRANCH   8   9
ATOM      9  C   UNL     1      -8.623 -34.298 -30.983  1.00  0.00     0.281 C 
ATOM     10  C   UNL     1      -7.127 -32.756 -33.953  1.00  0.00     0.041 C 
ATOM     11  C   UNL     1      -7.683 -32.830 -32.531  1.00  0.00     0.150 C 
ATOM     12  C   UNL     1      -6.662 -32.268 -31.512  1.00  0.00     0.174 C 
ATOM     13  O   UNL     1      -7.971 -34.185 -32.234  1.00  0.00    -0.344 OA
ATOM     14  C   UNL     1      -7.214 -32.404 -30.082  1.00  0.00     0.179 C 
ATOM     15  C   UNL     1      -7.684 -33.854 -29.848  1.00  0.00     0.202 C 
BRANCH  12  16
ATOM     16  O   UNL     1      -6.336 -30.928 -31.794  1.00  0.00    -0.388 OA
ATOM     17  H   UNL     1      -5.500 -30.713 -31.307  1.00  0.00     0.211 HD
ENDBRANCH  12  16
BRANCH  14  18
ATOM     18  O   UNL     1      -6.203 -32.077 -29.163  1.00  0.00    -0.387 OA
ATOM     19  H   UNL     1      -5.958 -31.131 -29.326  1.00  0.00     0.211 HD
ENDBRANCH  14  18
BRANCH  15  20
ATOM     20  O   UNL     1      -8.363 -33.950 -28.622  1.00  0.00    -0.385 OA
ATOM     21  H   UNL     1      -9.198 -34.461 -28.787  1.00  0.00     0.211 HD
ENDBRANCH  15  20
ENDBRANCH   8   9
ENDBRANCH   7   8
ENDBRANCH   1   7
BRANCH   2  22
ATOM     22  O   UNL     1      -8.531 -38.044 -29.321  1.00  0.00    -0.387 OA
ATOM     23  H   UNL     1      -8.512 -38.952 -29.720  1.00  0.00     0.211 HD
ENDBRANCH   2  22
BRANCH   3  24
ATOM     24  O   UNL     1      -6.267 -39.575 -29.485  1.00  0.00    -0.387 OA
ATOM     25  H   UNL     1      -7.069 -39.916 -29.010  1.00  0.00     0.211 HD
ENDBRANCH   3  24
BRANCH   5  26
ATOM     26  O   UNL     1      -4.900 -38.714 -31.898  1.00  0.00    -0.462 OA
BRANCH  26  27
ATOM     27  C   UNL     1      -3.899 -39.131 -32.782  1.00  0.00     0.130 A 
ATOM     28  C   UNL     1      -4.157 -40.193 -33.652  1.00  0.00     0.093 A 
ATOM     29  C   UNL     1      -2.633 -38.537 -32.769  1.00  0.00     0.094 A 
ATOM     30  C   UNL     1      -3.162 -40.681 -34.508  1.00  0.00     0.133 A 
ATOM     31  C   UNL     1      -1.625 -39.009 -33.616  1.00  0.00     0.138 A 
ATOM     32  C   UNL     1      -1.882 -40.073 -34.506  1.00  0.00     0.102 A 
ATOM     33  O   UNL     1      -0.347 -38.431 -33.542  1.00  0.00    -0.484 OA
ATOM     34  C   UNL     1      -0.751 -40.514 -35.359  1.00  0.00     0.174 C 
ATOM     35  C   UNL     1       0.682 -38.676 -34.512  1.00  0.00     0.211 C 
ATOM     36  O   UNL     1      -0.928 -41.112 -36.452  1.00  0.00    -0.294 OA
ATOM     37  C   UNL     1       0.638 -40.162 -34.922  1.00  0.00     0.131 C 
BRANCH  30  38
ATOM     38  O   UNL     1      -3.484 -41.787 -35.298  1.00  0.00    -0.507 OA
ATOM     39  H   UNL     1      -3.686 -41.738 -36.284  1.00  0.00     0.293 HD
ENDBRANCH  30  38
BRANCH  35  40
ATOM     40  C   UNL     1       0.558 -37.667 -35.654  1.00  0.00    -0.003 A 
ATOM     41  C   UNL     1      -0.264 -36.522 -35.579  1.00  0.00     0.057 A 
ATOM     42  C   UNL     1       1.198 -37.946 -36.874  1.00  0.00     0.011 A 
ATOM     43  C   UNL     1      -0.423 -35.673 -36.683  1.00  0.00     0.158 A 
ATOM     44  C   UNL     1       1.043 -37.102 -37.976  1.00  0.00     0.051 A 
ATOM     45  C   UNL     1       0.228 -35.960 -37.893  1.00  0.00     0.160 A 
BRANCH  43  46
ATOM     46  O   UNL     1      -1.243 -34.551 -36.556  1.00  0.00    -0.504 OA
ATOM     47  H   UNL     1      -1.592 -34.042 -37.359  1.00  0.00     0.293 HD
ENDBRANCH  43  46
BRANCH  45  48
ATOM     48  O   UNL     1       0.038 -35.098 -38.986  1.00  0.00    -0.493 OA
ATOM     49  C   UNL     1       0.920 -34.998 -40.100  1.00  0.00     0.278 C 
ENDBRANCH  45  48
ENDBRANCH  35  40
ENDBRANCH  26  27
ENDBRANCH   5  26
BRANCH   4  50
ATOM     50  O   UNL     1      -4.441 -36.472 -29.032  1.00  0.00    -0.384 OA
ATOM     51  H   UNL     1      -3.783 -36.695 -28.327  1.00  0.00     0.211 HD
ENDBRANCH   4  50
TORSDOF 15
ENDMDL
MODEL 6
REMARK VINA RESULT:    -6.436      1.551      2.512
REMARK INTER + INTRA:         -12.533
REMARK INTER:                 -10.789
REMARK INTRA:                  -1.743
REMARK UNBOUND:                -1.957
REMARK SMILES COc1ccc([C@@H]2CC(=O)c3c(O)cc(O[C@H]4O[C@H](CO[C@@H]5O[C@H](C)[C@@H](O)[C@H](O)[C@H]5O)[C@@H](O)[C@@H](O)[C@@H]4O)cc3O2)cc1O
REMARK SMILES IDX 19 1 32 2 34 3 36 4 17 5 18 6 20 7 21 8 22 9 25 10 24 11
REMARK SMILES IDX 26 12 23 13 28 14 30 15 27 16 29 18 31 20 33 22 35 24 16 26
REMARK SMILES IDX 15 27 14 28 38 29 12 30 39 31 11 32 40 33 9 34 7 35 10 36
REMARK SMILES IDX 8 37 13 38 6 40 41 41 5 42 42 43 4 44 3 45 43 46 2 48 1 49
REMARK SMILES IDX 37 50
REMARK H PARENT 27 17 29 19 31 21 33 23 35 25 13 39 43 47 37 51
REMARK Flexibility Score: inf
ROOT
ATOM      1  C   UNL     1      -4.878 -39.442 -30.478  1.00  0.00     0.180 C 
ATOM      2  C   UNL     1      -4.783 -40.882 -29.926  1.00  0.00     0.177 C 
ATOM      3  C   UNL     1      -3.669 -41.656 -30.660  1.00  0.00     0.180 C 
ATOM      4  C   UNL     1      -2.359 -40.839 -30.674  1.00  0.00     0.214 C 
ATOM      5  C   UNL     1      -2.610 -39.374 -31.105  1.00  0.00     0.339 C 
ATOM      6  O   UNL     1      -3.634 -38.769 -30.328  1.00  0.00    -0.332 OA
ENDROOT
BRANCH   1   7
ATOM      7  C   UNL     1      -5.975 -38.638 -29.752  1.00  0.00     0.198 C 
BRANCH   7   8
ATOM      8  O   UNL     1      -5.516 -37.317 -29.521  1.00  0.00    -0.347 OA
BRANCH   8   9
ATOM      9  C   UNL     1      -6.494 -36.356 -29.858  1.00  0.00     0.281 C 
ATOM     10  C   UNL     1     -10.142 -36.705 -29.779  1.00  0.00     0.041 C 
ATOM     11  C   UNL     1      -8.796 -36.030 -30.038  1.00  0.00     0.150 C 
ATOM     12  C   UNL     1      -8.701 -35.538 -31.503  1.00  0.00     0.174 C 
ATOM     13  O   UNL     1      -7.768 -36.968 -29.774  1.00  0.00    -0.344 OA
ATOM     14  C   UNL     1      -7.318 -34.914 -31.762  1.00  0.00     0.179 C 
ATOM     15  C   UNL     1      -6.219 -35.891 -31.298  1.00  0.00     0.202 C 
BRANCH  12  16
ATOM     16  O   UNL     1      -9.725 -34.621 -31.806  1.00  0.00    -0.388 OA
ATOM     17  H   UNL     1     -10.590 -35.101 -31.733  1.00  0.00     0.211 HD
ENDBRANCH  12  16
BRANCH  14  18
ATOM     18  O   UNL     1      -7.177 -34.656 -33.136  1.00  0.00    -0.387 OA
ATOM     19  H   UNL     1      -6.533 -35.321 -33.491  1.00  0.00     0.211 HD
ENDBRANCH  14  18
BRANCH  15  20
ATOM     20  O   UNL     1      -4.962 -35.264 -31.349  1.00  0.00    -0.385 OA
ATOM     21  H   UNL     1      -5.090 -34.383 -31.789  1.00  0.00     0.211 HD
ENDBRANCH  15  20
ENDBRANCH   8   9
ENDBRANCH   7   8
ENDBRANCH   1   7
BRANCH   2  22
ATOM     22  O   UNL     1      -6.017 -41.535 -30.083  1.00  0.00    -0.387 OA
ATOM     23  H   UNL     1      -6.605 -40.921 -30.594  1.00  0.00     0.211 HD
ENDBRANCH   2  22
BRANCH   3  24
ATOM     24  O   UNL     1      -4.081 -41.934 -31.977  1.00  0.00    -0.387 OA
ATOM     25  H   UNL     1      -4.918 -41.425 -32.134  1.00  0.00     0.211 HD
ENDBRANCH   3  24
BRANCH   5  26
ATOM     26  O   UNL     1      -2.930 -39.319 -32.498  1.00  0.00    -0.462 OA
BRANCH  26  27
ATOM     27  C   UNL     1      -1.964 -39.239 -33.506  1.00  0.00     0.130 A 
ATOM     28  C   UNL     1      -1.825 -40.299 -34.404  1.00  0.00     0.093 A 
ATOM     29  C   UNL     1      -1.103 -38.139 -33.593  1.00  0.00     0.094 A 
ATOM     30  C   UNL     1      -0.829 -40.285 -35.388  1.00  0.00     0.133 A 
ATOM     31  C   UNL     1      -0.100 -38.105 -34.567  1.00  0.00     0.138 A 
ATOM     32  C   UNL     1       0.037 -39.168 -35.486  1.00  0.00     0.102 A 
ATOM     33  O   UNL     1       0.785 -37.015 -34.596  1.00  0.00    -0.484 OA
ATOM     34  C   UNL     1       1.135 -39.050 -36.478  1.00  0.00     0.174 C 
ATOM     35  C   UNL     1       1.691 -36.768 -35.681  1.00  0.00     0.211 C 
ATOM     36  O   UNL     1       1.111 -39.659 -37.579  1.00  0.00    -0.294 OA
ATOM     37  C   UNL     1       2.263 -38.114 -36.170  1.00  0.00     0.131 C 
BRANCH  30  38
ATOM     38  O   UNL     1      -0.718 -41.414 -36.203  1.00  0.00    -0.507 OA
ATOM     39  H   UNL     1      -0.378 -41.396 -37.151  1.00  0.00     0.293 HD
ENDBRANCH  30  38
BRANCH  35  40
ATOM     40  C   UNL     1       0.994 -35.917 -36.743  1.00  0.00    -0.003 A 
ATOM     41  C   UNL     1      -0.172 -35.166 -36.480  1.00  0.00     0.057 A 
ATOM     42  C   UNL     1       1.464 -35.970 -38.067  1.00  0.00     0.011 A 
ATOM     43  C   UNL     1      -0.833 -34.475 -37.504  1.00  0.00     0.158 A 
ATOM     44  C   UNL     1       0.809 -35.283 -39.090  1.00  0.00     0.051 A 
ATOM     45  C   UNL     1      -0.348 -34.532 -38.821  1.00  0.00     0.160 A 
BRANCH  43  46
ATOM     46  O   UNL     1      -1.980 -33.744 -37.191  1.00  0.00    -0.504 OA
ATOM     47  H   UNL     1      -2.641 -34.049 -36.487  1.00  0.00     0.293 HD
ENDBRANCH  43  46
BRANCH  45  48
ATOM     48  O   UNL     1      -1.041 -33.839 -39.828  1.00  0.00    -0.493 OA
ATOM     49  C   UNL     1      -0.760 -32.502 -40.229  1.00  0.00     0.278 C 
ENDBRANCH  45  48
ENDBRANCH  35  40
ENDBRANCH  26  27
ENDBRANCH   5  26
BRANCH   4  50
ATOM     50  O   UNL     1      -1.723 -40.902 -29.418  1.00  0.00    -0.384 OA
ATOM     51  H   UNL     1      -2.251 -41.501 -28.832  1.00  0.00     0.211 HD
ENDBRANCH   4  50
TORSDOF 15
ENDMDL
MODEL 7
REMARK VINA RESULT:    -6.416      2.891      5.801
REMARK INTER + INTRA:         -12.499
REMARK INTER:                  -9.975
REMARK INTRA:                  -2.523
REMARK UNBOUND:                -1.957
REMARK SMILES COc1ccc([C@@H]2CC(=O)c3c(O)cc(O[C@H]4O[C@H](CO[C@@H]5O[C@H](C)[C@@H](O)[C@H](O)[C@H]5O)[C@@H](O)[C@@H](O)[C@@H]4O)cc3O2)cc1O
REMARK SMILES IDX 19 1 32 2 34 3 36 4 17 5 18 6 20 7 21 8 22 9 25 10 24 11
REMARK SMILES IDX 26 12 23 13 28 14 30 15 27 16 29 18 31 20 33 22 35 24 16 26
REMARK SMILES IDX 15 27 14 28 38 29 12 30 39 31 11 32 40 33 9 34 7 35 10 36
REMARK SMILES IDX 8 37 13 38 6 40 41 41 5 42 42 43 4 44 3 45 43 46 2 48 1 49
REMARK SMILES IDX 37 50
REMARK H PARENT 27 17 29 19 31 21 33 23 35 25 13 39 43 47 37 51
REMARK Flexibility Score: inf
ROOT
ATOM      1  C   UNL     1      -2.735 -39.541 -30.649  1.00  0.00     0.180 C 
ATOM      2  C   UNL     1      -3.992 -39.379 -29.766  1.00  0.00     0.177 C 
ATOM      3  C   UNL     1      -5.262 -39.420 -30.643  1.00  0.00     0.180 C 
ATOM      4  C   UNL     1      -5.235 -40.648 -31.579  1.00  0.00     0.214 C 
ATOM      5  C   UNL     1      -3.870 -40.782 -32.296  1.00  0.00     0.339 C 
ATOM      6  O   UNL     1      -2.790 -40.764 -31.373  1.00  0.00    -0.332 OA
ENDROOT
BRANCH   1   7
ATOM      7  C   UNL     1      -1.450 -39.519 -29.798  1.00  0.00     0.198 C 
BRANCH   7   8
ATOM      8  O   UNL     1      -0.641 -40.633 -30.135  1.00  0.00    -0.347 OA
BRANCH   8   9
ATOM      9  C   UNL     1       0.653 -40.238 -30.536  1.00  0.00     0.281 C 
ATOM     10  C   UNL     1       1.828 -36.886 -31.438  1.00  0.00     0.041 C 
ATOM     11  C   UNL     1       1.905 -38.398 -31.230  1.00  0.00     0.150 C 
ATOM     12  C   UNL     1       2.398 -39.105 -32.516  1.00  0.00     0.174 C 
ATOM     13  O   UNL     1       0.614 -38.866 -30.882  1.00  0.00    -0.344 OA
ATOM     14  C   UNL     1       2.413 -40.630 -32.306  1.00  0.00     0.179 C 
ATOM     15  C   UNL     1       1.047 -41.087 -31.758  1.00  0.00     0.202 C 
BRANCH  12  16
ATOM     16  O   UNL     1       3.670 -38.643 -32.903  1.00  0.00    -0.388 OA
ATOM     17  H   UNL     1       3.565 -37.713 -33.231  1.00  0.00     0.211 HD
ENDBRANCH  12  16
BRANCH  14  18
ATOM     18  O   UNL     1       2.669 -41.262 -33.534  1.00  0.00    -0.387 OA
ATOM     19  H   UNL     1       2.751 -42.233 -33.349  1.00  0.00     0.211 HD
ENDBRANCH  14  18
BRANCH  15  20
ATOM     20  O   UNL     1       1.105 -42.440 -31.382  1.00  0.00    -0.385 OA
ATOM     21  H   UNL     1       0.767 -42.501 -30.451  1.00  0.00     0.211 HD
ENDBRANCH  15  20
ENDBRANCH   8   9
ENDBRANCH   7   8
ENDBRANCH   1   7
BRANCH   2  22
ATOM     22  O   UNL     1      -3.926 -38.165 -29.060  1.00  0.00    -0.387 OA
ATOM     23  H   UNL     1      -2.965 -37.976 -28.904  1.00  0.00     0.211 HD
ENDBRANCH   2  22
BRANCH   3  24
ATOM     24  O   UNL     1      -5.348 -38.235 -31.398  1.00  0.00    -0.387 OA
ATOM     25  H   UNL     1      -5.486 -38.502 -32.344  1.00  0.00     0.211 HD
ENDBRANCH   3  24
BRANCH   5  26
ATOM     26  O   UNL     1      -3.722 -39.746 -33.271  1.00  0.00    -0.462 OA
BRANCH  26  27
ATOM     27  C   UNL     1      -2.612 -39.640 -34.118  1.00  0.00     0.130 A 
ATOM     28  C   UNL     1      -2.351 -40.664 -35.030  1.00  0.00     0.093 A 
ATOM     29  C   UNL     1      -1.737 -38.553 -34.025  1.00  0.00     0.094 A 
ATOM     30  C   UNL     1      -1.217 -40.625 -35.851  1.00  0.00     0.133 A 
ATOM     31  C   UNL     1      -0.598 -38.495 -34.834  1.00  0.00     0.138 A 
ATOM     32  C   UNL     1      -0.334 -39.520 -35.768  1.00  0.00     0.102 A 
ATOM     33  O   UNL     1       0.293 -37.420 -34.681  1.00  0.00    -0.484 OA
ATOM     34  C   UNL     1       0.901 -39.380 -36.577  1.00  0.00     0.174 C 
ATOM     35  C   UNL     1       1.355 -37.143 -35.606  1.00  0.00     0.211 C 
ATOM     36  O   UNL     1       1.038 -39.941 -37.695  1.00  0.00    -0.294 OA
ATOM     37  C   UNL     1       1.980 -38.477 -36.062  1.00  0.00     0.131 C 
BRANCH  30  38
ATOM     38  O   UNL     1      -0.996 -41.721 -36.689  1.00  0.00    -0.507 OA
ATOM     39  H   UNL     1      -1.446 -41.851 -37.581  1.00  0.00     0.293 HD
ENDBRANCH  30  38
BRANCH  35  40
ATOM     40  C   UNL     1       0.836 -36.236 -36.721  1.00  0.00    -0.003 A 
ATOM     41  C   UNL     1      -0.389 -35.539 -36.636  1.00  0.00     0.057 A 
ATOM     42  C   UNL     1       1.548 -36.179 -37.932  1.00  0.00     0.011 A 
ATOM     43  C   UNL     1      -0.873 -34.794 -37.719  1.00  0.00     0.158 A 
ATOM     44  C   UNL     1       1.070 -35.437 -39.013  1.00  0.00     0.051 A 
ATOM     45  C   UNL     1      -0.148 -34.740 -38.920  1.00  0.00     0.160 A 
BRANCH  43  46
ATOM     46  O   UNL     1      -2.088 -34.120 -37.582  1.00  0.00    -0.504 OA
ATOM     47  H   UNL     1      -2.347 -33.344 -38.180  1.00  0.00     0.293 HD
ENDBRANCH  43  46
BRANCH  45  48
ATOM     48  O   UNL     1      -0.666 -33.996 -39.993  1.00  0.00    -0.493 OA
ATOM     49  C   UNL     1      -0.368 -32.626 -40.245  1.00  0.00     0.278 C 
ENDBRANCH  45  48
ENDBRANCH  35  40
ENDBRANCH  26  27
ENDBRANCH   5  26
BRANCH   4  50
ATOM     50  O   UNL     1      -5.558 -41.819 -30.867  1.00  0.00    -0.384 OA
ATOM     51  H   UNL     1      -6.004 -41.557 -30.023  1.00  0.00     0.211 HD
ENDBRANCH   4  50
TORSDOF 15
ENDMDL
MODEL 8
REMARK VINA RESULT:    -6.407      3.661      7.959
REMARK INTER + INTRA:         -12.484
REMARK INTER:                 -10.914
REMARK INTRA:                  -1.570
REMARK UNBOUND:                -1.957
REMARK SMILES COc1ccc([C@@H]2CC(=O)c3c(O)cc(O[C@H]4O[C@H](CO[C@@H]5O[C@H](C)[C@@H](O)[C@H](O)[C@H]5O)[C@@H](O)[C@@H](O)[C@@H]4O)cc3O2)cc1O
REMARK SMILES IDX 19 1 32 2 34 3 36 4 17 5 18 6 20 7 21 8 22 9 25 10 24 11
REMARK SMILES IDX 26 12 23 13 28 14 30 15 27 16 29 18 31 20 33 22 35 24 16 26
REMARK SMILES IDX 15 27 14 28 38 29 12 30 39 31 11 32 40 33 9 34 7 35 10 36
REMARK SMILES IDX 8 37 13 38 6 40 41 41 5 42 42 43 4 44 3 45 43 46 2 48 1 49
REMARK SMILES IDX 37 50
REMARK H PARENT 27 17 29 19 31 21 33 23 35 25 13 39 43 47 37 51
REMARK Flexibility Score: inf
ROOT
ATOM      1  C   UNL     1      -0.705 -38.937 -34.376  1.00  0.00     0.180 C 
ATOM      2  C   UNL     1      -0.058 -40.208 -34.969  1.00  0.00     0.177 C 
ATOM      3  C   UNL     1       0.850 -39.833 -36.159  1.00  0.00     0.180 C 
ATOM      4  C   UNL     1       1.813 -38.691 -35.767  1.00  0.00     0.214 C 
ATOM      5  C   UNL     1       1.066 -37.541 -35.051  1.00  0.00     0.339 C 
ATOM      6  O   UNL     1       0.297 -38.018 -33.956  1.00  0.00    -0.332 OA
ENDROOT
BRANCH   1   7
ATOM      7  C   UNL     1      -1.607 -39.279 -33.173  1.00  0.00     0.198 C 
BRANCH   7   8
ATOM      8  O   UNL     1      -2.849 -38.612 -33.310  1.00  0.00    -0.347 OA
BRANCH   8   9
ATOM      9  C   UNL     1      -3.938 -39.470 -33.041  1.00  0.00     0.281 C 
ATOM     10  C   UNL     1      -4.708 -41.254 -29.933  1.00  0.00     0.041 C 
ATOM     11  C   UNL     1      -4.869 -40.830 -31.393  1.00  0.00     0.150 C 
ATOM     12  C   UNL     1      -4.927 -42.068 -32.321  1.00  0.00     0.174 C 
ATOM     13  O   UNL     1      -3.769 -40.010 -31.744  1.00  0.00    -0.344 OA
ATOM     14  C   UNL     1      -5.031 -41.620 -33.790  1.00  0.00     0.179 C 
ATOM     15  C   UNL     1      -3.924 -40.591 -34.094  1.00  0.00     0.202 C 
BRANCH  12  16
ATOM     16  O   UNL     1      -5.997 -42.917 -31.982  1.00  0.00    -0.388 OA
ATOM     17  H   UNL     1      -6.598 -42.415 -31.373  1.00  0.00     0.211 HD
ENDBRANCH  12  16
BRANCH  14  18
ATOM     18  O   UNL     1      -4.882 -42.740 -34.626  1.00  0.00    -0.387 OA
ATOM     19  H   UNL     1      -5.784 -42.969 -34.968  1.00  0.00     0.211 HD
ENDBRANCH  14  18
BRANCH  15  20
ATOM     20  O   UNL     1      -4.120 -40.032 -35.368  1.00  0.00    -0.385 OA
ATOM     21  H   UNL     1      -4.053 -39.047 -35.270  1.00  0.00     0.211 HD
ENDBRANCH  15  20
ENDBRANCH   8   9
ENDBRANCH   7   8
ENDBRANCH   1   7
BRANCH   2  22
ATOM     22  O   UNL     1      -1.059 -41.104 -35.382  1.00  0.00    -0.387 OA
ATOM     23  H   UNL     1      -0.737 -42.016 -35.161  1.00  0.00     0.211 HD
ENDBRANCH   2  22
BRANCH   3  24
ATOM     24  O   UNL     1       0.052 -39.441 -37.251  1.00  0.00    -0.387 OA
ATOM     25  H   UNL     1       0.196 -38.469 -37.383  1.00  0.00     0.211 HD
ENDBRANCH   3  24
BRANCH   5  26
ATOM     26  O   UNL     1       0.240 -36.835 -35.982  1.00  0.00    -0.462 OA
BRANCH  26  27
ATOM     27  C   UNL     1       0.657 -35.686 -36.663  1.00  0.00     0.130 A 
ATOM     28  C   UNL     1       1.591 -34.839 -36.062  1.00  0.00     0.093 A 
ATOM     29  C   UNL     1       0.114 -35.349 -37.907  1.00  0.00     0.094 A 
ATOM     30  C   UNL     1       1.986 -33.648 -36.683  1.00  0.00     0.133 A 
ATOM     31  C   UNL     1       0.494 -34.164 -38.543  1.00  0.00     0.138 A 
ATOM     32  C   UNL     1       1.447 -33.309 -37.948  1.00  0.00     0.102 A 
ATOM     33  O   UNL     1      -0.108 -33.822 -39.765  1.00  0.00    -0.484 OA
ATOM     34  C   UNL     1       1.783 -32.069 -38.691  1.00  0.00     0.174 C 
ATOM     35  C   UNL     1       0.369 -32.762 -40.607  1.00  0.00     0.211 C 
ATOM     36  O   UNL     1       2.873 -31.463 -38.525  1.00  0.00    -0.294 OA
ATOM     37  C   UNL     1       0.810 -31.580 -39.720  1.00  0.00     0.131 C 
BRANCH  30  38
ATOM     38  O   UNL     1       2.875 -32.827 -35.984  1.00  0.00    -0.507 OA
ATOM     39  H   UNL     1       3.834 -33.067 -35.790  1.00  0.00     0.293 HD
ENDBRANCH  30  38
BRANCH  35  40
ATOM     40  C   UNL     1       1.430 -33.309 -41.562  1.00  0.00    -0.003 A 
ATOM     41  C   UNL     1       2.300 -32.477 -42.301  1.00  0.00     0.057 A 
ATOM     42  C   UNL     1       1.470 -34.693 -41.806  1.00  0.00     0.011 A 
ATOM     43  C   UNL     1       3.193 -33.016 -43.237  1.00  0.00     0.158 A 
ATOM     44  C   UNL     1       2.359 -35.234 -42.737  1.00  0.00     0.051 A 
ATOM     45  C   UNL     1       3.227 -34.400 -43.465  1.00  0.00     0.160 A 
BRANCH  43  46
ATOM     46  O   UNL     1       4.035 -32.151 -43.938  1.00  0.00    -0.504 OA
ATOM     47  H   UNL     1       5.010 -32.364 -44.109  1.00  0.00     0.293 HD
ENDBRANCH  43  46
BRANCH  45  48
ATOM     48  O   UNL     1       4.124 -34.909 -44.419  1.00  0.00    -0.493 OA
ATOM     49  C   UNL     1       3.940 -36.126 -45.134  1.00  0.00     0.278 C 
ENDBRANCH  45  48
ENDBRANCH  35  40
ENDBRANCH  26  27
ENDBRANCH   5  26
BRANCH   4  50
ATOM     50  O   UNL     1       2.870 -39.186 -34.979  1.00  0.00    -0.384 OA
ATOM     51  H   UNL     1       3.714 -38.777 -35.298  1.00  0.00     0.211 HD
ENDBRANCH   4  50
TORSDOF 15
ENDMDL
MODEL 9
REMARK VINA RESULT:    -6.374      2.352      4.608
REMARK INTER + INTRA:         -12.431
REMARK INTER:                 -10.093
REMARK INTRA:                  -2.338
REMARK UNBOUND:                -1.957
REMARK SMILES COc1ccc([C@@H]2CC(=O)c3c(O)cc(O[C@H]4O[C@H](CO[C@@H]5O[C@H](C)[C@@H](O)[C@H](O)[C@H]5O)[C@@H](O)[C@@H](O)[C@@H]4O)cc3O2)cc1O
REMARK SMILES IDX 19 1 32 2 34 3 36 4 17 5 18 6 20 7 21 8 22 9 25 10 24 11
REMARK SMILES IDX 26 12 23 13 28 14 30 15 27 16 29 18 31 20 33 22 35 24 16 26
REMARK SMILES IDX 15 27 14 28 38 29 12 30 39 31 11 32 40 33 9 34 7 35 10 36
REMARK SMILES IDX 8 37 13 38 6 40 41 41 5 42 42 43 4 44 3 45 43 46 2 48 1 49
REMARK SMILES IDX 37 50
REMARK H PARENT 27 17 29 19 31 21 33 23 35 25 13 39 43 47 37 51
REMARK Flexibility Score: inf
ROOT
ATOM      1  C   UNL     1      -8.187 -34.626 -30.015  1.00  0.00     0.180 C 
ATOM      2  C   UNL     1      -9.527 -35.090 -30.628  1.00  0.00     0.177 C 
ATOM      3  C   UNL     1      -9.389 -36.527 -31.172  1.00  0.00     0.180 C 
ATOM      4  C   UNL     1      -8.765 -37.453 -30.105  1.00  0.00     0.214 C 
ATOM      5  C   UNL     1      -7.512 -36.811 -29.462  1.00  0.00     0.339 C 
ATOM      6  O   UNL     1      -7.786 -35.507 -28.972  1.00  0.00    -0.332 OA
ENDROOT
BRANCH   1   7
ATOM      7  C   UNL     1      -8.300 -33.196 -29.448  1.00  0.00     0.198 C 
BRANCH   7   8
ATOM      8  O   UNL     1      -7.833 -32.268 -30.412  1.00  0.00    -0.347 OA
BRANCH   8   9
ATOM      9  C   UNL     1      -6.795 -32.809 -31.200  1.00  0.00     0.281 C 
ATOM     10  C   UNL     1      -3.187 -32.745 -30.557  1.00  0.00     0.041 C 
ATOM     11  C   UNL     1      -4.477 -33.029 -31.326  1.00  0.00     0.150 C 
ATOM     12  C   UNL     1      -4.408 -32.434 -32.754  1.00  0.00     0.174 C 
ATOM     13  O   UNL     1      -5.558 -32.455 -30.611  1.00  0.00    -0.344 OA
ATOM     14  C   UNL     1      -5.737 -32.678 -33.491  1.00  0.00     0.179 C 
ATOM     15  C   UNL     1      -6.909 -32.203 -32.610  1.00  0.00     0.202 C 
BRANCH  12  16
ATOM     16  O   UNL     1      -3.329 -32.966 -33.482  1.00  0.00    -0.388 OA
ATOM     17  H   UNL     1      -3.136 -33.868 -33.119  1.00  0.00     0.211 HD
ENDBRANCH  12  16
BRANCH  14  18
ATOM     18  O   UNL     1      -5.731 -31.964 -34.701  1.00  0.00    -0.387 OA
ATOM     19  H   UNL     1      -5.967 -31.025 -34.486  1.00  0.00     0.211 HD
ENDBRANCH  14  18
BRANCH  15  20
ATOM     20  O   UNL     1      -8.133 -32.591 -33.182  1.00  0.00    -0.385 OA
ATOM     21  H   UNL     1      -7.946 -32.863 -34.119  1.00  0.00     0.211 HD
ENDBRANCH  15  20
ENDBRANCH   8   9
ENDBRANCH   7   8
ENDBRANCH   1   7
BRANCH   2  22
ATOM     22  O   UNL     1      -9.909 -34.213 -31.658  1.00  0.00    -0.387 OA
ATOM     23  H   UNL     1     -10.761 -33.792 -31.375  1.00  0.00     0.211 HD
ENDBRANCH   2  22
BRANCH   3  24
ATOM     24  O   UNL     1      -8.588 -36.515 -32.330  1.00  0.00    -0.387 OA
ATOM     25  H   UNL     1      -7.963 -37.282 -32.262  1.00  0.00     0.211 HD
ENDBRANCH   3  24
BRANCH   5  26
ATOM     26  O   UNL     1      -6.434 -36.786 -30.402  1.00  0.00    -0.462 OA
BRANCH  26  27
ATOM     27  C   UNL     1      -5.385 -37.712 -30.394  1.00  0.00     0.130 A 
ATOM     28  C   UNL     1      -5.668 -39.062 -30.179  1.00  0.00     0.093 A 
ATOM     29  C   UNL     1      -4.058 -37.297 -30.545  1.00  0.00     0.094 A 
ATOM     30  C   UNL     1      -4.642 -40.010 -30.102  1.00  0.00     0.133 A 
ATOM     31  C   UNL     1      -3.017 -38.227 -30.470  1.00  0.00     0.138 A 
ATOM     32  C   UNL     1      -3.297 -39.595 -30.266  1.00  0.00     0.102 A 
ATOM     33  O   UNL     1      -1.690 -37.775 -30.569  1.00  0.00    -0.484 OA
ATOM     34  C   UNL     1      -2.130 -40.508 -30.190  1.00  0.00     0.174 C 
ATOM     35  C   UNL     1      -0.571 -38.658 -30.737  1.00  0.00     0.211 C 
ATOM     36  O   UNL     1      -2.222 -41.737 -30.445  1.00  0.00    -0.294 OA
ATOM     37  C   UNL     1      -0.792 -39.915 -29.870  1.00  0.00     0.131 C 
BRANCH  30  38
ATOM     38  O   UNL     1      -5.008 -41.328 -29.819  1.00  0.00    -0.507 OA
ATOM     39  H   UNL     1      -5.384 -41.634 -28.937  1.00  0.00     0.293 HD
ENDBRANCH  30  38
BRANCH  35  40
ATOM     40  C   UNL     1      -0.339 -38.909 -32.227  1.00  0.00    -0.003 A 
ATOM     41  C   UNL     1      -1.004 -38.185 -33.240  1.00  0.00     0.057 A 
ATOM     42  C   UNL     1       0.483 -39.983 -32.611  1.00  0.00     0.011 A 
ATOM     43  C   UNL     1      -0.834 -38.511 -34.592  1.00  0.00     0.158 A 
ATOM     44  C   UNL     1       0.656 -40.311 -33.957  1.00  0.00     0.051 A 
ATOM     45  C   UNL     1      -0.004 -39.581 -34.961  1.00  0.00     0.160 A 
BRANCH  43  46
ATOM     46  O   UNL     1      -1.510 -37.760 -35.555  1.00  0.00    -0.504 OA
ATOM     47  H   UNL     1      -1.865 -38.170 -36.410  1.00  0.00     0.293 HD
ENDBRANCH  43  46
BRANCH  45  48
ATOM     48  O   UNL     1       0.135 -39.892 -36.324  1.00  0.00    -0.493 OA
ATOM     49  C   UNL     1       1.086 -39.291 -37.197  1.00  0.00     0.278 C 
ENDBRANCH  45  48
ENDBRANCH  35  40
ENDBRANCH  26  27
ENDBRANCH   5  26
BRANCH   4  50
ATOM     50  O   UNL     1      -9.722 -37.800 -29.131  1.00  0.00    -0.384 OA
ATOM     51  H   UNL     1      -9.965 -36.982 -28.629  1.00  0.00     0.211 HD
ENDBRANCH   4  50
TORSDOF 15
ENDMDL
