MODEL 1
REMARK VINA RESULT:    -4.221      0.000      0.000
REMARK INTER + INTRA:          -6.331
REMARK INTER:                  -5.825
REMARK INTRA:                  -0.506
REMARK UNBOUND:                -0.506
REMARK SMILES OC[C@@H](O)[C@@H](O)[C@@H](O)CO
REMARK SMILES IDX 5 1 7 2 9 3 10 4 8 6 3 8 2 9 1 10 4 12 6 14
REMARK H PARENT 10 5 8 7 1 11 4 13 6 15
REMARK Flexibility Score: inf
ROOT
ATOM      1  C   UNL     1     -14.024  30.623  19.819  1.00  0.00     0.176 C 
ENDROOT
BRANCH   1   2
ATOM      2  C   UNL     1     -14.922  31.601  19.008  1.00  0.00     0.171 C 
BRANCH   2   3
ATOM      3  C   UNL     1     -15.294  32.872  19.788  1.00  0.00     0.190 C 
BRANCH   3   4
ATOM      4  O   UNL     1     -14.255  33.225  20.662  1.00  0.00    -0.394 OA
ATOM      5  H   UNL     1     -14.485  32.841  21.548  1.00  0.00     0.210 HD
ENDBRANCH   3   4
ENDBRANCH   2   3
BRANCH   2   6
ATOM      6  O   UNL     1     -16.096  30.962  18.573  1.00  0.00    -0.388 OA
ATOM      7  H   UNL     1     -15.903  30.581  17.678  1.00  0.00     0.211 HD
ENDBRANCH   2   6
ENDBRANCH   1   2
BRANCH   1   8
ATOM      8  C   UNL     1     -14.564  29.163  19.858  1.00  0.00     0.171 C 
BRANCH   8   9
ATOM      9  C   UNL     1     -13.430  28.120  19.867  1.00  0.00     0.190 C 
BRANCH   9  10
ATOM     10  O   UNL     1     -12.795  28.097  21.117  1.00  0.00    -0.394 OA
ATOM     11  H   UNL     1     -13.365  28.637  21.724  1.00  0.00     0.210 HD
ENDBRANCH   9  10
ENDBRANCH   8   9
BRANCH   8  12
ATOM     12  O   UNL     1     -15.388  28.958  20.977  1.00  0.00    -0.388 OA
ATOM     13  H   UNL     1     -16.309  29.230  20.725  1.00  0.00     0.211 HD
ENDBRANCH   8  12
ENDBRANCH   1   8
BRANCH   1  14
ATOM     14  O   UNL     1     -12.737  30.624  19.251  1.00  0.00    -0.388 OA
ATOM     15  H   UNL     1     -12.685  31.411  18.648  1.00  0.00     0.211 HD
ENDBRANCH   1  14
TORSDOF 9
ENDMDL
MODEL 2
REMARK VINA RESULT:    -4.141      1.119      3.959
REMARK INTER + INTRA:          -6.220
REMARK INTER:                  -5.696
REMARK INTRA:                  -0.524
REMARK UNBOUND:                -0.506
REMARK SMILES OC[C@@H](O)[C@@H](O)[C@@H](O)CO
REMARK SMILES IDX 5 1 7 2 9 3 10 4 8 6 3 8 2 9 1 10 4 12 6 14
REMARK H PARENT 10 5 8 7 1 11 4 13 6 15
REMARK Flexibility Score: inf
ROOT
ATOM      1  C   UNL     1     -15.184  29.813  19.269  1.00  0.00     0.176 C 
ENDROOT
BRANCH   1   2
ATOM      2  C   UNL     1     -14.524  28.448  18.917  1.00  0.00     0.171 C 
BRANCH   2   3
ATOM      3  C   UNL     1     -14.281  27.557  20.145  1.00  0.00     0.190 C 
BRANCH   3   4
ATOM      4  O   UNL     1     -13.118  27.964  20.817  1.00  0.00    -0.394 OA
ATOM      5  H   UNL     1     -13.367  28.086  21.770  1.00  0.00     0.210 HD
ENDBRANCH   3   4
ENDBRANCH   2   3
BRANCH   2   6
ATOM      6  O   UNL     1     -13.312  28.638  18.232  1.00  0.00    -0.388 OA
ATOM      7  H   UNL     1     -13.157  29.617  18.185  1.00  0.00     0.211 HD
ENDBRANCH   2   6
ENDBRANCH   1   2
BRANCH   1   8
ATOM      8  C   UNL     1     -14.186  31.007  19.274  1.00  0.00     0.171 C 
BRANCH   8   9
ATOM      9  C   UNL     1     -14.881  32.349  19.574  1.00  0.00     0.190 C 
BRANCH   9  10
ATOM     10  O   UNL     1     -14.211  33.029  20.601  1.00  0.00    -0.394 OA
ATOM     11  H   UNL     1     -14.049  32.358  21.314  1.00  0.00     0.210 HD
ENDBRANCH   9  10
ENDBRANCH   8   9
BRANCH   8  12
ATOM     12  O   UNL     1     -13.157  30.802  20.208  1.00  0.00    -0.388 OA
ATOM     13  H   UNL     1     -12.403  31.400  19.961  1.00  0.00     0.211 HD
ENDBRANCH   8  12
ENDBRANCH   1   8
BRANCH   1  14
ATOM     14  O   UNL     1     -16.205  30.068  18.335  1.00  0.00    -0.388 OA
ATOM     15  H   UNL     1     -16.507  31.003  18.481  1.00  0.00     0.211 HD
ENDBRANCH   1  14
TORSDOF 9
ENDMDL
MODEL 3
REMARK VINA RESULT:    -4.112      1.261      2.115
REMARK INTER + INTRA:          -6.180
REMARK INTER:                  -5.850
REMARK INTRA:                  -0.330
REMARK UNBOUND:                -0.506
REMARK SMILES OC[C@@H](O)[C@@H](O)[C@@H](O)CO
REMARK SMILES IDX 5 1 7 2 9 3 10 4 8 6 3 8 2 9 1 10 4 12 6 14
REMARK H PARENT 10 5 8 7 1 11 4 13 6 15
REMARK Flexibility Score: inf
ROOT
ATOM      1  C   UNL     1     -15.010  29.756  19.864  1.00  0.00     0.176 C 
ENDROOT
BRANCH   1   2
ATOM      2  C   UNL     1     -13.940  30.885  19.924  1.00  0.00     0.171 C 
BRANCH   2   3
ATOM      3  C   UNL     1     -14.481  32.256  19.488  1.00  0.00     0.190 C 
BRANCH   3   4
ATOM      4  O   UNL     1     -14.359  33.181  20.536  1.00  0.00    -0.394 OA
ATOM      5  H   UNL     1     -13.425  33.115  20.867  1.00  0.00     0.210 HD
ENDBRANCH   3   4
ENDBRANCH   2   3
BRANCH   2   6
ATOM      6  O   UNL     1     -12.820  30.557  19.142  1.00  0.00    -0.388 OA
ATOM      7  H   UNL     1     -12.056  31.081  19.498  1.00  0.00     0.211 HD
ENDBRANCH   2   6
ENDBRANCH   1   2
BRANCH   1   8
ATOM      8  C   UNL     1     -14.610  28.472  20.648  1.00  0.00     0.171 C 
BRANCH   8   9
ATOM      9  C   UNL     1     -14.380  27.266  19.718  1.00  0.00     0.190 C 
BRANCH   9  10
ATOM     10  O   UNL     1     -14.630  26.067  20.401  1.00  0.00    -0.394 OA
ATOM     11  H   UNL     1     -13.914  25.984  21.083  1.00  0.00     0.210 HD
ENDBRANCH   9  10
ENDBRANCH   8   9
BRANCH   8  12
ATOM     12  O   UNL     1     -13.454  28.689  21.416  1.00  0.00    -0.388 OA
ATOM     13  H   UNL     1     -12.687  28.771  20.790  1.00  0.00     0.211 HD
ENDBRANCH   8  12
ENDBRANCH   1   8
BRANCH   1  14
ATOM     14  O   UNL     1     -16.217  30.258  20.385  1.00  0.00    -0.388 OA
ATOM     15  H   UNL     1     -16.367  29.810  21.258  1.00  0.00     0.211 HD
ENDBRANCH   1  14
TORSDOF 9
ENDMDL
MODEL 4
REMARK VINA RESULT:    -4.102      1.718      3.644
REMARK INTER + INTRA:          -6.167
REMARK INTER:                  -5.438
REMARK INTRA:                  -0.730
REMARK UNBOUND:                -0.506
REMARK SMILES OC[C@@H](O)[C@@H](O)[C@@H](O)CO
REMARK SMILES IDX 5 1 7 2 9 3 10 4 8 6 3 8 2 9 1 10 4 12 6 14
REMARK H PARENT 10 5 8 7 1 11 4 13 6 15
REMARK Flexibility Score: inf
ROOT
ATOM      1  C   UNL     1     -13.452  29.151  18.677  1.00  0.00     0.176 C 
ENDROOT
BRANCH   1   2
ATOM      2  C   UNL     1     -14.629  28.162  18.918  1.00  0.00     0.171 C 
BRANCH   2   3
ATOM      3  C   UNL     1     -14.563  27.463  20.286  1.00  0.00     0.190 C 
BRANCH   3   4
ATOM      4  O   UNL     1     -14.579  28.414  21.317  1.00  0.00    -0.394 OA
ATOM      5  H   UNL     1     -13.941  29.128  21.057  1.00  0.00     0.210 HD
ENDBRANCH   3   4
ENDBRANCH   2   3
BRANCH   2   6
ATOM      6  O   UNL     1     -14.687  27.193  17.903  1.00  0.00    -0.388 OA
ATOM      7  H   UNL     1     -14.307  26.357  18.279  1.00  0.00     0.211 HD
ENDBRANCH   2   6
ENDBRANCH   1   2
BRANCH   1   8
ATOM      8  C   UNL     1     -13.785  30.625  19.053  1.00  0.00     0.171 C 
BRANCH   8   9
ATOM      9  C   UNL     1     -15.293  30.927  18.954  1.00  0.00     0.190 C 
BRANCH   9  10
ATOM     10  O   UNL     1     -15.852  31.054  20.233  1.00  0.00    -0.394 OA
ATOM     11  H   UNL     1     -15.947  32.028  20.397  1.00  0.00     0.210 HD
ENDBRANCH   9  10
ENDBRANCH   8   9
BRANCH   8  12
ATOM     12  O   UNL     1     -13.338  30.930  20.349  1.00  0.00    -0.388 OA
ATOM     13  H   UNL     1     -12.536  30.372  20.530  1.00  0.00     0.211 HD
ENDBRANCH   8  12
ENDBRANCH   1   8
BRANCH   1  14
ATOM     14  O   UNL     1     -12.346  28.721  19.432  1.00  0.00    -0.388 OA
ATOM     15  H   UNL     1     -12.613  28.756  20.388  1.00  0.00     0.211 HD
ENDBRANCH   1  14
TORSDOF 9
ENDMDL
MODEL 5
REMARK VINA RESULT:    -4.093      0.805      3.804
REMARK INTER + INTRA:          -6.154
REMARK INTER:                  -5.479
REMARK INTRA:                  -0.675
REMARK UNBOUND:                -0.506
REMARK SMILES OC[C@@H](O)[C@@H](O)[C@@H](O)CO
REMARK SMILES IDX 5 1 7 2 9 3 10 4 8 6 3 8 2 9 1 10 4 12 6 14
REMARK H PARENT 10 5 8 7 1 11 4 13 6 15
REMARK Flexibility Score: inf
ROOT
ATOM      1  C   UNL     1     -14.454  30.255  19.502  1.00  0.00     0.176 C 
ENDROOT
BRANCH   1   2
ATOM      2  C   UNL     1     -14.868  28.874  20.087  1.00  0.00     0.171 C 
BRANCH   2   3
ATOM      3  C   UNL     1     -13.744  27.826  20.022  1.00  0.00     0.190 C 
BRANCH   3   4
ATOM      4  O   UNL     1     -12.836  28.024  21.073  1.00  0.00    -0.394 OA
ATOM      5  H   UNL     1     -12.841  27.192  21.614  1.00  0.00     0.210 HD
ENDBRANCH   3   4
ENDBRANCH   2   3
BRANCH   2   6
ATOM      6  O   UNL     1     -16.008  28.373  19.436  1.00  0.00    -0.388 OA
ATOM      7  H   UNL     1     -16.585  27.968  20.135  1.00  0.00     0.211 HD
ENDBRANCH   2   6
ENDBRANCH   1   2
BRANCH   1   8
ATOM      8  C   UNL     1     -15.555  31.347  19.639  1.00  0.00     0.171 C 
BRANCH   8   9
ATOM      9  C   UNL     1     -14.993  32.771  19.460  1.00  0.00     0.190 C 
BRANCH   9  10
ATOM     10  O   UNL     1     -14.339  33.189  20.627  1.00  0.00    -0.394 OA
ATOM     11  H   UNL     1     -15.017  33.681  21.161  1.00  0.00     0.210 HD
ENDBRANCH   9  10
ENDBRANCH   8   9
BRANCH   8  12
ATOM     12  O   UNL     1     -16.590  31.141  18.712  1.00  0.00    -0.388 OA
ATOM     13  H   UNL     1     -17.200  31.924  18.762  1.00  0.00     0.211 HD
ENDBRANCH   8  12
ENDBRANCH   1   8
BRANCH   1  14
ATOM     14  O   UNL     1     -13.290  30.688  20.162  1.00  0.00    -0.388 OA
ATOM     15  H   UNL     1     -13.577  31.287  20.899  1.00  0.00     0.211 HD
ENDBRANCH   1  14
TORSDOF 9
ENDMDL
MODEL 6
REMARK VINA RESULT:    -4.078      1.719      2.640
REMARK INTER + INTRA:          -6.133
REMARK INTER:                  -5.372
REMARK INTRA:                  -0.762
REMARK UNBOUND:                -0.506
REMARK SMILES OC[C@@H](O)[C@@H](O)[C@@H](O)CO
REMARK SMILES IDX 5 1 7 2 9 3 10 4 8 6 3 8 2 9 1 10 4 12 6 14
REMARK H PARENT 10 5 8 7 1 11 4 13 6 15
REMARK Flexibility Score: inf
ROOT
ATOM      1  C   UNL     1     -15.095  28.380  19.908  1.00  0.00     0.176 C 
ENDROOT
BRANCH   1   2
ATOM      2  C   UNL     1     -15.937  29.272  18.950  1.00  0.00     0.171 C 
BRANCH   2   3
ATOM      3  C   UNL     1     -16.833  30.279  19.690  1.00  0.00     0.190 C 
BRANCH   3   4
ATOM      4  O   UNL     1     -16.053  31.300  20.252  1.00  0.00    -0.394 OA
ATOM      5  H   UNL     1     -15.585  30.905  21.033  1.00  0.00     0.210 HD
ENDBRANCH   3   4
ENDBRANCH   2   3
BRANCH   2   6
ATOM      6  O   UNL     1     -16.728  28.485  18.097  1.00  0.00    -0.388 OA
ATOM      7  H   UNL     1     -16.120  28.098  17.414  1.00  0.00     0.211 HD
ENDBRANCH   2   6
ENDBRANCH   1   2
BRANCH   1   8
ATOM      8  C   UNL     1     -13.574  28.366  19.575  1.00  0.00     0.171 C 
BRANCH   8   9
ATOM      9  C   UNL     1     -13.068  29.739  19.094  1.00  0.00     0.190 C 
BRANCH   9  10
ATOM     10  O   UNL     1     -13.170  30.687  20.122  1.00  0.00    -0.394 OA
ATOM     11  H   UNL     1     -14.131  30.723  20.368  1.00  0.00     0.210 HD
ENDBRANCH   9  10
ENDBRANCH   8   9
BRANCH   8  12
ATOM     12  O   UNL     1     -12.817  27.958  20.685  1.00  0.00    -0.388 OA
ATOM     13  H   UNL     1     -12.208  28.706  20.925  1.00  0.00     0.211 HD
ENDBRANCH   8  12
ENDBRANCH   1   8
BRANCH   1  14
ATOM     14  O   UNL     1     -15.275  28.845  21.223  1.00  0.00    -0.388 OA
ATOM     15  H   UNL     1     -16.007  29.516  21.199  1.00  0.00     0.211 HD
ENDBRANCH   1  14
TORSDOF 9
ENDMDL
MODEL 7
REMARK VINA RESULT:    -4.060      1.486      2.238
REMARK INTER + INTRA:          -6.109
REMARK INTER:                  -5.317
REMARK INTRA:                  -0.792
REMARK UNBOUND:                -0.506
REMARK SMILES OC[C@@H](O)[C@@H](O)[C@@H](O)CO
REMARK SMILES IDX 5 1 7 2 9 3 10 4 8 6 3 8 2 9 1 10 4 12 6 14
REMARK H PARENT 10 5 8 7 1 11 4 13 6 15
REMARK Flexibility Score: inf
ROOT
ATOM      1  C   UNL     1     -15.738  29.278  19.659  1.00  0.00     0.176 C 
ENDROOT
BRANCH   1   2
ATOM      2  C   UNL     1     -15.373  30.736  19.255  1.00  0.00     0.171 C 
BRANCH   2   3
ATOM      3  C   UNL     1     -13.858  30.970  19.133  1.00  0.00     0.190 C 
BRANCH   3   4
ATOM      4  O   UNL     1     -13.238  30.794  20.380  1.00  0.00    -0.394 OA
ATOM      5  H   UNL     1     -13.183  31.691  20.800  1.00  0.00     0.210 HD
ENDBRANCH   3   4
ENDBRANCH   2   3
BRANCH   2   6
ATOM      6  O   UNL     1     -15.914  31.661  20.164  1.00  0.00    -0.388 OA
ATOM      7  H   UNL     1     -15.312  31.678  20.952  1.00  0.00     0.211 HD
ENDBRANCH   2   6
ENDBRANCH   1   2
BRANCH   1   8
ATOM      8  C   UNL     1     -14.837  28.199  18.992  1.00  0.00     0.171 C 
BRANCH   8   9
ATOM      9  C   UNL     1     -14.193  27.254  20.025  1.00  0.00     0.190 C 
BRANCH   9  10
ATOM     10  O   UNL     1     -13.112  27.884  20.658  1.00  0.00    -0.394 OA
ATOM     11  H   UNL     1     -13.035  27.463  21.553  1.00  0.00     0.210 HD
ENDBRANCH   9  10
ENDBRANCH   8   9
BRANCH   8  12
ATOM     12  O   UNL     1     -15.563  27.438  18.061  1.00  0.00    -0.388 OA
ATOM     13  H   UNL     1     -16.330  27.028  18.541  1.00  0.00     0.211 HD
ENDBRANCH   8  12
ENDBRANCH   1   8
BRANCH   1  14
ATOM     14  O   UNL     1     -15.637  29.165  21.058  1.00  0.00    -0.388 OA
ATOM     15  H   UNL     1     -14.818  29.655  21.332  1.00  0.00     0.211 HD
ENDBRANCH   1  14
TORSDOF 9
ENDMDL
MODEL 8
REMARK VINA RESULT:    -4.001      1.551      2.384
REMARK INTER + INTRA:          -6.028
REMARK INTER:                  -5.523
REMARK INTRA:                  -0.505
REMARK UNBOUND:                -0.506
REMARK SMILES OC[C@@H](O)[C@@H](O)[C@@H](O)CO
REMARK SMILES IDX 5 1 7 2 9 3 10 4 8 6 3 8 2 9 1 10 4 12 6 14
REMARK H PARENT 10 5 8 7 1 11 4 13 6 15
REMARK Flexibility Score: inf
ROOT
ATOM      1  C   UNL     1     -14.485  29.206  20.075  1.00  0.00     0.176 C 
ENDROOT
BRANCH   1   2
ATOM      2  C   UNL     1     -13.660  30.516  19.915  1.00  0.00     0.171 C 
BRANCH   2   3
ATOM      3  C   UNL     1     -14.494  31.699  19.399  1.00  0.00     0.190 C 
BRANCH   3   4
ATOM      4  O   UNL     1     -14.347  32.804  20.251  1.00  0.00    -0.394 OA
ATOM      5  H   UNL     1     -14.200  32.443  21.164  1.00  0.00     0.210 HD
ENDBRANCH   3   4
ENDBRANCH   2   3
BRANCH   2   6
ATOM      6  O   UNL     1     -12.559  30.316  19.065  1.00  0.00    -0.388 OA
ATOM      7  H   UNL     1     -11.793  30.056  19.640  1.00  0.00     0.211 HD
ENDBRANCH   2   6
ENDBRANCH   1   2
BRANCH   1   8
ATOM      8  C   UNL     1     -14.120  28.106  19.036  1.00  0.00     0.171 C 
BRANCH   8   9
ATOM      9  C   UNL     1     -14.867  26.784  19.295  1.00  0.00     0.190 C 
BRANCH   9  10
ATOM     10  O   UNL     1     -14.286  26.096  20.369  1.00  0.00    -0.394 OA
ATOM     11  H   UNL     1     -13.694  26.748  20.826  1.00  0.00     0.210 HD
ENDBRANCH   9  10
ENDBRANCH   8   9
BRANCH   8  12
ATOM     12  O   UNL     1     -14.390  28.538  17.726  1.00  0.00    -0.388 OA
ATOM     13  H   UNL     1     -14.727  27.756  17.215  1.00  0.00     0.211 HD
ENDBRANCH   8  12
ENDBRANCH   1   8
BRANCH   1  14
ATOM     14  O   UNL     1     -14.277  28.703  21.372  1.00  0.00    -0.388 OA
ATOM     15  H   UNL     1     -13.977  27.761  21.276  1.00  0.00     0.211 HD
ENDBRANCH   1  14
TORSDOF 9
ENDMDL
MODEL 9
REMARK VINA RESULT:    -3.855      1.495      3.751
REMARK INTER + INTRA:          -5.826
REMARK INTER:                  -5.058
REMARK INTRA:                  -0.767
REMARK UNBOUND:                -0.506
REMARK SMILES OC[C@@H](O)[C@@H](O)[C@@H](O)CO
REMARK SMILES IDX 5 1 7 2 9 3 10 4 8 6 3 8 2 9 1 10 4 12 6 14
REMARK H PARENT 10 5 8 7 1 11 4 13 6 15
REMARK Flexibility Score: inf
ROOT
ATOM      1  C   UNL     1     -13.941  30.194  18.808  1.00  0.00     0.176 C 
ENDROOT
BRANCH   1   2
ATOM      2  C   UNL     1     -13.540  28.713  19.068  1.00  0.00     0.171 C 
BRANCH   2   3
ATOM      3  C   UNL     1     -14.463  28.002  20.071  1.00  0.00     0.190 C 
BRANCH   3   4
ATOM      4  O   UNL     1     -14.315  28.564  21.349  1.00  0.00    -0.394 OA
ATOM      5  H   UNL     1     -13.376  28.880  21.414  1.00  0.00     0.210 HD
ENDBRANCH   3   4
ENDBRANCH   2   3
BRANCH   2   6
ATOM      6  O   UNL     1     -12.211  28.624  19.515  1.00  0.00    -0.388 OA
ATOM      7  H   UNL     1     -12.244  28.525  20.502  1.00  0.00     0.211 HD
ENDBRANCH   2   6
ENDBRANCH   1   2
BRANCH   1   8
ATOM      8  C   UNL     1     -15.453  30.386  18.491  1.00  0.00     0.171 C 
BRANCH   8   9
ATOM      9  C   UNL     1     -16.156  31.294  19.518  1.00  0.00     0.190 C 
BRANCH   9  10
ATOM     10  O   UNL     1     -16.479  30.568  20.673  1.00  0.00    -0.394 OA
ATOM     11  H   UNL     1     -15.787  29.861  20.756  1.00  0.00     0.210 HD
ENDBRANCH   9  10
ENDBRANCH   8   9
BRANCH   8  12
ATOM     12  O   UNL     1     -15.637  30.919  17.204  1.00  0.00    -0.388 OA
ATOM     13  H   UNL     1     -16.543  31.325  17.173  1.00  0.00     0.211 HD
ENDBRANCH   8  12
ENDBRANCH   1   8
BRANCH   1  14
ATOM     14  O   UNL     1     -13.607  30.953  19.944  1.00  0.00    -0.388 OA
ATOM     15  H   UNL     1     -14.192  31.755  19.942  1.00  0.00     0.211 HD
ENDBRANCH   1  14
TORSDOF 9
ENDMDL
