MODEL 1
REMARK VINA RESULT:    -4.002      0.000      0.000
REMARK INTER + INTRA:          -5.177
REMARK INTER:                  -4.938
REMARK INTRA:                  -0.239
REMARK UNBOUND:                -0.239
REMARK SMILES CCCCC=CC(C)=O
REMARK SMILES IDX 4 1 3 2 2 3 1 4 5 5 6 6 7 7 9 8 8 9
REMARK H PARENT
REMARK Flexibility Score: inf
ROOT
ATOM      1  C   UNL     1     -13.835   0.715  29.134  1.00  0.00     0.027 C 
ENDROOT
BRANCH   1   2
ATOM      2  C   UNL     1     -12.987   1.159  30.337  1.00  0.00     0.004 C 
BRANCH   2   3
ATOM      3  C   UNL     1     -12.645  -0.007  31.277  1.00  0.00    -0.003 C 
ATOM      4  C   UNL     1     -11.849   0.440  32.503  1.00  0.00     0.004 C 
ENDBRANCH   2   3
ENDBRANCH   1   2
BRANCH   1   5
ATOM      5  C   UNL     1     -13.395   1.411  27.874  1.00  0.00    -0.023 C 
ATOM      6  C   UNL     1     -13.914   2.546  27.379  1.00  0.00     0.042 C 
BRANCH   6   7
ATOM      7  C   UNL     1     -15.048   3.316  27.944  1.00  0.00     0.152 C 
ATOM      8  O   UNL     1     -14.865   4.289  28.723  1.00  0.00    -0.295 OA
ATOM      9  C   UNL     1     -16.446   2.887  27.637  1.00  0.00     0.093 C 
ENDBRANCH   6   7
ENDBRANCH   1   5
TORSDOF 4
ENDMDL
MODEL 2
REMARK VINA RESULT:    -3.986     11.029     12.464
REMARK INTER + INTRA:          -5.157
REMARK INTER:                  -4.577
REMARK INTRA:                  -0.580
REMARK UNBOUND:                -0.239
REMARK SMILES CCCCC=CC(C)=O
REMARK SMILES IDX 4 1 3 2 2 3 1 4 5 5 6 6 7 7 9 8 8 9
REMARK H PARENT
REMARK Flexibility Score: inf
ROOT
ATOM      1  C   UNL     1      -0.862   0.767  27.546  1.00  0.00     0.027 C 
ENDROOT
BRANCH   1   2
ATOM      2  C   UNL     1      -1.138  -0.450  26.646  1.00  0.00     0.004 C 
BRANCH   2   3
ATOM      3  C   UNL     1      -2.379  -0.257  25.761  1.00  0.00    -0.003 C 
ATOM      4  C   UNL     1      -3.245   0.918  26.212  1.00  0.00     0.004 C 
ENDBRANCH   2   3
ENDBRANCH   1   2
BRANCH   1   5
ATOM      5  C   UNL     1      -0.506   0.339  28.944  1.00  0.00    -0.023 C 
ATOM      6  C   UNL     1      -1.368   0.167  29.959  1.00  0.00     0.042 C 
BRANCH   6   7
ATOM      7  C   UNL     1      -2.830   0.405  29.923  1.00  0.00     0.152 C 
ATOM      8  O   UNL     1      -3.331   1.508  30.272  1.00  0.00    -0.295 OA
ATOM      9  C   UNL     1      -3.741  -0.712  29.530  1.00  0.00     0.093 C 
ENDBRANCH   6   7
ENDBRANCH   1   5
TORSDOF 4
ENDMDL
MODEL 3
REMARK VINA RESULT:    -3.944      0.959      1.532
REMARK INTER + INTRA:          -5.105
REMARK INTER:                  -4.901
REMARK INTRA:                  -0.204
REMARK UNBOUND:                -0.239
REMARK SMILES CCCCC=CC(C)=O
REMARK SMILES IDX 4 1 3 2 2 3 1 4 5 5 6 6 7 7 9 8 8 9
REMARK H PARENT
REMARK Flexibility Score: inf
ROOT
ATOM      1  C   UNL     1     -13.397   0.540  30.591  1.00  0.00     0.027 C 
ENDROOT
BRANCH   1   2
ATOM      2  C   UNL     1     -12.318  -0.183  31.414  1.00  0.00     0.004 C 
BRANCH   2   3
ATOM      3  C   UNL     1     -11.847   0.642  32.621  1.00  0.00    -0.003 C 
ATOM      4  C   UNL     1     -11.724   2.132  32.302  1.00  0.00     0.004 C 
ENDBRANCH   2   3
ENDBRANCH   1   2
BRANCH   1   5
ATOM      5  C   UNL     1     -13.162   0.366  29.115  1.00  0.00    -0.023 C 
ATOM      6  C   UNL     1     -13.495   1.244  28.156  1.00  0.00     0.042 C 
BRANCH   6   7
ATOM      7  C   UNL     1     -14.198   2.535  28.348  1.00  0.00     0.152 C 
ATOM      8  O   UNL     1     -13.676   3.485  28.991  1.00  0.00    -0.295 OA
ATOM      9  C   UNL     1     -15.589   2.693  27.826  1.00  0.00     0.093 C 
ENDBRANCH   6   7
ENDBRANCH   1   5
TORSDOF 4
ENDMDL
MODEL 4
REMARK VINA RESULT:    -3.920     10.709     12.081
REMARK INTER + INTRA:          -5.075
REMARK INTER:                  -4.773
REMARK INTRA:                  -0.302
REMARK UNBOUND:                -0.239
REMARK SMILES CCCCC=CC(C)=O
REMARK SMILES IDX 4 1 3 2 2 3 1 4 5 5 6 6 7 7 9 8 8 9
REMARK H PARENT
REMARK Flexibility Score: inf
ROOT
ATOM      1  C   UNL     1      -2.455   0.555  29.962  1.00  0.00     0.027 C 
ENDROOT
BRANCH   1   2
ATOM      2  C   UNL     1      -3.183  -0.798  30.013  1.00  0.00     0.004 C 
BRANCH   2   3
ATOM      3  C   UNL     1      -4.701  -0.641  30.195  1.00  0.00    -0.003 C 
ATOM      4  C   UNL     1      -5.136  -0.787  31.653  1.00  0.00     0.004 C 
ENDBRANCH   2   3
ENDBRANCH   1   2
BRANCH   1   5
ATOM      5  C   UNL     1      -0.994   0.373  29.647  1.00  0.00    -0.023 C 
ATOM      6  C   UNL     1      -0.444   0.387  28.423  1.00  0.00     0.042 C 
BRANCH   6   7
ATOM      7  C   UNL     1      -1.163   0.537  27.136  1.00  0.00     0.152 C 
ATOM      8  O   UNL     1      -1.430   1.671  26.654  1.00  0.00    -0.295 OA
ATOM      9  C   UNL     1      -1.646  -0.684  26.423  1.00  0.00     0.093 C 
ENDBRANCH   6   7
ENDBRANCH   1   5
TORSDOF 4
ENDMDL
MODEL 5
REMARK VINA RESULT:    -3.843      1.305      1.940
REMARK INTER + INTRA:          -4.980
REMARK INTER:                  -4.683
REMARK INTRA:                  -0.297
REMARK UNBOUND:                -0.239
REMARK SMILES CCCCC=CC(C)=O
REMARK SMILES IDX 4 1 3 2 2 3 1 4 5 5 6 6 7 7 9 8 8 9
REMARK H PARENT
REMARK Flexibility Score: inf
ROOT
ATOM      1  C   UNL     1     -13.586   1.913  27.897  1.00  0.00     0.027 C 
ENDROOT
BRANCH   1   2
ATOM      2  C   UNL     1     -13.930   0.808  28.909  1.00  0.00     0.004 C 
BRANCH   2   3
ATOM      3  C   UNL     1     -12.713   0.367  29.736  1.00  0.00    -0.003 C 
ATOM      4  C   UNL     1     -13.082  -0.006  31.172  1.00  0.00     0.004 C 
ENDBRANCH   2   3
ENDBRANCH   1   2
BRANCH   1   5
ATOM      5  C   UNL     1     -13.986   3.268  28.416  1.00  0.00    -0.023 C 
ATOM      6  C   UNL     1     -15.190   3.843  28.272  1.00  0.00     0.042 C 
BRANCH   6   7
ATOM      7  C   UNL     1     -16.351   3.285  27.539  1.00  0.00     0.152 C 
ATOM      8  O   UNL     1     -17.208   2.558  28.109  1.00  0.00    -0.295 OA
ATOM      9  C   UNL     1     -16.473   3.532  26.070  1.00  0.00     0.093 C 
ENDBRANCH   6   7
ENDBRANCH   1   5
TORSDOF 4
ENDMDL
MODEL 6
REMARK VINA RESULT:    -3.781     10.871     11.985
REMARK INTER + INTRA:          -4.905
REMARK INTER:                  -4.727
REMARK INTRA:                  -0.178
REMARK UNBOUND:                -0.239
REMARK SMILES CCCCC=CC(C)=O
REMARK SMILES IDX 4 1 3 2 2 3 1 4 5 5 6 6 7 7 9 8 8 9
REMARK H PARENT
REMARK Flexibility Score: inf
ROOT
ATOM      1  C   UNL     1      -3.613   0.020  27.889  1.00  0.00     0.027 C 
ENDROOT
BRANCH   1   2
ATOM      2  C   UNL     1      -3.627  -0.748  29.220  1.00  0.00     0.004 C 
BRANCH   2   3
ATOM      3  C   UNL     1      -4.983  -0.656  29.938  1.00  0.00    -0.003 C 
ATOM      4  C   UNL     1      -4.862  -0.841  31.450  1.00  0.00     0.004 C 
ENDBRANCH   2   3
ENDBRANCH   1   2
BRANCH   1   5
ATOM      5  C   UNL     1      -2.494  -0.453  27.001  1.00  0.00    -0.023 C 
ATOM      6  C   UNL     1      -1.210  -0.070  27.079  1.00  0.00     0.042 C 
BRANCH   6   7
ATOM      7  C   UNL     1      -0.643   0.923  28.021  1.00  0.00     0.152 C 
ATOM      8  O   UNL     1       0.040   0.574  29.021  1.00  0.00    -0.295 OA
ATOM      9  C   UNL     1      -0.944   2.373  27.821  1.00  0.00     0.093 C 
ENDBRANCH   6   7
ENDBRANCH   1   5
TORSDOF 4
ENDMDL
MODEL 7
REMARK VINA RESULT:    -3.742     10.428     11.993
REMARK INTER + INTRA:          -4.856
REMARK INTER:                  -4.483
REMARK INTRA:                  -0.373
REMARK UNBOUND:                -0.239
REMARK SMILES CCCCC=CC(C)=O
REMARK SMILES IDX 4 1 3 2 2 3 1 4 5 5 6 6 7 7 9 8 8 9
REMARK H PARENT
REMARK Flexibility Score: inf
ROOT
ATOM      1  C   UNL     1      -1.157  -0.043  29.681  1.00  0.00     0.027 C 
ENDROOT
BRANCH   1   2
ATOM      2  C   UNL     1      -0.295   0.581  28.572  1.00  0.00     0.004 C 
BRANCH   2   3
ATOM      3  C   UNL     1      -1.072   0.770  27.260  1.00  0.00    -0.003 C 
ATOM      4  C   UNL     1      -1.503  -0.557  26.635  1.00  0.00     0.004 C 
ENDBRANCH   2   3
ENDBRANCH   1   2
BRANCH   1   5
ATOM      5  C   UNL     1      -1.945   1.009  30.414  1.00  0.00    -0.023 C 
ATOM      6  C   UNL     1      -3.280   1.043  30.548  1.00  0.00     0.042 C 
BRANCH   6   7
ATOM      7  C   UNL     1      -4.249   0.083  29.969  1.00  0.00     0.152 C 
ATOM      8  O   UNL     1      -4.524   0.078  28.739  1.00  0.00    -0.295 OA
ATOM      9  C   UNL     1      -4.971  -0.861  30.875  1.00  0.00     0.093 C 
ENDBRANCH   6   7
ENDBRANCH   1   5
TORSDOF 4
ENDMDL
MODEL 8
REMARK VINA RESULT:    -3.730     11.315     12.395
REMARK INTER + INTRA:          -4.842
REMARK INTER:                  -4.234
REMARK INTRA:                  -0.607
REMARK UNBOUND:                -0.239
REMARK SMILES CCCCC=CC(C)=O
REMARK SMILES IDX 4 1 3 2 2 3 1 4 5 5 6 6 7 7 9 8 8 9
REMARK H PARENT
REMARK Flexibility Score: inf
ROOT
ATOM      1  C   UNL     1      -0.249   0.528  28.710  1.00  0.00     0.027 C 
ENDROOT
BRANCH   1   2
ATOM      2  C   UNL     1      -0.246   2.064  28.776  1.00  0.00     0.004 C 
BRANCH   2   3
ATOM      3  C   UNL     1      -1.088   2.604  29.942  1.00  0.00    -0.003 C 
ATOM      4  C   UNL     1      -1.651   1.491  30.825  1.00  0.00     0.004 C 
ENDBRANCH   2   3
ENDBRANCH   1   2
BRANCH   1   5
ATOM      5  C   UNL     1      -0.715   0.043  27.364  1.00  0.00    -0.023 C 
ATOM      6  C   UNL     1      -1.983  -0.241  27.025  1.00  0.00     0.042 C 
BRANCH   6   7
ATOM      7  C   UNL     1      -3.168  -0.179  27.913  1.00  0.00     0.152 C 
ATOM      8  O   UNL     1      -3.453  -1.118  28.704  1.00  0.00    -0.295 OA
ATOM      9  C   UNL     1      -4.087   0.995  27.821  1.00  0.00     0.093 C 
ENDBRANCH   6   7
ENDBRANCH   1   5
TORSDOF 4
ENDMDL
MODEL 9
REMARK VINA RESULT:    -3.667      2.146      4.995
REMARK INTER + INTRA:          -4.764
REMARK INTER:                  -4.656
REMARK INTRA:                  -0.109
REMARK UNBOUND:                -0.239
REMARK SMILES CCCCC=CC(C)=O
REMARK SMILES IDX 4 1 3 2 2 3 1 4 5 5 6 6 7 7 9 8 8 9
REMARK H PARENT
REMARK Flexibility Score: inf
ROOT
ATOM      1  C   UNL     1     -14.172   2.249  28.732  1.00  0.00     0.027 C 
ENDROOT
BRANCH   1   2
ATOM      2  C   UNL     1     -14.943   2.671  27.471  1.00  0.00     0.004 C 
BRANCH   2   3
ATOM      3  C   UNL     1     -16.445   2.854  27.733  1.00  0.00    -0.003 C 
ATOM      4  C   UNL     1     -17.119   3.746  26.692  1.00  0.00     0.004 C 
ENDBRANCH   2   3
ENDBRANCH   1   2
BRANCH   1   5
ATOM      5  C   UNL     1     -13.164   1.176  28.420  1.00  0.00    -0.023 C 
ATOM      6  C   UNL     1     -12.575   0.365  29.313  1.00  0.00     0.042 C 
BRANCH   6   7
ATOM      7  C   UNL     1     -12.762   0.388  30.783  1.00  0.00     0.152 C 
ATOM      8  O   UNL     1     -13.436  -0.493  31.379  1.00  0.00    -0.295 OA
ATOM      9  C   UNL     1     -12.195   1.524  31.572  1.00  0.00     0.093 C 
ENDBRANCH   6   7
ENDBRANCH   1   5
TORSDOF 4
ENDMDL
