MODEL 1
REMARK VINA RESULT:    -3.036      0.000      0.000
REMARK INTER + INTRA:          -3.302
REMARK INTER:                  -3.302
REMARK INTRA:                   0.000
REMARK UNBOUND:                 0.000
REMARK SMILES [NH3+]CC(=O)[O-]
REMARK SMILES IDX 2 1 1 2 3 6 4 7 5 8
REMARK H PARENT 1 3 1 4 1 5
REMARK Flexibility Score: inf
ROOT
ATOM      1  C   UNL     1       0.728 -14.174 -14.785  1.00  0.00     0.312 C 
ENDROOT
BRANCH   1   2
ATOM      2  N   UNL     1       1.043 -12.812 -14.361  1.00  0.00    -0.353 N 
ATOM      3  H   UNL     1       0.206 -12.372 -13.913  1.00  0.00     0.344 HD
ATOM      4  H   UNL     1       1.842 -12.821 -13.686  1.00  0.00     0.344 HD
ATOM      5  H   UNL     1       1.314 -12.248 -15.199  1.00  0.00     0.344 HD
ENDBRANCH   1   2
BRANCH   1   6
ATOM      6  C   UNL     1      -0.471 -14.186 -15.681  1.00  0.00     0.096 C 
ATOM      7  O   UNL     1      -0.439 -14.809 -16.775  1.00  0.00    -0.544 OA
ATOM      8  O   UNL     1      -1.641 -13.552 -15.284  1.00  0.00    -0.544 OA
ENDBRANCH   1   6
TORSDOF 2
ENDMDL
MODEL 2
REMARK VINA RESULT:    -3.025      1.652      2.123
REMARK INTER + INTRA:          -3.290
REMARK INTER:                  -3.290
REMARK INTRA:                   0.000
REMARK UNBOUND:                 0.000
REMARK SMILES [NH3+]CC(=O)[O-]
REMARK SMILES IDX 2 1 1 2 3 6 4 7 5 8
REMARK H PARENT 1 3 1 4 1 5
REMARK Flexibility Score: inf
ROOT
ATOM      1  C   UNL     1       0.691 -13.922 -13.768  1.00  0.00     0.312 C 
ENDROOT
BRANCH   1   2
ATOM      2  N   UNL     1       0.976 -12.606 -14.335  1.00  0.00    -0.353 N 
ATOM      3  H   UNL     1       0.158 -11.969 -14.194  1.00  0.00     0.344 HD
ATOM      4  H   UNL     1       1.826 -12.197 -13.883  1.00  0.00     0.344 HD
ATOM      5  H   UNL     1       1.153 -12.707 -15.360  1.00  0.00     0.344 HD
ENDBRANCH   1   2
BRANCH   1   6
ATOM      6  C   UNL     1       0.810 -14.986 -14.814  1.00  0.00     0.096 C 
ATOM      7  O   UNL     1       0.372 -14.783 -15.977  1.00  0.00    -0.544 OA
ATOM      8  O   UNL     1       1.451 -16.182 -14.520  1.00  0.00    -0.544 OA
ENDBRANCH   1   6
TORSDOF 2
ENDMDL
MODEL 3
REMARK VINA RESULT:    -3.024      1.133      1.800
REMARK INTER + INTRA:          -3.290
REMARK INTER:                  -3.290
REMARK INTRA:                   0.000
REMARK UNBOUND:                 0.000
REMARK SMILES [NH3+]CC(=O)[O-]
REMARK SMILES IDX 2 1 1 2 3 6 4 7 5 8
REMARK H PARENT 1 3 1 4 1 5
REMARK Flexibility Score: inf
ROOT
ATOM      1  C   UNL     1      -0.280 -12.973 -13.927  1.00  0.00     0.312 C 
ENDROOT
BRANCH   1   2
ATOM      2  N   UNL     1       1.085 -12.877 -14.441  1.00  0.00    -0.353 N 
ATOM      3  H   UNL     1       1.139 -13.297 -15.398  1.00  0.00     0.344 HD
ATOM      4  H   UNL     1       1.386 -11.876 -14.476  1.00  0.00     0.344 HD
ATOM      5  H   UNL     1       1.727 -13.403 -13.805  1.00  0.00     0.344 HD
ENDBRANCH   1   2
BRANCH   1   6
ATOM      6  C   UNL     1      -1.191 -13.570 -14.954  1.00  0.00     0.096 C 
ATOM      7  O   UNL     1      -2.440 -13.488 -14.817  1.00  0.00    -0.544 OA
ATOM      8  O   UNL     1      -0.661 -14.171 -16.088  1.00  0.00    -0.544 OA
ENDBRANCH   1   6
TORSDOF 2
ENDMDL
MODEL 4
REMARK VINA RESULT:    -3.014     14.360     14.815
REMARK INTER + INTRA:          -3.278
REMARK INTER:                  -3.278
REMARK INTRA:                   0.000
REMARK UNBOUND:                 0.000
REMARK SMILES [NH3+]CC(=O)[O-]
REMARK SMILES IDX 2 1 1 2 3 6 4 7 5 8
REMARK H PARENT 1 3 1 4 1 5
REMARK Flexibility Score: inf
ROOT
ATOM      1  C   UNL     1       5.814 -11.976 -29.396  1.00  0.00     0.312 C 
ENDROOT
BRANCH   1   2
ATOM      2  N   UNL     1       4.897 -10.872 -29.120  1.00  0.00    -0.353 N 
ATOM      3  H   UNL     1       5.320 -10.222 -28.417  1.00  0.00     0.344 HD
ATOM      4  H   UNL     1       4.686 -10.352 -30.002  1.00  0.00     0.344 HD
ATOM      5  H   UNL     1       4.006 -11.257 -28.732  1.00  0.00     0.344 HD
ENDBRANCH   1   2
BRANCH   1   6
ATOM      6  C   UNL     1       6.525 -12.398 -28.148  1.00  0.00     0.096 C 
ATOM      7  O   UNL     1       6.012 -12.175 -27.020  1.00  0.00    -0.544 OA
ATOM      8  O   UNL     1       7.731 -13.082 -28.232  1.00  0.00    -0.544 OA
ENDBRANCH   1   6
TORSDOF 2
ENDMDL
MODEL 5
REMARK VINA RESULT:    -2.942      2.371      2.538
REMARK INTER + INTRA:          -3.200
REMARK INTER:                  -3.200
REMARK INTRA:                   0.000
REMARK UNBOUND:                 0.000
REMARK SMILES [NH3+]CC(=O)[O-]
REMARK SMILES IDX 2 1 1 2 3 6 4 7 5 8
REMARK H PARENT 1 3 1 4 1 5
REMARK Flexibility Score: inf
ROOT
ATOM      1  C   UNL     1       0.613 -14.199 -14.997  1.00  0.00     0.312 C 
ENDROOT
BRANCH   1   2
ATOM      2  N   UNL     1       1.017 -12.901 -14.462  1.00  0.00    -0.353 N 
ATOM      3  H   UNL     1       1.422 -12.308 -15.224  1.00  0.00     0.344 HD
ATOM      4  H   UNL     1       0.193 -12.417 -14.036  1.00  0.00     0.344 HD
ATOM      5  H   UNL     1       1.743 -13.046 -13.724  1.00  0.00     0.344 HD
ENDBRANCH   1   2
BRANCH   1   6
ATOM      6  C   UNL     1       0.944 -15.295 -14.033  1.00  0.00     0.096 C 
ATOM      7  O   UNL     1       1.634 -16.280 -14.406  1.00  0.00    -0.544 OA
ATOM      8  O   UNL     1       0.535 -15.204 -12.709  1.00  0.00    -0.544 OA
ENDBRANCH   1   6
TORSDOF 2
ENDMDL
MODEL 6
REMARK VINA RESULT:    -2.937     14.154     14.527
REMARK INTER + INTRA:          -3.194
REMARK INTER:                  -3.194
REMARK INTRA:                   0.000
REMARK UNBOUND:                 0.000
REMARK SMILES [NH3+]CC(=O)[O-]
REMARK SMILES IDX 2 1 1 2 3 6 4 7 5 8
REMARK H PARENT 1 3 1 4 1 5
REMARK Flexibility Score: inf
ROOT
ATOM      1  C   UNL     1       6.219 -11.233 -28.976  1.00  0.00     0.312 C 
ENDROOT
BRANCH   1   2
ATOM      2  N   UNL     1       4.838 -10.779 -29.133  1.00  0.00    -0.353 N 
ATOM      3  H   UNL     1       4.197 -11.602 -29.222  1.00  0.00     0.344 HD
ATOM      4  H   UNL     1       4.556 -10.198 -28.310  1.00  0.00     0.344 HD
ATOM      5  H   UNL     1       4.766 -10.198 -29.999  1.00  0.00     0.344 HD
ENDBRANCH   1   2
BRANCH   1   6
ATOM      6  C   UNL     1       6.293 -12.377 -28.013  1.00  0.00     0.096 C 
ATOM      7  O   UNL     1       6.731 -13.496 -28.391  1.00  0.00    -0.544 OA
ATOM      8  O   UNL     1       5.928 -12.194 -26.686  1.00  0.00    -0.544 OA
ENDBRANCH   1   6
TORSDOF 2
ENDMDL
MODEL 7
REMARK VINA RESULT:    -2.842     18.605     18.973
REMARK INTER + INTRA:          -3.092
REMARK INTER:                  -3.092
REMARK INTRA:                   0.000
REMARK UNBOUND:                 0.000
REMARK SMILES [NH3+]CC(=O)[O-]
REMARK SMILES IDX 2 1 1 2 3 6 4 7 5 8
REMARK H PARENT 1 3 1 4 1 5
REMARK Flexibility Score: inf
ROOT
ATOM      1  C   UNL     1      -3.504 -25.419 -30.413  1.00  0.00     0.312 C 
ENDROOT
BRANCH   1   2
ATOM      2  N   UNL     1      -3.934 -24.036 -30.609  1.00  0.00    -0.353 N 
ATOM      3  H   UNL     1      -3.815 -23.761 -31.612  1.00  0.00     0.344 HD
ATOM      4  H   UNL     1      -4.937 -23.929 -30.330  1.00  0.00     0.344 HD
ATOM      5  H   UNL     1      -3.348 -23.408 -30.014  1.00  0.00     0.344 HD
ENDBRANCH   1   2
BRANCH   1   6
ATOM      6  C   UNL     1      -2.019 -25.491 -30.237  1.00  0.00     0.096 C 
ATOM      7  O   UNL     1      -1.257 -25.385 -31.234  1.00  0.00    -0.544 OA
ATOM      8  O   UNL     1      -1.475 -25.622 -28.966  1.00  0.00    -0.544 OA
ENDBRANCH   1   6
TORSDOF 2
ENDMDL
MODEL 8
REMARK VINA RESULT:    -2.827     15.211     15.646
REMARK INTER + INTRA:          -3.075
REMARK INTER:                  -3.075
REMARK INTRA:                   0.000
REMARK UNBOUND:                 0.000
REMARK SMILES [NH3+]CC(=O)[O-]
REMARK SMILES IDX 2 1 1 2 3 6 4 7 5 8
REMARK H PARENT 1 3 1 4 1 5
REMARK Flexibility Score: inf
ROOT
ATOM      1  C   UNL     1       5.827 -11.698 -28.753  1.00  0.00     0.312 C 
ENDROOT
BRANCH   1   2
ATOM      2  N   UNL     1       4.820 -10.736 -29.196  1.00  0.00    -0.353 N 
ATOM      3  H   UNL     1       3.882 -10.995 -28.811  1.00  0.00     0.344 HD
ATOM      4  H   UNL     1       5.079  -9.774 -28.878  1.00  0.00     0.344 HD
ATOM      5  H   UNL     1       4.772 -10.747 -30.240  1.00  0.00     0.344 HD
ENDBRANCH   1   2
BRANCH   1   6
ATOM      6  C   UNL     1       6.064 -12.737 -29.805  1.00  0.00     0.096 C 
ATOM      7  O   UNL     1       6.419 -12.395 -30.964  1.00  0.00    -0.544 OA
ATOM      8  O   UNL     1       5.945 -14.084 -29.492  1.00  0.00    -0.544 OA
ENDBRANCH   1   6
TORSDOF 2
ENDMDL
MODEL 9
REMARK VINA RESULT:    -2.794      2.146      2.350
REMARK INTER + INTRA:          -3.039
REMARK INTER:                  -3.039
REMARK INTRA:                   0.000
REMARK UNBOUND:                 0.000
REMARK SMILES [NH3+]CC(=O)[O-]
REMARK SMILES IDX 2 1 1 2 3 6 4 7 5 8
REMARK H PARENT 1 3 1 4 1 5
REMARK Flexibility Score: inf
ROOT
ATOM      1  C   UNL     1       0.495 -14.782 -15.874  1.00  0.00     0.312 C 
ENDROOT
BRANCH   1   2
ATOM      2  N   UNL     1      -0.449 -15.225 -16.897  1.00  0.00    -0.353 N 
ATOM      3  H   UNL     1      -0.154 -14.872 -17.837  1.00  0.00     0.344 HD
ATOM      4  H   UNL     1      -0.498 -16.270 -16.911  1.00  0.00     0.344 HD
ATOM      5  H   UNL     1      -1.397 -14.844 -16.675  1.00  0.00     0.344 HD
ENDBRANCH   1   2
BRANCH   1   6
ATOM      6  C   UNL     1      -0.127 -13.741 -14.995  1.00  0.00     0.096 C 
ATOM      7  O   UNL     1       0.591 -13.051 -14.225  1.00  0.00    -0.544 OA
ATOM      8  O   UNL     1      -1.493 -13.498 -15.065  1.00  0.00    -0.544 OA
ENDBRANCH   1   6
TORSDOF 2
ENDMDL
