MODEL 1
REMARK VINA RESULT:    -4.242      0.000      0.000
REMARK INTER + INTRA:          -5.781
REMARK INTER:                  -5.481
REMARK INTRA:                  -0.300
REMARK UNBOUND:                -0.300
REMARK SMILES C=CC(=O)CCCCC
REMARK SMILES IDX 6 1 7 2 8 3 9 4 5 5 3 6 4 7 2 8 1 9
REMARK H PARENT
REMARK Flexibility Score: inf
ROOT
ATOM      1  C   UNL     1      -6.627  -4.953  13.605  1.00  0.00     0.008 C 
ENDROOT
BRANCH   1   2
ATOM      2  C   UNL     1      -7.566  -6.089  14.037  1.00  0.00     0.000 C 
BRANCH   2   3
ATOM      3  C   UNL     1      -6.888  -7.466  13.997  1.00  0.00    -0.003 C 
ATOM      4  C   UNL     1      -7.905  -8.587  14.191  1.00  0.00     0.004 C 
ENDBRANCH   2   3
ENDBRANCH   1   2
BRANCH   1   5
ATOM      5  C   UNL     1      -5.149  -5.279  13.860  1.00  0.00     0.080 C 
BRANCH   5   6
ATOM      6  C   UNL     1      -4.545  -4.278  14.800  1.00  0.00     0.155 C 
ATOM      7  O   UNL     1      -3.569  -3.578  14.414  1.00  0.00    -0.295 OA
BRANCH   6   8
ATOM      8  C   UNL     1      -5.120  -4.087  16.146  1.00  0.00     0.039 C 
ATOM      9  C   UNL     1      -4.494  -4.480  17.253  1.00  0.00     0.012 C 
ENDBRANCH   6   8
ENDBRANCH   5   6
ENDBRANCH   1   5
TORSDOF 5
ENDMDL
MODEL 2
REMARK VINA RESULT:    -4.135      1.748      4.183
REMARK INTER + INTRA:          -5.643
REMARK INTER:                  -5.274
REMARK INTRA:                  -0.369
REMARK UNBOUND:                -0.300
REMARK SMILES C=CC(=O)CCCCC
REMARK SMILES IDX 6 1 7 2 8 3 9 4 5 5 3 6 4 7 2 8 1 9
REMARK H PARENT
REMARK Flexibility Score: inf
ROOT
ATOM      1  C   UNL     1      -5.117  -4.625  13.318  1.00  0.00     0.008 C 
ENDROOT
BRANCH   1   2
ATOM      2  C   UNL     1      -4.399  -4.823  14.662  1.00  0.00     0.000 C 
BRANCH   2   3
ATOM      3  C   UNL     1      -5.325  -4.603  15.866  1.00  0.00    -0.003 C 
ATOM      4  C   UNL     1      -4.535  -4.164  17.095  1.00  0.00     0.004 C 
ENDBRANCH   2   3
ENDBRANCH   1   2
BRANCH   1   5
ATOM      5  C   UNL     1      -6.474  -5.339  13.262  1.00  0.00     0.080 C 
BRANCH   5   6
ATOM      6  C   UNL     1      -6.287  -6.806  13.012  1.00  0.00     0.155 C 
ATOM      7  O   UNL     1      -5.467  -7.182  12.130  1.00  0.00    -0.295 OA
BRANCH   6   8
ATOM      8  C   UNL     1      -7.022  -7.794  13.824  1.00  0.00     0.039 C 
ATOM      9  C   UNL     1      -8.147  -7.494  14.470  1.00  0.00     0.012 C 
ENDBRANCH   6   8
ENDBRANCH   5   6
ENDBRANCH   1   5
TORSDOF 5
ENDMDL
MODEL 3
REMARK VINA RESULT:    -4.010      2.321      4.642
REMARK INTER + INTRA:          -5.481
REMARK INTER:                  -5.181
REMARK INTRA:                  -0.300
REMARK UNBOUND:                -0.300
REMARK SMILES C=CC(=O)CCCCC
REMARK SMILES IDX 6 1 7 2 8 3 9 4 5 5 3 6 4 7 2 8 1 9
REMARK H PARENT
REMARK Flexibility Score: inf
ROOT
ATOM      1  C   UNL     1      -5.894  -5.105  15.044  1.00  0.00     0.008 C 
ENDROOT
BRANCH   1   2
ATOM      2  C   UNL     1      -4.811  -4.161  14.501  1.00  0.00     0.000 C 
BRANCH   2   3
ATOM      3  C   UNL     1      -4.023  -3.459  15.618  1.00  0.00    -0.003 C 
ATOM      4  C   UNL     1      -4.484  -3.928  16.994  1.00  0.00     0.004 C 
ENDBRANCH   2   3
ENDBRANCH   1   2
BRANCH   1   5
ATOM      5  C   UNL     1      -6.918  -5.508  13.975  1.00  0.00     0.080 C 
BRANCH   5   6
ATOM      6  C   UNL     1      -6.723  -6.939  13.572  1.00  0.00     0.155 C 
ATOM      7  O   UNL     1      -7.367  -7.843  14.172  1.00  0.00    -0.295 OA
BRANCH   6   8
ATOM      8  C   UNL     1      -5.819  -7.277  12.456  1.00  0.00     0.039 C 
ATOM      9  C   UNL     1      -5.533  -6.415  11.482  1.00  0.00     0.012 C 
ENDBRANCH   6   8
ENDBRANCH   5   6
ENDBRANCH   1   5
TORSDOF 5
ENDMDL
MODEL 4
REMARK VINA RESULT:    -4.008     13.296     14.858
REMARK INTER + INTRA:          -5.479
REMARK INTER:                  -5.300
REMARK INTRA:                  -0.179
REMARK UNBOUND:                -0.300
REMARK SMILES C=CC(=O)CCCCC
REMARK SMILES IDX 6 1 7 2 8 3 9 4 5 5 3 6 4 7 2 8 1 9
REMARK H PARENT
REMARK Flexibility Score: inf
ROOT
ATOM      1  C   UNL     1       3.856   4.828  13.786  1.00  0.00     0.008 C 
ENDROOT
BRANCH   1   2
ATOM      2  C   UNL     1       4.262   4.330  15.181  1.00  0.00     0.000 C 
BRANCH   2   3
ATOM      3  C   UNL     1       3.700   2.936  15.499  1.00  0.00    -0.003 C 
ATOM      4  C   UNL     1       4.695   1.843  15.122  1.00  0.00     0.004 C 
ENDBRANCH   2   3
ENDBRANCH   1   2
BRANCH   1   5
ATOM      5  C   UNL     1       5.023   4.813  12.790  1.00  0.00     0.080 C 
BRANCH   5   6
ATOM      6  C   UNL     1       4.790   5.809  11.692  1.00  0.00     0.155 C 
ATOM      7  O   UNL     1       5.234   6.983  11.819  1.00  0.00    -0.295 OA
BRANCH   6   8
ATOM      8  C   UNL     1       4.088   5.401  10.460  1.00  0.00     0.039 C 
ATOM      9  C   UNL     1       3.337   6.242   9.753  1.00  0.00     0.012 C 
ENDBRANCH   6   8
ENDBRANCH   5   6
ENDBRANCH   1   5
TORSDOF 5
ENDMDL
MODEL 5
REMARK VINA RESULT:    -3.936      1.567      2.410
REMARK INTER + INTRA:          -5.386
REMARK INTER:                  -5.063
REMARK INTRA:                  -0.324
REMARK UNBOUND:                -0.300
REMARK SMILES C=CC(=O)CCCCC
REMARK SMILES IDX 6 1 7 2 8 3 9 4 5 5 3 6 4 7 2 8 1 9
REMARK H PARENT
REMARK Flexibility Score: inf
ROOT
ATOM      1  C   UNL     1      -6.834  -5.756  14.281  1.00  0.00     0.008 C 
ENDROOT
BRANCH   1   2
ATOM      2  C   UNL     1      -6.538  -7.081  13.561  1.00  0.00     0.000 C 
BRANCH   2   3
ATOM      3  C   UNL     1      -7.452  -8.224  14.026  1.00  0.00    -0.003 C 
ATOM      4  C   UNL     1      -8.800  -7.691  14.503  1.00  0.00     0.004 C 
ENDBRANCH   2   3
ENDBRANCH   1   2
BRANCH   1   5
ATOM      5  C   UNL     1      -6.071  -4.571  13.675  1.00  0.00     0.080 C 
BRANCH   5   6
ATOM      6  C   UNL     1      -4.607  -4.676  13.983  1.00  0.00     0.155 C 
ATOM      7  O   UNL     1      -4.236  -4.816  15.181  1.00  0.00    -0.295 OA
BRANCH   6   8
ATOM      8  C   UNL     1      -3.617  -4.663  12.889  1.00  0.00     0.039 C 
ATOM      9  C   UNL     1      -3.249  -5.767  12.243  1.00  0.00     0.012 C 
ENDBRANCH   6   8
ENDBRANCH   5   6
ENDBRANCH   1   5
TORSDOF 5
ENDMDL
MODEL 6
REMARK VINA RESULT:    -3.920      9.529     10.776
REMARK INTER + INTRA:          -5.366
REMARK INTER:                  -5.135
REMARK INTRA:                  -0.232
REMARK UNBOUND:                -0.300
REMARK SMILES C=CC(=O)CCCCC
REMARK SMILES IDX 6 1 7 2 8 3 9 4 5 5 3 6 4 7 2 8 1 9
REMARK H PARENT
REMARK Flexibility Score: inf
ROOT
ATOM      1  C   UNL     1       0.980  -5.886   7.998  1.00  0.00     0.008 C 
ENDROOT
BRANCH   1   2
ATOM      2  C   UNL     1       1.653  -7.117   8.623  1.00  0.00     0.000 C 
BRANCH   2   3
ATOM      3  C   UNL     1       2.539  -6.762   9.826  1.00  0.00    -0.003 C 
ATOM      4  C   UNL     1       1.701  -6.555  11.084  1.00  0.00     0.004 C 
ENDBRANCH   2   3
ENDBRANCH   1   2
BRANCH   1   5
ATOM      5  C   UNL     1       0.943  -5.945   6.465  1.00  0.00     0.080 C 
BRANCH   5   6
ATOM      6  C   UNL     1       1.240  -4.596   5.880  1.00  0.00     0.155 C 
ATOM      7  O   UNL     1       0.427  -4.085   5.062  1.00  0.00    -0.295 OA
BRANCH   6   8
ATOM      8  C   UNL     1       2.450  -3.860   6.295  1.00  0.00     0.039 C 
ATOM      9  C   UNL     1       2.415  -2.584   6.675  1.00  0.00     0.012 C 
ENDBRANCH   6   8
ENDBRANCH   5   6
ENDBRANCH   1   5
TORSDOF 5
ENDMDL
MODEL 7
REMARK VINA RESULT:    -3.901     12.342     14.460
REMARK INTER + INTRA:          -5.341
REMARK INTER:                  -5.119
REMARK INTRA:                  -0.222
REMARK UNBOUND:                -0.300
REMARK SMILES C=CC(=O)CCCCC
REMARK SMILES IDX 6 1 7 2 8 3 9 4 5 5 3 6 4 7 2 8 1 9
REMARK H PARENT
REMARK Flexibility Score: inf
ROOT
ATOM      1  C   UNL     1       3.849   4.598  13.757  1.00  0.00     0.008 C 
ENDROOT
BRANCH   1   2
ATOM      2  C   UNL     1       5.019   4.845  12.792  1.00  0.00     0.000 C 
BRANCH   2   3
ATOM      3  C   UNL     1       4.702   5.918  11.740  1.00  0.00    -0.003 C 
ATOM      4  C   UNL     1       5.614   7.131  11.900  1.00  0.00     0.004 C 
ENDBRANCH   2   3
ENDBRANCH   1   2
BRANCH   1   5
ATOM      5  C   UNL     1       4.303   4.472  15.217  1.00  0.00     0.080 C 
BRANCH   5   6
ATOM      6  C   UNL     1       4.027   3.092  15.736  1.00  0.00     0.155 C 
ATOM      7  O   UNL     1       3.204   2.940  16.679  1.00  0.00    -0.295 OA
BRANCH   6   8
ATOM      8  C   UNL     1       4.681   1.924  15.115  1.00  0.00     0.039 C 
ATOM      9  C   UNL     1       4.135   0.709  15.125  1.00  0.00     0.012 C 
ENDBRANCH   6   8
ENDBRANCH   5   6
ENDBRANCH   1   5
TORSDOF 5
ENDMDL
MODEL 8
REMARK VINA RESULT:    -3.876      1.869      4.459
REMARK INTER + INTRA:          -5.309
REMARK INTER:                  -5.053
REMARK INTRA:                  -0.256
REMARK UNBOUND:                -0.300
REMARK SMILES C=CC(=O)CCCCC
REMARK SMILES IDX 6 1 7 2 8 3 9 4 5 5 3 6 4 7 2 8 1 9
REMARK H PARENT
REMARK Flexibility Score: inf
ROOT
ATOM      1  C   UNL     1      -5.364  -4.343  14.726  1.00  0.00     0.008 C 
ENDROOT
BRANCH   1   2
ATOM      2  C   UNL     1      -4.815  -4.531  16.148  1.00  0.00     0.000 C 
BRANCH   2   3
ATOM      3  C   UNL     1      -5.163  -3.359  17.077  1.00  0.00    -0.003 C 
ATOM      4  C   UNL     1      -4.534  -2.060  16.583  1.00  0.00     0.004 C 
ENDBRANCH   2   3
ENDBRANCH   1   2
BRANCH   1   5
ATOM      5  C   UNL     1      -4.830  -5.392  13.742  1.00  0.00     0.080 C 
BRANCH   5   6
ATOM      6  C   UNL     1      -5.948  -6.254  13.234  1.00  0.00     0.155 C 
ATOM      7  O   UNL     1      -5.756  -6.979  12.220  1.00  0.00    -0.295 OA
BRANCH   6   8
ATOM      8  C   UNL     1      -7.240  -6.283  13.944  1.00  0.00     0.039 C 
ATOM      9  C   UNL     1      -7.834  -7.419  14.303  1.00  0.00     0.012 C 
ENDBRANCH   6   8
ENDBRANCH   5   6
ENDBRANCH   1   5
TORSDOF 5
ENDMDL
MODEL 9
REMARK VINA RESULT:    -3.844      2.199      4.356
REMARK INTER + INTRA:          -5.268
REMARK INTER:                  -4.954
REMARK INTRA:                  -0.313
REMARK UNBOUND:                -0.300
REMARK SMILES C=CC(=O)CCCCC
REMARK SMILES IDX 6 1 7 2 8 3 9 4 5 5 3 6 4 7 2 8 1 9
REMARK H PARENT
REMARK Flexibility Score: inf
ROOT
ATOM      1  C   UNL     1      -5.950  -5.318  14.753  1.00  0.00     0.008 C 
ENDROOT
BRANCH   1   2
ATOM      2  C   UNL     1      -4.823  -4.426  14.212  1.00  0.00     0.000 C 
BRANCH   2   3
ATOM      3  C   UNL     1      -4.528  -4.680  12.726  1.00  0.00    -0.003 C 
ATOM      4  C   UNL     1      -3.373  -5.662  12.554  1.00  0.00     0.004 C 
ENDBRANCH   2   3
ENDBRANCH   1   2
BRANCH   1   5
ATOM      5  C   UNL     1      -6.918  -5.780  13.655  1.00  0.00     0.080 C 
BRANCH   5   6
ATOM      6  C   UNL     1      -6.950  -7.278  13.580  1.00  0.00     0.155 C 
ATOM      7  O   UNL     1      -6.081  -7.881  12.893  1.00  0.00    -0.295 OA
BRANCH   6   8
ATOM      8  C   UNL     1      -7.963  -8.035  14.341  1.00  0.00     0.039 C 
ATOM      9  C   UNL     1      -9.164  -7.536  14.625  1.00  0.00     0.012 C 
ENDBRANCH   6   8
ENDBRANCH   5   6
ENDBRANCH   1   5
TORSDOF 5
ENDMDL
