MODEL 1
REMARK VINA RESULT:    -4.826      0.000      0.000
REMARK INTER + INTRA:          -7.514
REMARK INTER:                  -5.955
REMARK INTRA:                  -1.559
REMARK UNBOUND:                -1.559
REMARK SMILES CC(C)=CCC[C@@H](C)c1ccc(C)cc1
REMARK SMILES IDX 6 1 7 2 8 3 9 4 13 5 12 6 11 7 14 8 10 9 15 10 5 11 4 12
REMARK SMILES IDX 2 13 1 14 3 15
REMARK H PARENT
REMARK Flexibility Score: inf
ROOT
ATOM      1  C   UNL     1     160.278 175.621 151.580  1.00  0.00     0.012 C 
ENDROOT
BRANCH   1   2
ATOM      2  C   UNL     1     160.948 176.650 150.641  1.00  0.00     0.016 C 
ATOM      3  C   UNL     1     160.436 178.078 150.884  1.00  0.00     0.013 C 
BRANCH   2   4
ATOM      4  C   UNL     1     162.458 176.601 150.792  1.00  0.00    -0.045 A 
ATOM      5  C   UNL     1     166.755 176.427 151.200  1.00  0.00     0.044 C 
ATOM      6  C   UNL     1     165.260 176.484 151.089  1.00  0.00    -0.051 A 
ATOM      7  C   UNL     1     164.595 177.717 151.132  1.00  0.00     0.004 A 
ATOM      8  C   UNL     1     164.522 175.312 150.873  1.00  0.00     0.004 A 
ATOM      9  C   UNL     1     163.206 177.776 150.992  1.00  0.00     0.004 A 
ATOM     10  C   UNL     1     163.132 175.368 150.733  1.00  0.00     0.004 A 
ENDBRANCH   2   4
ENDBRANCH   1   2
BRANCH   1  11
ATOM     11  C   UNL     1     160.133 176.139 153.018  1.00  0.00     0.028 C 
BRANCH  11  12
ATOM     12  C   UNL     1     161.333 175.752 153.847  1.00  0.00    -0.028 C 
ATOM     13  C   UNL     1     162.175 176.633 154.431  1.00  0.00    -0.080 C 
ATOM     14  C   UNL     1     163.357 176.097 155.197  1.00  0.00     0.039 C 
ATOM     15  C   UNL     1     161.953 178.125 154.353  1.00  0.00     0.039 C 
ENDBRANCH  11  12
ENDBRANCH   1  11
TORSDOF 4
ENDMDL
MODEL 2
REMARK VINA RESULT:    -4.768     10.459     12.254
REMARK INTER + INTRA:          -7.441
REMARK INTER:                  -5.914
REMARK INTRA:                  -1.527
REMARK UNBOUND:                -1.559
REMARK SMILES CC(C)=CCC[C@@H](C)c1ccc(C)cc1
REMARK SMILES IDX 6 1 7 2 8 3 9 4 13 5 12 6 11 7 14 8 10 9 15 10 5 11 4 12
REMARK SMILES IDX 2 13 1 14 3 15
REMARK H PARENT
REMARK Flexibility Score: inf
ROOT
ATOM      1  C   UNL     1     172.792 177.337 151.673  1.00  0.00     0.012 C 
ENDROOT
BRANCH   1   2
ATOM      2  C   UNL     1     173.969 177.106 150.698  1.00  0.00     0.016 C 
ATOM      3  C   UNL     1     175.101 178.125 150.905  1.00  0.00     0.013 C 
BRANCH   2   4
ATOM      4  C   UNL     1     174.504 175.692 150.838  1.00  0.00    -0.045 A 
ATOM      5  C   UNL     1     176.054 171.682 151.261  1.00  0.00     0.044 C 
ATOM      6  C   UNL     1     175.520 173.073 151.084  1.00  0.00    -0.051 A 
ATOM      7  C   UNL     1     174.150 173.283 150.879  1.00  0.00     0.004 A 
ATOM      8  C   UNL     1     176.377 174.178 151.190  1.00  0.00     0.004 A 
ATOM      9  C   UNL     1     173.645 174.580 150.750  1.00  0.00     0.004 A 
ATOM     10  C   UNL     1     175.875 175.476 151.061  1.00  0.00     0.004 A 
ENDBRANCH   2   4
ENDBRANCH   1   2
BRANCH   1  11
ATOM     11  C   UNL     1     173.257 177.758 153.075  1.00  0.00     0.028 C 
BRANCH  11  12
ATOM     12  C   UNL     1     173.446 176.550 153.959  1.00  0.00    -0.028 C 
ATOM     13  C   UNL     1     174.621 176.192 154.523  1.00  0.00    -0.080 C 
ATOM     14  C   UNL     1     174.666 174.935 155.351  1.00  0.00     0.039 C 
ATOM     15  C   UNL     1     175.873 177.021 154.360  1.00  0.00     0.039 C 
ENDBRANCH  11  12
ENDBRANCH   1  11
TORSDOF 4
ENDMDL
MODEL 3
REMARK VINA RESULT:    -4.721     11.528     12.853
REMARK INTER + INTRA:          -7.384
REMARK INTER:                  -6.019
REMARK INTRA:                  -1.365
REMARK UNBOUND:                -1.559
REMARK SMILES CC(C)=CCC[C@@H](C)c1ccc(C)cc1
REMARK SMILES IDX 6 1 7 2 8 3 9 4 13 5 12 6 11 7 14 8 10 9 15 10 5 11 4 12
REMARK SMILES IDX 2 13 1 14 3 15
REMARK H PARENT
REMARK Flexibility Score: inf
ROOT
ATOM      1  C   UNL     1     175.505 177.740 152.304  1.00  0.00     0.012 C 
ENDROOT
BRANCH   1   2
ATOM      2  C   UNL     1     174.483 177.071 151.356  1.00  0.00     0.016 C 
ATOM      3  C   UNL     1     174.369 177.808 150.012  1.00  0.00     0.013 C 
BRANCH   2   4
ATOM      4  C   UNL     1     174.848 175.615 151.127  1.00  0.00    -0.045 A 
ATOM      5  C   UNL     1     175.853 171.468 150.451  1.00  0.00     0.044 C 
ATOM      6  C   UNL     1     175.503 172.903 150.717  1.00  0.00    -0.051 A 
ATOM      7  C   UNL     1     176.515 173.853 150.910  1.00  0.00     0.004 A 
ATOM      8  C   UNL     1     174.163 173.317 150.704  1.00  0.00     0.004 A 
ATOM      9  C   UNL     1     176.192 175.196 151.121  1.00  0.00     0.004 A 
ATOM     10  C   UNL     1     173.838 174.661 150.914  1.00  0.00     0.004 A 
ENDBRANCH   2   4
ENDBRANCH   1   2
BRANCH   1  11
ATOM     11  C   UNL     1     175.079 177.671 153.778  1.00  0.00     0.028 C 
BRANCH  11  12
ATOM     12  C   UNL     1     175.868 176.614 154.511  1.00  0.00    -0.028 C 
ATOM     13  C   UNL     1     175.366 175.425 154.911  1.00  0.00    -0.080 C 
ATOM     14  C   UNL     1     176.265 174.484 155.670  1.00  0.00     0.039 C 
ATOM     15  C   UNL     1     173.946 175.011 154.602  1.00  0.00     0.039 C 
ENDBRANCH  11  12
ENDBRANCH   1  11
TORSDOF 4
ENDMDL
MODEL 4
REMARK VINA RESULT:    -4.707      8.020     12.046
REMARK INTER + INTRA:          -7.367
REMARK INTER:                  -6.320
REMARK INTRA:                  -1.047
REMARK UNBOUND:                -1.559
REMARK SMILES CC(C)=CCC[C@@H](C)c1ccc(C)cc1
REMARK SMILES IDX 6 1 7 2 8 3 9 4 13 5 12 6 11 7 14 8 10 9 15 10 5 11 4 12
REMARK SMILES IDX 2 13 1 14 3 15
REMARK H PARENT
REMARK Flexibility Score: inf
ROOT
ATOM      1  C   UNL     1     174.442 177.371 151.057  1.00  0.00     0.012 C 
ENDROOT
BRANCH   1   2
ATOM      2  C   UNL     1     175.529 176.504 151.733  1.00  0.00     0.016 C 
ATOM      3  C   UNL     1     175.433 176.544 153.266  1.00  0.00     0.013 C 
BRANCH   2   4
ATOM      4  C   UNL     1     175.446 175.070 151.240  1.00  0.00    -0.045 A 
ATOM      5  C   UNL     1     175.247 170.984 149.853  1.00  0.00     0.044 C 
ATOM      6  C   UNL     1     175.315 172.413 150.305  1.00  0.00    -0.051 A 
ATOM      7  C   UNL     1     174.140 173.120 150.593  1.00  0.00     0.004 A 
ATOM      8  C   UNL     1     176.557 173.031 150.510  1.00  0.00     0.004 A 
ATOM      9  C   UNL     1     174.202 174.439 151.049  1.00  0.00     0.004 A 
ATOM     10  C   UNL     1     176.622 174.351 150.966  1.00  0.00     0.004 A 
ENDBRANCH   2   4
ENDBRANCH   1   2
BRANCH   1  11
ATOM     11  C   UNL     1     173.570 178.125 152.071  1.00  0.00     0.028 C 
BRANCH  11  12
ATOM     12  C   UNL     1     172.112 178.031 151.694  1.00  0.00    -0.028 C 
ATOM     13  C   UNL     1     171.258 177.098 152.169  1.00  0.00    -0.080 C 
ATOM     14  C   UNL     1     169.836 177.105 151.670  1.00  0.00     0.039 C 
ATOM     15  C   UNL     1     171.683 176.070 153.191  1.00  0.00     0.039 C 
ENDBRANCH  11  12
ENDBRANCH   1  11
TORSDOF 4
ENDMDL
MODEL 5
REMARK VINA RESULT:    -4.522      1.556      2.452
REMARK INTER + INTRA:          -7.138
REMARK INTER:                  -5.635
REMARK INTRA:                  -1.503
REMARK UNBOUND:                -1.559
REMARK SMILES CC(C)=CCC[C@@H](C)c1ccc(C)cc1
REMARK SMILES IDX 6 1 7 2 8 3 9 4 13 5 12 6 11 7 14 8 10 9 15 10 5 11 4 12
REMARK SMILES IDX 2 13 1 14 3 15
REMARK H PARENT
REMARK Flexibility Score: inf
ROOT
ATOM      1  C   UNL     1     160.509 176.947 150.727  1.00  0.00     0.012 C 
ENDROOT
BRANCH   1   2
ATOM      2  C   UNL     1     161.013 178.040 151.698  1.00  0.00     0.016 C 
ATOM      3  C   UNL     1     160.157 178.125 152.972  1.00  0.00     0.013 C 
BRANCH   2   4
ATOM      4  C   UNL     1     162.468 177.798 152.059  1.00  0.00    -0.045 A 
ATOM      5  C   UNL     1     166.619 177.132 153.053  1.00  0.00     0.044 C 
ATOM      6  C   UNL     1     165.173 177.333 152.705  1.00  0.00    -0.051 A 
ATOM      7  C   UNL     1     164.208 177.412 153.718  1.00  0.00     0.004 A 
ATOM      8  C   UNL     1     164.785 177.511 151.370  1.00  0.00     0.004 A 
ATOM      9  C   UNL     1     162.866 177.636 153.399  1.00  0.00     0.004 A 
ATOM     10  C   UNL     1     163.443 177.735 151.048  1.00  0.00     0.004 A 
ENDBRANCH   2   4
ENDBRANCH   1   2
BRANCH   1  11
ATOM     11  C   UNL     1     160.030 175.683 151.456  1.00  0.00     0.028 C 
BRANCH  11  12
ATOM     12  C   UNL     1     161.156 174.688 151.592  1.00  0.00    -0.028 C 
ATOM     13  C   UNL     1     161.608 174.201 152.769  1.00  0.00    -0.080 C 
ATOM     14  C   UNL     1     162.769 173.241 152.751  1.00  0.00     0.039 C 
ATOM     15  C   UNL     1     160.973 174.576 154.087  1.00  0.00     0.039 C 
ENDBRANCH  11  12
ENDBRANCH   1  11
TORSDOF 4
ENDMDL
MODEL 6
REMARK VINA RESULT:    -4.481     11.999     13.847
REMARK INTER + INTRA:          -7.087
REMARK INTER:                  -5.510
REMARK INTRA:                  -1.577
REMARK UNBOUND:                -1.559
REMARK SMILES CC(C)=CCC[C@@H](C)c1ccc(C)cc1
REMARK SMILES IDX 6 1 7 2 8 3 9 4 13 5 12 6 11 7 14 8 10 9 15 10 5 11 4 12
REMARK SMILES IDX 2 13 1 14 3 15
REMARK H PARENT
REMARK Flexibility Score: inf
ROOT
ATOM      1  C   UNL     1     176.608 170.252 150.726  1.00  0.00     0.012 C 
ENDROOT
BRANCH   1   2
ATOM      2  C   UNL     1     175.510 171.011 149.946  1.00  0.00     0.016 C 
ATOM      3  C   UNL     1     174.127 170.359 150.108  1.00  0.00     0.013 C 
BRANCH   2   4
ATOM      4  C   UNL     1     175.459 172.464 150.382  1.00  0.00    -0.045 A 
ATOM      5  C   UNL     1     175.281 176.592 151.643  1.00  0.00     0.044 C 
ATOM      6  C   UNL     1     175.342 175.168 151.175  1.00  0.00    -0.051 A 
ATOM      7  C   UNL     1     176.580 174.549 150.954  1.00  0.00     0.004 A 
ATOM      8  C   UNL     1     174.163 174.423 151.023  1.00  0.00     0.004 A 
ATOM      9  C   UNL     1     176.640 173.212 150.554  1.00  0.00     0.004 A 
ATOM     10  C   UNL     1     174.221 173.085 150.623  1.00  0.00     0.004 A 
ENDBRANCH   2   4
ENDBRANCH   1   2
BRANCH   1  11
ATOM     11  C   UNL     1     176.158 169.844 152.137  1.00  0.00     0.028 C 
BRANCH  11  12
ATOM     12  C   UNL     1     176.634 170.848 153.158  1.00  0.00    -0.028 C 
ATOM     13  C   UNL     1     175.817 171.612 153.917  1.00  0.00    -0.080 C 
ATOM     14  C   UNL     1     176.439 172.601 154.868  1.00  0.00     0.039 C 
ATOM     15  C   UNL     1     174.314 171.488 153.849  1.00  0.00     0.039 C 
ENDBRANCH  11  12
ENDBRANCH   1  11
TORSDOF 4
ENDMDL
MODEL 7
REMARK VINA RESULT:    -4.481      1.740      2.881
REMARK INTER + INTRA:          -7.087
REMARK INTER:                  -6.354
REMARK INTRA:                  -0.733
REMARK UNBOUND:                -1.559
REMARK SMILES CC(C)=CCC[C@@H](C)c1ccc(C)cc1
REMARK SMILES IDX 6 1 7 2 8 3 9 4 13 5 12 6 11 7 14 8 10 9 15 10 5 11 4 12
REMARK SMILES IDX 2 13 1 14 3 15
REMARK H PARENT
REMARK Flexibility Score: inf
ROOT
ATOM      1  C   UNL     1     161.082 176.193 152.661  1.00  0.00     0.012 C 
ENDROOT
BRANCH   1   2
ATOM      2  C   UNL     1     161.460 176.139 151.163  1.00  0.00     0.016 C 
ATOM      3  C   UNL     1     160.665 177.155 150.327  1.00  0.00     0.013 C 
BRANCH   2   4
ATOM      4  C   UNL     1     162.951 176.365 150.985  1.00  0.00    -0.045 A 
ATOM      5  C   UNL     1     167.194 176.976 150.451  1.00  0.00     0.044 C 
ATOM      6  C   UNL     1     165.725 176.760 150.667  1.00  0.00    -0.051 A 
ATOM      7  C   UNL     1     164.876 177.853 150.892  1.00  0.00     0.004 A 
ATOM      8  C   UNL     1     165.178 175.472 150.577  1.00  0.00     0.004 A 
ATOM      9  C   UNL     1     163.502 177.658 151.056  1.00  0.00     0.004 A 
ATOM     10  C   UNL     1     163.804 175.275 150.741  1.00  0.00     0.004 A 
ENDBRANCH   2   4
ENDBRANCH   1   2
BRANCH   1  11
ATOM     11  C   UNL     1     159.957 175.212 153.023  1.00  0.00     0.028 C 
BRANCH  11  12
ATOM     12  C   UNL     1     159.860 174.110 151.998  1.00  0.00    -0.028 C 
ATOM     13  C   UNL     1     160.017 172.796 152.270  1.00  0.00    -0.080 C 
ATOM     14  C   UNL     1     159.932 171.811 151.134  1.00  0.00     0.039 C 
ATOM     15  C   UNL     1     160.255 172.292 153.675  1.00  0.00     0.039 C 
ENDBRANCH  11  12
ENDBRANCH   1  11
TORSDOF 4
ENDMDL
MODEL 8
REMARK VINA RESULT:    -4.463     11.451     13.655
REMARK INTER + INTRA:          -7.066
REMARK INTER:                  -5.561
REMARK INTRA:                  -1.505
REMARK UNBOUND:                -1.559
REMARK SMILES CC(C)=CCC[C@@H](C)c1ccc(C)cc1
REMARK SMILES IDX 6 1 7 2 8 3 9 4 13 5 12 6 11 7 14 8 10 9 15 10 5 11 4 12
REMARK SMILES IDX 2 13 1 14 3 15
REMARK H PARENT
REMARK Flexibility Score: inf
ROOT
ATOM      1  C   UNL     1     175.316 172.806 154.170  1.00  0.00     0.012 C 
ENDROOT
BRANCH   1   2
ATOM      2  C   UNL     1     175.002 174.243 154.647  1.00  0.00     0.016 C 
ATOM      3  C   UNL     1     176.070 174.779 155.614  1.00  0.00     0.013 C 
BRANCH   2   4
ATOM      4  C   UNL     1     174.853 175.176 153.459  1.00  0.00    -0.045 A 
ATOM      5  C   UNL     1     174.469 177.841 150.081  1.00  0.00     0.044 C 
ATOM      6  C   UNL     1     174.581 176.931 151.269  1.00  0.00    -0.051 A 
ATOM      7  C   UNL     1     173.807 175.765 151.340  1.00  0.00     0.004 A 
ATOM      8  C   UNL     1     175.509 177.204 152.284  1.00  0.00     0.004 A 
ATOM      9  C   UNL     1     173.935 174.897 152.429  1.00  0.00     0.004 A 
ATOM     10  C   UNL     1     175.639 176.338 153.373  1.00  0.00     0.004 A 
ENDBRANCH   2   4
ENDBRANCH   1   2
BRANCH   1  11
ATOM     11  C   UNL     1     176.627 172.720 153.375  1.00  0.00     0.028 C 
BRANCH  11  12
ATOM     12  C   UNL     1     176.403 172.031 152.051  1.00  0.00    -0.028 C 
ATOM     13  C   UNL     1     176.591 172.612 150.845  1.00  0.00    -0.080 C 
ATOM     14  C   UNL     1     176.288 171.810 149.607  1.00  0.00     0.039 C 
ATOM     15  C   UNL     1     177.110 174.024 150.710  1.00  0.00     0.039 C 
ENDBRANCH  11  12
ENDBRANCH   1  11
TORSDOF 4
ENDMDL
MODEL 9
REMARK VINA RESULT:    -4.418      1.133      4.382
REMARK INTER + INTRA:          -7.010
REMARK INTER:                  -5.570
REMARK INTRA:                  -1.440
REMARK UNBOUND:                -1.559
REMARK SMILES CC(C)=CCC[C@@H](C)c1ccc(C)cc1
REMARK SMILES IDX 6 1 7 2 8 3 9 4 13 5 12 6 11 7 14 8 10 9 15 10 5 11 4 12
REMARK SMILES IDX 2 13 1 14 3 15
REMARK H PARENT
REMARK Flexibility Score: inf
ROOT
ATOM      1  C   UNL     1     160.549 177.958 151.705  1.00  0.00     0.012 C 
ENDROOT
BRANCH   1   2
ATOM      2  C   UNL     1     160.104 176.973 152.811  1.00  0.00     0.016 C 
ATOM      3  C   UNL     1     159.936 175.541 152.279  1.00  0.00     0.013 C 
BRANCH   2   4
ATOM      4  C   UNL     1     161.091 176.992 153.965  1.00  0.00    -0.045 A 
ATOM      5  C   UNL     1     163.894 177.086 157.250  1.00  0.00     0.044 C 
ATOM      6  C   UNL     1     162.942 177.040 156.091  1.00  0.00    -0.051 A 
ATOM      7  C   UNL     1     162.087 175.942 155.923  1.00  0.00     0.004 A 
ATOM      8  C   UNL     1     162.851 178.125 155.208  1.00  0.00     0.004 A 
ATOM      9  C   UNL     1     161.174 175.913 154.866  1.00  0.00     0.004 A 
ATOM     10  C   UNL     1     161.938 178.098 154.149  1.00  0.00     0.004 A 
ENDBRANCH   2   4
ENDBRANCH   1   2
BRANCH   1  11
ATOM     11  C   UNL     1     161.418 177.288 150.631  1.00  0.00     0.028 C 
BRANCH  11  12
ATOM     12  C   UNL     1     162.861 177.704 150.778  1.00  0.00    -0.028 C 
ATOM     13  C   UNL     1     163.848 176.895 151.223  1.00  0.00    -0.080 C 
ATOM     14  C   UNL     1     165.237 177.462 151.355  1.00  0.00     0.039 C 
ATOM     15  C   UNL     1     163.600 175.445 151.568  1.00  0.00     0.039 C 
ENDBRANCH  11  12
ENDBRANCH   1  11
TORSDOF 4
ENDMDL
