MODEL 1
REMARK VINA RESULT:    -3.105      0.000      0.000
REMARK INTER + INTRA:          -3.760
REMARK INTER:                  -3.650
REMARK INTRA:                  -0.110
REMARK UNBOUND:                -0.110
REMARK SMILES O=C([O-])CCC(=O)[O-]
REMARK SMILES IDX 4 1 2 2 1 3 3 4 5 5 6 6 7 7 8 8
REMARK H PARENT
REMARK Flexibility Score: inf
ROOT
ATOM      1  C   UNL     1      10.894  62.947   9.093  1.00  0.00     0.059 C 
ENDROOT
BRANCH   1   2
ATOM      2  C   UNL     1       9.748  63.753   8.562  1.00  0.00     0.042 C 
ATOM      3  O   UNL     1       8.565  63.352   8.719  1.00  0.00    -0.550 OA
ATOM      4  O   UNL     1       9.985  64.967   7.930  1.00  0.00    -0.550 OA
ENDBRANCH   1   2
BRANCH   1   5
ATOM      5  C   UNL     1      11.571  62.131   7.988  1.00  0.00     0.059 C 
BRANCH   5   6
ATOM      6  C   UNL     1      12.753  62.850   7.415  1.00  0.00     0.042 C 
ATOM      7  O   UNL     1      13.041  62.723   6.195  1.00  0.00    -0.550 OA
ATOM      8  O   UNL     1      13.511  63.693   8.217  1.00  0.00    -0.550 OA
ENDBRANCH   5   6
ENDBRANCH   1   5
TORSDOF 3
ENDMDL
MODEL 2
REMARK VINA RESULT:    -3.103      0.055      3.690
REMARK INTER + INTRA:          -3.757
REMARK INTER:                  -3.645
REMARK INTRA:                  -0.112
REMARK UNBOUND:                -0.110
REMARK SMILES O=C([O-])CCC(=O)[O-]
REMARK SMILES IDX 4 1 2 2 1 3 3 4 5 5 6 6 7 7 8 8
REMARK H PARENT
REMARK Flexibility Score: inf
ROOT
ATOM      1  C   UNL     1      11.567  62.140   7.972  1.00  0.00     0.059 C 
ENDROOT
BRANCH   1   2
ATOM      2  C   UNL     1      12.750  62.883   7.429  1.00  0.00     0.042 C 
ATOM      3  O   UNL     1      13.065  62.769   6.215  1.00  0.00    -0.550 OA
ATOM      4  O   UNL     1      13.477  63.732   8.253  1.00  0.00    -0.550 OA
ENDBRANCH   1   2
BRANCH   1   5
ATOM      5  C   UNL     1      10.886  62.915   9.105  1.00  0.00     0.059 C 
BRANCH   5   6
ATOM      6  C   UNL     1       9.735  63.731   8.603  1.00  0.00     0.042 C 
ATOM      7  O   UNL     1       8.555  63.311   8.737  1.00  0.00    -0.550 OA
ATOM      8  O   UNL     1       9.962  64.974   8.026  1.00  0.00    -0.550 OA
ENDBRANCH   5   6
ENDBRANCH   1   5
TORSDOF 3
ENDMDL
MODEL 3
REMARK VINA RESULT:    -3.075      0.095      3.712
REMARK INTER + INTRA:          -3.725
REMARK INTER:                  -3.619
REMARK INTRA:                  -0.106
REMARK UNBOUND:                -0.110
REMARK SMILES O=C([O-])CCC(=O)[O-]
REMARK SMILES IDX 4 1 2 2 1 3 3 4 5 5 6 6 7 7 8 8
REMARK H PARENT
REMARK Flexibility Score: inf
ROOT
ATOM      1  C   UNL     1      11.558  62.122   7.967  1.00  0.00     0.059 C 
ENDROOT
BRANCH   1   2
ATOM      2  C   UNL     1      12.714  62.864   7.369  1.00  0.00     0.042 C 
ATOM      3  O   UNL     1      13.449  63.582   8.097  1.00  0.00    -0.550 OA
ATOM      4  O   UNL     1      13.005  62.729   6.018  1.00  0.00    -0.550 OA
ENDBRANCH   1   2
BRANCH   1   5
ATOM      5  C   UNL     1      10.885  62.928   9.082  1.00  0.00     0.059 C 
BRANCH   5   6
ATOM      6  C   UNL     1       9.730  63.730   8.566  1.00  0.00     0.042 C 
ATOM      7  O   UNL     1       8.551  63.315   8.722  1.00  0.00    -0.550 OA
ATOM      8  O   UNL     1       9.953  64.954   7.950  1.00  0.00    -0.550 OA
ENDBRANCH   5   6
ENDBRANCH   1   5
TORSDOF 3
ENDMDL
MODEL 4
REMARK VINA RESULT:    -2.836      2.218      3.277
REMARK INTER + INTRA:          -3.443
REMARK INTER:                  -3.313
REMARK INTRA:                  -0.130
REMARK UNBOUND:                -0.110
REMARK SMILES O=C([O-])CCC(=O)[O-]
REMARK SMILES IDX 4 1 2 2 1 3 3 4 5 5 6 6 7 7 8 8
REMARK H PARENT
REMARK Flexibility Score: inf
ROOT
ATOM      1  C   UNL     1      13.111  63.055   6.491  1.00  0.00     0.059 C 
ENDROOT
BRANCH   1   2
ATOM      2  C   UNL     1      12.238  62.737   7.666  1.00  0.00     0.042 C 
ATOM      3  O   UNL     1      11.579  61.664   7.693  1.00  0.00    -0.550 OA
ATOM      4  O   UNL     1      12.184  63.606   8.749  1.00  0.00    -0.550 OA
ENDBRANCH   1   2
BRANCH   1   5
ATOM      5  C   UNL     1      13.291  64.566   6.313  1.00  0.00     0.059 C 
BRANCH   5   6
ATOM      6  C   UNL     1      12.213  65.154   5.454  1.00  0.00     0.042 C 
ATOM      7  O   UNL     1      12.258  65.020   4.203  1.00  0.00    -0.550 OA
ATOM      8  O   UNL     1      11.139  65.812   6.038  1.00  0.00    -0.550 OA
ENDBRANCH   5   6
ENDBRANCH   1   5
TORSDOF 3
ENDMDL
MODEL 5
REMARK VINA RESULT:    -2.835      2.218      3.287
REMARK INTER + INTRA:          -3.442
REMARK INTER:                  -3.314
REMARK INTRA:                  -0.129
REMARK UNBOUND:                -0.110
REMARK SMILES O=C([O-])CCC(=O)[O-]
REMARK SMILES IDX 4 1 2 2 1 3 3 4 5 5 6 6 7 7 8 8
REMARK H PARENT
REMARK Flexibility Score: inf
ROOT
ATOM      1  C   UNL     1      13.271  64.532   6.316  1.00  0.00     0.059 C 
ENDROOT
BRANCH   1   2
ATOM      2  C   UNL     1      12.184  65.146   5.488  1.00  0.00     0.042 C 
ATOM      3  O   UNL     1      11.222  65.738   6.045  1.00  0.00    -0.550 OA
ATOM      4  O   UNL     1      12.255  65.101   4.101  1.00  0.00    -0.550 OA
ENDBRANCH   1   2
BRANCH   1   5
ATOM      5  C   UNL     1      13.074  63.021   6.474  1.00  0.00     0.059 C 
BRANCH   5   6
ATOM      6  C   UNL     1      12.203  62.697   7.649  1.00  0.00     0.042 C 
ATOM      7  O   UNL     1      11.553  61.619   7.676  1.00  0.00    -0.550 OA
ATOM      8  O   UNL     1      12.144  63.564   8.732  1.00  0.00    -0.550 OA
ENDBRANCH   5   6
ENDBRANCH   1   5
TORSDOF 3
ENDMDL
MODEL 6
REMARK VINA RESULT:    -2.809      1.530      1.835
REMARK INTER + INTRA:          -3.412
REMARK INTER:                  -3.288
REMARK INTRA:                  -0.124
REMARK UNBOUND:                -0.110
REMARK SMILES O=C([O-])CCC(=O)[O-]
REMARK SMILES IDX 4 1 2 2 1 3 3 4 5 5 6 6 7 7 8 8
REMARK H PARENT
REMARK Flexibility Score: inf
ROOT
ATOM      1  C   UNL     1      11.902  62.410   7.617  1.00  0.00     0.059 C 
ENDROOT
BRANCH   1   2
ATOM      2  C   UNL     1      10.902  63.058   8.526  1.00  0.00     0.042 C 
ATOM      3  O   UNL     1      10.817  62.700   9.730  1.00  0.00    -0.550 OA
ATOM      4  O   UNL     1      10.094  64.084   8.053  1.00  0.00    -0.550 OA
ENDBRANCH   1   2
BRANCH   1   5
ATOM      5  C   UNL     1      13.252  63.135   7.654  1.00  0.00     0.059 C 
BRANCH   5   6
ATOM      6  C   UNL     1      13.326  64.219   6.623  1.00  0.00     0.042 C 
ATOM      7  O   UNL     1      12.634  64.142   5.573  1.00  0.00    -0.550 OA
ATOM      8  O   UNL     1      14.125  65.333   6.840  1.00  0.00    -0.550 OA
ENDBRANCH   5   6
ENDBRANCH   1   5
TORSDOF 3
ENDMDL
MODEL 7
REMARK VINA RESULT:    -2.791      1.530      3.630
REMARK INTER + INTRA:          -3.391
REMARK INTER:                  -3.271
REMARK INTRA:                  -0.120
REMARK UNBOUND:                -0.110
REMARK SMILES O=C([O-])CCC(=O)[O-]
REMARK SMILES IDX 4 1 2 2 1 3 3 4 5 5 6 6 7 7 8 8
REMARK H PARENT
REMARK Flexibility Score: inf
ROOT
ATOM      1  C   UNL     1      13.240  63.167   7.713  1.00  0.00     0.059 C 
ENDROOT
BRANCH   1   2
ATOM      2  C   UNL     1      13.346  64.282   6.718  1.00  0.00     0.042 C 
ATOM      3  O   UNL     1      14.125  65.248   6.930  1.00  0.00    -0.550 OA
ATOM      4  O   UNL     1      12.614  64.233   5.538  1.00  0.00    -0.550 OA
ENDBRANCH   1   2
BRANCH   1   5
ATOM      5  C   UNL     1      11.878  62.469   7.637  1.00  0.00     0.059 C 
BRANCH   5   6
ATOM      6  C   UNL     1      10.875  63.116   8.542  1.00  0.00     0.042 C 
ATOM      7  O   UNL     1      10.125  64.029   8.105  1.00  0.00    -0.550 OA
ATOM      8  O   UNL     1      10.739  62.683   9.854  1.00  0.00    -0.550 OA
ENDBRANCH   5   6
ENDBRANCH   1   5
TORSDOF 3
ENDMDL
MODEL 8
REMARK VINA RESULT:    -2.728      1.455      1.853
REMARK INTER + INTRA:          -3.317
REMARK INTER:                  -3.195
REMARK INTRA:                  -0.122
REMARK UNBOUND:                -0.110
REMARK SMILES O=C([O-])CCC(=O)[O-]
REMARK SMILES IDX 4 1 2 2 1 3 3 4 5 5 6 6 7 7 8 8
REMARK H PARENT
REMARK Flexibility Score: inf
ROOT
ATOM      1  C   UNL     1      10.544  64.557   7.957  1.00  0.00     0.059 C 
ENDROOT
BRANCH   1   2
ATOM      2  C   UNL     1       9.863  63.502   8.775  1.00  0.00     0.042 C 
ATOM      3  O   UNL     1       8.619  63.333   8.681  1.00  0.00    -0.550 OA
ATOM      4  O   UNL     1      10.609  62.679   9.609  1.00  0.00    -0.550 OA
ENDBRANCH   1   2
BRANCH   1   5
ATOM      5  C   UNL     1      12.069  64.422   8.018  1.00  0.00     0.059 C 
BRANCH   5   6
ATOM      6  C   UNL     1      12.608  63.697   6.823  1.00  0.00     0.042 C 
ATOM      7  O   UNL     1      12.863  62.465   6.893  1.00  0.00    -0.550 OA
ATOM      8  O   UNL     1      12.787  64.370   5.622  1.00  0.00    -0.550 OA
ENDBRANCH   5   6
ENDBRANCH   1   5
TORSDOF 3
ENDMDL
MODEL 9
REMARK VINA RESULT:    -2.581      2.300      3.763
REMARK INTER + INTRA:          -3.144
REMARK INTER:                  -2.962
REMARK INTRA:                  -0.182
REMARK UNBOUND:                -0.110
REMARK SMILES O=C([O-])CCC(=O)[O-]
REMARK SMILES IDX 4 1 2 2 1 3 3 4 5 5 6 6 7 7 8 8
REMARK H PARENT
REMARK Flexibility Score: inf
ROOT
ATOM      1  C   UNL     1      13.999  64.707   7.323  1.00  0.00     0.059 C 
ENDROOT
BRANCH   1   2
ATOM      2  C   UNL     1      13.068  64.078   6.331  1.00  0.00     0.042 C 
ATOM      3  O   UNL     1      12.393  64.799   5.551  1.00  0.00    -0.550 OA
ATOM      4  O   UNL     1      12.978  62.694   6.243  1.00  0.00    -0.550 OA
ENDBRANCH   1   2
BRANCH   1   5
ATOM      5  C   UNL     1      13.712  64.229   8.750  1.00  0.00     0.059 C 
BRANCH   5   6
ATOM      6  C   UNL     1      12.294  64.499   9.149  1.00  0.00     0.042 C 
ATOM      7  O   UNL     1      11.540  63.549   9.489  1.00  0.00    -0.550 OA
ATOM      8  O   UNL     1      11.818  65.803   9.187  1.00  0.00    -0.550 OA
ENDBRANCH   5   6
ENDBRANCH   1   5
TORSDOF 3
ENDMDL
