MODEL 1
REMARK VINA RESULT:    -3.294      0.000      0.000
REMARK INTER + INTRA:          -5.320
REMARK INTER:                  -5.028
REMARK INTRA:                  -0.293
REMARK UNBOUND:                -0.293
REMARK SMILES CC1=CCC[C@@H](C)C(=O)C[C@H](C(C)C)C(=O)C1
REMARK SMILES IDX 8 1 9 2 6 3 7 4 5 5 4 6 3 7 2 8 1 9 10 11 11 12 15 13 16 14
REMARK SMILES IDX 17 15 12 17 13 18 14 19
REMARK H PARENT
REMARK Flexibility Score: 70.00
ROOT
ATOM      1  C   UNL     1     127.805 141.183 115.728  1.00  0.00     0.136 C 
ATOM      2  O   UNL     1     127.029 141.814 115.024  1.00  0.00    -0.299 OA
ENDROOT
BRANCH   1   3
ATOM      3  C   UNL     1     128.960 141.904 116.396  1.00  0.00     0.053 C 
ATOM      4  C   UNL     1     128.436 142.925 117.416  1.00  0.00     0.016 C 
BRANCH   3   5
ATOM      5  C   UNL     1     129.854 142.591 115.338  1.00  0.00     0.015 C 
BRANCH   5   6
ATOM      6  C   UNL     1     131.068 141.718 114.965  1.00  0.00     0.028 C 
BRANCH   6   7
ATOM      7  C   UNL     1     131.736 141.084 116.161  1.00  0.00    -0.028 C 
ATOM      8  C   UNL     1     131.679 139.768 116.485  1.00  0.00    -0.070 CG0
ATOM      9  C   UNL     1     132.337 139.302 117.759  1.00  0.00     0.039 C 
ATOM     10  G   UNL     1     131.088 138.699 115.578  1.00  0.00     0.000 G0
ENDBRANCH   6   7
ENDBRANCH   5   6
ENDBRANCH   3   5
ENDBRANCH   1   3
BRANCH   1  11
ATOM     11  C   UNL     1     127.580 139.698 115.917  1.00  0.00     0.087 C 
BRANCH  11  12
ATOM     12  C   UNL     1     128.536 138.848 115.044  1.00  0.00     0.066 C 
BRANCH  12  13
ATOM     13  C   UNL     1     129.678 138.278 115.873  1.00  0.00     0.140 C 
ATOM     14  O   UNL     1     129.456 137.482 116.773  1.00  0.00    -0.299 OA
BRANCH  13  15
ATOM     15  C   UNL     1     131.100 138.678 115.563  1.00  0.00     0.106 CG0
ATOM     16  G   UNL     1     131.661 139.743 116.494  1.00  0.00     0.000 G0
ENDBRANCH  13  15
ENDBRANCH  12  13
BRANCH  12  17
ATOM     17  C   UNL     1     127.775 137.787 114.188  1.00  0.00    -0.006 C 
ATOM     18  C   UNL     1     128.684 136.780 113.458  1.00  0.00     0.008 C 
ATOM     19  C   UNL     1     126.805 138.449 113.197  1.00  0.00     0.008 C 
ENDBRANCH  12  17
ENDBRANCH  11  12
ENDBRANCH   1  11
TORSDOF 1
ENDMDL
MODEL 2
REMARK VINA RESULT:    -3.225     12.799     15.322
REMARK INTER + INTRA:          -5.215
REMARK INTER:                  -5.064
REMARK INTRA:                  -0.152
REMARK UNBOUND:                -0.293
REMARK SMILES CC1=CCC[C@@H](C)C(=O)C[C@H](C(C)C)C(=O)C1
REMARK SMILES IDX 8 1 9 2 6 3 7 4 5 5 4 6 3 7 2 8 1 9 10 11 11 12 15 13 16 14
REMARK SMILES IDX 17 15 12 17 13 18 14 19
REMARK H PARENT
REMARK Flexibility Score: 70.00
ROOT
ATOM      1  C   UNL     1     141.844 135.238 124.786  1.00  0.00     0.136 C 
ATOM      2  O   UNL     1     142.003 134.613 125.825  1.00  0.00    -0.299 OA
ENDROOT
BRANCH   1   3
ATOM      3  C   UNL     1     140.437 135.508 124.286  1.00  0.00     0.053 C 
ATOM      4  C   UNL     1     139.541 135.982 125.437  1.00  0.00     0.016 C 
BRANCH   3   5
ATOM      5  C   UNL     1     139.851 134.243 123.616  1.00  0.00     0.015 C 
BRANCH   5   6
ATOM      6  C   UNL     1     139.447 134.512 122.153  1.00  0.00     0.028 C 
BRANCH   6   7
ATOM      7  C   UNL     1     139.390 135.980 121.809  1.00  0.00    -0.028 C 
ATOM      8  C   UNL     1     140.389 136.689 121.226  1.00  0.00    -0.070 CG0
ATOM      9  C   UNL     1     140.206 138.171 121.019  1.00  0.00     0.039 C 
ATOM     10  G   UNL     1     141.651 136.058 120.656  1.00  0.00     0.000 G0
ENDBRANCH   6   7
ENDBRANCH   5   6
ENDBRANCH   3   5
ENDBRANCH   1   3
BRANCH   1  11
ATOM     11  C   UNL     1     143.061 135.735 124.037  1.00  0.00     0.087 C 
BRANCH  11  12
ATOM     12  C   UNL     1     143.159 135.126 122.616  1.00  0.00     0.066 C 
BRANCH  12  13
ATOM     13  C   UNL     1     142.882 136.174 121.548  1.00  0.00     0.140 C 
ATOM     14  O   UNL     1     143.650 137.109 121.381  1.00  0.00    -0.299 OA
BRANCH  13  15
ATOM     15  C   UNL     1     141.663 136.042 120.668  1.00  0.00     0.106 CG0
ATOM     16  G   UNL     1     140.412 136.688 121.242  1.00  0.00     0.000 G0
ENDBRANCH  13  15
ENDBRANCH  12  13
BRANCH  12  17
ATOM     17  C   UNL     1     144.484 134.327 122.401  1.00  0.00    -0.006 C 
ATOM     18  C   UNL     1     144.570 133.577 121.058  1.00  0.00     0.008 C 
ATOM     19  C   UNL     1     144.762 133.367 123.569  1.00  0.00     0.008 C 
ENDBRANCH  12  17
ENDBRANCH  11  12
ENDBRANCH   1  11
TORSDOF 1
ENDMDL
MODEL 3
REMARK VINA RESULT:    -3.173     13.964     16.551
REMARK INTER + INTRA:          -5.136
REMARK INTER:                  -4.756
REMARK INTRA:                  -0.380
REMARK UNBOUND:                -0.293
REMARK SMILES CC1=CCC[C@@H](C)C(=O)C[C@H](C(C)C)C(=O)C1
REMARK SMILES IDX 8 1 9 2 6 3 7 4 5 5 4 6 3 7 2 8 1 9 10 11 11 12 15 13 16 14
REMARK SMILES IDX 17 15 12 17 13 18 14 19
REMARK H PARENT
REMARK Flexibility Score: 70.00
ROOT
ATOM      1  C   UNL     1     142.395 135.834 121.729  1.00  0.00     0.136 C 
ATOM      2  O   UNL     1     141.545 135.605 120.879  1.00  0.00    -0.299 OA
ENDROOT
BRANCH   1   3
ATOM      3  C   UNL     1     143.861 135.661 121.381  1.00  0.00     0.053 C 
ATOM      4  C   UNL     1     144.240 134.174 121.379  1.00  0.00     0.016 C 
BRANCH   3   5
ATOM      5  C   UNL     1     144.748 136.455 122.369  1.00  0.00     0.015 C 
BRANCH   5   6
ATOM      6  C   UNL     1     145.394 135.531 123.420  1.00  0.00     0.028 C 
BRANCH   6   7
ATOM      7  C   UNL     1     145.456 136.146 124.796  1.00  0.00    -0.028 C 
ATOM      8  C   UNL     1     144.584 135.898 125.807  1.00  0.00    -0.070 CG0
ATOM      9  C   UNL     1     144.736 136.654 127.102  1.00  0.00     0.039 C 
ATOM     10  G   UNL     1     143.522 134.810 125.757  1.00  0.00     0.000 G0
ENDBRANCH   6   7
ENDBRANCH   5   6
ENDBRANCH   3   5
ENDBRANCH   1   3
BRANCH   1  11
ATOM     11  C   UNL     1     141.954 136.294 123.101  1.00  0.00     0.087 C 
BRANCH  11  12
ATOM     12  C   UNL     1     141.578 135.105 124.021  1.00  0.00     0.066 C 
BRANCH  12  13
ATOM     13  C   UNL     1     142.124 135.304 125.427  1.00  0.00     0.140 C 
ATOM     14  O   UNL     1     141.447 135.848 126.286  1.00  0.00    -0.299 OA
BRANCH  13  15
ATOM     15  C   UNL     1     143.504 134.800 125.773  1.00  0.00     0.106 CG0
ATOM     16  G   UNL     1     144.573 135.883 125.793  1.00  0.00     0.000 G0
ENDBRANCH  13  15
ENDBRANCH  12  13
BRANCH  12  17
ATOM     17  C   UNL     1     140.054 134.769 123.968  1.00  0.00    -0.006 C 
ATOM     18  C   UNL     1     139.695 133.553 123.093  1.00  0.00     0.008 C 
ATOM     19  C   UNL     1     139.220 135.991 123.553  1.00  0.00     0.008 C 
ENDBRANCH  12  17
ENDBRANCH  11  12
ENDBRANCH   1  11
TORSDOF 1
ENDMDL
MODEL 4
REMARK VINA RESULT:    -3.167     13.058     16.149
REMARK INTER + INTRA:          -5.125
REMARK INTER:                  -4.779
REMARK INTRA:                  -0.347
REMARK UNBOUND:                -0.293
REMARK SMILES CC1=CCC[C@@H](C)C(=O)C[C@H](C(C)C)C(=O)C1
REMARK SMILES IDX 8 1 9 2 6 3 7 4 5 5 4 6 3 7 2 8 1 9 10 11 11 12 15 13 16 14
REMARK SMILES IDX 17 15 12 17 13 18 14 19
REMARK H PARENT
REMARK Flexibility Score: 70.00
ROOT
ATOM      1  C   UNL     1     142.992 134.748 122.131  1.00  0.00     0.136 C 
ATOM      2  O   UNL     1     143.049 133.960 121.196  1.00  0.00    -0.299 OA
ENDROOT
BRANCH   1   3
ATOM      3  C   UNL     1     144.160 134.850 123.092  1.00  0.00     0.053 C 
ATOM      4  C   UNL     1     145.472 135.048 122.322  1.00  0.00     0.016 C 
BRANCH   3   5
ATOM      5  C   UNL     1     144.233 133.592 123.990  1.00  0.00     0.015 C 
BRANCH   5   6
ATOM      6  C   UNL     1     143.675 133.868 125.400  1.00  0.00     0.028 C 
BRANCH   6   7
ATOM      7  C   UNL     1     143.837 135.304 125.835  1.00  0.00    -0.028 C 
ATOM      8  C   UNL     1     142.829 136.204 125.961  1.00  0.00    -0.070 CG0
ATOM      9  C   UNL     1     143.164 137.627 126.331  1.00  0.00     0.039 C 
ATOM     10  G   UNL     1     141.355 135.840 125.866  1.00  0.00     0.000 G0
ENDBRANCH   6   7
ENDBRANCH   5   6
ENDBRANCH   3   5
ENDBRANCH   1   3
BRANCH   1  11
ATOM     11  C   UNL     1     141.755 135.605 122.290  1.00  0.00     0.087 C 
BRANCH  11  12
ATOM     12  C   UNL     1     140.828 135.086 123.417  1.00  0.00     0.066 C 
BRANCH  12  13
ATOM     13  C   UNL     1     140.692 136.111 124.534  1.00  0.00     0.140 C 
ATOM     14  O   UNL     1     140.045 137.134 124.364  1.00  0.00    -0.299 OA
BRANCH  13  15
ATOM     15  C   UNL     1     141.337 135.850 125.873  1.00  0.00     0.106 CG0
ATOM     16  G   UNL     1     142.817 136.199 125.926  1.00  0.00     0.000 G0
ENDBRANCH  13  15
ENDBRANCH  12  13
BRANCH  12  17
ATOM     17  C   UNL     1     139.466 134.552 122.869  1.00  0.00    -0.006 C 
ATOM     18  C   UNL     1     139.375 133.018 122.763  1.00  0.00     0.008 C 
ATOM     19  C   UNL     1     139.102 135.205 121.527  1.00  0.00     0.008 C 
ENDBRANCH  12  17
ENDBRANCH  11  12
ENDBRANCH   1  11
TORSDOF 1
ENDMDL
MODEL 5
REMARK VINA RESULT:    -3.140     13.981     16.493
REMARK INTER + INTRA:          -5.085
REMARK INTER:                  -4.889
REMARK INTRA:                  -0.196
REMARK UNBOUND:                -0.293
REMARK SMILES CC1=CCC[C@@H](C)C(=O)C[C@H](C(C)C)C(=O)C1
REMARK SMILES IDX 8 1 9 2 6 3 7 4 5 5 4 6 3 7 2 8 1 9 10 11 11 12 15 13 16 14
REMARK SMILES IDX 17 15 12 17 13 18 14 19
REMARK H PARENT
REMARK Flexibility Score: 70.00
ROOT
ATOM      1  C   UNL     1     142.888 134.250 124.913  1.00  0.00     0.136 C 
ATOM      2  O   UNL     1     142.349 135.023 125.694  1.00  0.00    -0.299 OA
ENDROOT
BRANCH   1   3
ATOM      3  C   UNL     1     144.221 133.627 125.281  1.00  0.00     0.053 C 
ATOM      4  C   UNL     1     144.159 133.022 126.689  1.00  0.00     0.016 C 
BRANCH   3   5
ATOM      5  C   UNL     1     145.354 134.675 125.180  1.00  0.00     0.015 C 
BRANCH   5   6
ATOM      6  C   UNL     1     145.711 134.986 123.714  1.00  0.00     0.028 C 
BRANCH   6   7
ATOM      7  C   UNL     1     145.254 136.352 123.265  1.00  0.00    -0.028 C 
ATOM      8  C   UNL     1     144.392 136.595 122.245  1.00  0.00    -0.070 CG0
ATOM      9  C   UNL     1     144.094 138.024 121.868  1.00  0.00     0.039 C 
ATOM     10  G   UNL     1     143.609 135.508 121.525  1.00  0.00     0.000 G0
ENDBRANCH   6   7
ENDBRANCH   5   6
ENDBRANCH   3   5
ENDBRANCH   1   3
BRANCH   1  11
ATOM     11  C   UNL     1     142.197 133.933 123.604  1.00  0.00     0.087 C 
BRANCH  11  12
ATOM     12  C   UNL     1     141.480 135.170 123.009  1.00  0.00     0.066 C 
BRANCH  12  13
ATOM     13  C   UNL     1     142.108 135.586 121.686  1.00  0.00     0.140 C 
ATOM     14  O   UNL     1     141.413 136.006 120.773  1.00  0.00    -0.299 OA
BRANCH  13  15
ATOM     15  C   UNL     1     143.604 135.505 121.509  1.00  0.00     0.106 CG0
ATOM     16  G   UNL     1     144.376 136.583 122.255  1.00  0.00     0.000 G0
ENDBRANCH  13  15
ENDBRANCH  12  13
BRANCH  12  17
ATOM     17  C   UNL     1     139.930 134.991 122.954  1.00  0.00    -0.006 C 
ATOM     18  C   UNL     1     139.208 135.238 124.292  1.00  0.00     0.008 C 
ATOM     19  C   UNL     1     139.539 133.620 122.379  1.00  0.00     0.008 C 
ENDBRANCH  12  17
ENDBRANCH  11  12
ENDBRANCH   1  11
TORSDOF 1
ENDMDL
MODEL 6
REMARK VINA RESULT:    -3.109     11.645     14.019
REMARK INTER + INTRA:          -5.037
REMARK INTER:                  -5.112
REMARK INTRA:                   0.076
REMARK UNBOUND:                -0.293
REMARK SMILES CC1=CCC[C@@H](C)C(=O)C[C@H](C(C)C)C(=O)C1
REMARK SMILES IDX 8 1 9 2 6 3 7 4 5 5 4 6 3 7 2 8 1 9 10 11 11 12 15 13 16 14
REMARK SMILES IDX 17 15 12 17 13 18 14 19
REMARK H PARENT
REMARK Flexibility Score: 70.00
ROOT
ATOM      1  C   UNL     1     139.589 134.667 123.441  1.00  0.00     0.136 C 
ATOM      2  O   UNL     1     139.031 133.582 123.534  1.00  0.00    -0.299 OA
ENDROOT
BRANCH   1   3
ATOM      3  C   UNL     1     138.764 135.907 123.153  1.00  0.00     0.053 C 
ATOM      4  C   UNL     1     137.948 136.307 124.390  1.00  0.00     0.016 C 
BRANCH   3   5
ATOM      5  C   UNL     1     137.841 135.671 121.935  1.00  0.00     0.015 C 
BRANCH   5   6
ATOM      6  C   UNL     1     138.598 135.849 120.605  1.00  0.00     0.028 C 
BRANCH   6   7
ATOM      7  C   UNL     1     139.065 137.264 120.369  1.00  0.00    -0.028 C 
ATOM      8  C   UNL     1     140.357 137.678 120.388  1.00  0.00    -0.070 CG0
ATOM      9  C   UNL     1     140.655 139.146 120.210  1.00  0.00     0.039 C 
ATOM     10  G   UNL     1     141.546 136.732 120.461  1.00  0.00     0.000 G0
ENDBRANCH   6   7
ENDBRANCH   5   6
ENDBRANCH   3   5
ENDBRANCH   1   3
BRANCH   1  11
ATOM     11  C   UNL     1     141.089 134.738 123.629  1.00  0.00     0.087 C 
BRANCH  11  12
ATOM     12  C   UNL     1     141.839 134.871 122.281  1.00  0.00     0.066 C 
BRANCH  12  13
ATOM     13  C   UNL     1     141.945 136.328 121.852  1.00  0.00     0.140 C 
ATOM     14  O   UNL     1     142.376 137.173 122.622  1.00  0.00    -0.299 OA
BRANCH  13  15
ATOM     15  C   UNL     1     141.541 136.728 120.454  1.00  0.00     0.106 CG0
ATOM     16  G   UNL     1     140.352 137.676 120.400  1.00  0.00     0.000 G0
ENDBRANCH  13  15
ENDBRANCH  12  13
BRANCH  12  17
ATOM     17  C   UNL     1     143.199 134.102 122.277  1.00  0.00    -0.006 C 
ATOM     18  C   UNL     1     143.798 133.854 123.674  1.00  0.00     0.008 C 
ATOM     19  C   UNL     1     144.231 134.783 121.364  1.00  0.00     0.008 C 
ENDBRANCH  12  17
ENDBRANCH  11  12
ENDBRANCH   1  11
TORSDOF 1
ENDMDL
MODEL 7
REMARK VINA RESULT:    -3.011     13.515     16.060
REMARK INTER + INTRA:          -4.888
REMARK INTER:                  -4.673
REMARK INTRA:                  -0.215
REMARK UNBOUND:                -0.293
REMARK SMILES CC1=CCC[C@@H](C)C(=O)C[C@H](C(C)C)C(=O)C1
REMARK SMILES IDX 8 1 9 2 6 3 7 4 5 5 4 6 3 7 2 8 1 9 10 11 11 12 15 13 16 14
REMARK SMILES IDX 17 15 12 17 13 18 14 19
REMARK H PARENT
REMARK Flexibility Score: 70.00
ROOT
ATOM      1  C   UNL     1     140.804 134.429 123.531  1.00  0.00     0.136 C 
ATOM      2  O   UNL     1     140.095 133.450 123.338  1.00  0.00    -0.299 OA
ENDROOT
BRANCH   1   3
ATOM      3  C   UNL     1     140.388 135.773 122.965  1.00  0.00     0.053 C 
ATOM      4  C   UNL     1     139.043 136.212 123.560  1.00  0.00     0.016 C 
BRANCH   3   5
ATOM      5  C   UNL     1     140.314 135.711 121.421  1.00  0.00     0.015 C 
BRANCH   5   6
ATOM      6  C   UNL     1     141.638 136.158 120.771  1.00  0.00     0.028 C 
BRANCH   6   7
ATOM      7  C   UNL     1     142.168 137.457 121.327  1.00  0.00    -0.028 C 
ATOM      8  C   UNL     1     143.289 137.589 122.079  1.00  0.00    -0.070 CG0
ATOM      9  C   UNL     1     143.643 138.949 122.626  1.00  0.00     0.039 C 
ATOM     10  G   UNL     1     144.288 136.465 122.312  1.00  0.00     0.000 G0
ENDBRANCH   6   7
ENDBRANCH   5   6
ENDBRANCH   3   5
ENDBRANCH   1   3
BRANCH   1  11
ATOM     11  C   UNL     1     142.072 134.266 124.340  1.00  0.00     0.087 C 
BRANCH  11  12
ATOM     12  C   UNL     1     143.339 134.298 123.449  1.00  0.00     0.066 C 
BRANCH  12  13
ATOM     13  C   UNL     1     144.058 135.635 123.562  1.00  0.00     0.140 C 
ATOM     14  O   UNL     1     144.456 136.037 124.645  1.00  0.00    -0.299 OA
BRANCH  13  15
ATOM     15  C   UNL     1     144.307 136.459 122.322  1.00  0.00     0.106 CG0
ATOM     16  G   UNL     1     143.291 137.570 122.102  1.00  0.00     0.000 G0
ENDBRANCH  13  15
ENDBRANCH  12  13
BRANCH  12  17
ATOM     17  C   UNL     1     144.258 133.056 123.676  1.00  0.00    -0.006 C 
ATOM     18  C   UNL     1     144.407 132.630 125.149  1.00  0.00     0.008 C 
ATOM     19  C   UNL     1     145.641 133.250 123.033  1.00  0.00     0.008 C 
ENDBRANCH  12  17
ENDBRANCH  11  12
ENDBRANCH   1  11
TORSDOF 1
ENDMDL
MODEL 8
REMARK VINA RESULT:    -2.995     13.544     15.933
REMARK INTER + INTRA:          -4.864
REMARK INTER:                  -4.584
REMARK INTRA:                  -0.281
REMARK UNBOUND:                -0.293
REMARK SMILES CC1=CCC[C@@H](C)C(=O)C[C@H](C(C)C)C(=O)C1
REMARK SMILES IDX 8 1 9 2 6 3 7 4 5 5 4 6 3 7 2 8 1 9 10 11 11 12 15 13 16 14
REMARK SMILES IDX 17 15 12 17 13 18 14 19
REMARK H PARENT
REMARK Flexibility Score: 70.00
ROOT
ATOM      1  C   UNL     1     143.035 133.953 123.886  1.00  0.00     0.136 C 
ATOM      2  O   UNL     1     142.897 132.919 124.525  1.00  0.00    -0.299 OA
ENDROOT
BRANCH   1   3
ATOM      3  C   UNL     1     144.112 134.942 124.290  1.00  0.00     0.053 C 
ATOM      4  C   UNL     1     145.475 134.243 124.378  1.00  0.00     0.016 C 
BRANCH   3   5
ATOM      5  C   UNL     1     143.750 135.615 125.634  1.00  0.00     0.015 C 
BRANCH   5   6
ATOM      6  C   UNL     1     143.265 137.064 125.431  1.00  0.00     0.028 C 
BRANCH   6   7
ATOM      7  C   UNL     1     143.938 137.762 124.275  1.00  0.00    -0.028 C 
ATOM      8  C   UNL     1     143.356 138.043 123.081  1.00  0.00    -0.070 CG0
ATOM      9  C   UNL     1     144.189 138.676 121.996  1.00  0.00     0.039 C 
ATOM     10  G   UNL     1     141.871 137.864 122.803  1.00  0.00     0.000 G0
ENDBRANCH   6   7
ENDBRANCH   5   6
ENDBRANCH   3   5
ENDBRANCH   1   3
BRANCH   1  11
ATOM     11  C   UNL     1     142.128 134.207 122.701  1.00  0.00     0.087 C 
BRANCH  11  12
ATOM     12  C   UNL     1     141.142 135.373 122.962  1.00  0.00     0.066 C 
BRANCH  12  13
ATOM     13  C   UNL     1     141.492 136.589 122.116  1.00  0.00     0.140 C 
ATOM     14  O   UNL     1     141.451 136.530 120.896  1.00  0.00    -0.299 OA
BRANCH  13  15
ATOM     15  C   UNL     1     141.864 137.887 122.789  1.00  0.00     0.106 CG0
ATOM     16  G   UNL     1     143.350 138.031 123.079  1.00  0.00     0.000 G0
ENDBRANCH  13  15
ENDBRANCH  12  13
BRANCH  12  17
ATOM     17  C   UNL     1     139.649 134.926 122.854  1.00  0.00    -0.006 C 
ATOM     18  C   UNL     1     138.720 135.531 123.923  1.00  0.00     0.008 C 
ATOM     19  C   UNL     1     139.518 133.395 122.834  1.00  0.00     0.008 C 
ENDBRANCH  12  17
ENDBRANCH  11  12
ENDBRANCH   1  11
TORSDOF 1
ENDMDL
MODEL 9
REMARK VINA RESULT:    -2.904      9.147     11.509
REMARK INTER + INTRA:          -4.724
REMARK INTER:                  -4.382
REMARK INTRA:                  -0.342
REMARK UNBOUND:                -0.293
REMARK SMILES CC1=CCC[C@@H](C)C(=O)C[C@H](C(C)C)C(=O)C1
REMARK SMILES IDX 8 1 9 2 6 3 7 4 5 5 4 6 3 7 2 8 1 9 10 11 11 12 15 13 16 14
REMARK SMILES IDX 17 15 12 17 13 18 14 19
REMARK H PARENT
REMARK Flexibility Score: 70.00
ROOT
ATOM      1  C   UNL     1     139.281 140.511 117.260  1.00  0.00     0.136 C 
ATOM      2  O   UNL     1     139.577 141.290 116.364  1.00  0.00    -0.299 OA
ENDROOT
BRANCH   1   3
ATOM      3  C   UNL     1     137.821 140.194 117.521  1.00  0.00     0.053 C 
ATOM      4  C   UNL     1     137.208 141.233 118.469  1.00  0.00     0.016 C 
BRANCH   3   5
ATOM      5  C   UNL     1     137.673 138.766 118.097  1.00  0.00     0.015 C 
BRANCH   5   6
ATOM      6  C   UNL     1     137.232 138.792 119.574  1.00  0.00     0.028 C 
BRANCH   6   7
ATOM      7  C   UNL     1     137.816 137.667 120.391  1.00  0.00    -0.028 C 
ATOM      8  C   UNL     1     138.919 137.758 121.177  1.00  0.00    -0.070 CG0
ATOM      9  C   UNL     1     139.423 136.518 121.871  1.00  0.00     0.039 C 
ATOM     10  G   UNL     1     139.619 139.069 121.501  1.00  0.00     0.000 G0
ENDBRANCH   6   7
ENDBRANCH   5   6
ENDBRANCH   3   5
ENDBRANCH   1   3
BRANCH   1  11
ATOM     11  C   UNL     1     140.388 139.879 118.076  1.00  0.00     0.087 C 
BRANCH  11  12
ATOM     12  C   UNL     1     140.506 140.510 119.486  1.00  0.00     0.066 C 
BRANCH  12  13
ATOM     13  C   UNL     1     140.737 139.444 120.547  1.00  0.00     0.140 C 
ATOM     14  O   UNL     1     141.824 138.897 120.654  1.00  0.00    -0.299 OA
BRANCH  13  15
ATOM     15  C   UNL     1     139.621 139.078 121.496  1.00  0.00     0.106 CG0
ATOM     16  G   UNL     1     138.937 137.759 121.170  1.00  0.00     0.000 G0
ENDBRANCH  13  15
ENDBRANCH  12  13
BRANCH  12  17
ATOM     17  C   UNL     1     141.531 141.687 119.528  1.00  0.00    -0.006 C 
ATOM     18  C   UNL     1     140.895 143.088 119.617  1.00  0.00     0.008 C 
ATOM     19  C   UNL     1     142.518 141.621 118.352  1.00  0.00     0.008 C 
ENDBRANCH  12  17
ENDBRANCH  11  12
ENDBRANCH   1  11
TORSDOF 1
ENDMDL
