MODEL 1
REMARK VINA RESULT:    -3.178      0.000      0.000
REMARK INTER + INTRA:          -5.096
REMARK INTER:                  -4.850
REMARK INTRA:                  -0.246
REMARK UNBOUND:                -0.246
REMARK SMILES CC1=CCC[C@@H](C)C(=O)C[C@@H](C(C)C)C(=O)C1
REMARK SMILES IDX 8 1 9 2 6 3 7 4 5 5 4 6 3 7 2 8 1 9 10 11 11 12 15 13 16 14
REMARK SMILES IDX 17 15 12 17 13 18 14 19
REMARK H PARENT
REMARK Flexibility Score: 70.00
ROOT
ATOM      1  C   UNL     1       0.492  -0.310  15.945  1.00  0.00     0.136 C 
ATOM      2  O   UNL     1       0.393  -0.290  17.163  1.00  0.00    -0.299 OA
ENDROOT
BRANCH   1   3
ATOM      3  C   UNL     1       0.141   0.928  15.146  1.00  0.00     0.053 C 
ATOM      4  C   UNL     1      -0.580   0.515  13.859  1.00  0.00     0.016 C 
BRANCH   3   5
ATOM      5  C   UNL     1       1.389   1.780  14.806  1.00  0.00     0.015 C 
BRANCH   5   6
ATOM      6  C   UNL     1       2.092   1.367  13.504  1.00  0.00     0.028 C 
BRANCH   6   7
ATOM      7  C   UNL     1       3.576   1.182  13.710  1.00  0.00    -0.028 C 
ATOM      8  C   UNL     1       4.210  -0.012  13.763  1.00  0.00    -0.070 CG0
ATOM      9  C   UNL     1       5.705  -0.013  13.956  1.00  0.00     0.039 C 
ATOM     10  G   UNL     1       3.483  -1.339  13.632  1.00  0.00     0.000 G0
ENDBRANCH   6   7
ENDBRANCH   5   6
ENDBRANCH   3   5
ENDBRANCH   1   3
BRANCH   1  11
ATOM     11  C   UNL     1       1.015  -1.558  15.271  1.00  0.00     0.087 C 
BRANCH  11  12
ATOM     12  C   UNL     1       2.313  -2.108  15.915  1.00  0.00     0.066 C 
BRANCH  12  13
ATOM     13  C   UNL     1       3.454  -2.180  14.904  1.00  0.00     0.140 C 
ATOM     14  O   UNL     1       4.403  -2.918  15.132  1.00  0.00    -0.299 OA
BRANCH  13  15
ATOM     15  C   UNL     1       3.495  -1.342  13.642  1.00  0.00     0.106 CG0
ATOM     16  G   UNL     1       4.193  -0.002  13.806  1.00  0.00     0.000 G0
ENDBRANCH  13  15
ENDBRANCH  12  13
BRANCH  12  17
ATOM     17  C   UNL     1       2.062  -3.470  16.635  1.00  0.00    -0.006 C 
ATOM     18  C   UNL     1       2.332  -3.443  18.150  1.00  0.00     0.008 C 
ATOM     19  C   UNL     1       0.640  -3.990  16.370  1.00  0.00     0.008 C 
ENDBRANCH  12  17
ENDBRANCH  11  12
ENDBRANCH   1  11
TORSDOF 1
ENDMDL
MODEL 2
REMARK VINA RESULT:    -2.952      2.536      4.537
REMARK INTER + INTRA:          -4.751
REMARK INTER:                  -4.330
REMARK INTRA:                  -0.421
REMARK UNBOUND:                -0.246
REMARK SMILES CC1=CCC[C@@H](C)C(=O)C[C@@H](C(C)C)C(=O)C1
REMARK SMILES IDX 8 1 9 2 6 3 7 4 5 5 4 6 3 7 2 8 1 9 10 11 11 12 15 13 16 14
REMARK SMILES IDX 17 15 12 17 13 18 14 19
REMARK H PARENT
REMARK Flexibility Score: 70.00
ROOT
ATOM      1  C   UNL     1       0.782  -3.100  18.778  1.00  0.00     0.136 C 
ATOM      2  O   UNL     1       1.504  -3.905  19.348  1.00  0.00    -0.299 OA
ENDROOT
BRANCH   1   3
ATOM      3  C   UNL     1      -0.110  -3.567  17.645  1.00  0.00     0.053 C 
ATOM      4  C   UNL     1      -0.995  -4.717  18.136  1.00  0.00     0.016 C 
BRANCH   3   5
ATOM      5  C   UNL     1       0.704  -4.014  16.405  1.00  0.00     0.015 C 
BRANCH   5   6
ATOM      6  C   UNL     1       1.115  -2.859  15.479  1.00  0.00     0.028 C 
BRANCH   6   7
ATOM      7  C   UNL     1       2.567  -2.486  15.669  1.00  0.00    -0.028 C 
ATOM      8  C   UNL     1       3.015  -1.252  15.995  1.00  0.00    -0.070 CG0
ATOM      9  C   UNL     1       4.501  -1.060  16.165  1.00  0.00     0.039 C 
ATOM     10  G   UNL     1       2.090  -0.065  16.200  1.00  0.00     0.000 G0
ENDBRANCH   6   7
ENDBRANCH   5   6
ENDBRANCH   3   5
ENDBRANCH   1   3
BRANCH   1  11
ATOM     11  C   UNL     1       0.759  -1.666  19.255  1.00  0.00     0.087 C 
BRANCH  11  12
ATOM     12  C   UNL     1       0.358  -0.655  18.152  1.00  0.00     0.066 C 
BRANCH  12  13
ATOM     13  C   UNL     1       1.571   0.099  17.614  1.00  0.00     0.140 C 
ATOM     14  O   UNL     1       2.135   0.908  18.338  1.00  0.00    -0.299 OA
BRANCH  13  15
ATOM     15  C   UNL     1       2.090  -0.069  16.201  1.00  0.00     0.106 CG0
ATOM     16  G   UNL     1       3.013  -1.260  16.012  1.00  0.00     0.000 G0
ENDBRANCH  13  15
ENDBRANCH  12  13
BRANCH  12  17
ATOM     17  C   UNL     1      -0.777   0.300  18.635  1.00  0.00    -0.006 C 
ATOM     18  C   UNL     1      -1.407   1.150  17.516  1.00  0.00     0.008 C 
ATOM     19  C   UNL     1      -1.876  -0.470  19.383  1.00  0.00     0.008 C 
ENDBRANCH  12  17
ENDBRANCH  11  12
ENDBRANCH   1  11
TORSDOF 1
ENDMDL
MODEL 3
REMARK VINA RESULT:    -2.946      7.653      9.713
REMARK INTER + INTRA:          -4.742
REMARK INTER:                  -4.349
REMARK INTRA:                  -0.393
REMARK UNBOUND:                -0.246
REMARK SMILES CC1=CCC[C@@H](C)C(=O)C[C@@H](C(C)C)C(=O)C1
REMARK SMILES IDX 8 1 9 2 6 3 7 4 5 5 4 6 3 7 2 8 1 9 10 11 11 12 15 13 16 14
REMARK SMILES IDX 17 15 12 17 13 18 14 19
REMARK H PARENT
REMARK Flexibility Score: 70.00
ROOT
ATOM      1  C   UNL     1       2.491   0.225  22.962  1.00  0.00     0.136 C 
ATOM      2  O   UNL     1       3.053  -0.838  22.743  1.00  0.00    -0.299 OA
ENDROOT
BRANCH   1   3
ATOM      3  C   UNL     1       2.364   0.723  24.388  1.00  0.00     0.053 C 
ATOM      4  C   UNL     1       3.739   1.169  24.895  1.00  0.00     0.016 C 
BRANCH   3   5
ATOM      5  C   UNL     1       1.771  -0.351  25.333  1.00  0.00     0.015 C 
BRANCH   5   6
ATOM      6  C   UNL     1       0.236  -0.423  25.311  1.00  0.00     0.028 C 
BRANCH   6   7
ATOM      7  C   UNL     1      -0.261  -1.335  24.214  1.00  0.00    -0.028 C 
ATOM      8  C   UNL     1      -0.969  -0.935  23.133  1.00  0.00    -0.070 CG0
ATOM      9  C   UNL     1      -1.369  -1.979  22.122  1.00  0.00     0.039 C 
ATOM     10  G   UNL     1      -1.368   0.511  22.897  1.00  0.00     0.000 G0
ENDBRANCH   6   7
ENDBRANCH   5   6
ENDBRANCH   3   5
ENDBRANCH   1   3
BRANCH   1  11
ATOM     11  C   UNL     1       1.982   1.042  21.796  1.00  0.00     0.087 C 
BRANCH  11  12
ATOM     12  C   UNL     1       0.763   1.930  22.151  1.00  0.00     0.066 C 
BRANCH  12  13
ATOM     13  C   UNL     1      -0.554   1.226  21.837  1.00  0.00     0.140 C 
ATOM     14  O   UNL     1      -0.991   1.267  20.696  1.00  0.00    -0.299 OA
BRANCH  13  15
ATOM     15  C   UNL     1      -1.381   0.512  22.887  1.00  0.00     0.106 CG0
ATOM     16  G   UNL     1      -0.971  -0.931  23.129  1.00  0.00     0.000 G0
ENDBRANCH  13  15
ENDBRANCH  12  13
BRANCH  12  17
ATOM     17  C   UNL     1       0.866   3.336  21.484  1.00  0.00    -0.006 C 
ATOM     18  C   UNL     1       0.306   4.486  22.342  1.00  0.00     0.008 C 
ATOM     19  C   UNL     1       2.311   3.655  21.069  1.00  0.00     0.008 C 
ENDBRANCH  12  17
ENDBRANCH  11  12
ENDBRANCH   1  11
TORSDOF 1
ENDMDL
MODEL 4
REMARK VINA RESULT:    -2.828      2.101      4.406
REMARK INTER + INTRA:          -4.562
REMARK INTER:                  -4.372
REMARK INTRA:                  -0.191
REMARK UNBOUND:                -0.246
REMARK SMILES CC1=CCC[C@@H](C)C(=O)C[C@@H](C(C)C)C(=O)C1
REMARK SMILES IDX 8 1 9 2 6 3 7 4 5 5 4 6 3 7 2 8 1 9 10 11 11 12 15 13 16 14
REMARK SMILES IDX 17 15 12 17 13 18 14 19
REMARK H PARENT
REMARK Flexibility Score: 70.00
ROOT
ATOM      1  C   UNL     1       0.524  -1.150  18.499  1.00  0.00     0.136 C 
ATOM      2  O   UNL     1       1.355  -1.141  19.397  1.00  0.00    -0.299 OA
ENDROOT
BRANCH   1   3
ATOM      3  C   UNL     1      -0.281  -2.407  18.238  1.00  0.00     0.053 C 
ATOM      4  C   UNL     1      -1.192  -2.685  19.439  1.00  0.00     0.016 C 
BRANCH   3   5
ATOM      5  C   UNL     1       0.621  -3.633  17.959  1.00  0.00     0.015 C 
BRANCH   5   6
ATOM      6  C   UNL     1       1.080  -3.751  16.497  1.00  0.00     0.028 C 
BRANCH   6   7
ATOM      7  C   UNL     1       2.514  -3.308  16.328  1.00  0.00    -0.028 C 
ATOM      8  C   UNL     1       2.920  -2.268  15.565  1.00  0.00    -0.070 CG0
ATOM      9  C   UNL     1       4.394  -1.950  15.525  1.00  0.00     0.039 C 
ATOM     10  G   UNL     1       1.960  -1.411  14.758  1.00  0.00     0.000 G0
ENDBRANCH   6   7
ENDBRANCH   5   6
ENDBRANCH   3   5
ENDBRANCH   1   3
BRANCH   1  11
ATOM     11  C   UNL     1       0.285   0.115  17.707  1.00  0.00     0.087 C 
BRANCH  11  12
ATOM     12  C   UNL     1       0.109  -0.133  16.188  1.00  0.00     0.066 C 
BRANCH  12  13
ATOM     13  C   UNL     1       1.453  -0.169  15.465  1.00  0.00     0.140 C 
ATOM     14  O   UNL     1       2.134   0.846  15.428  1.00  0.00    -0.299 OA
BRANCH  13  15
ATOM     15  C   UNL     1       1.972  -1.397  14.744  1.00  0.00     0.106 CG0
ATOM     16  G   UNL     1       2.910  -2.257  15.573  1.00  0.00     0.000 G0
ENDBRANCH  13  15
ENDBRANCH  12  13
BRANCH  12  17
ATOM     17  C   UNL     1      -0.887   0.886  15.553  1.00  0.00    -0.006 C 
ATOM     18  C   UNL     1      -0.779   2.313  16.121  1.00  0.00     0.008 C 
ATOM     19  C   UNL     1      -0.749   0.925  14.023  1.00  0.00     0.008 C 
ENDBRANCH  12  17
ENDBRANCH  11  12
ENDBRANCH   1  11
TORSDOF 1
ENDMDL
MODEL 5
REMARK VINA RESULT:    -2.768      2.953      3.918
REMARK INTER + INTRA:          -4.470
REMARK INTER:                  -3.972
REMARK INTRA:                  -0.499
REMARK UNBOUND:                -0.246
REMARK SMILES CC1=CCC[C@@H](C)C(=O)C[C@@H](C(C)C)C(=O)C1
REMARK SMILES IDX 8 1 9 2 6 3 7 4 5 5 4 6 3 7 2 8 1 9 10 11 11 12 15 13 16 14
REMARK SMILES IDX 17 15 12 17 13 18 14 19
REMARK H PARENT
REMARK Flexibility Score: 70.00
ROOT
ATOM      1  C   UNL     1       0.928  -1.697  15.986  1.00  0.00     0.136 C 
ATOM      2  O   UNL     1       1.166  -1.733  14.788  1.00  0.00    -0.299 OA
ENDROOT
BRANCH   1   3
ATOM      3  C   UNL     1       0.763  -0.357  16.676  1.00  0.00     0.053 C 
ATOM      4  C   UNL     1      -0.365   0.428  15.998  1.00  0.00     0.016 C 
BRANCH   3   5
ATOM      5  C   UNL     1       2.070   0.472  16.665  1.00  0.00     0.015 C 
BRANCH   5   6
ATOM      6  C   UNL     1       2.906   0.337  17.948  1.00  0.00     0.028 C 
BRANCH   6   7
ATOM      7  C   UNL     1       4.074  -0.601  17.752  1.00  0.00    -0.028 C 
ATOM      8  C   UNL     1       4.224  -1.793  18.373  1.00  0.00    -0.070 CG0
ATOM      9  C   UNL     1       5.446  -2.614  18.046  1.00  0.00     0.039 C 
ATOM     10  G   UNL     1       3.219  -2.335  19.374  1.00  0.00     0.000 G0
ENDBRANCH   6   7
ENDBRANCH   5   6
ENDBRANCH   3   5
ENDBRANCH   1   3
BRANCH   1  11
ATOM     11  C   UNL     1       0.751  -2.996  16.739  1.00  0.00     0.087 C 
BRANCH  11  12
ATOM     12  C   UNL     1       0.837  -2.833  18.278  1.00  0.00     0.066 C 
BRANCH  12  13
ATOM     13  C   UNL     1       2.187  -3.298  18.817  1.00  0.00     0.140 C 
ATOM     14  O   UNL     1       2.443  -4.493  18.823  1.00  0.00    -0.299 OA
BRANCH  13  15
ATOM     15  C   UNL     1       3.218  -2.349  19.394  1.00  0.00     0.106 CG0
ATOM     16  G   UNL     1       4.200  -1.799  18.373  1.00  0.00     0.000 G0
ENDBRANCH  13  15
ENDBRANCH  12  13
BRANCH  12  17
ATOM     17  C   UNL     1      -0.365  -3.522  18.994  1.00  0.00    -0.006 C 
ATOM     18  C   UNL     1      -1.396  -2.542  19.584  1.00  0.00     0.008 C 
ATOM     19  C   UNL     1      -1.072  -4.523  18.067  1.00  0.00     0.008 C 
ENDBRANCH  12  17
ENDBRANCH  11  12
ENDBRANCH   1  11
TORSDOF 1
ENDMDL
MODEL 6
REMARK VINA RESULT:    -2.722      7.589      8.785
REMARK INTER + INTRA:          -4.401
REMARK INTER:                  -4.228
REMARK INTRA:                  -0.173
REMARK UNBOUND:                -0.246
REMARK SMILES CC1=CCC[C@@H](C)C(=O)C[C@@H](C(C)C)C(=O)C1
REMARK SMILES IDX 8 1 9 2 6 3 7 4 5 5 4 6 3 7 2 8 1 9 10 11 11 12 15 13 16 14
REMARK SMILES IDX 17 15 12 17 13 18 14 19
REMARK H PARENT
REMARK Flexibility Score: 70.00
ROOT
ATOM      1  C   UNL     1       0.669  -0.496  22.286  1.00  0.00     0.136 C 
ATOM      2  O   UNL     1       0.625  -1.133  21.243  1.00  0.00    -0.299 OA
ENDROOT
BRANCH   1   3
ATOM      3  C   UNL     1      -0.206   0.730  22.450  1.00  0.00     0.053 C 
ATOM      4  C   UNL     1      -1.652   0.374  22.089  1.00  0.00     0.016 C 
BRANCH   3   5
ATOM      5  C   UNL     1       0.282   1.918  21.584  1.00  0.00     0.015 C 
BRANCH   5   6
ATOM      6  C   UNL     1       1.071   2.979  22.367  1.00  0.00     0.028 C 
BRANCH   6   7
ATOM      7  C   UNL     1       2.490   3.099  21.862  1.00  0.00    -0.028 C 
ATOM      8  C   UNL     1       3.596   2.765  22.566  1.00  0.00    -0.070 CG0
ATOM      9  C   UNL     1       4.937   2.931  21.899  1.00  0.00     0.039 C 
ATOM     10  G   UNL     1       3.540   2.230  23.986  1.00  0.00     0.000 G0
ENDBRANCH   6   7
ENDBRANCH   5   6
ENDBRANCH   3   5
ENDBRANCH   1   3
BRANCH   1  11
ATOM     11  C   UNL     1       1.560  -0.982  23.406  1.00  0.00     0.087 C 
BRANCH  11  12
ATOM     12  C   UNL     1       1.939   0.129  24.417  1.00  0.00     0.066 C 
BRANCH  12  13
ATOM     13  C   UNL     1       3.302   0.738  24.098  1.00  0.00     0.140 C 
ATOM     14  O   UNL     1       4.262  -0.004  23.948  1.00  0.00    -0.299 OA
BRANCH  13  15
ATOM     15  C   UNL     1       3.538   2.231  24.003  1.00  0.00     0.106 CG0
ATOM     16  G   UNL     1       3.598   2.764  22.582  1.00  0.00     0.000 G0
ENDBRANCH  13  15
ENDBRANCH  12  13
BRANCH  12  17
ATOM     17  C   UNL     1       1.839  -0.379  25.889  1.00  0.00    -0.006 C 
ATOM     18  C   UNL     1       0.404  -0.427  26.445  1.00  0.00     0.008 C 
ATOM     19  C   UNL     1       2.506  -1.753  26.055  1.00  0.00     0.008 C 
ENDBRANCH  12  17
ENDBRANCH  11  12
ENDBRANCH   1  11
TORSDOF 1
ENDMDL
MODEL 7
REMARK VINA RESULT:    -2.663      1.788      3.934
REMARK INTER + INTRA:          -4.310
REMARK INTER:                  -3.808
REMARK INTRA:                  -0.502
REMARK UNBOUND:                -0.246
REMARK SMILES CC1=CCC[C@@H](C)C(=O)C[C@@H](C(C)C)C(=O)C1
REMARK SMILES IDX 8 1 9 2 6 3 7 4 5 5 4 6 3 7 2 8 1 9 10 11 11 12 15 13 16 14
REMARK SMILES IDX 17 15 12 17 13 18 14 19
REMARK H PARENT
REMARK Flexibility Score: 70.00
ROOT
ATOM      1  C   UNL     1       1.944  -1.247  17.208  1.00  0.00     0.136 C 
ATOM      2  O   UNL     1       2.012  -1.435  18.414  1.00  0.00    -0.299 OA
ENDROOT
BRANCH   1   3
ATOM      3  C   UNL     1       2.060  -2.424  16.261  1.00  0.00     0.053 C 
ATOM      4  C   UNL     1       0.969  -3.449  16.589  1.00  0.00     0.016 C 
BRANCH   3   5
ATOM      5  C   UNL     1       3.455  -3.093  16.324  1.00  0.00     0.015 C 
BRANCH   5   6
ATOM      6  C   UNL     1       4.440  -2.585  15.260  1.00  0.00     0.028 C 
BRANCH   6   7
ATOM      7  C   UNL     1       5.400  -1.570  15.834  1.00  0.00    -0.028 C 
ATOM      8  C   UNL     1       5.461  -0.268  15.472  1.00  0.00    -0.070 CG0
ATOM      9  C   UNL     1       6.469   0.614  16.163  1.00  0.00     0.039 C 
ATOM     10  G   UNL     1       4.557   0.337  14.411  1.00  0.00     0.000 G0
ENDBRANCH   6   7
ENDBRANCH   5   6
ENDBRANCH   3   5
ENDBRANCH   1   3
BRANCH   1  11
ATOM     11  C   UNL     1       1.694   0.153  16.695  1.00  0.00     0.087 C 
BRANCH  11  12
ATOM     12  C   UNL     1       1.993   0.318  15.184  1.00  0.00     0.066 C 
BRANCH  12  13
ATOM     13  C   UNL     1       3.322   1.032  14.949  1.00  0.00     0.140 C 
ATOM     14  O   UNL     1       3.397   2.232  15.168  1.00  0.00    -0.299 OA
BRANCH  13  15
ATOM     15  C   UNL     1       4.553   0.331  14.409  1.00  0.00     0.106 CG0
ATOM     16  G   UNL     1       5.455  -0.259  15.478  1.00  0.00     0.000 G0
ENDBRANCH  13  15
ENDBRANCH  12  13
BRANCH  12  17
ATOM     17  C   UNL     1       0.806   1.000  14.436  1.00  0.00    -0.006 C 
ATOM     18  C   UNL     1       0.958   1.032  12.904  1.00  0.00     0.008 C 
ATOM     19  C   UNL     1      -0.537   0.353  14.811  1.00  0.00     0.008 C 
ENDBRANCH  12  17
ENDBRANCH  11  12
ENDBRANCH   1  11
TORSDOF 1
ENDMDL
MODEL 8
REMARK VINA RESULT:    -2.648      3.936      5.669
REMARK INTER + INTRA:          -4.287
REMARK INTER:                  -4.062
REMARK INTRA:                  -0.224
REMARK UNBOUND:                -0.246
REMARK SMILES CC1=CCC[C@@H](C)C(=O)C[C@@H](C(C)C)C(=O)C1
REMARK SMILES IDX 8 1 9 2 6 3 7 4 5 5 4 6 3 7 2 8 1 9 10 11 11 12 15 13 16 14
REMARK SMILES IDX 17 15 12 17 13 18 14 19
REMARK H PARENT
REMARK Flexibility Score: 70.00
ROOT
ATOM      1  C   UNL     1       0.915   0.228  16.500  1.00  0.00     0.136 C 
ATOM      2  O   UNL     1       1.824   0.819  15.935  1.00  0.00    -0.299 OA
ENDROOT
BRANCH   1   3
ATOM      3  C   UNL     1      -0.521   0.520  16.114  1.00  0.00     0.053 C 
ATOM      4  C   UNL     1      -0.568   1.006  14.662  1.00  0.00     0.016 C 
BRANCH   3   5
ATOM      5  C   UNL     1      -1.177   1.567  17.047  1.00  0.00     0.015 C 
BRANCH   5   6
ATOM      6  C   UNL     1      -2.432   1.057  17.774  1.00  0.00     0.028 C 
BRANCH   6   7
ATOM      7  C   UNL     1      -2.230   1.021  19.270  1.00  0.00    -0.028 C 
ATOM      8  C   UNL     1      -1.964  -0.092  19.992  1.00  0.00    -0.070 CG0
ATOM      9  C   UNL     1      -1.771   0.057  21.479  1.00  0.00     0.039 C 
ATOM     10  G   UNL     1      -1.848  -1.472  19.368  1.00  0.00     0.000 G0
ENDBRANCH   6   7
ENDBRANCH   5   6
ENDBRANCH   3   5
ENDBRANCH   1   3
BRANCH   1  11
ATOM     11  C   UNL     1       1.253  -0.820  17.535  1.00  0.00     0.087 C 
BRANCH  11  12
ATOM     12  C   UNL     1       0.164  -1.912  17.686  1.00  0.00     0.066 C 
BRANCH  12  13
ATOM     13  C   UNL     1      -0.437  -1.915  19.089  1.00  0.00     0.140 C 
ATOM     14  O   UNL     1       0.236  -2.329  20.022  1.00  0.00    -0.299 OA
BRANCH  13  15
ATOM     15  C   UNL     1      -1.856  -1.470  19.381  1.00  0.00     0.106 CG0
ATOM     16  G   UNL     1      -1.963  -0.079  19.982  1.00  0.00     0.000 G0
ENDBRANCH  13  15
ENDBRANCH  12  13
BRANCH  12  17
ATOM     17  C   UNL     1       0.696  -3.314  17.258  1.00  0.00    -0.006 C 
ATOM     18  C   UNL     1      -0.254  -4.479  17.591  1.00  0.00     0.008 C 
ATOM     19  C   UNL     1       1.051  -3.346  15.763  1.00  0.00     0.008 C 
ENDBRANCH  12  17
ENDBRANCH  11  12
ENDBRANCH   1  11
TORSDOF 1
ENDMDL
MODEL 9
REMARK VINA RESULT:    -2.639      2.715      5.354
REMARK INTER + INTRA:          -4.274
REMARK INTER:                  -3.914
REMARK INTRA:                  -0.360
REMARK UNBOUND:                -0.246
REMARK SMILES CC1=CCC[C@@H](C)C(=O)C[C@@H](C(C)C)C(=O)C1
REMARK SMILES IDX 8 1 9 2 6 3 7 4 5 5 4 6 3 7 2 8 1 9 10 11 11 12 15 13 16 14
REMARK SMILES IDX 17 15 12 17 13 18 14 19
REMARK H PARENT
REMARK Flexibility Score: 70.00
ROOT
ATOM      1  C   UNL     1       0.688  -0.131  14.880  1.00  0.00     0.136 C 
ATOM      2  O   UNL     1       0.507   0.349  13.770  1.00  0.00    -0.299 OA
ENDROOT
BRANCH   1   3
ATOM      3  C   UNL     1       1.846  -1.082  15.103  1.00  0.00     0.053 C 
ATOM      4  C   UNL     1       2.976  -0.745  14.124  1.00  0.00     0.016 C 
BRANCH   3   5
ATOM      5  C   UNL     1       1.427  -2.564  14.943  1.00  0.00     0.015 C 
BRANCH   5   6
ATOM      6  C   UNL     1       0.736  -3.156  16.182  1.00  0.00     0.028 C 
BRANCH   6   7
ATOM      7  C   UNL     1       1.581  -2.983  17.422  1.00  0.00    -0.028 C 
ATOM      8  C   UNL     1       1.218  -2.274  18.516  1.00  0.00    -0.070 CG0
ATOM      9  C   UNL     1       2.178  -2.222  19.677  1.00  0.00     0.039 C 
ATOM     10  G   UNL     1      -0.108  -1.541  18.622  1.00  0.00     0.000 G0
ENDBRANCH   6   7
ENDBRANCH   5   6
ENDBRANCH   3   5
ENDBRANCH   1   3
BRANCH   1  11
ATOM     11  C   UNL     1      -0.222   0.280  16.015  1.00  0.00     0.087 C 
BRANCH  11  12
ATOM     12  C   UNL     1       0.543   0.693  17.298  1.00  0.00     0.066 C 
BRANCH  12  13
ATOM     13  C   UNL     1      -0.005  -0.020  18.531  1.00  0.00     0.140 C 
ATOM     14  O   UNL     1      -0.339   0.645  19.502  1.00  0.00    -0.299 OA
BRANCH  13  15
ATOM     15  C   UNL     1      -0.115  -1.528  18.634  1.00  0.00     0.106 CG0
ATOM     16  G   UNL     1       1.210  -2.260  18.507  1.00  0.00     0.000 G0
ENDBRANCH  13  15
ENDBRANCH  12  13
BRANCH  12  17
ATOM     17  C   UNL     1       0.580   2.243  17.468  1.00  0.00    -0.006 C 
ATOM     18  C   UNL     1       1.959   2.875  17.205  1.00  0.00     0.008 C 
ATOM     19  C   UNL     1      -0.481   2.929  16.593  1.00  0.00     0.008 C 
ENDBRANCH  12  17
ENDBRANCH  11  12
ENDBRANCH   1  11
TORSDOF 1
ENDMDL
