MODEL 1
REMARK VINA RESULT:    -3.150      0.000      0.000
REMARK INTER + INTRA:          -4.397
REMARK INTER:                  -4.071
REMARK INTRA:                  -0.326
REMARK UNBOUND:                -0.326
REMARK SMILES CCCCCCC(=O)[O-]
REMARK SMILES IDX 5 1 6 2 7 3 8 4 9 5 4 6 3 7 2 8 1 9
REMARK H PARENT
REMARK Flexibility Score: inf
ROOT
ATOM      1  C   UNL     1       2.459  14.118   7.716  1.00  0.00     0.006 C 
ENDROOT
BRANCH   1   2
ATOM      2  C   UNL     1       3.565  13.062   7.810  1.00  0.00     0.053 C 
BRANCH   2   3
ATOM      3  C   UNL     1       3.939  12.820   9.238  1.00  0.00     0.041 C 
ATOM      4  O   UNL     1       4.469  13.737   9.919  1.00  0.00    -0.550 OA
ATOM      5  O   UNL     1       3.750  11.565   9.803  1.00  0.00    -0.550 OA
ENDBRANCH   2   3
ENDBRANCH   1   2
BRANCH   1   6
ATOM      6  C   UNL     1       1.253  13.730   8.579  1.00  0.00     0.000 C 
BRANCH   6   7
ATOM      7  C   UNL     1       0.589  14.971   9.188  1.00  0.00    -0.000 C 
BRANCH   7   8
ATOM      8  C   UNL     1       1.614  15.831   9.936  1.00  0.00    -0.003 C 
ATOM      9  C   UNL     1       1.408  17.314   9.644  1.00  0.00     0.004 C 
ENDBRANCH   7   8
ENDBRANCH   6   7
ENDBRANCH   1   6
TORSDOF 5
ENDMDL
MODEL 2
REMARK VINA RESULT:    -3.131      4.056      5.059
REMARK INTER + INTRA:          -4.373
REMARK INTER:                  -3.957
REMARK INTRA:                  -0.415
REMARK UNBOUND:                -0.326
REMARK SMILES CCCCCCC(=O)[O-]
REMARK SMILES IDX 5 1 6 2 7 3 8 4 9 5 4 6 3 7 2 8 1 9
REMARK H PARENT
REMARK Flexibility Score: inf
ROOT
ATOM      1  C   UNL     1       6.875  12.769  11.229  1.00  0.00     0.006 C 
ENDROOT
BRANCH   1   2
ATOM      2  C   UNL     1       6.307  11.741  12.211  1.00  0.00     0.053 C 
BRANCH   2   3
ATOM      3  C   UNL     1       6.699  12.083  13.613  1.00  0.00     0.041 C 
ATOM      4  O   UNL     1       5.818  12.362  14.468  1.00  0.00    -0.550 OA
ATOM      5  O   UNL     1       8.042  12.143  13.964  1.00  0.00    -0.550 OA
ENDBRANCH   2   3
ENDBRANCH   1   2
BRANCH   1   6
ATOM      6  C   UNL     1       5.940  13.977  11.094  1.00  0.00     0.000 C 
BRANCH   6   7
ATOM      7  C   UNL     1       4.494  13.530  10.854  1.00  0.00    -0.000 C 
BRANCH   7   8
ATOM      8  C   UNL     1       3.515  14.367  11.685  1.00  0.00    -0.003 C 
ATOM      9  C   UNL     1       4.233  15.088  12.821  1.00  0.00     0.004 C 
ENDBRANCH   7   8
ENDBRANCH   6   7
ENDBRANCH   1   6
TORSDOF 5
ENDMDL
MODEL 3
REMARK VINA RESULT:    -3.130      2.556      3.526
REMARK INTER + INTRA:          -4.371
REMARK INTER:                  -4.130
REMARK INTRA:                  -0.241
REMARK UNBOUND:                -0.326
REMARK SMILES CCCCCCC(=O)[O-]
REMARK SMILES IDX 5 1 6 2 7 3 8 4 9 5 4 6 3 7 2 8 1 9
REMARK H PARENT
REMARK Flexibility Score: inf
ROOT
ATOM      1  C   UNL     1       1.761  14.015  10.031  1.00  0.00     0.006 C 
ENDROOT
BRANCH   1   2
ATOM      2  C   UNL     1       1.726  14.673   8.648  1.00  0.00     0.053 C 
BRANCH   2   3
ATOM      3  C   UNL     1       2.526  13.875   7.668  1.00  0.00     0.041 C 
ATOM      4  O   UNL     1       3.638  13.391   8.002  1.00  0.00    -0.550 OA
ATOM      5  O   UNL     1       2.064  13.709   6.368  1.00  0.00    -0.550 OA
ENDBRANCH   2   3
ENDBRANCH   1   2
BRANCH   1   6
ATOM      6  C   UNL     1       2.311  14.981  11.087  1.00  0.00     0.000 C 
BRANCH   6   7
ATOM      7  C   UNL     1       3.084  14.226  12.175  1.00  0.00    -0.000 C 
BRANCH   7   8
ATOM      8  C   UNL     1       4.548  14.679  12.223  1.00  0.00    -0.003 C 
ATOM      9  C   UNL     1       5.402  13.891  11.234  1.00  0.00     0.004 C 
ENDBRANCH   7   8
ENDBRANCH   6   7
ENDBRANCH   1   6
TORSDOF 5
ENDMDL
MODEL 4
REMARK VINA RESULT:    -3.116      2.893      3.797
REMARK INTER + INTRA:          -4.352
REMARK INTER:                  -4.184
REMARK INTRA:                  -0.168
REMARK UNBOUND:                -0.326
REMARK SMILES CCCCCCC(=O)[O-]
REMARK SMILES IDX 5 1 6 2 7 3 8 4 9 5 4 6 3 7 2 8 1 9
REMARK H PARENT
REMARK Flexibility Score: inf
ROOT
ATOM      1  C   UNL     1       3.529  13.528   9.829  1.00  0.00     0.006 C 
ENDROOT
BRANCH   1   2
ATOM      2  C   UNL     1       3.523  13.228   8.327  1.00  0.00     0.053 C 
BRANCH   2   3
ATOM      3  C   UNL     1       2.405  13.957   7.651  1.00  0.00     0.041 C 
ATOM      4  O   UNL     1       1.706  14.783   8.295  1.00  0.00    -0.550 OA
ATOM      5  O   UNL     1       2.102  13.688   6.322  1.00  0.00    -0.550 OA
ENDBRANCH   2   3
ENDBRANCH   1   2
BRANCH   1   6
ATOM      6  C   UNL     1       4.865  13.126  10.465  1.00  0.00     0.000 C 
BRANCH   6   7
ATOM      7  C   UNL     1       5.227  14.062  11.623  1.00  0.00    -0.000 C 
BRANCH   7   8
ATOM      8  C   UNL     1       3.980  14.758  12.179  1.00  0.00    -0.003 C 
ATOM      9  C   UNL     1       3.987  14.767  13.705  1.00  0.00     0.004 C 
ENDBRANCH   7   8
ENDBRANCH   6   7
ENDBRANCH   1   6
TORSDOF 5
ENDMDL
MODEL 5
REMARK VINA RESULT:    -3.076      3.146      4.620
REMARK INTER + INTRA:          -4.302
REMARK INTER:                  -4.084
REMARK INTRA:                  -0.218
REMARK UNBOUND:                -0.326
REMARK SMILES CCCCCCC(=O)[O-]
REMARK SMILES IDX 5 1 6 2 7 3 8 4 9 5 4 6 3 7 2 8 1 9
REMARK H PARENT
REMARK Flexibility Score: inf
ROOT
ATOM      1  C   UNL     1       2.462  13.812  10.890  1.00  0.00     0.006 C 
ENDROOT
BRANCH   1   2
ATOM      2  C   UNL     1       2.253  14.281   9.447  1.00  0.00     0.053 C 
BRANCH   2   3
ATOM      3  C   UNL     1       1.068  15.189   9.357  1.00  0.00     0.041 C 
ATOM      4  O   UNL     1      -0.096  14.711   9.316  1.00  0.00    -0.550 OA
ATOM      5  O   UNL     1       1.251  16.563   9.268  1.00  0.00    -0.550 OA
ENDBRANCH   2   3
ENDBRANCH   1   2
BRANCH   1   6
ATOM      6  C   UNL     1       3.090  14.919  11.744  1.00  0.00     0.000 C 
BRANCH   6   7
ATOM      7  C   UNL     1       4.383  14.434  12.411  1.00  0.00    -0.000 C 
BRANCH   7   8
ATOM      8  C   UNL     1       5.408  13.990  11.362  1.00  0.00    -0.003 C 
ATOM      9  C   UNL     1       6.331  12.908  11.917  1.00  0.00     0.004 C 
ENDBRANCH   7   8
ENDBRANCH   6   7
ENDBRANCH   1   6
TORSDOF 5
ENDMDL
MODEL 6
REMARK VINA RESULT:    -3.075      1.653      2.782
REMARK INTER + INTRA:          -4.300
REMARK INTER:                  -3.979
REMARK INTRA:                  -0.321
REMARK UNBOUND:                -0.326
REMARK SMILES CCCCCCC(=O)[O-]
REMARK SMILES IDX 5 1 6 2 7 3 8 4 9 5 4 6 3 7 2 8 1 9
REMARK H PARENT
REMARK Flexibility Score: inf
ROOT
ATOM      1  C   UNL     1       2.403  14.156  11.019  1.00  0.00     0.006 C 
ENDROOT
BRANCH   1   2
ATOM      2  C   UNL     1       3.758  14.347  11.706  1.00  0.00     0.053 C 
BRANCH   2   3
ATOM      3  C   UNL     1       4.841  13.670  10.928  1.00  0.00     0.041 C 
ATOM      4  O   UNL     1       6.023  14.101  10.978  1.00  0.00    -0.550 OA
ATOM      5  O   UNL     1       4.536  12.591  10.107  1.00  0.00    -0.550 OA
ENDBRANCH   2   3
ENDBRANCH   1   2
BRANCH   1   6
ATOM      6  C   UNL     1       1.866  15.486  10.479  1.00  0.00     0.000 C 
BRANCH   6   7
ATOM      7  C   UNL     1       1.475  15.364   9.002  1.00  0.00    -0.000 C 
BRANCH   7   8
ATOM      8  C   UNL     1       1.777  13.959   8.468  1.00  0.00    -0.003 C 
ATOM      9  C   UNL     1       2.555  14.023   7.157  1.00  0.00     0.004 C 
ENDBRANCH   7   8
ENDBRANCH   6   7
ENDBRANCH   1   6
TORSDOF 5
ENDMDL
MODEL 7
REMARK VINA RESULT:    -3.041      2.661      3.271
REMARK INTER + INTRA:          -4.255
REMARK INTER:                  -3.981
REMARK INTRA:                  -0.274
REMARK UNBOUND:                -0.326
REMARK SMILES CCCCCCC(=O)[O-]
REMARK SMILES IDX 5 1 6 2 7 3 8 4 9 5 4 6 3 7 2 8 1 9
REMARK H PARENT
REMARK Flexibility Score: inf
ROOT
ATOM      1  C   UNL     1       4.294  14.568  12.304  1.00  0.00     0.006 C 
ENDROOT
BRANCH   1   2
ATOM      2  C   UNL     1       5.272  13.986  11.279  1.00  0.00     0.053 C 
BRANCH   2   3
ATOM      3  C   UNL     1       5.966  12.785  11.838  1.00  0.00     0.041 C 
ATOM      4  O   UNL     1       7.222  12.706  11.806  1.00  0.00    -0.550 OA
ATOM      5  O   UNL     1       5.223  11.729  12.351  1.00  0.00    -0.550 OA
ENDBRANCH   2   3
ENDBRANCH   1   2
BRANCH   1   6
ATOM      6  C   UNL     1       2.954  14.922  11.649  1.00  0.00     0.000 C 
BRANCH   6   7
ATOM      7  C   UNL     1       2.611  13.935  10.528  1.00  0.00    -0.000 C 
BRANCH   7   8
ATOM      8  C   UNL     1       1.857  14.634   9.391  1.00  0.00    -0.003 C 
ATOM      9  C   UNL     1       1.460  16.054   9.784  1.00  0.00     0.004 C 
ENDBRANCH   7   8
ENDBRANCH   6   7
ENDBRANCH   1   6
TORSDOF 5
ENDMDL
MODEL 8
REMARK VINA RESULT:    -3.030      1.629      2.434
REMARK INTER + INTRA:          -4.242
REMARK INTER:                  -3.926
REMARK INTRA:                  -0.316
REMARK UNBOUND:                -0.326
REMARK SMILES CCCCCCC(=O)[O-]
REMARK SMILES IDX 5 1 6 2 7 3 8 4 9 5 4 6 3 7 2 8 1 9
REMARK H PARENT
REMARK Flexibility Score: inf
ROOT
ATOM      1  C   UNL     1       3.364  12.854   9.374  1.00  0.00     0.006 C 
ENDROOT
BRANCH   1   2
ATOM      2  C   UNL     1       4.455  13.499  10.233  1.00  0.00     0.053 C 
BRANCH   2   3
ATOM      3  C   UNL     1       3.875  14.031  11.505  1.00  0.00     0.041 C 
ATOM      4  O   UNL     1       4.565  14.765  12.259  1.00  0.00    -0.550 OA
ATOM      5  O   UNL     1       2.586  13.675  11.883  1.00  0.00    -0.550 OA
ENDBRANCH   2   3
ENDBRANCH   1   2
BRANCH   1   6
ATOM      6  C   UNL     1       3.452  13.333   7.920  1.00  0.00     0.000 C 
BRANCH   6   7
ATOM      7  C   UNL     1       2.238  14.192   7.548  1.00  0.00    -0.000 C 
BRANCH   7   8
ATOM      8  C   UNL     1       1.267  14.312   8.728  1.00  0.00    -0.003 C 
ATOM      9  C   UNL     1       1.176  15.752   9.224  1.00  0.00     0.004 C 
ENDBRANCH   7   8
ENDBRANCH   6   7
ENDBRANCH   1   6
TORSDOF 5
ENDMDL
MODEL 9
REMARK VINA RESULT:    -3.012      3.395      4.579
REMARK INTER + INTRA:          -4.218
REMARK INTER:                  -3.928
REMARK INTRA:                  -0.291
REMARK UNBOUND:                -0.326
REMARK SMILES CCCCCCC(=O)[O-]
REMARK SMILES IDX 5 1 6 2 7 3 8 4 9 5 4 6 3 7 2 8 1 9
REMARK H PARENT
REMARK Flexibility Score: inf
ROOT
ATOM      1  C   UNL     1       6.866  12.766  11.563  1.00  0.00     0.006 C 
ENDROOT
BRANCH   1   2
ATOM      2  C   UNL     1       6.147  11.423  11.403  1.00  0.00     0.053 C 
BRANCH   2   3
ATOM      3  C   UNL     1       6.858  10.563  10.408  1.00  0.00     0.041 C 
ATOM      4  O   UNL     1       6.465  10.516   9.213  1.00  0.00    -0.550 OA
ATOM      5  O   UNL     1       7.928   9.773  10.811  1.00  0.00    -0.550 OA
ENDBRANCH   2   3
ENDBRANCH   1   2
BRANCH   1   6
ATOM      6  C   UNL     1       5.987  13.924  11.075  1.00  0.00     0.000 C 
BRANCH   6   7
ATOM      7  C   UNL     1       4.582  13.432  10.708  1.00  0.00    -0.000 C 
BRANCH   7   8
ATOM      8  C   UNL     1       3.508  14.232  11.454  1.00  0.00    -0.003 C 
ATOM      9  C   UNL     1       4.118  15.051  12.588  1.00  0.00     0.004 C 
ENDBRANCH   7   8
ENDBRANCH   6   7
ENDBRANCH   1   6
TORSDOF 5
ENDMDL
