MODEL 1
REMARK VINA RESULT:    -4.281      0.000      0.000
REMARK INTER + INTRA:          -5.378
REMARK INTER:                  -5.282
REMARK INTRA:                  -0.096
REMARK UNBOUND:                -0.096
REMARK SMILES CCCCCC(=O)[O-]
REMARK SMILES IDX 4 1 5 2 6 3 7 4 8 5 3 6 2 7 1 8
REMARK H PARENT
REMARK Flexibility Score: inf
ROOT
ATOM      1  C   UNL     1      88.027 326.119 193.605  1.00  0.00     0.006 C 
ENDROOT
BRANCH   1   2
ATOM      2  C   UNL     1      88.463 326.461 195.042  1.00  0.00     0.053 C 
BRANCH   2   3
ATOM      3  C   UNL     1      87.460 326.034 196.068  1.00  0.00     0.041 C 
ATOM      4  O   UNL     1      86.249 326.362 195.951  1.00  0.00    -0.550 OA
ATOM      5  O   UNL     1      87.855 325.245 197.141  1.00  0.00    -0.550 OA
ENDBRANCH   2   3
ENDBRANCH   1   2
BRANCH   1   6
ATOM      6  C   UNL     1      88.114 324.619 193.266  1.00  0.00     0.000 C 
BRANCH   6   7
ATOM      7  C   UNL     1      87.816 324.318 191.791  1.00  0.00    -0.003 C 
ATOM      8  C   UNL     1      86.486 323.584 191.638  1.00  0.00     0.004 C 
ENDBRANCH   6   7
ENDBRANCH   1   6
TORSDOF 4
ENDMDL
MODEL 2
REMARK VINA RESULT:    -4.262      0.166      1.149
REMARK INTER + INTRA:          -5.354
REMARK INTER:                  -5.275
REMARK INTRA:                  -0.079
REMARK UNBOUND:                -0.096
REMARK SMILES CCCCCC(=O)[O-]
REMARK SMILES IDX 4 1 5 2 6 3 7 4 8 5 3 6 2 7 1 8
REMARK H PARENT
REMARK Flexibility Score: inf
ROOT
ATOM      1  C   UNL     1      87.951 326.036 193.644  1.00  0.00     0.006 C 
ENDROOT
BRANCH   1   2
ATOM      2  C   UNL     1      88.506 326.381 195.038  1.00  0.00     0.053 C 
BRANCH   2   3
ATOM      3  C   UNL     1      87.523 326.113 196.135  1.00  0.00     0.041 C 
ATOM      4  O   UNL     1      87.911 325.639 197.236  1.00  0.00    -0.550 OA
ATOM      5  O   UNL     1      86.180 326.415 195.954  1.00  0.00    -0.550 OA
ENDBRANCH   2   3
ENDBRANCH   1   2
BRANCH   1   6
ATOM      6  C   UNL     1      88.165 324.567 193.233  1.00  0.00     0.000 C 
BRANCH   6   7
ATOM      7  C   UNL     1      87.829 324.301 191.759  1.00  0.00    -0.003 C 
ATOM      8  C   UNL     1      86.494 323.573 191.622  1.00  0.00     0.004 C 
ENDBRANCH   6   7
ENDBRANCH   1   6
TORSDOF 4
ENDMDL
MODEL 3
REMARK VINA RESULT:    -4.236     20.608     21.364
REMARK INTER + INTRA:          -5.323
REMARK INTER:                  -5.255
REMARK INTRA:                  -0.068
REMARK UNBOUND:                -0.096
REMARK SMILES CCCCCC(=O)[O-]
REMARK SMILES IDX 4 1 5 2 6 3 7 4 8 5 3 6 2 7 1 8
REMARK H PARENT
REMARK Flexibility Score: inf
ROOT
ATOM      1  C   UNL     1     103.985 311.485 193.386  1.00  0.00     0.006 C 
ENDROOT
BRANCH   1   2
ATOM      2  C   UNL     1     103.637 312.157 194.726  1.00  0.00     0.053 C 
BRANCH   2   3
ATOM      3  C   UNL     1     104.657 311.890 195.789  1.00  0.00     0.041 C 
ATOM      4  O   UNL     1     104.341 311.958 197.007  1.00  0.00    -0.550 OA
ATOM      5  O   UNL     1     105.953 311.537 195.437  1.00  0.00    -0.550 OA
ENDBRANCH   2   3
ENDBRANCH   1   2
BRANCH   1   6
ATOM      6  C   UNL     1     104.721 312.409 192.396  1.00  0.00     0.000 C 
BRANCH   6   7
ATOM      7  C   UNL     1     103.931 313.681 192.061  1.00  0.00    -0.003 C 
ATOM      8  C   UNL     1     103.950 313.959 190.560  1.00  0.00     0.004 C 
ENDBRANCH   6   7
ENDBRANCH   1   6
TORSDOF 4
ENDMDL
MODEL 4
REMARK VINA RESULT:    -4.222     21.075     21.901
REMARK INTER + INTRA:          -5.306
REMARK INTER:                  -5.099
REMARK INTRA:                  -0.206
REMARK UNBOUND:                -0.096
REMARK SMILES CCCCCC(=O)[O-]
REMARK SMILES IDX 4 1 5 2 6 3 7 4 8 5 3 6 2 7 1 8
REMARK H PARENT
REMARK Flexibility Score: inf
ROOT
ATOM      1  C   UNL     1     104.057 312.222 193.005  1.00  0.00     0.006 C 
ENDROOT
BRANCH   1   2
ATOM      2  C   UNL     1     104.152 313.072 191.724  1.00  0.00     0.053 C 
BRANCH   2   3
ATOM      3  C   UNL     1     105.253 314.085 191.783  1.00  0.00     0.041 C 
ATOM      4  O   UNL     1     105.462 314.737 192.840  1.00  0.00    -0.550 OA
ATOM      5  O   UNL     1     106.069 314.290 190.678  1.00  0.00    -0.550 OA
ENDBRANCH   2   3
ENDBRANCH   1   2
BRANCH   1   6
ATOM      6  C   UNL     1     105.273 311.305 193.238  1.00  0.00     0.000 C 
BRANCH   6   7
ATOM      7  C   UNL     1     106.002 311.599 194.556  1.00  0.00    -0.003 C 
ATOM      8  C   UNL     1     105.019 312.022 195.645  1.00  0.00     0.004 C 
ENDBRANCH   6   7
ENDBRANCH   1   6
TORSDOF 4
ENDMDL
MODEL 5
REMARK VINA RESULT:    -4.164      1.114      1.617
REMARK INTER + INTRA:          -5.233
REMARK INTER:                  -5.115
REMARK INTRA:                  -0.119
REMARK UNBOUND:                -0.096
REMARK SMILES CCCCCC(=O)[O-]
REMARK SMILES IDX 4 1 5 2 6 3 7 4 8 5 3 6 2 7 1 8
REMARK H PARENT
REMARK Flexibility Score: inf
ROOT
ATOM      1  C   UNL     1      88.042 325.332 193.128  1.00  0.00     0.006 C 
ENDROOT
BRANCH   1   2
ATOM      2  C   UNL     1      87.945 326.617 193.970  1.00  0.00     0.053 C 
BRANCH   2   3
ATOM      3  C   UNL     1      88.108 326.361 195.436  1.00  0.00     0.041 C 
ATOM      4  O   UNL     1      89.238 326.475 195.981  1.00  0.00    -0.550 OA
ATOM      5  O   UNL     1      87.005 326.026 196.211  1.00  0.00    -0.550 OA
ENDBRANCH   2   3
ENDBRANCH   1   2
BRANCH   1   6
ATOM      6  C   UNL     1      86.701 324.592 192.960  1.00  0.00     0.000 C 
BRANCH   6   7
ATOM      7  C   UNL     1      86.667 323.682 191.724  1.00  0.00    -0.003 C 
ATOM      8  C   UNL     1      87.968 323.786 190.931  1.00  0.00     0.004 C 
ENDBRANCH   6   7
ENDBRANCH   1   6
TORSDOF 4
ENDMDL
MODEL 6
REMARK VINA RESULT:    -4.136      1.475      1.856
REMARK INTER + INTRA:          -5.199
REMARK INTER:                  -5.014
REMARK INTRA:                  -0.185
REMARK UNBOUND:                -0.096
REMARK SMILES CCCCCC(=O)[O-]
REMARK SMILES IDX 4 1 5 2 6 3 7 4 8 5 3 6 2 7 1 8
REMARK H PARENT
REMARK Flexibility Score: inf
ROOT
ATOM      1  C   UNL     1      86.934 326.851 194.424  1.00  0.00     0.006 C 
ENDROOT
BRANCH   1   2
ATOM      2  C   UNL     1      86.610 326.199 195.780  1.00  0.00     0.053 C 
BRANCH   2   3
ATOM      3  C   UNL     1      87.836 325.760 196.519  1.00  0.00     0.041 C 
ATOM      4  O   UNL     1      88.037 324.539 196.750  1.00  0.00    -0.550 OA
ATOM      5  O   UNL     1      88.775 326.699 196.928  1.00  0.00    -0.550 OA
ENDBRANCH   2   3
ENDBRANCH   1   2
BRANCH   1   6
ATOM      6  C   UNL     1      88.140 326.222 193.701  1.00  0.00     0.000 C 
BRANCH   6   7
ATOM      7  C   UNL     1      87.750 325.048 192.792  1.00  0.00    -0.003 C 
ATOM      8  C   UNL     1      88.327 323.735 193.314  1.00  0.00     0.004 C 
ENDBRANCH   6   7
ENDBRANCH   1   6
TORSDOF 4
ENDMDL
MODEL 7
REMARK VINA RESULT:    -4.120      2.383      4.236
REMARK INTER + INTRA:          -5.180
REMARK INTER:                  -5.017
REMARK INTRA:                  -0.163
REMARK UNBOUND:                -0.096
REMARK SMILES CCCCCC(=O)[O-]
REMARK SMILES IDX 4 1 5 2 6 3 7 4 8 5 3 6 2 7 1 8
REMARK H PARENT
REMARK Flexibility Score: inf
ROOT
ATOM      1  C   UNL     1      86.923 326.848 194.424  1.00  0.00     0.006 C 
ENDROOT
BRANCH   1   2
ATOM      2  C   UNL     1      87.974 325.953 193.742  1.00  0.00     0.053 C 
BRANCH   2   3
ATOM      3  C   UNL     1      87.367 324.979 192.780  1.00  0.00     0.041 C 
ATOM      4  O   UNL     1      86.221 324.502 192.994  1.00  0.00    -0.550 OA
ATOM      5  O   UNL     1      88.055 324.618 191.629  1.00  0.00    -0.550 OA
ENDBRANCH   2   3
ENDBRANCH   1   2
BRANCH   1   6
ATOM      6  C   UNL     1      86.583 326.424 195.866  1.00  0.00     0.000 C 
BRANCH   6   7
ATOM      7  C   UNL     1      87.699 325.604 196.529  1.00  0.00    -0.003 C 
ATOM      8  C   UNL     1      88.383 326.403 197.636  1.00  0.00     0.004 C 
ENDBRANCH   6   7
ENDBRANCH   1   6
TORSDOF 4
ENDMDL
MODEL 8
REMARK VINA RESULT:    -4.113     20.707     21.442
REMARK INTER + INTRA:          -5.171
REMARK INTER:                  -4.936
REMARK INTRA:                  -0.235
REMARK UNBOUND:                -0.096
REMARK SMILES CCCCCC(=O)[O-]
REMARK SMILES IDX 4 1 5 2 6 3 7 4 8 5 3 6 2 7 1 8
REMARK H PARENT
REMARK Flexibility Score: inf
ROOT
ATOM      1  C   UNL     1     105.809 312.091 193.619  1.00  0.00     0.006 C 
ENDROOT
BRANCH   1   2
ATOM      2  C   UNL     1     105.800 311.656 195.096  1.00  0.00     0.053 C 
BRANCH   2   3
ATOM      3  C   UNL     1     104.643 312.223 195.859  1.00  0.00     0.041 C 
ATOM      4  O   UNL     1     104.512 313.469 195.982  1.00  0.00    -0.550 OA
ATOM      5  O   UNL     1     103.691 311.375 196.410  1.00  0.00    -0.550 OA
ENDBRANCH   2   3
ENDBRANCH   1   2
BRANCH   1   6
ATOM      6  C   UNL     1     104.484 311.821 192.880  1.00  0.00     0.000 C 
BRANCH   6   7
ATOM      7  C   UNL     1     104.121 312.925 191.877  1.00  0.00    -0.003 C 
ATOM      8  C   UNL     1     103.798 314.234 192.594  1.00  0.00     0.004 C 
ENDBRANCH   6   7
ENDBRANCH   1   6
TORSDOF 4
ENDMDL
MODEL 9
REMARK VINA RESULT:    -4.082      2.943      4.497
REMARK INTER + INTRA:          -5.133
REMARK INTER:                  -5.040
REMARK INTRA:                  -0.093
REMARK UNBOUND:                -0.096
REMARK SMILES CCCCCC(=O)[O-]
REMARK SMILES IDX 4 1 5 2 6 3 7 4 8 5 3 6 2 7 1 8
REMARK H PARENT
REMARK Flexibility Score: inf
ROOT
ATOM      1  C   UNL     1      87.305 325.478 193.437  1.00  0.00     0.006 C 
ENDROOT
BRANCH   1   2
ATOM      2  C   UNL     1      88.033 324.553 192.445  1.00  0.00     0.053 C 
BRANCH   2   3
ATOM      3  C   UNL     1      87.091 323.821 191.539  1.00  0.00     0.041 C 
ATOM      4  O   UNL     1      85.875 323.704 191.845  1.00  0.00    -0.550 OA
ATOM      5  O   UNL     1      87.550 323.293 190.339  1.00  0.00    -0.550 OA
ENDBRANCH   2   3
ENDBRANCH   1   2
BRANCH   1   6
ATOM      6  C   UNL     1      88.177 326.630 193.972  1.00  0.00     0.000 C 
BRANCH   6   7
ATOM      7  C   UNL     1      88.650 326.405 195.415  1.00  0.00    -0.003 C 
ATOM      8  C   UNL     1      87.524 325.846 196.281  1.00  0.00     0.004 C 
ENDBRANCH   6   7
ENDBRANCH   1   6
TORSDOF 4
ENDMDL
