MODEL 1
REMARK VINA RESULT:    -4.892      0.000      0.000
REMARK INTER + INTRA:          -7.059
REMARK INTER:                  -6.608
REMARK INTRA:                  -0.451
REMARK UNBOUND:                -0.451
REMARK SMILES CCCCCCC=CC(=O)[O-]
REMARK SMILES IDX 5 1 6 2 7 3 8 4 9 5 10 6 11 7 4 8 3 9 2 10 1 11
REMARK H PARENT
REMARK Flexibility Score: inf
ROOT
ATOM      1  C   UNL     1      15.505  15.929  28.515  1.00  0.00     0.004 C 
ENDROOT
BRANCH   1   2
ATOM      2  C   UNL     1      14.667  17.006  27.806  1.00  0.00     0.027 C 
BRANCH   2   3
ATOM      3  C   UNL     1      14.711  16.869  26.306  1.00  0.00    -0.025 C 
ATOM      4  C   UNL     1      13.666  16.599  25.506  1.00  0.00     0.020 C 
BRANCH   4   5
ATOM      5  C   UNL     1      12.257  16.436  25.921  1.00  0.00     0.064 C 
ATOM      6  O   UNL     1      11.884  15.328  26.386  1.00  0.00    -0.545 OA
ATOM      7  O   UNL     1      11.322  17.454  25.786  1.00  0.00    -0.545 OA
ENDBRANCH   4   5
ENDBRANCH   2   3
ENDBRANCH   1   2
BRANCH   1   8
ATOM      8  C   UNL     1      14.709  14.631  28.733  1.00  0.00     0.000 C 
BRANCH   8   9
ATOM      9  C   UNL     1      13.841  14.677  30.001  1.00  0.00    -0.000 C 
BRANCH   9  10
ATOM     10  C   UNL     1      14.603  14.223  31.255  1.00  0.00    -0.003 C 
ATOM     11  C   UNL     1      15.341  12.912  31.005  1.00  0.00     0.004 C 
ENDBRANCH   9  10
ENDBRANCH   8   9
ENDBRANCH   1   8
TORSDOF 6
ENDMDL
MODEL 2
REMARK VINA RESULT:    -4.825      1.092      1.397
REMARK INTER + INTRA:          -6.969
REMARK INTER:                  -6.603
REMARK INTRA:                  -0.365
REMARK UNBOUND:                -0.451
REMARK SMILES CCCCCCC=CC(=O)[O-]
REMARK SMILES IDX 5 1 6 2 7 3 8 4 9 5 10 6 11 7 4 8 3 9 2 10 1 11
REMARK H PARENT
REMARK Flexibility Score: inf
ROOT
ATOM      1  C   UNL     1      15.454  15.746  29.013  1.00  0.00     0.004 C 
ENDROOT
BRANCH   1   2
ATOM      2  C   UNL     1      15.226  16.386  27.635  1.00  0.00     0.027 C 
BRANCH   2   3
ATOM      3  C   UNL     1      14.079  17.363  27.640  1.00  0.00    -0.025 C 
ATOM      4  C   UNL     1      12.987  17.306  26.859  1.00  0.00     0.020 C 
BRANCH   4   5
ATOM      5  C   UNL     1      12.659  16.248  25.880  1.00  0.00     0.064 C 
ATOM      6  O   UNL     1      11.852  15.341  26.211  1.00  0.00    -0.545 OA
ATOM      7  O   UNL     1      13.236  16.203  24.618  1.00  0.00    -0.545 OA
ENDBRANCH   4   5
ENDBRANCH   2   3
ENDBRANCH   1   2
BRANCH   1   8
ATOM      8  C   UNL     1      14.346  14.740  29.371  1.00  0.00     0.000 C 
BRANCH   8   9
ATOM      9  C   UNL     1      14.895  13.335  29.662  1.00  0.00    -0.000 C 
BRANCH   9  10
ATOM     10  C   UNL     1      15.232  13.128  31.146  1.00  0.00    -0.003 C 
ATOM     11  C   UNL     1      14.395  14.044  32.033  1.00  0.00     0.004 C 
ENDBRANCH   9  10
ENDBRANCH   8   9
ENDBRANCH   1   8
TORSDOF 6
ENDMDL
MODEL 3
REMARK VINA RESULT:    -4.650      2.456      5.159
REMARK INTER + INTRA:          -6.732
REMARK INTER:                  -6.158
REMARK INTRA:                  -0.574
REMARK UNBOUND:                -0.451
REMARK SMILES CCCCCCC=CC(=O)[O-]
REMARK SMILES IDX 5 1 6 2 7 3 8 4 9 5 10 6 11 7 4 8 3 9 2 10 1 11
REMARK H PARENT
REMARK Flexibility Score: inf
ROOT
ATOM      1  C   UNL     1      14.883  16.844  26.294  1.00  0.00     0.004 C 
ENDROOT
BRANCH   1   2
ATOM      2  C   UNL     1      14.491  17.307  27.707  1.00  0.00     0.027 C 
BRANCH   2   3
ATOM      3  C   UNL     1      13.216  16.665  28.187  1.00  0.00    -0.025 C 
ATOM      4  C   UNL     1      13.119  15.512  28.870  1.00  0.00     0.020 C 
BRANCH   4   5
ATOM      5  C   UNL     1      14.238  14.669  29.338  1.00  0.00     0.064 C 
ATOM      6  O   UNL     1      14.943  14.066  28.487  1.00  0.00    -0.545 OA
ATOM      7  O   UNL     1      14.520  14.492  30.686  1.00  0.00    -0.545 OA
ENDBRANCH   4   5
ENDBRANCH   2   3
ENDBRANCH   1   2
BRANCH   1   8
ATOM      8  C   UNL     1      13.910  17.371  25.226  1.00  0.00     0.000 C 
BRANCH   8   9
ATOM      9  C   UNL     1      13.045  16.258  24.614  1.00  0.00    -0.000 C 
BRANCH   9  10
ATOM     10  C   UNL     1      11.612  16.722  24.311  1.00  0.00    -0.003 C 
ATOM     11  C   UNL     1      11.190  17.850  25.247  1.00  0.00     0.004 C 
ENDBRANCH   9  10
ENDBRANCH   8   9
ENDBRANCH   1   8
TORSDOF 6
ENDMDL
MODEL 4
REMARK VINA RESULT:    -4.577      1.594      2.172
REMARK INTER + INTRA:          -6.634
REMARK INTER:                  -6.361
REMARK INTRA:                  -0.273
REMARK UNBOUND:                -0.451
REMARK SMILES CCCCCCC=CC(=O)[O-]
REMARK SMILES IDX 5 1 6 2 7 3 8 4 9 5 10 6 11 7 4 8 3 9 2 10 1 11
REMARK H PARENT
REMARK Flexibility Score: inf
ROOT
ATOM      1  C   UNL     1      13.614  15.814  27.233  1.00  0.00     0.004 C 
ENDROOT
BRANCH   1   2
ATOM      2  C   UNL     1      13.581  17.289  26.801  1.00  0.00     0.027 C 
BRANCH   2   3
ATOM      3  C   UNL     1      12.180  17.842  26.758  1.00  0.00    -0.025 C 
ATOM      4  C   UNL     1      11.372  17.867  25.686  1.00  0.00     0.020 C 
BRANCH   4   5
ATOM      5  C   UNL     1      11.666  17.311  24.348  1.00  0.00     0.064 C 
ATOM      6  O   UNL     1      12.085  18.083  23.447  1.00  0.00    -0.545 OA
ATOM      7  O   UNL     1      11.465  15.972  24.042  1.00  0.00    -0.545 OA
ENDBRANCH   4   5
ENDBRANCH   2   3
ENDBRANCH   1   2
BRANCH   1   8
ATOM      8  C   UNL     1      14.542  15.587  28.439  1.00  0.00     0.000 C 
BRANCH   8   9
ATOM      9  C   UNL     1      13.866  14.782  29.560  1.00  0.00    -0.000 C 
BRANCH   9  10
ATOM     10  C   UNL     1      14.873  13.990  30.408  1.00  0.00    -0.003 C 
ATOM     11  C   UNL     1      14.488  14.016  31.884  1.00  0.00     0.004 C 
ENDBRANCH   9  10
ENDBRANCH   8   9
ENDBRANCH   1   8
TORSDOF 6
ENDMDL
MODEL 5
REMARK VINA RESULT:    -4.543      2.977      5.256
REMARK INTER + INTRA:          -6.587
REMARK INTER:                  -6.045
REMARK INTRA:                  -0.542
REMARK UNBOUND:                -0.451
REMARK SMILES CCCCCCC=CC(=O)[O-]
REMARK SMILES IDX 5 1 6 2 7 3 8 4 9 5 10 6 11 7 4 8 3 9 2 10 1 11
REMARK H PARENT
REMARK Flexibility Score: inf
ROOT
ATOM      1  C   UNL     1      15.553  16.630  27.592  1.00  0.00     0.004 C 
ENDROOT
BRANCH   1   2
ATOM      2  C   UNL     1      15.245  15.838  28.873  1.00  0.00     0.027 C 
BRANCH   2   3
ATOM      3  C   UNL     1      14.797  14.429  28.580  1.00  0.00    -0.025 C 
ATOM      4  C   UNL     1      14.727  13.421  29.465  1.00  0.00     0.020 C 
BRANCH   4   5
ATOM      5  C   UNL     1      15.019  13.498  30.912  1.00  0.00     0.064 C 
ATOM      6  O   UNL     1      15.942  12.786  31.385  1.00  0.00    -0.545 OA
ATOM      7  O   UNL     1      14.287  14.305  31.774  1.00  0.00    -0.545 OA
ENDBRANCH   4   5
ENDBRANCH   2   3
ENDBRANCH   1   2
BRANCH   1   8
ATOM      8  C   UNL     1      14.302  17.325  27.029  1.00  0.00     0.000 C 
BRANCH   8   9
ATOM      9  C   UNL     1      14.126  17.095  25.520  1.00  0.00    -0.000 C 
BRANCH   9  10
ATOM     10  C   UNL     1      13.338  15.815  25.205  1.00  0.00    -0.003 C 
ATOM     11  C   UNL     1      12.169  15.638  26.169  1.00  0.00     0.004 C 
ENDBRANCH   9  10
ENDBRANCH   8   9
ENDBRANCH   1   8
TORSDOF 6
ENDMDL
MODEL 6
REMARK VINA RESULT:    -4.479      2.739      5.572
REMARK INTER + INTRA:          -6.502
REMARK INTER:                  -6.136
REMARK INTRA:                  -0.365
REMARK UNBOUND:                -0.451
REMARK SMILES CCCCCCC=CC(=O)[O-]
REMARK SMILES IDX 5 1 6 2 7 3 8 4 9 5 10 6 11 7 4 8 3 9 2 10 1 11
REMARK H PARENT
REMARK Flexibility Score: inf
ROOT
ATOM      1  C   UNL     1      13.427  15.488  25.912  1.00  0.00     0.004 C 
ENDROOT
BRANCH   1   2
ATOM      2  C   UNL     1      13.293  15.525  27.443  1.00  0.00     0.027 C 
BRANCH   2   3
ATOM      3  C   UNL     1      14.546  16.023  28.116  1.00  0.00    -0.025 C 
ATOM      4  C   UNL     1      15.117  15.500  29.213  1.00  0.00     0.020 C 
BRANCH   4   5
ATOM      5  C   UNL     1      14.669  14.301  29.952  1.00  0.00     0.064 C 
ATOM      6  O   UNL     1      14.108  14.448  31.068  1.00  0.00    -0.545 OA
ATOM      7  O   UNL     1      14.875  13.014  29.471  1.00  0.00    -0.545 OA
ENDBRANCH   4   5
ENDBRANCH   2   3
ENDBRANCH   1   2
BRANCH   1   8
ATOM      8  C   UNL     1      13.333  16.893  25.292  1.00  0.00     0.000 C 
BRANCH   8   9
ATOM      9  C   UNL     1      12.376  16.945  24.091  1.00  0.00    -0.000 C 
BRANCH   9  10
ATOM     10  C   UNL     1      11.080  17.709  24.401  1.00  0.00    -0.003 C 
ATOM     11  C   UNL     1      11.026  18.125  25.868  1.00  0.00     0.004 C 
ENDBRANCH   9  10
ENDBRANCH   8   9
ENDBRANCH   1   8
TORSDOF 6
ENDMDL
MODEL 7
REMARK VINA RESULT:    -4.424      2.837      5.334
REMARK INTER + INTRA:          -6.427
REMARK INTER:                  -5.879
REMARK INTRA:                  -0.548
REMARK UNBOUND:                -0.451
REMARK SMILES CCCCCCC=CC(=O)[O-]
REMARK SMILES IDX 5 1 6 2 7 3 8 4 9 5 10 6 11 7 4 8 3 9 2 10 1 11
REMARK H PARENT
REMARK Flexibility Score: inf
ROOT
ATOM      1  C   UNL     1      12.378  15.930  26.713  1.00  0.00     0.004 C 
ENDROOT
BRANCH   1   2
ATOM      2  C   UNL     1      12.846  15.522  28.120  1.00  0.00     0.027 C 
BRANCH   2   3
ATOM      3  C   UNL     1      14.287  15.883  28.370  1.00  0.00    -0.025 C 
ATOM      4  C   UNL     1      15.101  15.310  29.273  1.00  0.00     0.020 C 
BRANCH   4   5
ATOM      5  C   UNL     1      14.771  14.177  30.162  1.00  0.00     0.064 C 
ATOM      6  O   UNL     1      14.356  14.418  31.326  1.00  0.00    -0.545 OA
ATOM      7  O   UNL     1      14.933  12.855  29.770  1.00  0.00    -0.545 OA
ENDBRANCH   4   5
ENDBRANCH   2   3
ENDBRANCH   1   2
BRANCH   1   8
ATOM      8  C   UNL     1      13.456  15.666  25.649  1.00  0.00     0.000 C 
BRANCH   8   9
ATOM      9  C   UNL     1      13.312  16.581  24.422  1.00  0.00    -0.000 C 
BRANCH   9  10
ATOM     10  C   UNL     1      14.106  17.888  24.564  1.00  0.00    -0.003 C 
ATOM     11  C   UNL     1      15.392  17.667  25.355  1.00  0.00     0.004 C 
ENDBRANCH   9  10
ENDBRANCH   8   9
ENDBRANCH   1   8
TORSDOF 6
ENDMDL
MODEL 8
REMARK VINA RESULT:    -3.900      2.792      4.882
REMARK INTER + INTRA:          -5.720
REMARK INTER:                  -5.307
REMARK INTRA:                  -0.412
REMARK UNBOUND:                -0.451
REMARK SMILES CCCCCCC=CC(=O)[O-]
REMARK SMILES IDX 5 1 6 2 7 3 8 4 9 5 10 6 11 7 4 8 3 9 2 10 1 11
REMARK H PARENT
REMARK Flexibility Score: inf
ROOT
ATOM      1  C   UNL     1      14.274  17.205  25.617  1.00  0.00     0.004 C 
ENDROOT
BRANCH   1   2
ATOM      2  C   UNL     1      14.092  15.865  26.347  1.00  0.00     0.027 C 
BRANCH   2   3
ATOM      3  C   UNL     1      13.080  15.951  27.460  1.00  0.00    -0.025 C 
ATOM      4  C   UNL     1      13.250  15.517  28.720  1.00  0.00     0.020 C 
BRANCH   4   5
ATOM      5  C   UNL     1      14.476  14.919  29.287  1.00  0.00     0.064 C 
ATOM      6  O   UNL     1      14.465  13.703  29.612  1.00  0.00    -0.545 OA
ATOM      7  O   UNL     1      15.630  15.659  29.505  1.00  0.00    -0.545 OA
ENDBRANCH   4   5
ENDBRANCH   2   3
ENDBRANCH   1   2
BRANCH   1   8
ATOM      8  C   UNL     1      15.757  17.598  25.496  1.00  0.00     0.000 C 
BRANCH   8   9
ATOM      9  C   UNL     1      16.612  17.039  26.644  1.00  0.00    -0.000 C 
BRANCH   9  10
ATOM     10  C   UNL     1      18.066  16.778  26.225  1.00  0.00    -0.003 C 
ATOM     11  C   UNL     1      18.463  17.658  25.043  1.00  0.00     0.004 C 
ENDBRANCH   9  10
ENDBRANCH   8   9
ENDBRANCH   1   8
TORSDOF 6
ENDMDL
MODEL 9
REMARK VINA RESULT:    -3.898      2.927      5.177
REMARK INTER + INTRA:          -5.716
REMARK INTER:                  -5.572
REMARK INTRA:                  -0.145
REMARK UNBOUND:                -0.451
REMARK SMILES CCCCCCC=CC(=O)[O-]
REMARK SMILES IDX 5 1 6 2 7 3 8 4 9 5 10 6 11 7 4 8 3 9 2 10 1 11
REMARK H PARENT
REMARK Flexibility Score: inf
ROOT
ATOM      1  C   UNL     1      12.860  15.977  27.430  1.00  0.00     0.004 C 
ENDROOT
BRANCH   1   2
ATOM      2  C   UNL     1      13.863  17.103  27.725  1.00  0.00     0.027 C 
BRANCH   2   3
ATOM      3  C   UNL     1      15.257  16.581  27.959  1.00  0.00    -0.025 C 
ATOM      4  C   UNL     1      16.306  16.725  27.131  1.00  0.00     0.020 C 
BRANCH   4   5
ATOM      5  C   UNL     1      16.324  17.470  25.855  1.00  0.00     0.064 C 
ATOM      6  O   UNL     1      17.428  17.852  25.389  1.00  0.00    -0.545 OA
ATOM      7  O   UNL     1      15.160  17.791  25.168  1.00  0.00    -0.545 OA
ENDBRANCH   4   5
ENDBRANCH   2   3
ENDBRANCH   1   2
BRANCH   1   8
ATOM      8  C   UNL     1      12.122  16.198  26.098  1.00  0.00     0.000 C 
BRANCH   8   9
ATOM      9  C   UNL     1      11.606  17.637  25.940  1.00  0.00    -0.000 C 
BRANCH   9  10
ATOM     10  C   UNL     1      11.242  17.978  24.488  1.00  0.00    -0.003 C 
ATOM     11  C   UNL     1      11.948  17.043  23.510  1.00  0.00     0.004 C 
ENDBRANCH   9  10
ENDBRANCH   8   9
ENDBRANCH   1   8
TORSDOF 6
ENDMDL
