MODEL 1
REMARK VINA RESULT:    -5.773      0.000      0.000
REMARK INTER + INTRA:          -5.773
REMARK INTER:                  -5.773
REMARK INTRA:                   0.000
REMARK UNBOUND:                 0.000
REMARK SMILES C=C1CCC[C@]2(C)CC(=O)C(=C(C)C)C[C@H]12
REMARK SMILES IDX 13 1 12 2 11 3 15 4 16 5 2 6 1 7 3 8 4 9 5 10 6 11 8 12 9 13
REMARK SMILES IDX 10 14 7 15 14 16
REMARK H PARENT
REMARK Flexibility Score: inf
ROOT
ATOM      1  C   UNL     1      -7.549  23.244  70.021  1.00  0.00     0.039 C 
ATOM      2  C   UNL     1      -7.818  23.279  68.535  1.00  0.00    -0.070 C 
ATOM      3  C   UNL     1      -7.796  22.142  67.780  1.00  0.00    -0.006 C 
ATOM      4  C   UNL     1      -8.028  22.164  66.283  1.00  0.00     0.047 C 
ATOM      5  C   UNL     1      -7.204  21.098  65.516  1.00  0.00     0.025 C 
ATOM      6  C   UNL     1      -7.691  21.048  64.077  1.00  0.00    -0.073 C 
ATOM      7  C   UNL     1      -7.035  21.708  63.111  1.00  0.00     0.008 C 
ATOM      8  C   UNL     1      -9.015  20.373  63.780  1.00  0.00     0.031 C 
ATOM      9  C   UNL     1      -9.125  19.012  64.479  1.00  0.00     0.005 C 
ATOM     10  C   UNL     1      -8.691  19.063  65.956  1.00  0.00     0.008 C 
ATOM     11  C   UNL     1      -7.269  19.671  66.148  1.00  0.00    -0.018 C 
ATOM     12  C   UNL     1      -6.917  19.733  67.658  1.00  0.00     0.088 C 
ATOM     13  C   UNL     1      -7.679  20.795  68.384  1.00  0.00     0.159 C 
ATOM     14  O   UNL     1      -8.212  20.525  69.494  1.00  0.00    -0.295 OA
ATOM     15  C   UNL     1      -6.211  18.754  65.479  1.00  0.00     0.012 C 
ATOM     16  C   UNL     1      -8.074  24.631  67.910  1.00  0.00     0.039 C 
ENDROOT
TORSDOF 0
ENDMDL
MODEL 2
REMARK VINA RESULT:    -5.576      6.510      8.725
REMARK INTER + INTRA:          -5.576
REMARK INTER:                  -5.576
REMARK INTRA:                   0.000
REMARK UNBOUND:                 0.000
REMARK SMILES C=C1CCC[C@]2(C)CC(=O)C(=C(C)C)C[C@H]12
REMARK SMILES IDX 13 1 12 2 11 3 15 4 16 5 2 6 1 7 3 8 4 9 5 10 6 11 8 12 9 13
REMARK SMILES IDX 10 14 7 15 14 16
REMARK H PARENT
REMARK Flexibility Score: inf
ROOT
ATOM      1  C   UNL     1      -5.697  20.712  60.572  1.00  0.00     0.039 C 
ATOM      2  C   UNL     1      -4.440  21.114  61.308  1.00  0.00    -0.070 C 
ATOM      3  C   UNL     1      -4.029  22.415  61.358  1.00  0.00    -0.006 C 
ATOM      4  C   UNL     1      -2.752  22.830  62.061  1.00  0.00     0.047 C 
ATOM      5  C   UNL     1      -2.031  24.020  61.376  1.00  0.00     0.025 C 
ATOM      6  C   UNL     1      -0.915  24.502  62.287  1.00  0.00    -0.073 C 
ATOM      7  C   UNL     1       0.351  24.106  62.086  1.00  0.00     0.008 C 
ATOM      8  C   UNL     1      -1.277  25.310  63.517  1.00  0.00     0.031 C 
ATOM      9  C   UNL     1      -2.282  26.422  63.188  1.00  0.00     0.005 C 
ATOM     10  C   UNL     1      -3.451  25.930  62.314  1.00  0.00     0.008 C 
ATOM     11  C   UNL     1      -2.976  25.211  61.016  1.00  0.00    -0.018 C 
ATOM     12  C   UNL     1      -4.201  24.704  60.210  1.00  0.00     0.088 C 
ATOM     13  C   UNL     1      -4.864  23.527  60.850  1.00  0.00     0.159 C 
ATOM     14  O   UNL     1      -6.121  23.503  60.949  1.00  0.00    -0.295 OA
ATOM     15  C   UNL     1      -2.224  26.217  60.104  1.00  0.00     0.012 C 
ATOM     16  C   UNL     1      -3.634  20.011  61.954  1.00  0.00     0.039 C 
ENDROOT
TORSDOF 0
ENDMDL
MODEL 3
REMARK VINA RESULT:    -5.545     10.670     12.276
REMARK INTER + INTRA:          -5.545
REMARK INTER:                  -5.545
REMARK INTRA:                   0.000
REMARK UNBOUND:                 0.000
REMARK SMILES C=C1CCC[C@]2(C)CC(=O)C(=C(C)C)C[C@H]12
REMARK SMILES IDX 13 1 12 2 11 3 15 4 16 5 2 6 1 7 3 8 4 9 5 10 6 11 8 12 9 13
REMARK SMILES IDX 10 14 7 15 14 16
REMARK H PARENT
REMARK Flexibility Score: inf
ROOT
ATOM      1  C   UNL     1       4.750  26.066  63.865  1.00  0.00     0.039 C 
ATOM      2  C   UNL     1       4.507  25.997  65.355  1.00  0.00    -0.070 C 
ATOM      3  C   UNL     1       3.285  26.282  65.890  1.00  0.00    -0.006 C 
ATOM      4  C   UNL     1       3.033  26.251  67.385  1.00  0.00     0.047 C 
ATOM      5  C   UNL     1       2.009  27.315  67.858  1.00  0.00     0.025 C 
ATOM      6  C   UNL     1       1.654  27.037  69.310  1.00  0.00    -0.073 C 
ATOM      7  C   UNL     1       2.252  27.716  70.301  1.00  0.00     0.008 C 
ATOM      8  C   UNL     1       0.734  25.875  69.624  1.00  0.00     0.031 C 
ATOM      9  C   UNL     1      -0.500  25.868  68.712  1.00  0.00     0.005 C 
ATOM     10  C   UNL     1      -0.147  26.088  67.230  1.00  0.00     0.008 C 
ATOM     11  C   UNL     1       0.707  27.370  66.995  1.00  0.00    -0.018 C 
ATOM     12  C   UNL     1       1.063  27.504  65.490  1.00  0.00     0.088 C 
ATOM     13  C   UNL     1       2.087  26.507  65.050  1.00  0.00     0.159 C 
ATOM     14  O   UNL     1       1.912  25.875  63.974  1.00  0.00    -0.295 OA
ATOM     15  C   UNL     1      -0.118  28.628  67.374  1.00  0.00     0.012 C 
ATOM     16  C   UNL     1       5.684  25.637  66.232  1.00  0.00     0.039 C 
ENDROOT
TORSDOF 0
ENDMDL
MODEL 4
REMARK VINA RESULT:    -5.532     11.536     12.564
REMARK INTER + INTRA:          -5.532
REMARK INTER:                  -5.532
REMARK INTRA:                   0.000
REMARK UNBOUND:                 0.000
REMARK SMILES C=C1CCC[C@]2(C)CC(=O)C(=C(C)C)C[C@H]12
REMARK SMILES IDX 13 1 12 2 11 3 15 4 16 5 2 6 1 7 3 8 4 9 5 10 6 11 8 12 9 13
REMARK SMILES IDX 10 14 7 15 14 16
REMARK H PARENT
REMARK Flexibility Score: inf
ROOT
ATOM      1  C   UNL     1      -0.075  27.461  70.122  1.00  0.00     0.039 C 
ATOM      2  C   UNL     1       0.431  26.578  69.005  1.00  0.00    -0.070 C 
ATOM      3  C   UNL     1       1.663  26.768  68.451  1.00  0.00    -0.006 C 
ATOM      4  C   UNL     1       2.172  25.915  67.306  1.00  0.00     0.047 C 
ATOM      5  C   UNL     1       3.073  26.692  66.312  1.00  0.00     0.025 C 
ATOM      6  C   UNL     1       3.715  25.698  65.358  1.00  0.00    -0.073 C 
ATOM      7  C   UNL     1       3.194  25.487  64.139  1.00  0.00     0.008 C 
ATOM      8  C   UNL     1       4.856  24.838  65.862  1.00  0.00     0.031 C 
ATOM      9  C   UNL     1       5.896  25.668  66.625  1.00  0.00     0.005 C 
ATOM     10  C   UNL     1       5.260  26.636  67.639  1.00  0.00     0.008 C 
ATOM     11  C   UNL     1       4.177  27.557  67.000  1.00  0.00    -0.018 C 
ATOM     12  C   UNL     1       3.549  28.472  68.085  1.00  0.00     0.088 C 
ATOM     13  C   UNL     1       2.643  27.726  69.012  1.00  0.00     0.159 C 
ATOM     14  O   UNL     1       2.731  27.923  70.254  1.00  0.00    -0.295 OA
ATOM     15  C   UNL     1       4.837  28.492  65.952  1.00  0.00     0.012 C 
ATOM     16  C   UNL     1      -0.500  25.500  68.500  1.00  0.00     0.039 C 
ENDROOT
TORSDOF 0
ENDMDL
MODEL 5
REMARK VINA RESULT:    -5.526      8.056     11.872
REMARK INTER + INTRA:          -5.526
REMARK INTER:                  -5.526
REMARK INTRA:                   0.000
REMARK UNBOUND:                 0.000
REMARK SMILES C=C1CCC[C@]2(C)CC(=O)C(=C(C)C)C[C@H]12
REMARK SMILES IDX 13 1 12 2 11 3 15 4 16 5 2 6 1 7 3 8 4 9 5 10 6 11 8 12 9 13
REMARK SMILES IDX 10 14 7 15 14 16
REMARK H PARENT
REMARK Flexibility Score: inf
ROOT
ATOM      1  C   UNL     1      -7.436  29.239  67.216  1.00  0.00     0.039 C 
ATOM      2  C   UNL     1      -7.703  29.073  68.694  1.00  0.00    -0.070 C 
ATOM      3  C   UNL     1      -7.259  29.986  69.605  1.00  0.00    -0.006 C 
ATOM      4  C   UNL     1      -7.487  29.816  71.094  1.00  0.00     0.047 C 
ATOM      5  C   UNL     1      -6.326  30.367  71.961  1.00  0.00     0.025 C 
ATOM      6  C   UNL     1      -6.762  30.367  73.417  1.00  0.00    -0.073 C 
ATOM      7  C   UNL     1      -6.403  29.368  74.237  1.00  0.00     0.008 C 
ATOM      8  C   UNL     1      -7.738  31.428  73.884  1.00  0.00     0.031 C 
ATOM      9  C   UNL     1      -7.329  32.825  73.400  1.00  0.00     0.005 C 
ATOM     10  C   UNL     1      -6.942  32.850  71.909  1.00  0.00     0.008 C 
ATOM     11  C   UNL     1      -5.851  31.798  71.550  1.00  0.00    -0.018 C 
ATOM     12  C   UNL     1      -5.543  31.848  70.029  1.00  0.00     0.088 C 
ATOM     13  C   UNL     1      -6.646  31.272  69.200  1.00  0.00     0.159 C 
ATOM     14  O   UNL     1      -7.036  31.891  68.173  1.00  0.00    -0.295 OA
ATOM     15  C   UNL     1      -4.528  32.141  72.286  1.00  0.00     0.012 C 
ATOM     16  C   UNL     1      -8.447  27.830  69.126  1.00  0.00     0.039 C 
ENDROOT
TORSDOF 0
ENDMDL
MODEL 6
REMARK VINA RESULT:    -5.512      2.039      5.100
REMARK INTER + INTRA:          -5.512
REMARK INTER:                  -5.512
REMARK INTRA:                   0.000
REMARK UNBOUND:                 0.000
REMARK SMILES C=C1CCC[C@]2(C)CC(=O)C(=C(C)C)C[C@H]12
REMARK SMILES IDX 13 1 12 2 11 3 15 4 16 5 2 6 1 7 3 8 4 9 5 10 6 11 8 12 9 13
REMARK SMILES IDX 10 14 7 15 14 16
REMARK H PARENT
REMARK Flexibility Score: inf
ROOT
ATOM      1  C   UNL     1      -8.400  22.849  63.824  1.00  0.00     0.039 C 
ATOM      2  C   UNL     1      -8.570  21.803  64.900  1.00  0.00    -0.070 C 
ATOM      3  C   UNL     1      -8.368  22.097  66.217  1.00  0.00    -0.006 C 
ATOM      4  C   UNL     1      -8.500  21.050  67.305  1.00  0.00     0.047 C 
ATOM      5  C   UNL     1      -7.510  21.258  68.481  1.00  0.00     0.025 C 
ATOM      6  C   UNL     1      -7.890  20.313  69.609  1.00  0.00    -0.073 C 
ATOM      7  C   UNL     1      -7.249  19.145  69.767  1.00  0.00     0.008 C 
ATOM      8  C   UNL     1      -9.106  20.638  70.453  1.00  0.00     0.031 C 
ATOM      9  C   UNL     1      -9.108  22.107  70.898  1.00  0.00     0.005 C 
ATOM     10  C   UNL     1      -8.784  23.079  69.749  1.00  0.00     0.008 C 
ATOM     11  C   UNL     1      -7.456  22.725  69.013  1.00  0.00    -0.018 C 
ATOM     12  C   UNL     1      -7.216  23.715  67.843  1.00  0.00     0.088 C 
ATOM     13  C   UNL     1      -8.141  23.481  66.692  1.00  0.00     0.159 C 
ATOM     14  O   UNL     1      -8.714  24.463  66.148  1.00  0.00    -0.295 OA
ATOM     15  C   UNL     1      -6.259  22.885  69.987  1.00  0.00     0.012 C 
ATOM     16  C   UNL     1      -8.933  20.405  64.454  1.00  0.00     0.039 C 
ENDROOT
TORSDOF 0
ENDMDL
MODEL 7
REMARK VINA RESULT:    -5.508      6.461      8.831
REMARK INTER + INTRA:          -5.508
REMARK INTER:                  -5.508
REMARK INTRA:                   0.000
REMARK UNBOUND:                 0.000
REMARK SMILES C=C1CCC[C@]2(C)CC(=O)C(=C(C)C)C[C@H]12
REMARK SMILES IDX 13 1 12 2 11 3 15 4 16 5 2 6 1 7 3 8 4 9 5 10 6 11 8 12 9 13
REMARK SMILES IDX 10 14 7 15 14 16
REMARK H PARENT
REMARK Flexibility Score: inf
ROOT
ATOM      1  C   UNL     1      -3.755  20.449  62.373  1.00  0.00     0.039 C 
ATOM      2  C   UNL     1      -3.924  21.694  61.534  1.00  0.00    -0.070 C 
ATOM      3  C   UNL     1      -3.177  22.812  61.761  1.00  0.00    -0.006 C 
ATOM      4  C   UNL     1      -3.359  24.081  60.951  1.00  0.00     0.047 C 
ATOM      5  C   UNL     1      -3.124  25.374  61.773  1.00  0.00     0.025 C 
ATOM      6  C   UNL     1      -3.093  26.558  60.820  1.00  0.00    -0.073 C 
ATOM      7  C   UNL     1      -4.183  27.318  60.639  1.00  0.00     0.008 C 
ATOM      8  C   UNL     1      -1.861  26.769  59.963  1.00  0.00     0.031 C 
ATOM      9  C   UNL     1      -0.572  26.650  60.785  1.00  0.00     0.005 C 
ATOM     10  C   UNL     1      -0.567  25.419  61.711  1.00  0.00     0.008 C 
ATOM     11  C   UNL     1      -1.821  25.351  62.634  1.00  0.00    -0.018 C 
ATOM     12  C   UNL     1      -1.772  24.067  63.504  1.00  0.00     0.088 C 
ATOM     13  C   UNL     1      -2.046  22.827  62.716  1.00  0.00     0.159 C 
ATOM     14  O   UNL     1      -1.309  21.816  62.876  1.00  0.00    -0.295 OA
ATOM     15  C   UNL     1      -1.818  26.556  63.612  1.00  0.00     0.012 C 
ATOM     16  C   UNL     1      -4.985  21.663  60.457  1.00  0.00     0.039 C 
ENDROOT
TORSDOF 0
ENDMDL
MODEL 8
REMARK VINA RESULT:    -5.432      5.037      6.555
REMARK INTER + INTRA:          -5.432
REMARK INTER:                  -5.432
REMARK INTRA:                   0.000
REMARK UNBOUND:                 0.000
REMARK SMILES C=C1CCC[C@]2(C)CC(=O)C(=C(C)C)C[C@H]12
REMARK SMILES IDX 13 1 12 2 11 3 15 4 16 5 2 6 1 7 3 8 4 9 5 10 6 11 8 12 9 13
REMARK SMILES IDX 10 14 7 15 14 16
REMARK H PARENT
REMARK Flexibility Score: inf
ROOT
ATOM      1  C   UNL     1      -6.171  27.453  62.276  1.00  0.00     0.039 C 
ATOM      2  C   UNL     1      -5.175  26.342  62.038  1.00  0.00    -0.070 C 
ATOM      3  C   UNL     1      -5.580  25.057  61.826  1.00  0.00    -0.006 C 
ATOM      4  C   UNL     1      -4.594  23.924  61.621  1.00  0.00     0.047 C 
ATOM      5  C   UNL     1      -5.077  22.573  62.207  1.00  0.00     0.025 C 
ATOM      6  C   UNL     1      -4.138  21.474  61.737  1.00  0.00    -0.073 C 
ATOM      7  C   UNL     1      -3.148  21.037  62.530  1.00  0.00     0.008 C 
ATOM      8  C   UNL     1      -4.239  20.994  60.304  1.00  0.00     0.031 C 
ATOM      9  C   UNL     1      -5.695  20.729  59.898  1.00  0.00     0.005 C 
ATOM     10  C   UNL     1      -6.647  21.865  60.315  1.00  0.00     0.008 C 
ATOM     11  C   UNL     1      -6.549  22.209  61.832  1.00  0.00    -0.018 C 
ATOM     12  C   UNL     1      -7.500  23.388  62.172  1.00  0.00     0.088 C 
ATOM     13  C   UNL     1      -7.005  24.697  61.645  1.00  0.00     0.159 C 
ATOM     14  O   UNL     1      -7.807  25.469  61.055  1.00  0.00    -0.295 OA
ATOM     15  C   UNL     1      -7.020  20.996  62.678  1.00  0.00     0.012 C 
ATOM     16  C   UNL     1      -3.709  26.706  62.084  1.00  0.00     0.039 C 
ENDROOT
TORSDOF 0
ENDMDL
MODEL 9
REMARK VINA RESULT:    -4.000      2.970      5.377
REMARK INTER + INTRA:          -4.000
REMARK INTER:                  -4.000
REMARK INTRA:                   0.000
REMARK UNBOUND:                 0.000
REMARK SMILES C=C1CCC[C@]2(C)CC(=O)C(=C(C)C)C[C@H]12
REMARK SMILES IDX 13 1 12 2 11 3 15 4 16 5 2 6 1 7 3 8 4 9 5 10 6 11 8 12 9 13
REMARK SMILES IDX 10 14 7 15 14 16
REMARK H PARENT
REMARK Flexibility Score: inf
ROOT
ATOM      1  C   UNL     1      -9.125  20.496  65.717  1.00  0.00     0.039 C 
ATOM      2  C   UNL     1      -7.699  20.250  65.283  1.00  0.00    -0.070 C 
ATOM      3  C   UNL     1      -7.177  20.854  64.176  1.00  0.00    -0.006 C 
ATOM      4  C   UNL     1      -5.760  20.591  63.707  1.00  0.00     0.047 C 
ATOM      5  C   UNL     1      -5.606  20.627  62.165  1.00  0.00     0.025 C 
ATOM      6  C   UNL     1      -4.126  20.595  61.822  1.00  0.00    -0.073 C 
ATOM      7  C   UNL     1      -3.529  19.443  61.480  1.00  0.00     0.008 C 
ATOM      8  C   UNL     1      -3.304  21.852  62.026  1.00  0.00     0.031 C 
ATOM      9  C   UNL     1      -4.008  23.087  61.450  1.00  0.00     0.005 C 
ATOM     10  C   UNL     1      -5.496  23.163  61.841  1.00  0.00     0.008 C 
ATOM     11  C   UNL     1      -6.281  21.864  61.489  1.00  0.00    -0.018 C 
ATOM     12  C   UNL     1      -7.757  21.992  61.949  1.00  0.00     0.088 C 
ATOM     13  C   UNL     1      -7.905  21.909  63.435  1.00  0.00     0.159 C 
ATOM     14  O   UNL     1      -8.644  22.739  64.030  1.00  0.00    -0.295 OA
ATOM     15  C   UNL     1      -6.307  21.668  59.949  1.00  0.00     0.012 C 
ATOM     16  C   UNL     1      -6.885  19.275  66.103  1.00  0.00     0.039 C 
ENDROOT
TORSDOF 0
ENDMDL
