MODEL 1
REMARK VINA RESULT:     6.313      0.000      0.000
REMARK INTER + INTRA:           6.680
REMARK INTER:                   6.866
REMARK INTRA:                  -0.186
REMARK UNBOUND:                -0.186
REMARK SMILES Cc1ccc(C(C)C)c(O)c1
REMARK SMILES IDX 1 1 2 2 11 3 9 4 5 5 4 6 3 7 10 8 6 10 7 11 8 12
REMARK H PARENT 10 9
REMARK Flexibility Score: inf
ROOT
ATOM      1  C   UNL     1      15.505  50.193  58.999  1.00  0.00     0.044 C 
ATOM      2  C   UNL     1      15.519  51.444  59.827  1.00  0.00    -0.047 A 
ATOM      3  C   UNL     1      15.165  52.673  59.258  1.00  0.00     0.049 A 
ATOM      4  C   UNL     1      15.149  53.844  60.024  1.00  0.00     0.119 A 
ATOM      5  C   UNL     1      15.427  53.784  61.417  1.00  0.00    -0.004 A 
ATOM      6  C   UNL     1      15.811  52.543  61.968  1.00  0.00     0.008 A 
ATOM      7  C   UNL     1      15.839  51.386  61.187  1.00  0.00     0.004 A 
ENDROOT
BRANCH   4   8
ATOM      8  O   UNL     1      14.870  55.040  59.358  1.00  0.00    -0.508 OA
ATOM      9  H   UNL     1      14.048  55.604  59.524  1.00  0.00     0.293 HD
ENDBRANCH   4   8
BRANCH   5  10
ATOM     10  C   UNL     1      15.385  55.034  62.293  1.00  0.00     0.017 C 
ATOM     11  C   UNL     1      16.646  55.116  63.158  1.00  0.00     0.012 C 
ATOM     12  C   UNL     1      14.122  55.125  63.166  1.00  0.00     0.012 C 
ENDBRANCH   5  10
TORSDOF 2
ENDMDL
MODEL 2
REMARK VINA RESULT:     6.975      1.675      2.016
REMARK INTER + INTRA:           7.401
REMARK INTER:                   6.842
REMARK INTRA:                   0.559
REMARK UNBOUND:                -0.186
REMARK SMILES Cc1ccc(C(C)C)c(O)c1
REMARK SMILES IDX 1 1 2 2 11 3 9 4 5 5 4 6 3 7 10 8 6 10 7 11 8 12
REMARK H PARENT 10 9
REMARK Flexibility Score: inf
ROOT
ATOM      1  C   UNL     1      15.874  49.652  59.854  1.00  0.00     0.044 C 
ATOM      2  C   UNL     1      15.648  51.003  60.466  1.00  0.00    -0.047 A 
ATOM      3  C   UNL     1      14.779  51.150  61.553  1.00  0.00     0.049 A 
ATOM      4  C   UNL     1      14.578  52.400  62.151  1.00  0.00     0.119 A 
ATOM      5  C   UNL     1      15.315  53.529  61.699  1.00  0.00    -0.004 A 
ATOM      6  C   UNL     1      16.164  53.369  60.584  1.00  0.00     0.008 A 
ATOM      7  C   UNL     1      16.341  52.119  59.987  1.00  0.00     0.004 A 
ENDROOT
BRANCH   4   8
ATOM      8  O   UNL     1      13.628  52.475  63.173  1.00  0.00    -0.508 OA
ATOM      9  H   UNL     1      12.695  52.842  63.055  1.00  0.00     0.293 HD
ENDBRANCH   4   8
BRANCH   5  10
ATOM     10  C   UNL     1      15.150  54.901  62.348  1.00  0.00     0.017 C 
ATOM     11  C   UNL     1      16.240  55.123  63.400  1.00  0.00     0.012 C 
ATOM     12  C   UNL     1      13.755  55.125  62.957  1.00  0.00     0.012 C 
ENDBRANCH   5  10
TORSDOF 2
ENDMDL
MODEL 3
REMARK VINA RESULT:     7.824      1.819      2.130
REMARK INTER + INTRA:           8.325
REMARK INTER:                   8.041
REMARK INTRA:                   0.283
REMARK UNBOUND:                -0.186
REMARK SMILES Cc1ccc(C(C)C)c(O)c1
REMARK SMILES IDX 1 1 2 2 11 3 9 4 5 5 4 6 3 7 10 8 6 10 7 11 8 12
REMARK H PARENT 10 9
REMARK Flexibility Score: inf
ROOT
ATOM      1  C   UNL     1      16.942  50.197  59.701  1.00  0.00     0.044 C 
ATOM      2  C   UNL     1      16.504  51.377  60.518  1.00  0.00    -0.047 A 
ATOM      3  C   UNL     1      17.442  52.122  61.243  1.00  0.00     0.049 A 
ATOM      4  C   UNL     1      17.053  53.241  61.988  1.00  0.00     0.119 A 
ATOM      5  C   UNL     1      15.699  53.676  61.960  1.00  0.00    -0.004 A 
ATOM      6  C   UNL     1      14.762  52.897  61.249  1.00  0.00     0.008 A 
ATOM      7  C   UNL     1      15.164  51.773  60.524  1.00  0.00     0.004 A 
ENDROOT
BRANCH   4   8
ATOM      8  O   UNL     1      18.036  53.875  62.752  1.00  0.00    -0.508 OA
ATOM      9  H   UNL     1      18.425  53.497  63.604  1.00  0.00     0.293 HD
ENDBRANCH   4   8
BRANCH   5  10
ATOM     10  C   UNL     1      15.242  54.912  62.732  1.00  0.00     0.017 C 
ATOM     11  C   UNL     1      15.747  54.850  64.176  1.00  0.00     0.012 C 
ATOM     12  C   UNL     1      13.720  55.125  62.697  1.00  0.00     0.012 C 
ENDBRANCH   5  10
TORSDOF 2
ENDMDL
