MODEL 1
REMARK VINA RESULT:    -5.774      0.000      0.000
REMARK INTER + INTRA:          -6.111
REMARK INTER:                  -6.111
REMARK INTRA:                   0.000
REMARK UNBOUND:                 0.000
REMARK SMILES Cc1cc(O)c(C)c(C)c1O
REMARK SMILES IDX 1 1 2 2 3 3 4 4 6 5 8 6 10 7 9 8 7 9 11 10 5 12
REMARK H PARENT 11 11 5 13
REMARK Flexibility Score: inf
ROOT
ATOM      1  C   UNL     1       8.698  21.500  20.194  1.00  0.00     0.048 C 
ATOM      2  C   UNL     1       9.551  21.121  19.014  1.00  0.00    -0.005 A 
ATOM      3  C   UNL     1       9.004  20.325  18.003  1.00  0.00     0.053 A 
ATOM      4  C   UNL     1       9.754  19.958  16.887  1.00  0.00     0.119 A 
ATOM      5  C   UNL     1      11.087  20.411  16.747  1.00  0.00    -0.003 A 
ATOM      6  C   UNL     1      11.676  21.167  17.798  1.00  0.00    -0.002 A 
ATOM      7  C   UNL     1      10.895  21.541  18.917  1.00  0.00     0.121 A 
ATOM      8  C   UNL     1      13.123  21.601  17.725  1.00  0.00     0.049 C 
ATOM      9  C   UNL     1      11.862  20.052  15.498  1.00  0.00     0.049 C 
ENDROOT
BRANCH   7  10
ATOM     10  O   UNL     1      11.471  22.332  19.918  1.00  0.00    -0.507 OA
ATOM     11  H   UNL     1      12.449  22.587  19.935  1.00  0.00     0.293 HD
ENDBRANCH   7  10
BRANCH   4  12
ATOM     12  O   UNL     1       9.142  19.135  15.937  1.00  0.00    -0.508 OA
ATOM     13  H   UNL     1       8.782  18.213  16.144  1.00  0.00     0.293 HD
ENDBRANCH   4  12
TORSDOF 2
ENDMDL
MODEL 2
REMARK VINA RESULT:    -5.571      2.477      3.082
REMARK INTER + INTRA:          -5.896
REMARK INTER:                  -5.896
REMARK INTRA:                   0.000
REMARK UNBOUND:                 0.000
REMARK SMILES Cc1cc(O)c(C)c(C)c1O
REMARK SMILES IDX 1 1 2 2 3 3 4 4 6 5 8 6 10 7 9 8 7 9 11 10 5 12
REMARK H PARENT 11 11 5 13
REMARK Flexibility Score: inf
ROOT
ATOM      1  C   UNL     1      10.397  22.568  18.462  1.00  0.00     0.048 C 
ATOM      2  C   UNL     1      11.467  21.566  18.124  1.00  0.00    -0.005 A 
ATOM      3  C   UNL     1      12.144  21.674  16.905  1.00  0.00     0.053 A 
ATOM      4  C   UNL     1      13.150  20.775  16.554  1.00  0.00     0.119 A 
ATOM      5  C   UNL     1      13.521  19.742  17.446  1.00  0.00    -0.003 A 
ATOM      6  C   UNL     1      12.797  19.581  18.660  1.00  0.00    -0.002 A 
ATOM      7  C   UNL     1      11.790  20.512  19.005  1.00  0.00     0.121 A 
ATOM      8  C   UNL     1      13.109  18.440  19.604  1.00  0.00     0.049 C 
ATOM      9  C   UNL     1      14.657  18.815  17.072  1.00  0.00     0.049 C 
ENDROOT
BRANCH   7  10
ATOM     10  O   UNL     1      11.123  20.374  20.228  1.00  0.00    -0.507 OA
ATOM     11  H   UNL     1      10.140  20.149  20.306  1.00  0.00     0.293 HD
ENDBRANCH   7  10
BRANCH   4  12
ATOM     12  O   UNL     1      13.756  20.935  15.304  1.00  0.00    -0.508 OA
ATOM     13  H   UNL     1      13.431  21.588  14.604  1.00  0.00     0.293 HD
ENDBRANCH   4  12
TORSDOF 2
ENDMDL
MODEL 3
REMARK VINA RESULT:    -5.462      1.045      4.325
REMARK INTER + INTRA:          -5.781
REMARK INTER:                  -5.781
REMARK INTRA:                   0.000
REMARK UNBOUND:                 0.000
REMARK SMILES Cc1cc(O)c(C)c(C)c1O
REMARK SMILES IDX 1 1 2 2 3 3 4 4 6 5 8 6 10 7 9 8 7 9 11 10 5 12
REMARK H PARENT 11 11 5 13
REMARK Flexibility Score: inf
ROOT
ATOM      1  C   UNL     1      13.376  21.049  15.898  1.00  0.00     0.048 C 
ATOM      2  C   UNL     1      12.226  21.039  16.867  1.00  0.00    -0.005 A 
ATOM      3  C   UNL     1      12.339  21.746  18.069  1.00  0.00     0.053 A 
ATOM      4  C   UNL     1      11.295  21.774  18.992  1.00  0.00     0.119 A 
ATOM      5  C   UNL     1      10.083  21.100  18.714  1.00  0.00    -0.003 A 
ATOM      6  C   UNL     1       9.978  20.324  17.526  1.00  0.00    -0.002 A 
ATOM      7  C   UNL     1      11.043  20.320  16.594  1.00  0.00     0.121 A 
ATOM      8  C   UNL     1       8.730  19.523  17.230  1.00  0.00     0.049 C 
ATOM      9  C   UNL     1       8.941  21.195  19.701  1.00  0.00     0.049 C 
ENDROOT
BRANCH   7  10
ATOM     10  O   UNL     1      10.905  19.597  15.403  1.00  0.00    -0.507 OA
ATOM     11  H   UNL     1      10.946  20.019  14.485  1.00  0.00     0.293 HD
ENDBRANCH   7  10
BRANCH   4  12
ATOM     12  O   UNL     1      11.501  22.478  20.182  1.00  0.00    -0.508 OA
ATOM     13  H   UNL     1      12.282  22.313  20.802  1.00  0.00     0.293 HD
ENDBRANCH   4  12
TORSDOF 2
ENDMDL
MODEL 4
REMARK VINA RESULT:    -5.441      2.600      4.429
REMARK INTER + INTRA:          -5.759
REMARK INTER:                  -5.759
REMARK INTRA:                   0.000
REMARK UNBOUND:                 0.000
REMARK SMILES Cc1cc(O)c(C)c(C)c1O
REMARK SMILES IDX 1 1 2 2 3 3 4 4 6 5 8 6 10 7 9 8 7 9 11 10 5 12
REMARK H PARENT 11 11 5 13
REMARK Flexibility Score: inf
ROOT
ATOM      1  C   UNL     1      13.828  19.798  14.600  1.00  0.00     0.048 C 
ATOM      2  C   UNL     1      13.253  19.986  15.978  1.00  0.00    -0.005 A 
ATOM      3  C   UNL     1      12.307  20.994  16.191  1.00  0.00     0.053 A 
ATOM      4  C   UNL     1      11.740  21.197  17.448  1.00  0.00     0.119 A 
ATOM      5  C   UNL     1      12.099  20.364  18.533  1.00  0.00    -0.003 A 
ATOM      6  C   UNL     1      13.108  19.378  18.346  1.00  0.00    -0.002 A 
ATOM      7  C   UNL     1      13.661  19.176  17.059  1.00  0.00     0.121 A 
ATOM      8  C   UNL     1      13.579  18.521  19.499  1.00  0.00     0.049 C 
ATOM      9  C   UNL     1      11.426  20.564  19.873  1.00  0.00     0.049 C 
ENDROOT
BRANCH   7  10
ATOM     10  O   UNL     1      14.613  18.166  16.876  1.00  0.00    -0.507 OA
ATOM     11  H   UNL     1      14.451  17.341  16.313  1.00  0.00     0.293 HD
ENDBRANCH   7  10
BRANCH   4  12
ATOM     12  O   UNL     1      10.825  22.246  17.584  1.00  0.00    -0.508 OA
ATOM     13  H   UNL     1      10.134  22.294  18.320  1.00  0.00     0.293 HD
ENDBRANCH   4  12
TORSDOF 2
ENDMDL
MODEL 5
REMARK VINA RESULT:    -5.433      2.926      4.194
REMARK INTER + INTRA:          -5.751
REMARK INTER:                  -5.751
REMARK INTRA:                   0.000
REMARK UNBOUND:                 0.000
REMARK SMILES Cc1cc(O)c(C)c(C)c1O
REMARK SMILES IDX 1 1 2 2 3 3 4 4 6 5 8 6 10 7 9 8 7 9 11 10 5 12
REMARK H PARENT 11 11 5 13
REMARK Flexibility Score: inf
ROOT
ATOM      1  C   UNL     1      14.664  18.186  19.447  1.00  0.00     0.048 C 
ATOM      2  C   UNL     1      13.996  18.724  18.210  1.00  0.00    -0.005 A 
ATOM      3  C   UNL     1      14.628  18.572  16.972  1.00  0.00     0.053 A 
ATOM      4  C   UNL     1      14.042  19.045  15.799  1.00  0.00     0.119 A 
ATOM      5  C   UNL     1      12.774  19.671  15.841  1.00  0.00    -0.003 A 
ATOM      6  C   UNL     1      12.150  19.889  17.101  1.00  0.00    -0.002 A 
ATOM      7  C   UNL     1      12.753  19.389  18.279  1.00  0.00     0.121 A 
ATOM      8  C   UNL     1      10.833  20.626  17.197  1.00  0.00     0.049 C 
ATOM      9  C   UNL     1      12.129  20.121  14.549  1.00  0.00     0.049 C 
ENDROOT
BRANCH   7  10
ATOM     10  O   UNL     1      12.102  19.562  19.505  1.00  0.00    -0.507 OA
ATOM     11  H   UNL     1      12.561  19.906  20.338  1.00  0.00     0.293 HD
ENDBRANCH   7  10
BRANCH   4  12
ATOM     12  O   UNL     1      14.754  18.881  14.607  1.00  0.00    -0.508 OA
ATOM     13  H   UNL     1      14.522  19.358  13.746  1.00  0.00     0.293 HD
ENDBRANCH   4  12
TORSDOF 2
ENDMDL
MODEL 6
REMARK VINA RESULT:    -5.415      2.631      3.278
REMARK INTER + INTRA:          -5.732
REMARK INTER:                  -5.732
REMARK INTRA:                   0.000
REMARK UNBOUND:                 0.000
REMARK SMILES Cc1cc(O)c(C)c(C)c1O
REMARK SMILES IDX 1 1 2 2 3 3 4 4 6 5 8 6 10 7 9 8 7 9 11 10 5 12
REMARK H PARENT 11 11 5 13
REMARK Flexibility Score: inf
ROOT
ATOM      1  C   UNL     1      10.805  21.090  20.000  1.00  0.00     0.048 C 
ATOM      2  C   UNL     1      11.762  20.462  19.024  1.00  0.00    -0.005 A 
ATOM      3  C   UNL     1      12.567  19.399  19.444  1.00  0.00     0.053 A 
ATOM      4  C   UNL     1      13.460  18.780  18.571  1.00  0.00     0.119 A 
ATOM      5  C   UNL     1      13.550  19.207  17.226  1.00  0.00    -0.003 A 
ATOM      6  C   UNL     1      12.784  20.329  16.803  1.00  0.00    -0.002 A 
ATOM      7  C   UNL     1      11.873  20.935  17.699  1.00  0.00     0.121 A 
ATOM      8  C   UNL     1      12.911  20.869  15.395  1.00  0.00     0.049 C 
ATOM      9  C   UNL     1      14.481  18.481  16.280  1.00  0.00     0.049 C 
ENDROOT
BRANCH   7  10
ATOM     10  O   UNL     1      11.085  22.003  17.253  1.00  0.00    -0.507 OA
ATOM     11  H   UNL     1      10.139  22.170  17.570  1.00  0.00     0.293 HD
ENDBRANCH   7  10
BRANCH   4  12
ATOM     12  O   UNL     1      14.251  17.744  19.079  1.00  0.00    -0.508 OA
ATOM     13  H   UNL     1      15.253  17.810  19.195  1.00  0.00     0.293 HD
ENDBRANCH   4  12
TORSDOF 2
ENDMDL
MODEL 7
REMARK VINA RESULT:    -5.353      8.708     10.602
REMARK INTER + INTRA:          -5.666
REMARK INTER:                  -5.666
REMARK INTRA:                   0.000
REMARK UNBOUND:                 0.000
REMARK SMILES Cc1cc(O)c(C)c(C)c1O
REMARK SMILES IDX 1 1 2 2 3 3 4 4 6 5 8 6 10 7 9 8 7 9 11 10 5 12
REMARK H PARENT 11 11 5 13
REMARK Flexibility Score: inf
ROOT
ATOM      1  C   UNL     1      11.374  22.250   7.510  1.00  0.00     0.048 C 
ATOM      2  C   UNL     1       9.966  22.632   7.881  1.00  0.00    -0.005 A 
ATOM      3  C   UNL     1       9.379  23.747   7.276  1.00  0.00     0.053 A 
ATOM      4  C   UNL     1       8.075  24.132   7.581  1.00  0.00     0.119 A 
ATOM      5  C   UNL     1       7.309  23.379   8.500  1.00  0.00    -0.003 A 
ATOM      6  C   UNL     1       7.915  22.280   9.172  1.00  0.00    -0.002 A 
ATOM      7  C   UNL     1       9.235  21.896   8.838  1.00  0.00     0.121 A 
ATOM      8  C   UNL     1       7.158  21.498  10.221  1.00  0.00     0.049 C 
ATOM      9  C   UNL     1       5.875  23.778   8.771  1.00  0.00     0.049 C 
ENDROOT
BRANCH   7  10
ATOM     10  O   UNL     1       9.801  20.780   9.466  1.00  0.00    -0.507 OA
ATOM     11  H   UNL     1       9.926  19.886   9.010  1.00  0.00     0.293 HD
ENDBRANCH   7  10
BRANCH   4  12
ATOM     12  O   UNL     1       7.574  25.277   6.955  1.00  0.00    -0.508 OA
ATOM     13  H   UNL     1       7.430  26.158   7.430  1.00  0.00     0.293 HD
ENDBRANCH   4  12
TORSDOF 2
ENDMDL
MODEL 8
REMARK VINA RESULT:    -5.261      2.706      4.531
REMARK INTER + INTRA:          -5.568
REMARK INTER:                  -5.568
REMARK INTRA:                   0.000
REMARK UNBOUND:                 0.000
REMARK SMILES Cc1cc(O)c(C)c(C)c1O
REMARK SMILES IDX 1 1 2 2 3 3 4 4 6 5 8 6 10 7 9 8 7 9 11 10 5 12
REMARK H PARENT 11 11 5 13
REMARK Flexibility Score: inf
ROOT
ATOM      1  C   UNL     1      15.707  18.527  18.147  1.00  0.00     0.048 C 
ATOM      2  C   UNL     1      14.325  19.065  17.888  1.00  0.00    -0.005 A 
ATOM      3  C   UNL     1      13.466  19.288  18.968  1.00  0.00     0.053 A 
ATOM      4  C   UNL     1      12.181  19.795  18.776  1.00  0.00     0.119 A 
ATOM      5  C   UNL     1      11.732  20.117  17.475  1.00  0.00    -0.003 A 
ATOM      6  C   UNL     1      12.571  19.834  16.362  1.00  0.00    -0.002 A 
ATOM      7  C   UNL     1      13.877  19.333  16.577  1.00  0.00     0.121 A 
ATOM      8  C   UNL     1      12.097  20.087  14.948  1.00  0.00     0.049 C 
ATOM      9  C   UNL     1      10.357  20.723  17.296  1.00  0.00     0.049 C 
ENDROOT
BRANCH   7  10
ATOM     10  O   UNL     1      14.713  19.111  15.476  1.00  0.00    -0.507 OA
ATOM     11  H   UNL     1      15.721  19.056  15.542  1.00  0.00     0.293 HD
ENDBRANCH   7  10
BRANCH   4  12
ATOM     12  O   UNL     1      11.375  19.960  19.907  1.00  0.00    -0.508 OA
ATOM     13  H   UNL     1      11.680  19.752  20.848  1.00  0.00     0.293 HD
ENDBRANCH   4  12
TORSDOF 2
ENDMDL
MODEL 9
REMARK VINA RESULT:    -5.240      8.378      9.939
REMARK INTER + INTRA:          -5.547
REMARK INTER:                  -5.547
REMARK INTRA:                   0.000
REMARK UNBOUND:                 0.000
REMARK SMILES Cc1cc(O)c(C)c(C)c1O
REMARK SMILES IDX 1 1 2 2 3 3 4 4 6 5 8 6 10 7 9 8 7 9 11 10 5 12
REMARK H PARENT 11 11 5 13
REMARK Flexibility Score: inf
ROOT
ATOM      1  C   UNL     1       5.940  24.587   8.061  1.00  0.00     0.048 C 
ATOM      2  C   UNL     1       7.043  23.646   8.462  1.00  0.00    -0.005 A 
ATOM      3  C   UNL     1       6.801  22.694   9.457  1.00  0.00     0.053 A 
ATOM      4  C   UNL     1       7.791  21.795   9.853  1.00  0.00     0.119 A 
ATOM      5  C   UNL     1       9.060  21.818   9.231  1.00  0.00    -0.003 A 
ATOM      6  C   UNL     1       9.341  22.823   8.264  1.00  0.00    -0.002 A 
ATOM      7  C   UNL     1       8.320  23.717   7.864  1.00  0.00     0.121 A 
ATOM      8  C   UNL     1      10.711  22.933   7.634  1.00  0.00     0.049 C 
ATOM      9  C   UNL     1      10.099  20.794   9.633  1.00  0.00     0.049 C 
ENDROOT
BRANCH   7  10
ATOM     10  O   UNL     1       8.592  24.666   6.872  1.00  0.00    -0.507 OA
ATOM     11  H   UNL     1       8.429  24.506   5.886  1.00  0.00     0.293 HD
ENDBRANCH   7  10
BRANCH   4  12
ATOM     12  O   UNL     1       7.477  20.896  10.876  1.00  0.00    -0.508 OA
ATOM     13  H   UNL     1       6.996  20.019  10.723  1.00  0.00     0.293 HD
ENDBRANCH   4  12
TORSDOF 2
ENDMDL
