MODEL 1
REMARK VINA RESULT:    -2.928      0.000      0.000
REMARK INTER + INTRA:          -4.688
REMARK INTER:                  -4.468
REMARK INTRA:                  -0.220
REMARK UNBOUND:                -0.220
REMARK SMILES O=C([O-])CCCCCCCCC(=O)[O-]
REMARK SMILES IDX 7 1 6 2 5 3 4 4 2 5 1 6 3 7 8 8 9 9 10 10 11 11 12 12 13 13
REMARK SMILES IDX 14 14
REMARK H PARENT
REMARK Flexibility Score: inf
ROOT
ATOM      1  C   UNL     1      12.888  11.230  15.200  1.00  0.00     0.000 C 
ENDROOT
BRANCH   1   2
ATOM      2  C   UNL     1      12.033  12.139  14.303  1.00  0.00     0.000 C 
BRANCH   2   3
ATOM      3  C   UNL     1      12.880  13.052  13.403  1.00  0.00     0.006 C 
BRANCH   3   4
ATOM      4  C   UNL     1      13.263  14.341  14.136  1.00  0.00     0.053 C 
BRANCH   4   5
ATOM      5  C   UNL     1      13.335  15.488  13.179  1.00  0.00     0.041 C 
ATOM      6  O   UNL     1      13.814  16.592  13.547  1.00  0.00    -0.550 OA
ATOM      7  O   UNL     1      12.922  15.322  11.862  1.00  0.00    -0.550 OA
ENDBRANCH   4   5
ENDBRANCH   3   4
ENDBRANCH   2   3
ENDBRANCH   1   2
BRANCH   1   8
ATOM      8  C   UNL     1      12.575   9.737  14.996  1.00  0.00     0.000 C 
BRANCH   8   9
ATOM      9  C   UNL     1      13.763   8.830  15.358  1.00  0.00     0.000 C 
BRANCH   9  10
ATOM     10  C   UNL     1      13.389   7.338  15.365  1.00  0.00     0.006 C 
BRANCH  10  11
ATOM     11  C   UNL     1      12.395   6.996  16.484  1.00  0.00     0.053 C 
BRANCH  11  12
ATOM     12  C   UNL     1      12.886   5.867  17.337  1.00  0.00     0.041 C 
ATOM     13  O   UNL     1      13.252   4.784  16.809  1.00  0.00    -0.550 OA
ATOM     14  O   UNL     1      12.911   6.001  18.720  1.00  0.00    -0.550 OA
ENDBRANCH  11  12
ENDBRANCH  10  11
ENDBRANCH   9  10
ENDBRANCH   8   9
ENDBRANCH   1   8
TORSDOF 9
ENDMDL
MODEL 2
REMARK VINA RESULT:    -2.924      0.153      8.499
REMARK INTER + INTRA:          -4.683
REMARK INTER:                  -4.459
REMARK INTRA:                  -0.224
REMARK UNBOUND:                -0.220
REMARK SMILES O=C([O-])CCCCCCCCC(=O)[O-]
REMARK SMILES IDX 7 1 6 2 5 3 4 4 2 5 1 6 3 7 8 8 9 9 10 10 11 11 12 12 13 13
REMARK SMILES IDX 14 14
REMARK H PARENT
REMARK Flexibility Score: inf
ROOT
ATOM      1  C   UNL     1      12.624   9.624  15.033  1.00  0.00     0.000 C 
ENDROOT
BRANCH   1   2
ATOM      2  C   UNL     1      13.855   8.747  15.308  1.00  0.00     0.000 C 
BRANCH   2   3
ATOM      3  C   UNL     1      13.511   7.252  15.403  1.00  0.00     0.006 C 
BRANCH   3   4
ATOM      4  C   UNL     1      12.468   6.999  16.496  1.00  0.00     0.053 C 
BRANCH   4   5
ATOM      5  C   UNL     1      12.850   5.812  17.321  1.00  0.00     0.041 C 
ATOM      6  O   UNL     1      13.210   4.742  16.765  1.00  0.00    -0.550 OA
ATOM      7  O   UNL     1      12.860   5.903  18.708  1.00  0.00    -0.550 OA
ENDBRANCH   4   5
ENDBRANCH   3   4
ENDBRANCH   2   3
ENDBRANCH   1   2
BRANCH   1   8
ATOM      8  C   UNL     1      12.933  11.128  15.144  1.00  0.00     0.000 C 
BRANCH   8   9
ATOM      9  C   UNL     1      11.922  11.997  14.377  1.00  0.00     0.000 C 
BRANCH   9  10
ATOM     10  C   UNL     1      12.598  12.951  13.378  1.00  0.00     0.006 C 
BRANCH  10  11
ATOM     11  C   UNL     1      13.256  14.149  14.077  1.00  0.00     0.053 C 
BRANCH  11  12
ATOM     12  C   UNL     1      13.316  15.350  13.184  1.00  0.00     0.041 C 
ATOM     13  O   UNL     1      13.721  16.455  13.631  1.00  0.00    -0.550 OA
ATOM     14  O   UNL     1      12.898  15.254  11.862  1.00  0.00    -0.550 OA
ENDBRANCH  11  12
ENDBRANCH  10  11
ENDBRANCH   9  10
ENDBRANCH   8   9
ENDBRANCH   1   8
TORSDOF 9
ENDMDL
MODEL 3
REMARK VINA RESULT:    -2.908      0.815      8.242
REMARK INTER + INTRA:          -4.659
REMARK INTER:                  -4.390
REMARK INTRA:                  -0.268
REMARK UNBOUND:                -0.220
REMARK SMILES O=C([O-])CCCCCCCCC(=O)[O-]
REMARK SMILES IDX 7 1 6 2 5 3 4 4 2 5 1 6 3 7 8 8 9 9 10 10 11 11 12 12 13 13
REMARK SMILES IDX 14 14
REMARK H PARENT
REMARK Flexibility Score: inf
ROOT
ATOM      1  C   UNL     1      12.511   9.757  15.296  1.00  0.00     0.000 C 
ENDROOT
BRANCH   1   2
ATOM      2  C   UNL     1      13.788   8.905  15.220  1.00  0.00     0.000 C 
BRANCH   2   3
ATOM      3  C   UNL     1      13.511   7.403  15.388  1.00  0.00     0.006 C 
BRANCH   3   4
ATOM      4  C   UNL     1      12.499   7.156  16.512  1.00  0.00     0.053 C 
BRANCH   4   5
ATOM      5  C   UNL     1      12.876   5.941  17.299  1.00  0.00     0.041 C 
ATOM      6  O   UNL     1      12.794   5.949  18.555  1.00  0.00    -0.550 OA
ATOM      7  O   UNL     1      13.269   4.781  16.644  1.00  0.00    -0.550 OA
ENDBRANCH   4   5
ENDBRANCH   3   4
ENDBRANCH   2   3
ENDBRANCH   1   2
BRANCH   1   8
ATOM      8  C   UNL     1      12.616  11.052  14.471  1.00  0.00     0.000 C 
BRANCH   8   9
ATOM      9  C   UNL     1      12.247  12.303  15.286  1.00  0.00     0.000 C 
BRANCH   9  10
ATOM     10  C   UNL     1      13.400  13.317  15.370  1.00  0.00     0.006 C 
BRANCH  10  11
ATOM     11  C   UNL     1      12.943  14.743  15.031  1.00  0.00     0.053 C 
BRANCH  11  12
ATOM     12  C   UNL     1      13.276  15.112  13.617  1.00  0.00     0.041 C 
ATOM     13  O   UNL     1      13.152  14.265  12.694  1.00  0.00    -0.550 OA
ATOM     14  O   UNL     1      13.751  16.384  13.326  1.00  0.00    -0.550 OA
ENDBRANCH  11  12
ENDBRANCH  10  11
ENDBRANCH   9  10
ENDBRANCH   8   9
ENDBRANCH   1   8
TORSDOF 9
ENDMDL
MODEL 4
REMARK VINA RESULT:    -2.854      0.823      1.425
REMARK INTER + INTRA:          -4.575
REMARK INTER:                  -4.367
REMARK INTRA:                  -0.208
REMARK UNBOUND:                -0.220
REMARK SMILES O=C([O-])CCCCCCCCC(=O)[O-]
REMARK SMILES IDX 7 1 6 2 5 3 4 4 2 5 1 6 3 7 8 8 9 9 10 10 11 11 12 12 13 13
REMARK SMILES IDX 14 14
REMARK H PARENT
REMARK Flexibility Score: inf
ROOT
ATOM      1  C   UNL     1      12.761  11.179  14.529  1.00  0.00     0.000 C 
ENDROOT
BRANCH   1   2
ATOM      2  C   UNL     1      12.316  12.440  15.286  1.00  0.00     0.000 C 
BRANCH   2   3
ATOM      3  C   UNL     1      13.431  13.491  15.396  1.00  0.00     0.006 C 
BRANCH   3   4
ATOM      4  C   UNL     1      12.935  14.867  14.942  1.00  0.00     0.053 C 
BRANCH   4   5
ATOM      5  C   UNL     1      13.304  15.113  13.513  1.00  0.00     0.041 C 
ATOM      6  O   UNL     1      13.134  14.212  12.651  1.00  0.00    -0.550 OA
ATOM      7  O   UNL     1      13.787  16.356  13.123  1.00  0.00    -0.550 OA
ENDBRANCH   4   5
ENDBRANCH   3   4
ENDBRANCH   2   3
ENDBRANCH   1   2
BRANCH   1   8
ATOM      8  C   UNL     1      12.501   9.889  15.326  1.00  0.00     0.000 C 
BRANCH   8   9
ATOM      9  C   UNL     1      13.725   8.958  15.359  1.00  0.00     0.000 C 
BRANCH   9  10
ATOM     10  C   UNL     1      13.337   7.470  15.378  1.00  0.00     0.006 C 
BRANCH  10  11
ATOM     11  C   UNL     1      12.378   7.137  16.529  1.00  0.00     0.053 C 
BRANCH  11  12
ATOM     12  C   UNL     1      12.843   5.949  17.314  1.00  0.00     0.041 C 
ATOM     13  O   UNL     1      12.853   5.983  18.573  1.00  0.00    -0.550 OA
ATOM     14  O   UNL     1      13.294   4.812  16.653  1.00  0.00    -0.550 OA
ENDBRANCH  11  12
ENDBRANCH  10  11
ENDBRANCH   9  10
ENDBRANCH   8   9
ENDBRANCH   1   8
TORSDOF 9
ENDMDL
MODEL 5
REMARK VINA RESULT:    -1.961      1.325      2.171
REMARK INTER + INTRA:          -3.213
REMARK INTER:                  -2.968
REMARK INTRA:                  -0.245
REMARK UNBOUND:                -0.220
REMARK SMILES O=C([O-])CCCCCCCCC(=O)[O-]
REMARK SMILES IDX 7 1 6 2 5 3 4 4 2 5 1 6 3 7 8 8 9 9 10 10 11 11 12 12 13 13
REMARK SMILES IDX 14 14
REMARK H PARENT
REMARK Flexibility Score: inf
ROOT
ATOM      1  C   UNL     1      13.018   9.184  15.682  1.00  0.00     0.000 C 
ENDROOT
BRANCH   1   2
ATOM      2  C   UNL     1      12.476  10.254  14.722  1.00  0.00     0.000 C 
BRANCH   2   3
ATOM      3  C   UNL     1      12.857  11.681  15.147  1.00  0.00     0.006 C 
BRANCH   3   4
ATOM      4  C   UNL     1      12.617  12.675  14.006  1.00  0.00     0.053 C 
BRANCH   4   5
ATOM      5  C   UNL     1      13.092  14.040  14.391  1.00  0.00     0.041 C 
ATOM      6  O   UNL     1      13.196  14.357  15.604  1.00  0.00    -0.550 OA
ATOM      7  O   UNL     1      13.471  14.947  13.408  1.00  0.00    -0.550 OA
ENDBRANCH   4   5
ENDBRANCH   3   4
ENDBRANCH   2   3
ENDBRANCH   1   2
BRANCH   1   8
ATOM      8  C   UNL     1      13.619   7.976  14.940  1.00  0.00     0.000 C 
BRANCH   8   9
ATOM      9  C   UNL     1      13.611   6.696  15.793  1.00  0.00     0.000 C 
BRANCH   9  10
ATOM     10  C   UNL     1      12.423   6.642  16.770  1.00  0.00     0.006 C 
BRANCH  10  11
ATOM     11  C   UNL     1      12.852   6.211  18.179  1.00  0.00     0.053 C 
BRANCH  11  12
ATOM     12  C   UNL     1      12.646   4.743  18.397  1.00  0.00     0.041 C 
ATOM     13  O   UNL     1      12.160   4.324  19.481  1.00  0.00    -0.550 OA
ATOM     14  O   UNL     1      13.018   3.835  17.413  1.00  0.00    -0.550 OA
ENDBRANCH  11  12
ENDBRANCH  10  11
ENDBRANCH   9  10
ENDBRANCH   8   9
ENDBRANCH   1   8
TORSDOF 9
ENDMDL
MODEL 6
REMARK VINA RESULT:    -1.884      6.512      7.493
REMARK INTER + INTRA:          -3.095
REMARK INTER:                  -2.669
REMARK INTRA:                  -0.426
REMARK UNBOUND:                -0.220
REMARK SMILES O=C([O-])CCCCCCCCC(=O)[O-]
REMARK SMILES IDX 7 1 6 2 5 3 4 4 2 5 1 6 3 7 8 8 9 9 10 10 11 11 12 12 13 13
REMARK SMILES IDX 14 14
REMARK H PARENT
REMARK Flexibility Score: inf
ROOT
ATOM      1  C   UNL     1      13.488   4.592  16.210  1.00  0.00     0.000 C 
ENDROOT
BRANCH   1   2
ATOM      2  C   UNL     1      14.680   4.317  15.279  1.00  0.00     0.000 C 
BRANCH   2   3
ATOM      3  C   UNL     1      14.738   5.285  14.086  1.00  0.00     0.006 C 
BRANCH   3   4
ATOM      4  C   UNL     1      15.821   4.860  13.089  1.00  0.00     0.053 C 
BRANCH   4   5
ATOM      5  C   UNL     1      15.208   4.480  11.779  1.00  0.00     0.041 C 
ATOM      6  O   UNL     1      14.151   5.041  11.387  1.00  0.00    -0.550 OA
ATOM      7  O   UNL     1      15.832   3.543  10.965  1.00  0.00    -0.550 OA
ENDBRANCH   4   5
ENDBRANCH   3   4
ENDBRANCH   2   3
ENDBRANCH   1   2
BRANCH   1   8
ATOM      8  C   UNL     1      13.125   6.086  16.277  1.00  0.00     0.000 C 
BRANCH   8   9
ATOM      9  C   UNL     1      12.471   6.475  17.614  1.00  0.00     0.000 C 
BRANCH   9  10
ATOM     10  C   UNL     1      12.880   5.542  18.767  1.00  0.00     0.006 C 
BRANCH  10  11
ATOM     11  C   UNL     1      11.664   4.993  19.526  1.00  0.00     0.053 C 
BRANCH  11  12
ATOM     12  C   UNL     1      11.897   3.596  20.013  1.00  0.00     0.041 C 
ATOM     13  O   UNL     1      12.339   2.715  19.229  1.00  0.00    -0.550 OA
ATOM     14  O   UNL     1      11.598   3.259  21.328  1.00  0.00    -0.550 OA
ENDBRANCH  11  12
ENDBRANCH  10  11
ENDBRANCH   9  10
ENDBRANCH   8   9
ENDBRANCH   1   8
TORSDOF 9
ENDMDL
MODEL 7
REMARK VINA RESULT:    -1.753      6.500      9.042
REMARK INTER + INTRA:          -2.895
REMARK INTER:                  -2.459
REMARK INTRA:                  -0.436
REMARK UNBOUND:                -0.220
REMARK SMILES O=C([O-])CCCCCCCCC(=O)[O-]
REMARK SMILES IDX 7 1 6 2 5 3 4 4 2 5 1 6 3 7 8 8 9 9 10 10 11 11 12 12 13 13
REMARK SMILES IDX 14 14
REMARK H PARENT
REMARK Flexibility Score: inf
ROOT
ATOM      1  C   UNL     1      12.941   6.153  16.302  1.00  0.00     0.000 C 
ENDROOT
BRANCH   1   2
ATOM      2  C   UNL     1      12.709   6.545  17.770  1.00  0.00     0.000 C 
BRANCH   2   3
ATOM      3  C   UNL     1      13.022   5.401  18.747  1.00  0.00     0.006 C 
BRANCH   3   4
ATOM      4  C   UNL     1      11.799   5.065  19.607  1.00  0.00     0.053 C 
BRANCH   4   5
ATOM      5  C   UNL     1      11.859   3.645  20.073  1.00  0.00     0.041 C 
ATOM      6  O   UNL     1      12.222   2.734  19.285  1.00  0.00    -0.550 OA
ATOM      7  O   UNL     1      11.564   3.334  21.395  1.00  0.00    -0.550 OA
ENDBRANCH   4   5
ENDBRANCH   3   4
ENDBRANCH   2   3
ENDBRANCH   1   2
BRANCH   1   8
ATOM      8  C   UNL     1      13.312   4.669  16.139  1.00  0.00     0.000 C 
BRANCH   8   9
ATOM      9  C   UNL     1      14.622   4.469  15.358  1.00  0.00     0.000 C 
BRANCH   9  10
ATOM     10  C   UNL     1      14.729   5.395  14.135  1.00  0.00     0.006 C 
BRANCH  10  11
ATOM     11  C   UNL     1      15.809   4.929  13.149  1.00  0.00     0.053 C 
BRANCH  11  12
ATOM     12  C   UNL     1      15.219   4.507  11.838  1.00  0.00     0.041 C 
ATOM     13  O   UNL     1      15.874   3.769  11.055  1.00  0.00    -0.550 OA
ATOM     14  O   UNL     1      13.957   4.955  11.468  1.00  0.00    -0.550 OA
ENDBRANCH  11  12
ENDBRANCH  10  11
ENDBRANCH   9  10
ENDBRANCH   8   9
ENDBRANCH   1   8
TORSDOF 9
ENDMDL
MODEL 8
REMARK VINA RESULT:    -1.679      1.670      8.737
REMARK INTER + INTRA:          -2.782
REMARK INTER:                  -2.525
REMARK INTRA:                  -0.257
REMARK UNBOUND:                -0.220
REMARK SMILES O=C([O-])CCCCCCCCC(=O)[O-]
REMARK SMILES IDX 7 1 6 2 5 3 4 4 2 5 1 6 3 7 8 8 9 9 10 10 11 11 12 12 13 13
REMARK SMILES IDX 14 14
REMARK H PARENT
REMARK Flexibility Score: inf
ROOT
ATOM      1  C   UNL     1      12.974   7.280  15.686  1.00  0.00     0.000 C 
ENDROOT
BRANCH   1   2
ATOM      2  C   UNL     1      12.683   7.089  17.183  1.00  0.00     0.000 C 
BRANCH   2   3
ATOM      3  C   UNL     1      12.855   5.632  17.640  1.00  0.00     0.006 C 
BRANCH   3   4
ATOM      4  C   UNL     1      13.083   4.705  16.442  1.00  0.00     0.053 C 
BRANCH   4   5
ATOM      5  C   UNL     1      13.694   3.414  16.886  1.00  0.00     0.041 C 
ATOM      6  O   UNL     1      14.867   3.116  16.543  1.00  0.00    -0.550 OA
ATOM      7  O   UNL     1      12.985   2.561  17.723  1.00  0.00    -0.550 OA
ENDBRANCH   4   5
ENDBRANCH   3   4
ENDBRANCH   2   3
ENDBRANCH   1   2
BRANCH   1   8
ATOM      8  C   UNL     1      13.665   8.622  15.385  1.00  0.00     0.000 C 
BRANCH   8   9
ATOM      9  C   UNL     1      12.670   9.717  14.965  1.00  0.00     0.000 C 
BRANCH   9  10
ATOM     10  C   UNL     1      13.169  11.132  15.304  1.00  0.00     0.006 C 
BRANCH  10  11
ATOM     11  C   UNL     1      12.422  12.214  14.514  1.00  0.00     0.053 C 
BRANCH  11  12
ATOM     12  C   UNL     1      13.046  13.564  14.692  1.00  0.00     0.041 C 
ATOM     13  O   UNL     1      13.271  14.013  15.847  1.00  0.00    -0.550 OA
ATOM     14  O   UNL     1      13.354  14.339  13.580  1.00  0.00    -0.550 OA
ENDBRANCH  11  12
ENDBRANCH  10  11
ENDBRANCH   9  10
ENDBRANCH   8   9
ENDBRANCH   1   8
TORSDOF 9
ENDMDL
MODEL 9
REMARK VINA RESULT:    -1.618      1.543      2.344
REMARK INTER + INTRA:          -2.689
REMARK INTER:                  -2.145
REMARK INTRA:                  -0.544
REMARK UNBOUND:                -0.220
REMARK SMILES O=C([O-])CCCCCCCCC(=O)[O-]
REMARK SMILES IDX 7 1 6 2 5 3 4 4 2 5 1 6 3 7 8 8 9 9 10 10 11 11 12 12 13 13
REMARK SMILES IDX 14 14
REMARK H PARENT
REMARK Flexibility Score: inf
ROOT
ATOM      1  C   UNL     1      13.355  12.632  15.789  1.00  0.00     0.000 C 
ENDROOT
BRANCH   1   2
ATOM      2  C   UNL     1      13.646  14.139  15.701  1.00  0.00     0.000 C 
BRANCH   2   3
ATOM      3  C   UNL     1      12.654  14.883  14.793  1.00  0.00     0.006 C 
BRANCH   3   4
ATOM      4  C   UNL     1      13.393  15.789  13.802  1.00  0.00     0.053 C 
BRANCH   4   5
ATOM      5  C   UNL     1      13.093  15.382  12.395  1.00  0.00     0.041 C 
ATOM      6  O   UNL     1      13.278  16.190  11.448  1.00  0.00    -0.550 OA
ATOM      7  O   UNL     1      12.657  14.091  12.122  1.00  0.00    -0.550 OA
ENDBRANCH   4   5
ENDBRANCH   3   4
ENDBRANCH   2   3
ENDBRANCH   1   2
BRANCH   1   8
ATOM      8  C   UNL     1      12.053  12.239  15.069  1.00  0.00     0.000 C 
BRANCH   8   9
ATOM      9  C   UNL     1      12.176  10.905  14.314  1.00  0.00     0.000 C 
BRANCH   9  10
ATOM     10  C   UNL     1      13.236   9.973  14.927  1.00  0.00     0.006 C 
BRANCH  10  11
ATOM     11  C   UNL     1      12.603   8.802  15.692  1.00  0.00     0.053 C 
BRANCH  11  12
ATOM     12  C   UNL     1      13.377   7.533  15.506  1.00  0.00     0.041 C 
ATOM     13  O   UNL     1      14.282   7.463  14.633  1.00  0.00    -0.550 OA
ATOM     14  O   UNL     1      13.078   6.418  16.278  1.00  0.00    -0.550 OA
ENDBRANCH  11  12
ENDBRANCH  10  11
ENDBRANCH   9  10
ENDBRANCH   8   9
ENDBRANCH   1   8
TORSDOF 9
ENDMDL
