MODEL 1
REMARK VINA RESULT:    -4.996      0.000      0.000
REMARK INTER + INTRA:          -6.513
REMARK INTER:                  -6.165
REMARK INTRA:                  -0.348
REMARK UNBOUND:                -0.348
REMARK SMILES O=c1c(O)c(-c2cc(O)c(O)c(O)c2)oc2cc(O)cc(O)c12
REMARK SMILES IDX 5 1 3 2 2 3 1 4 23 5 21 6 20 7 18 8 17 9 16 10 15 11 6 12
REMARK SMILES IDX 7 13 8 14 14 15 10 16 12 17 9 18 11 20 13 22 4 24 22 26
REMARK SMILES IDX 19 28
REMARK H PARENT 9 19 11 21 13 23 4 25 22 27 19 29
REMARK Flexibility Score: inf
ROOT
ATOM      1  C   UNL     1     102.815 101.921  92.909  1.00  0.00     0.180 A 
ATOM      2  C   UNL     1     104.110 101.909  92.359  1.00  0.00     0.208 A 
ATOM      3  C   UNL     1     104.806 100.692  92.283  1.00  0.00     0.238 A 
ATOM      4  O   UNL     1     105.941 100.679  91.740  1.00  0.00    -0.285 OA
ATOM      5  C   UNL     1     104.207  99.506  92.773  1.00  0.00     0.111 A 
ATOM      6  C   UNL     1     104.837  98.226  92.782  1.00  0.00     0.134 A 
ATOM      7  C   UNL     1     104.102  97.097  93.169  1.00  0.00     0.093 A 
ATOM      8  C   UNL     1     102.784  97.213  93.607  1.00  0.00     0.123 A 
ATOM      9  C   UNL     1     102.177  98.468  93.659  1.00  0.00     0.094 A 
ATOM     10  C   UNL     1     102.872  99.607  93.245  1.00  0.00     0.146 A 
ATOM     11  O   UNL     1     102.256 100.781  93.298  1.00  0.00    -0.452 OA
ENDROOT
BRANCH   1  12
ATOM     12  C   UNL     1     102.029 103.169  93.046  1.00  0.00     0.029 A 
ATOM     13  C   UNL     1     101.265 103.671  91.979  1.00  0.00     0.062 A 
ATOM     14  C   UNL     1     100.546 104.867  92.119  1.00  0.00     0.162 A 
ATOM     15  C   UNL     1     102.093 103.896  94.243  1.00  0.00     0.062 A 
ATOM     16  C   UNL     1     100.597 105.577  93.331  1.00  0.00     0.200 A 
ATOM     17  C   UNL     1     101.377 105.089  94.392  1.00  0.00     0.162 A 
BRANCH  14  18
ATOM     18  O   UNL     1      99.786 105.353  91.057  1.00  0.00    -0.504 OA
ATOM     19  H   UNL     1     100.200 105.910  90.318  1.00  0.00     0.293 HD
ENDBRANCH  14  18
BRANCH  16  20
ATOM     20  O   UNL     1      99.884 106.766  93.489  1.00  0.00    -0.502 OA
ATOM     21  H   UNL     1      99.010 106.808  93.999  1.00  0.00     0.293 HD
ENDBRANCH  16  20
BRANCH  17  22
ATOM     22  O   UNL     1     101.455 105.775  95.605  1.00  0.00    -0.504 OA
ATOM     23  H   UNL     1     100.969 105.459  96.435  1.00  0.00     0.293 HD
ENDBRANCH  17  22
ENDBRANCH   1  12
BRANCH   2  24
ATOM     24  O   UNL     1     104.673 103.087  91.863  1.00  0.00    -0.502 OA
ATOM     25  H   UNL     1     104.479 103.432  90.930  1.00  0.00     0.293 HD
ENDBRANCH   2  24
BRANCH   6  26
ATOM     26  O   UNL     1     106.178  98.012  92.451  1.00  0.00    -0.507 OA
ATOM     27  H   UNL     1     106.866  97.611  93.070  1.00  0.00     0.293 HD
ENDBRANCH   6  26
BRANCH   8  28
ATOM     28  O   UNL     1     102.088  96.071  94.001  1.00  0.00    -0.508 OA
ATOM     29  H   UNL     1     101.305  96.122  94.642  1.00  0.00     0.293 HD
ENDBRANCH   8  28
TORSDOF 7
ENDMDL
MODEL 2
REMARK VINA RESULT:    -4.943      0.091      1.756
REMARK INTER + INTRA:          -6.447
REMARK INTER:                  -6.090
REMARK INTRA:                  -0.357
REMARK UNBOUND:                -0.348
REMARK SMILES O=c1c(O)c(-c2cc(O)c(O)c(O)c2)oc2cc(O)cc(O)c12
REMARK SMILES IDX 5 1 3 2 2 3 1 4 23 5 21 6 20 7 18 8 17 9 16 10 15 11 6 12
REMARK SMILES IDX 7 13 8 14 14 15 10 16 12 17 9 18 11 20 13 22 4 24 22 26
REMARK SMILES IDX 19 28
REMARK H PARENT 9 19 11 21 13 23 4 25 22 27 19 29
REMARK Flexibility Score: inf
ROOT
ATOM      1  C   UNL     1     102.878 101.911  92.909  1.00  0.00     0.180 A 
ATOM      2  C   UNL     1     104.160 101.893  92.332  1.00  0.00     0.208 A 
ATOM      3  C   UNL     1     104.851 100.674  92.246  1.00  0.00     0.238 A 
ATOM      4  O   UNL     1     105.975 100.655  91.679  1.00  0.00    -0.285 OA
ATOM      5  C   UNL     1     104.260  99.491  92.753  1.00  0.00     0.111 A 
ATOM      6  C   UNL     1     104.886  98.209  92.755  1.00  0.00     0.134 A 
ATOM      7  C   UNL     1     104.157  97.085  93.163  1.00  0.00     0.093 A 
ATOM      8  C   UNL     1     102.848  97.206  93.628  1.00  0.00     0.123 A 
ATOM      9  C   UNL     1     102.246  98.464  93.688  1.00  0.00     0.094 A 
ATOM     10  C   UNL     1     102.936  99.599  93.254  1.00  0.00     0.146 A 
ATOM     11  O   UNL     1     102.324 100.775  93.315  1.00  0.00    -0.452 OA
ENDROOT
BRANCH   1  12
ATOM     12  C   UNL     1     102.099 103.162  93.057  1.00  0.00     0.029 A 
ATOM     13  C   UNL     1     102.135 103.909  94.246  1.00  0.00     0.062 A 
ATOM     14  C   UNL     1     101.372 105.078  94.377  1.00  0.00     0.162 A 
ATOM     15  C   UNL     1     101.261 103.580  92.013  1.00  0.00     0.062 A 
ATOM     16  C   UNL     1     100.553 105.502  93.315  1.00  0.00     0.200 A 
ATOM     17  C   UNL     1     100.498 104.745  92.133  1.00  0.00     0.162 A 
BRANCH  14  18
ATOM     18  O   UNL     1     101.420 105.816  95.559  1.00  0.00    -0.504 OA
ATOM     19  H   UNL     1     102.287 106.216  95.900  1.00  0.00     0.293 HD
ENDBRANCH  14  18
BRANCH  16  20
ATOM     20  O   UNL     1      99.791 106.665  93.427  1.00  0.00    -0.502 OA
ATOM     21  H   UNL     1     100.173 107.583  93.234  1.00  0.00     0.293 HD
ENDBRANCH  16  20
BRANCH  17  22
ATOM     22  O   UNL     1      99.689 105.135  91.065  1.00  0.00    -0.504 OA
ATOM     23  H   UNL     1      99.588 104.570  90.231  1.00  0.00     0.293 HD
ENDBRANCH  17  22
ENDBRANCH   1  12
BRANCH   2  24
ATOM     24  O   UNL     1     104.716 103.068  91.818  1.00  0.00    -0.502 OA
ATOM     25  H   UNL     1     104.438 103.987  92.139  1.00  0.00     0.293 HD
ENDBRANCH   2  24
BRANCH   6  26
ATOM     26  O   UNL     1     106.219  97.991  92.396  1.00  0.00    -0.507 OA
ATOM     27  H   UNL     1     106.979  98.624  92.594  1.00  0.00     0.293 HD
ENDBRANCH   6  26
BRANCH   8  28
ATOM     28  O   UNL     1     102.158  96.068  94.042  1.00  0.00    -0.508 OA
ATOM     29  H   UNL     1     102.599  95.156  94.052  1.00  0.00     0.293 HD
ENDBRANCH   8  28
TORSDOF 7
ENDMDL
MODEL 3
REMARK VINA RESULT:    -4.593      1.186      2.889
REMARK INTER + INTRA:          -6.016
REMARK INTER:                  -5.647
REMARK INTRA:                  -0.369
REMARK UNBOUND:                -0.348
REMARK SMILES O=c1c(O)c(-c2cc(O)c(O)c(O)c2)oc2cc(O)cc(O)c12
REMARK SMILES IDX 5 1 3 2 2 3 1 4 23 5 21 6 20 7 18 8 17 9 16 10 15 11 6 12
REMARK SMILES IDX 7 13 8 14 14 15 10 16 12 17 9 18 11 20 13 22 4 24 22 26
REMARK SMILES IDX 19 28
REMARK H PARENT 9 19 11 21 13 23 4 25 22 27 19 29
REMARK Flexibility Score: inf
ROOT
ATOM      1  C   UNL     1     101.551 101.471  93.260  1.00  0.00     0.180 A 
ATOM      2  C   UNL     1     100.592 100.496  93.586  1.00  0.00     0.208 A 
ATOM      3  C   UNL     1     100.963  99.142  93.563  1.00  0.00     0.238 A 
ATOM      4  O   UNL     1     100.115  98.278  93.908  1.00  0.00    -0.285 OA
ATOM      5  C   UNL     1     102.282  98.778  93.199  1.00  0.00     0.111 A 
ATOM      6  C   UNL     1     102.755  97.436  93.104  1.00  0.00     0.134 A 
ATOM      7  C   UNL     1     104.114  97.197  92.864  1.00  0.00     0.093 A 
ATOM      8  C   UNL     1     105.002  98.251  92.651  1.00  0.00     0.123 A 
ATOM      9  C   UNL     1     104.539  99.566  92.682  1.00  0.00     0.094 A 
ATOM     10  C   UNL     1     103.196  99.837  92.956  1.00  0.00     0.146 A 
ATOM     11  O   UNL     1     102.798 101.102  92.988  1.00  0.00    -0.452 OA
ENDROOT
BRANCH   1  12
ATOM     12  C   UNL     1     101.229 102.916  93.238  1.00  0.00     0.029 A 
ATOM     13  C   UNL     1     100.737 103.538  92.078  1.00  0.00     0.062 A 
ATOM     14  C   UNL     1     100.460 104.912  92.068  1.00  0.00     0.162 A 
ATOM     15  C   UNL     1     101.474 103.695  94.378  1.00  0.00     0.062 A 
ATOM     16  C   UNL     1     100.686 105.680  93.223  1.00  0.00     0.200 A 
ATOM     17  C   UNL     1     101.198 105.066  94.378  1.00  0.00     0.162 A 
BRANCH  14  18
ATOM     18  O   UNL     1      99.965 105.516  90.913  1.00  0.00    -0.504 OA
ATOM     19  H   UNL     1     100.562 105.711  90.117  1.00  0.00     0.293 HD
ENDBRANCH  14  18
BRANCH  16  20
ATOM     20  O   UNL     1     100.411 107.048  93.232  1.00  0.00    -0.502 OA
ATOM     21  H   UNL     1     101.084 107.737  92.919  1.00  0.00     0.293 HD
ENDBRANCH  16  20
BRANCH  17  22
ATOM     22  O   UNL     1     101.441 105.803  95.538  1.00  0.00    -0.504 OA
ATOM     23  H   UNL     1     100.726 105.959  96.238  1.00  0.00     0.293 HD
ENDBRANCH  17  22
ENDBRANCH   1  12
BRANCH   2  24
ATOM     24  O   UNL     1      99.302 100.878  93.962  1.00  0.00    -0.502 OA
ATOM     25  H   UNL     1      98.701 100.285  94.523  1.00  0.00     0.293 HD
ENDBRANCH   2  24
BRANCH   6  26
ATOM     26  O   UNL     1     101.934  96.309  93.209  1.00  0.00    -0.507 OA
ATOM     27  H   UNL     1     101.539  95.810  92.426  1.00  0.00     0.293 HD
ENDBRANCH   6  26
BRANCH   8  28
ATOM     28  O   UNL     1     106.346  97.976  92.397  1.00  0.00    -0.508 OA
ATOM     29  H   UNL     1     107.077  98.277  93.032  1.00  0.00     0.293 HD
ENDBRANCH   8  28
TORSDOF 7
ENDMDL
MODEL 4
REMARK VINA RESULT:    -4.533      4.288      7.592
REMARK INTER + INTRA:          -5.941
REMARK INTER:                  -5.626
REMARK INTRA:                  -0.315
REMARK UNBOUND:                -0.348
REMARK SMILES O=c1c(O)c(-c2cc(O)c(O)c(O)c2)oc2cc(O)cc(O)c12
REMARK SMILES IDX 5 1 3 2 2 3 1 4 23 5 21 6 20 7 18 8 17 9 16 10 15 11 6 12
REMARK SMILES IDX 7 13 8 14 14 15 10 16 12 17 9 18 11 20 13 22 4 24 22 26
REMARK SMILES IDX 19 28
REMARK H PARENT 9 19 11 21 13 23 4 25 22 27 19 29
REMARK Flexibility Score: inf
ROOT
ATOM      1  C   UNL     1     100.377 108.490  93.015  1.00  0.00     0.180 A 
ATOM      2  C   UNL     1      99.075 108.023  92.763  1.00  0.00     0.208 A 
ATOM      3  C   UNL     1      98.817 106.646  92.849  1.00  0.00     0.238 A 
ATOM      4  O   UNL     1      97.638 106.240  92.677  1.00  0.00    -0.285 OA
ATOM      5  C   UNL     1      99.866 105.750  93.170  1.00  0.00     0.111 A 
ATOM      6  C   UNL     1      99.727 104.333  93.245  1.00  0.00     0.134 A 
ATOM      7  C   UNL     1     100.800 103.556  93.699  1.00  0.00     0.093 A 
ATOM      8  C   UNL     1     102.026 104.139  94.017  1.00  0.00     0.123 A 
ATOM      9  C   UNL     1     102.193 105.518  93.889  1.00  0.00     0.094 A 
ATOM     10  C   UNL     1     101.129 106.324  93.474  1.00  0.00     0.146 A 
ATOM     11  O   UNL     1     101.325 107.633  93.377  1.00  0.00    -0.452 OA
ENDROOT
BRANCH   1  12
ATOM     12  C   UNL     1     100.732 109.924  92.918  1.00  0.00     0.029 A 
ATOM     13  C   UNL     1     100.886 110.557  91.673  1.00  0.00     0.062 A 
ATOM     14  C   UNL     1     101.245 111.910  91.601  1.00  0.00     0.162 A 
ATOM     15  C   UNL     1     100.977 110.654  94.090  1.00  0.00     0.062 A 
ATOM     16  C   UNL     1     101.466 112.640  92.782  1.00  0.00     0.200 A 
ATOM     17  C   UNL     1     101.334 112.005  94.028  1.00  0.00     0.162 A 
BRANCH  14  18
ATOM     18  O   UNL     1     101.389 112.530  90.361  1.00  0.00    -0.504 OA
ATOM     19  H   UNL     1     101.707 112.019  89.545  1.00  0.00     0.293 HD
ENDBRANCH  14  18
BRANCH  16  20
ATOM     20  O   UNL     1     101.819 113.989  92.729  1.00  0.00    -0.502 OA
ATOM     21  H   UNL     1     101.216 114.720  93.084  1.00  0.00     0.293 HD
ENDBRANCH  16  20
BRANCH  17  22
ATOM     22  O   UNL     1     101.554 112.700  95.218  1.00  0.00    -0.504 OA
ATOM     23  H   UNL     1     101.203 112.369  96.109  1.00  0.00     0.293 HD
ENDBRANCH  17  22
ENDBRANCH   1  12
BRANCH   2  24
ATOM     24  O   UNL     1      98.049 108.926  92.470  1.00  0.00    -0.502 OA
ATOM     25  H   UNL     1      98.190 109.735  91.878  1.00  0.00     0.293 HD
ENDBRANCH   2  24
BRANCH   6  26
ATOM     26  O   UNL     1      98.575 103.640  92.863  1.00  0.00    -0.507 OA
ATOM     27  H   UNL     1      98.461 103.150  91.988  1.00  0.00     0.293 HD
ENDBRANCH   6  26
BRANCH   8  28
ATOM     28  O   UNL     1     103.079 103.333  94.449  1.00  0.00    -0.508 OA
ATOM     29  H   UNL     1     103.627 103.573  95.267  1.00  0.00     0.293 HD
ENDBRANCH   8  28
TORSDOF 7
ENDMDL
MODEL 5
REMARK VINA RESULT:    -4.520      3.262      8.271
REMARK INTER + INTRA:          -5.925
REMARK INTER:                  -5.755
REMARK INTRA:                  -0.170
REMARK UNBOUND:                -0.348
REMARK SMILES O=c1c(O)c(-c2cc(O)c(O)c(O)c2)oc2cc(O)cc(O)c12
REMARK SMILES IDX 5 1 3 2 2 3 1 4 23 5 21 6 20 7 18 8 17 9 16 10 15 11 6 12
REMARK SMILES IDX 7 13 8 14 14 15 10 16 12 17 9 18 11 20 13 22 4 24 22 26
REMARK SMILES IDX 19 28
REMARK H PARENT 9 19 11 21 13 23 4 25 22 27 19 29
REMARK Flexibility Score: inf
ROOT
ATOM      1  C   UNL     1     103.450 105.201  92.818  1.00  0.00     0.180 A 
ATOM      2  C   UNL     1     102.590 104.951  93.902  1.00  0.00     0.208 A 
ATOM      3  C   UNL     1     101.581 105.880  94.200  1.00  0.00     0.238 A 
ATOM      4  O   UNL     1     100.781 105.623  95.138  1.00  0.00    -0.285 OA
ATOM      5  C   UNL     1     101.453 107.056  93.422  1.00  0.00     0.111 A 
ATOM      6  C   UNL     1     100.493 108.084  93.660  1.00  0.00     0.134 A 
ATOM      7  C   UNL     1     100.371 109.140  92.747  1.00  0.00     0.093 A 
ATOM      8  C   UNL     1     101.218 109.238  91.644  1.00  0.00     0.123 A 
ATOM      9  C   UNL     1     102.201 108.271  91.435  1.00  0.00     0.094 A 
ATOM     10  C   UNL     1     102.323 107.186  92.307  1.00  0.00     0.146 A 
ATOM     11  O   UNL     1     103.262 106.281  92.066  1.00  0.00    -0.452 OA
ENDROOT
BRANCH   1  12
ATOM     12  C   UNL     1     104.552 104.281  92.458  1.00  0.00     0.029 A 
ATOM     13  C   UNL     1     105.894 104.698  92.495  1.00  0.00     0.062 A 
ATOM     14  C   UNL     1     106.923 103.820  92.127  1.00  0.00     0.162 A 
ATOM     15  C   UNL     1     104.252 102.985  92.014  1.00  0.00     0.062 A 
ATOM     16  C   UNL     1     106.614 102.515  91.706  1.00  0.00     0.200 A 
ATOM     17  C   UNL     1     105.273 102.102  91.648  1.00  0.00     0.162 A 
BRANCH  14  18
ATOM     18  O   UNL     1     108.251 104.242  92.174  1.00  0.00    -0.504 OA
ATOM     19  H   UNL     1     108.945 103.886  91.527  1.00  0.00     0.293 HD
ENDBRANCH  14  18
BRANCH  16  20
ATOM     20  O   UNL     1     107.627 101.627  91.342  1.00  0.00    -0.502 OA
ATOM     21  H   UNL     1     107.438 100.662  91.101  1.00  0.00     0.293 HD
ENDBRANCH  16  20
BRANCH  17  22
ATOM     22  O   UNL     1     104.933 100.816  91.226  1.00  0.00    -0.504 OA
ATOM     23  H   UNL     1     104.144 100.640  90.616  1.00  0.00     0.293 HD
ENDBRANCH  17  22
ENDBRANCH   1  12
BRANCH   2  24
ATOM     24  O   UNL     1     102.720 103.773  94.644  1.00  0.00    -0.502 OA
ATOM     25  H   UNL     1     102.784 103.771  95.655  1.00  0.00     0.293 HD
ENDBRANCH   2  24
BRANCH   6  26
ATOM     26  O   UNL     1      99.660 108.131  94.781  1.00  0.00    -0.507 OA
ATOM     27  H   UNL     1      99.921 107.820  95.704  1.00  0.00     0.293 HD
ENDBRANCH   6  26
BRANCH   8  28
ATOM     28  O   UNL     1     101.080 110.312  90.766  1.00  0.00    -0.508 OA
ATOM     29  H   UNL     1     100.698 110.190  89.835  1.00  0.00     0.293 HD
ENDBRANCH   8  28
TORSDOF 7
ENDMDL
MODEL 6
REMARK VINA RESULT:    -4.496      2.105      7.322
REMARK INTER + INTRA:          -5.896
REMARK INTER:                  -5.581
REMARK INTRA:                  -0.315
REMARK UNBOUND:                -0.348
REMARK SMILES O=c1c(O)c(-c2cc(O)c(O)c(O)c2)oc2cc(O)cc(O)c12
REMARK SMILES IDX 5 1 3 2 2 3 1 4 23 5 21 6 20 7 18 8 17 9 16 10 15 11 6 12
REMARK SMILES IDX 7 13 8 14 14 15 10 16 12 17 9 18 11 20 13 22 4 24 22 26
REMARK SMILES IDX 19 28
REMARK H PARENT 9 19 11 21 13 23 4 25 22 27 19 29
REMARK Flexibility Score: inf
ROOT
ATOM      1  C   UNL     1     100.849 102.541  93.125  1.00  0.00     0.180 A 
ATOM      2  C   UNL     1     101.587 103.554  93.763  1.00  0.00     0.208 A 
ATOM      3  C   UNL     1     101.046 104.848  93.835  1.00  0.00     0.238 A 
ATOM      4  O   UNL     1     101.687 105.737  94.455  1.00  0.00    -0.285 OA
ATOM      5  C   UNL     1      99.783 105.118  93.255  1.00  0.00     0.111 A 
ATOM      6  C   UNL     1      99.158 106.400  93.234  1.00  0.00     0.134 A 
ATOM      7  C   UNL     1      97.850 106.524  92.749  1.00  0.00     0.093 A 
ATOM      8  C   UNL     1      97.170 105.425  92.225  1.00  0.00     0.123 A 
ATOM      9  C   UNL     1      97.794 104.178  92.185  1.00  0.00     0.094 A 
ATOM     10  C   UNL     1      99.085 104.015  92.695  1.00  0.00     0.146 A 
ATOM     11  O   UNL     1      99.638 102.810  92.649  1.00  0.00    -0.452 OA
ENDROOT
BRANCH   1  12
ATOM     12  C   UNL     1     101.363 101.160  92.987  1.00  0.00     0.029 A 
ATOM     13  C   UNL     1     102.363 100.842  92.052  1.00  0.00     0.062 A 
ATOM     14  C   UNL     1     102.821  99.524  91.919  1.00  0.00     0.162 A 
ATOM     15  C   UNL     1     100.804 100.135  93.763  1.00  0.00     0.062 A 
ATOM     16  C   UNL     1     102.270  98.507  92.718  1.00  0.00     0.200 A 
ATOM     17  C   UNL     1     101.256  98.817  93.639  1.00  0.00     0.162 A 
BRANCH  14  18
ATOM     18  O   UNL     1     103.817  99.221  90.992  1.00  0.00    -0.504 OA
ATOM     19  H   UNL     1     104.798  99.226  91.245  1.00  0.00     0.293 HD
ENDBRANCH  14  18
BRANCH  16  20
ATOM     20  O   UNL     1     102.718  97.190  92.602  1.00  0.00    -0.502 OA
ATOM     21  H   UNL     1     103.681  96.930  92.775  1.00  0.00     0.293 HD
ENDBRANCH  16  20
BRANCH  17  22
ATOM     22  O   UNL     1     100.684  97.829  94.441  1.00  0.00    -0.504 OA
ATOM     23  H   UNL     1      99.773  97.433  94.240  1.00  0.00     0.293 HD
ENDBRANCH  17  22
ENDBRANCH   1  12
BRANCH   2  24
ATOM     24  O   UNL     1     102.822 103.262  94.348  1.00  0.00    -0.502 OA
ATOM     25  H   UNL     1     103.634 103.001  93.802  1.00  0.00     0.293 HD
ENDBRANCH   2  24
BRANCH   6  26
ATOM     26  O   UNL     1      99.782 107.579  93.649  1.00  0.00    -0.507 OA
ATOM     27  H   UNL     1     100.672 107.911  93.307  1.00  0.00     0.293 HD
ENDBRANCH   6  26
BRANCH   8  28
ATOM     28  O   UNL     1      95.875 105.588  91.735  1.00  0.00    -0.508 OA
ATOM     29  H   UNL     1      95.072 105.211  92.226  1.00  0.00     0.293 HD
ENDBRANCH   8  28
TORSDOF 7
ENDMDL
MODEL 7
REMARK VINA RESULT:    -4.496      1.119      3.317
REMARK INTER + INTRA:          -5.895
REMARK INTER:                  -5.540
REMARK INTRA:                  -0.355
REMARK UNBOUND:                -0.348
REMARK SMILES O=c1c(O)c(-c2cc(O)c(O)c(O)c2)oc2cc(O)cc(O)c12
REMARK SMILES IDX 5 1 3 2 2 3 1 4 23 5 21 6 20 7 18 8 17 9 16 10 15 11 6 12
REMARK SMILES IDX 7 13 8 14 14 15 10 16 12 17 9 18 11 20 13 22 4 24 22 26
REMARK SMILES IDX 19 28
REMARK H PARENT 9 19 11 21 13 23 4 25 22 27 19 29
REMARK Flexibility Score: inf
ROOT
ATOM      1  C   UNL     1     101.837 101.489  93.230  1.00  0.00     0.180 A 
ATOM      2  C   UNL     1     100.894 100.508  93.589  1.00  0.00     0.208 A 
ATOM      3  C   UNL     1     101.268  99.156  93.545  1.00  0.00     0.238 A 
ATOM      4  O   UNL     1     100.437  98.287  93.920  1.00  0.00    -0.285 OA
ATOM      5  C   UNL     1     102.573  98.798  93.126  1.00  0.00     0.111 A 
ATOM      6  C   UNL     1     103.045  97.458  93.005  1.00  0.00     0.134 A 
ATOM      7  C   UNL     1     104.395  97.225  92.709  1.00  0.00     0.093 A 
ATOM      8  C   UNL     1     105.270  98.282  92.466  1.00  0.00     0.123 A 
ATOM      9  C   UNL     1     104.805  99.596  92.522  1.00  0.00     0.094 A 
ATOM     10  C   UNL     1     103.473  99.861  92.851  1.00  0.00     0.146 A 
ATOM     11  O   UNL     1     103.072 101.125  92.906  1.00  0.00    -0.452 OA
ENDROOT
BRANCH   1  12
ATOM     12  C   UNL     1     101.509 102.933  93.228  1.00  0.00     0.029 A 
ATOM     13  C   UNL     1     101.643 103.714  94.389  1.00  0.00     0.062 A 
ATOM     14  C   UNL     1     101.305 105.074  94.374  1.00  0.00     0.162 A 
ATOM     15  C   UNL     1     101.001 103.523  92.062  1.00  0.00     0.062 A 
ATOM     16  C   UNL     1     100.818 105.663  93.194  1.00  0.00     0.200 A 
ATOM     17  C   UNL     1     100.663 104.880  92.038  1.00  0.00     0.162 A 
BRANCH  14  18
ATOM     18  O   UNL     1     101.447 105.842  95.529  1.00  0.00    -0.504 OA
ATOM     19  H   UNL     1     101.366 106.852  95.510  1.00  0.00     0.293 HD
ENDBRANCH  14  18
BRANCH  16  20
ATOM     20  O   UNL     1     100.482 107.017  93.161  1.00  0.00    -0.502 OA
ATOM     21  H   UNL     1     100.214 107.486  92.304  1.00  0.00     0.293 HD
ENDBRANCH  16  20
BRANCH  17  22
ATOM     22  O   UNL     1     100.174 105.432  90.853  1.00  0.00    -0.504 OA
ATOM     23  H   UNL     1      99.391 106.074  90.842  1.00  0.00     0.293 HD
ENDBRANCH  17  22
ENDBRANCH   1  12
BRANCH   2  24
ATOM     24  O   UNL     1      99.619 100.884  94.020  1.00  0.00    -0.502 OA
ATOM     25  H   UNL     1      99.118 101.668  93.619  1.00  0.00     0.293 HD
ENDBRANCH   2  24
BRANCH   6  26
ATOM     26  O   UNL     1     102.233  96.328  93.138  1.00  0.00    -0.507 OA
ATOM     27  H   UNL     1     102.273  95.517  92.539  1.00  0.00     0.293 HD
ENDBRANCH   6  26
BRANCH   8  28
ATOM     28  O   UNL     1     106.603  98.013  92.156  1.00  0.00    -0.508 OA
ATOM     29  H   UNL     1     107.361  98.528  92.589  1.00  0.00     0.293 HD
ENDBRANCH   8  28
TORSDOF 7
ENDMDL
MODEL 8
REMARK VINA RESULT:    -4.450      1.804      6.901
REMARK INTER + INTRA:          -5.839
REMARK INTER:                  -5.559
REMARK INTRA:                  -0.280
REMARK UNBOUND:                -0.348
REMARK SMILES O=c1c(O)c(-c2cc(O)c(O)c(O)c2)oc2cc(O)cc(O)c12
REMARK SMILES IDX 5 1 3 2 2 3 1 4 23 5 21 6 20 7 18 8 17 9 16 10 15 11 6 12
REMARK SMILES IDX 7 13 8 14 14 15 10 16 12 17 9 18 11 20 13 22 4 24 22 26
REMARK SMILES IDX 19 28
REMARK H PARENT 9 19 11 21 13 23 4 25 22 27 19 29
REMARK Flexibility Score: inf
ROOT
ATOM      1  C   UNL     1     102.094 102.170  92.847  1.00  0.00     0.180 A 
ATOM      2  C   UNL     1     102.191 103.324  93.646  1.00  0.00     0.208 A 
ATOM      3  C   UNL     1     101.153 104.269  93.607  1.00  0.00     0.238 A 
ATOM      4  O   UNL     1     101.220 105.271  94.365  1.00  0.00    -0.285 OA
ATOM      5  C   UNL     1     100.040 104.058  92.758  1.00  0.00     0.111 A 
ATOM      6  C   UNL     1      98.951 104.968  92.609  1.00  0.00     0.134 A 
ATOM      7  C   UNL     1      97.840 104.596  91.841  1.00  0.00     0.093 A 
ATOM      8  C   UNL     1      97.808 103.377  91.165  1.00  0.00     0.123 A 
ATOM      9  C   UNL     1      98.894 102.505  91.255  1.00  0.00     0.094 A 
ATOM     10  C   UNL     1     100.000 102.831  92.043  1.00  0.00     0.146 A 
ATOM     11  O   UNL     1     101.007 101.970  92.111  1.00  0.00    -0.452 OA
ENDROOT
BRANCH   1  12
ATOM     12  C   UNL     1     103.159 101.142  92.816  1.00  0.00     0.029 A 
ATOM     13  C   UNL     1     104.402 101.395  92.210  1.00  0.00     0.062 A 
ATOM     14  C   UNL     1     105.390 100.402  92.169  1.00  0.00     0.162 A 
ATOM     15  C   UNL     1     102.906  99.871  93.349  1.00  0.00     0.062 A 
ATOM     16  C   UNL     1     105.135  99.136  92.727  1.00  0.00     0.200 A 
ATOM     17  C   UNL     1     103.886  98.874  93.314  1.00  0.00     0.162 A 
BRANCH  14  18
ATOM     18  O   UNL     1     106.621 100.665  91.571  1.00  0.00    -0.504 OA
ATOM     19  H   UNL     1     107.307 101.269  92.010  1.00  0.00     0.293 HD
ENDBRANCH  14  18
BRANCH  16  20
ATOM     20  O   UNL     1     106.109  98.138  92.699  1.00  0.00    -0.502 OA
ATOM     21  H   UNL     1     106.591  97.830  93.535  1.00  0.00     0.293 HD
ENDBRANCH  16  20
BRANCH  17  22
ATOM     22  O   UNL     1     103.600  97.626  93.869  1.00  0.00    -0.504 OA
ATOM     23  H   UNL     1     102.703  97.172  93.742  1.00  0.00     0.293 HD
ENDBRANCH  17  22
ENDBRANCH   1  12
BRANCH   2  24
ATOM     24  O   UNL     1     103.289 103.502  94.493  1.00  0.00    -0.502 OA
ATOM     25  H   UNL     1     103.203 103.497  95.502  1.00  0.00     0.293 HD
ENDBRANCH   2  24
BRANCH   6  26
ATOM     26  O   UNL     1      98.922 106.249  93.166  1.00  0.00    -0.507 OA
ATOM     27  H   UNL     1      99.712 106.707  93.595  1.00  0.00     0.293 HD
ENDBRANCH   6  26
BRANCH   8  28
ATOM     28  O   UNL     1      96.693 103.046  90.396  1.00  0.00    -0.508 OA
ATOM     29  H   UNL     1      96.788 102.683  89.455  1.00  0.00     0.293 HD
ENDBRANCH   8  28
TORSDOF 7
ENDMDL
MODEL 9
REMARK VINA RESULT:    -4.361      5.094      7.592
REMARK INTER + INTRA:          -5.729
REMARK INTER:                  -5.678
REMARK INTRA:                  -0.051
REMARK UNBOUND:                -0.348
REMARK SMILES O=c1c(O)c(-c2cc(O)c(O)c(O)c2)oc2cc(O)cc(O)c12
REMARK SMILES IDX 5 1 3 2 2 3 1 4 23 5 21 6 20 7 18 8 17 9 16 10 15 11 6 12
REMARK SMILES IDX 7 13 8 14 14 15 10 16 12 17 9 18 11 20 13 22 4 24 22 26
REMARK SMILES IDX 19 28
REMARK H PARENT 9 19 11 21 13 23 4 25 22 27 19 29
REMARK Flexibility Score: inf
ROOT
ATOM      1  C   UNL     1     100.717 108.172  92.825  1.00  0.00     0.180 A 
ATOM      2  C   UNL     1     101.722 107.189  92.838  1.00  0.00     0.208 A 
ATOM      3  C   UNL     1     101.354 105.837  92.751  1.00  0.00     0.238 A 
ATOM      4  O   UNL     1     102.261 104.965  92.707  1.00  0.00    -0.285 OA
ATOM      5  C   UNL     1      99.985 105.483  92.669  1.00  0.00     0.111 A 
ATOM      6  C   UNL     1      99.497 104.144  92.617  1.00  0.00     0.134 A 
ATOM      7  C   UNL     1      98.131 103.914  92.406  1.00  0.00     0.093 A 
ATOM      8  C   UNL     1      97.230 104.973  92.309  1.00  0.00     0.123 A 
ATOM      9  C   UNL     1      97.688 106.287  92.419  1.00  0.00     0.094 A 
ATOM     10  C   UNL     1      99.049 106.548  92.594  1.00  0.00     0.146 A 
ATOM     11  O   UNL     1      99.446 107.811  92.681  1.00  0.00    -0.452 OA
ENDROOT
BRANCH   1  12
ATOM     12  C   UNL     1     101.025 109.616  92.939  1.00  0.00     0.029 A 
ATOM     13  C   UNL     1     101.864 110.106  93.953  1.00  0.00     0.062 A 
ATOM     14  C   UNL     1     102.126 111.479  94.060  1.00  0.00     0.162 A 
ATOM     15  C   UNL     1     100.424 110.521  92.052  1.00  0.00     0.062 A 
ATOM     16  C   UNL     1     101.537 112.377  93.152  1.00  0.00     0.200 A 
ATOM     17  C   UNL     1     100.681 111.892  92.149  1.00  0.00     0.162 A 
BRANCH  14  18
ATOM     18  O   UNL     1     102.965 111.955  95.067  1.00  0.00    -0.504 OA
ATOM     19  H   UNL     1     103.393 112.872  95.013  1.00  0.00     0.293 HD
ENDBRANCH  14  18
BRANCH  16  20
ATOM     20  O   UNL     1     101.791 113.747  93.241  1.00  0.00    -0.502 OA
ATOM     21  H   UNL     1     101.213 114.435  92.775  1.00  0.00     0.293 HD
ENDBRANCH  16  20
BRANCH  17  22
ATOM     22  O   UNL     1     100.075 112.759  91.239  1.00  0.00    -0.504 OA
ATOM     23  H   UNL     1      99.241 112.502  90.725  1.00  0.00     0.293 HD
ENDBRANCH  17  22
ENDBRANCH   1  12
BRANCH   2  24
ATOM     24  O   UNL     1     103.068 107.561  92.897  1.00  0.00    -0.502 OA
ATOM     25  H   UNL     1     103.657 107.348  93.694  1.00  0.00     0.293 HD
ENDBRANCH   2  24
BRANCH   6  26
ATOM     26  O   UNL     1     100.298 103.013  92.794  1.00  0.00    -0.507 OA
ATOM     27  H   UNL     1     101.297 102.988  92.653  1.00  0.00     0.293 HD
ENDBRANCH   6  26
BRANCH   8  28
ATOM     28  O   UNL     1      95.875 104.708  92.115  1.00  0.00    -0.508 OA
ATOM     29  H   UNL     1      95.553 103.798  91.806  1.00  0.00     0.293 HD
ENDBRANCH   8  28
TORSDOF 7
ENDMDL
