MODEL 1
REMARK VINA RESULT:    -4.194      0.000      0.000
REMARK INTER + INTRA:          -9.272
REMARK INTER:                  -7.382
REMARK INTRA:                  -1.890
REMARK UNBOUND:                -1.890
REMARK SMILES CCCCCCCCCCCCCCC(=O)[O-]
REMARK SMILES IDX 9 1 10 2 11 3 12 4 13 5 14 6 15 7 16 8 17 9 8 10 7 11 6 12
REMARK SMILES IDX 5 13 4 14 3 15 2 16 1 17
REMARK H PARENT
REMARK Flexibility Score: inf
ROOT
ATOM      1  C   UNL     1      13.913 -22.249  19.493  1.00  0.00     0.000 C 
ENDROOT
BRANCH   1   2
ATOM      2  C   UNL     1      14.142 -23.148  20.718  1.00  0.00     0.000 C 
BRANCH   2   3
ATOM      3  C   UNL     1      13.250 -22.761  21.911  1.00  0.00     0.000 C 
BRANCH   3   4
ATOM      4  C   UNL     1      12.026 -21.932  21.487  1.00  0.00     0.000 C 
BRANCH   4   5
ATOM      5  C   UNL     1      12.014 -20.527  22.114  1.00  0.00     0.006 C 
BRANCH   5   6
ATOM      6  C   UNL     1      10.807 -19.698  21.657  1.00  0.00     0.053 C 
BRANCH   6   7
ATOM      7  C   UNL     1      11.211 -18.575  20.752  1.00  0.00     0.041 C 
ATOM      8  O   UNL     1      12.205 -17.857  21.038  1.00  0.00    -0.550 OA
ATOM      9  O   UNL     1      10.472 -18.302  19.607  1.00  0.00    -0.550 OA
ENDBRANCH   6   7
ENDBRANCH   5   6
ENDBRANCH   4   5
ENDBRANCH   3   4
ENDBRANCH   2   3
ENDBRANCH   1   2
BRANCH   1  10
ATOM     10  C   UNL     1      15.106 -21.328  19.199  1.00  0.00     0.000 C 
BRANCH  10  11
ATOM     11  C   UNL     1      14.845 -19.910  19.720  1.00  0.00    -0.000 C 
BRANCH  11  12
ATOM     12  C   UNL     1      15.386 -19.737  21.145  1.00  0.00    -0.000 C 
BRANCH  12  13
ATOM     13  C   UNL     1      16.776 -20.367  21.287  1.00  0.00    -0.000 C 
BRANCH  13  14
ATOM     14  C   UNL     1      16.748 -21.545  22.272  1.00  0.00    -0.000 C 
BRANCH  14  15
ATOM     15  C   UNL     1      16.826 -21.098  23.743  1.00  0.00    -0.000 C 
BRANCH  15  16
ATOM     16  C   UNL     1      15.523 -21.272  24.542  1.00  0.00    -0.003 C 
ATOM     17  C   UNL     1      14.623 -20.037  24.495  1.00  0.00     0.004 C 
ENDBRANCH  15  16
ENDBRANCH  14  15
ENDBRANCH  13  14
ENDBRANCH  12  13
ENDBRANCH  11  12
ENDBRANCH  10  11
ENDBRANCH   1  10
TORSDOF 13
ENDMDL
MODEL 2
REMARK VINA RESULT:    -4.117      2.073      4.702
REMARK INTER + INTRA:          -9.136
REMARK INTER:                  -7.140
REMARK INTRA:                  -1.997
REMARK UNBOUND:                -1.890
REMARK SMILES CCCCCCCCCCCCCCC(=O)[O-]
REMARK SMILES IDX 9 1 10 2 11 3 12 4 13 5 14 6 15 7 16 8 17 9 8 10 7 11 6 12
REMARK SMILES IDX 5 13 4 14 3 15 2 16 1 17
REMARK H PARENT
REMARK Flexibility Score: inf
ROOT
ATOM      1  C   UNL     1      17.349 -21.165  23.266  1.00  0.00     0.000 C 
ENDROOT
BRANCH   1   2
ATOM      2  C   UNL     1      16.584 -21.276  21.938  1.00  0.00     0.000 C 
BRANCH   2   3
ATOM      3  C   UNL     1      16.605 -19.965  21.133  1.00  0.00     0.000 C 
BRANCH   3   4
ATOM      4  C   UNL     1      15.833 -20.074  19.807  1.00  0.00     0.000 C 
BRANCH   4   5
ATOM      5  C   UNL     1      15.006 -18.814  19.497  1.00  0.00     0.006 C 
BRANCH   5   6
ATOM      6  C   UNL     1      15.126 -17.755  20.601  1.00  0.00     0.053 C 
BRANCH   6   7
ATOM      7  C   UNL     1      15.840 -16.528  20.124  1.00  0.00     0.041 C 
ATOM      8  O   UNL     1      15.301 -15.396  20.243  1.00  0.00    -0.550 OA
ATOM      9  O   UNL     1      17.086 -16.638  19.518  1.00  0.00    -0.550 OA
ENDBRANCH   6   7
ENDBRANCH   5   6
ENDBRANCH   4   5
ENDBRANCH   3   4
ENDBRANCH   2   3
ENDBRANCH   1   2
BRANCH   1  10
ATOM     10  C   UNL     1      16.421 -21.144  24.489  1.00  0.00     0.000 C 
BRANCH  10  11
ATOM     11  C   UNL     1      14.955 -21.301  24.068  1.00  0.00    -0.000 C 
BRANCH  11  12
ATOM     12  C   UNL     1      14.210 -19.963  24.155  1.00  0.00    -0.000 C 
BRANCH  12  13
ATOM     13  C   UNL     1      12.810 -20.071  23.539  1.00  0.00    -0.000 C 
BRANCH  13  14
ATOM     14  C   UNL     1      12.892 -20.372  22.035  1.00  0.00    -0.000 C 
BRANCH  14  15
ATOM     15  C   UNL     1      12.446 -21.803  21.685  1.00  0.00    -0.000 C 
BRANCH  15  16
ATOM     16  C   UNL     1      13.446 -22.605  20.834  1.00  0.00    -0.003 C 
ATOM     17  C   UNL     1      13.932 -23.879  21.524  1.00  0.00     0.004 C 
ENDBRANCH  15  16
ENDBRANCH  14  15
ENDBRANCH  13  14
ENDBRANCH  12  13
ENDBRANCH  11  12
ENDBRANCH  10  11
ENDBRANCH   1  10
TORSDOF 13
ENDMDL
MODEL 3
REMARK VINA RESULT:    -4.050      2.294      5.173
REMARK INTER + INTRA:          -9.018
REMARK INTER:                  -6.949
REMARK INTRA:                  -2.069
REMARK UNBOUND:                -1.890
REMARK SMILES CCCCCCCCCCCCCCC(=O)[O-]
REMARK SMILES IDX 9 1 10 2 11 3 12 4 13 5 14 6 15 7 16 8 17 9 8 10 7 11 6 12
REMARK SMILES IDX 5 13 4 14 3 15 2 16 1 17
REMARK H PARENT
REMARK Flexibility Score: inf
ROOT
ATOM      1  C   UNL     1      14.048 -23.009  20.449  1.00  0.00     0.000 C 
ENDROOT
BRANCH   1   2
ATOM      2  C   UNL     1      14.043 -21.676  19.684  1.00  0.00     0.000 C 
BRANCH   2   3
ATOM      3  C   UNL     1      15.405 -20.960  19.736  1.00  0.00     0.000 C 
BRANCH   3   4
ATOM      4  C   UNL     1      15.534 -20.025  20.950  1.00  0.00     0.000 C 
BRANCH   4   5
ATOM      5  C   UNL     1      16.641 -20.467  21.924  1.00  0.00     0.006 C 
BRANCH   5   6
ATOM      6  C   UNL     1      16.152 -21.541  22.906  1.00  0.00     0.053 C 
BRANCH   6   7
ATOM      7  C   UNL     1      15.899 -20.976  24.270  1.00  0.00     0.041 C 
ATOM      8  O   UNL     1      16.330 -21.572  25.293  1.00  0.00    -0.550 OA
ATOM      9  O   UNL     1      15.161 -19.807  24.415  1.00  0.00    -0.550 OA
ENDBRANCH   6   7
ENDBRANCH   5   6
ENDBRANCH   4   5
ENDBRANCH   3   4
ENDBRANCH   2   3
ENDBRANCH   1   2
BRANCH   1  10
ATOM     10  C   UNL     1      13.220 -22.955  21.742  1.00  0.00     0.000 C 
BRANCH  10  11
ATOM     11  C   UNL     1      12.192 -21.819  21.690  1.00  0.00    -0.000 C 
BRANCH  11  12
ATOM     12  C   UNL     1      12.442 -20.797  22.806  1.00  0.00    -0.000 C 
BRANCH  12  13
ATOM     13  C   UNL     1      12.065 -19.382  22.352  1.00  0.00    -0.000 C 
BRANCH  13  14
ATOM     14  C   UNL     1      10.971 -19.423  21.275  1.00  0.00    -0.000 C 
BRANCH  14  15
ATOM     15  C   UNL     1      11.169 -18.361  20.178  1.00  0.00    -0.000 C 
BRANCH  15  16
ATOM     16  C   UNL     1      12.573 -18.334  19.549  1.00  0.00    -0.003 C 
ATOM     17  C   UNL     1      13.325 -17.031  19.821  1.00  0.00     0.004 C 
ENDBRANCH  15  16
ENDBRANCH  14  15
ENDBRANCH  13  14
ENDBRANCH  12  13
ENDBRANCH  11  12
ENDBRANCH  10  11
ENDBRANCH   1  10
TORSDOF 13
ENDMDL
MODEL 4
REMARK VINA RESULT:    -4.033      2.373      4.028
REMARK INTER + INTRA:          -8.987
REMARK INTER:                  -7.106
REMARK INTRA:                  -1.881
REMARK UNBOUND:                -1.890
REMARK SMILES CCCCCCCCCCCCCCC(=O)[O-]
REMARK SMILES IDX 9 1 10 2 11 3 12 4 13 5 14 6 15 7 16 8 17 9 8 10 7 11 6 12
REMARK SMILES IDX 5 13 4 14 3 15 2 16 1 17
REMARK H PARENT
REMARK Flexibility Score: inf
ROOT
ATOM      1  C   UNL     1      11.006 -20.261  21.754  1.00  0.00     0.000 C 
ENDROOT
BRANCH   1   2
ATOM      2  C   UNL     1      12.135 -19.323  22.212  1.00  0.00     0.000 C 
BRANCH   2   3
ATOM      3  C   UNL     1      12.527 -18.300  21.132  1.00  0.00     0.000 C 
BRANCH   3   4
ATOM      4  C   UNL     1      12.841 -18.960  19.779  1.00  0.00     0.000 C 
BRANCH   4   5
ATOM      5  C   UNL     1      14.332 -18.871  19.406  1.00  0.00     0.006 C 
BRANCH   5   6
ATOM      6  C   UNL     1      15.084 -17.847  20.267  1.00  0.00     0.053 C 
BRANCH   6   7
ATOM      7  C   UNL     1      16.520 -17.725  19.863  1.00  0.00     0.041 C 
ATOM      8  O   UNL     1      17.021 -16.592  19.637  1.00  0.00    -0.550 OA
ATOM      9  O   UNL     1      17.299 -18.866  19.705  1.00  0.00    -0.550 OA
ENDBRANCH   6   7
ENDBRANCH   5   6
ENDBRANCH   4   5
ENDBRANCH   3   4
ENDBRANCH   2   3
ENDBRANCH   1   2
BRANCH   1  10
ATOM     10  C   UNL     1      11.389 -21.745  21.851  1.00  0.00     0.000 C 
BRANCH  10  11
ATOM     11  C   UNL     1      12.875 -21.907  22.194  1.00  0.00    -0.000 C 
BRANCH  11  12
ATOM     12  C   UNL     1      13.592 -22.765  21.145  1.00  0.00    -0.000 C 
BRANCH  12  13
ATOM     13  C   UNL     1      15.113 -22.702  21.328  1.00  0.00    -0.000 C 
BRANCH  13  14
ATOM     14  C   UNL     1      15.564 -21.283  21.703  1.00  0.00    -0.000 C 
BRANCH  14  15
ATOM     15  C   UNL     1      16.866 -21.264  22.524  1.00  0.00    -0.000 C 
BRANCH  15  16
ATOM     16  C   UNL     1      16.671 -21.306  24.049  1.00  0.00    -0.003 C 
ATOM     17  C   UNL     1      15.345 -20.692  24.499  1.00  0.00     0.004 C 
ENDBRANCH  15  16
ENDBRANCH  14  15
ENDBRANCH  13  14
ENDBRANCH  12  13
ENDBRANCH  11  12
ENDBRANCH  10  11
ENDBRANCH   1  10
TORSDOF 13
ENDMDL
MODEL 5
REMARK VINA RESULT:    -3.999      2.593      4.513
REMARK INTER + INTRA:          -8.929
REMARK INTER:                  -7.059
REMARK INTRA:                  -1.870
REMARK UNBOUND:                -1.890
REMARK SMILES CCCCCCCCCCCCCCC(=O)[O-]
REMARK SMILES IDX 9 1 10 2 11 3 12 4 13 5 14 6 15 7 16 8 17 9 8 10 7 11 6 12
REMARK SMILES IDX 5 13 4 14 3 15 2 16 1 17
REMARK H PARENT
REMARK Flexibility Score: inf
ROOT
ATOM      1  C   UNL     1      12.578 -22.319  22.258  1.00  0.00     0.000 C 
ENDROOT
BRANCH   1   2
ATOM      2  C   UNL     1      11.667 -21.334  21.507  1.00  0.00     0.000 C 
BRANCH   2   3
ATOM      3  C   UNL     1      12.229 -19.901  21.496  1.00  0.00     0.000 C 
BRANCH   3   4
ATOM      4  C   UNL     1      12.712 -19.446  22.882  1.00  0.00     0.000 C 
BRANCH   4   5
ATOM      5  C   UNL     1      14.221 -19.671  23.089  1.00  0.00     0.006 C 
BRANCH   5   6
ATOM      6  C   UNL     1      14.529 -20.332  24.439  1.00  0.00     0.053 C 
BRANCH   6   7
ATOM      7  C   UNL     1      15.836 -21.064  24.417  1.00  0.00     0.041 C 
ATOM      8  O   UNL     1      16.537 -21.076  23.371  1.00  0.00    -0.550 OA
ATOM      9  O   UNL     1      16.265 -21.758  25.542  1.00  0.00    -0.550 OA
ENDBRANCH   6   7
ENDBRANCH   5   6
ENDBRANCH   4   5
ENDBRANCH   3   4
ENDBRANCH   2   3
ENDBRANCH   1   2
BRANCH   1  10
ATOM     10  C   UNL     1      13.310 -23.287  21.317  1.00  0.00     0.000 C 
BRANCH  10  11
ATOM     11  C   UNL     1      14.577 -22.642  20.743  1.00  0.00    -0.000 C 
BRANCH  11  12
ATOM     12  C   UNL     1      14.371 -22.227  19.281  1.00  0.00    -0.000 C 
BRANCH  12  13
ATOM     13  C   UNL     1      14.863 -20.795  19.041  1.00  0.00    -0.000 C 
BRANCH  13  14
ATOM     14  C   UNL     1      15.910 -20.390  20.088  1.00  0.00    -0.000 C 
BRANCH  14  15
ATOM     15  C   UNL     1      16.236 -18.885  20.060  1.00  0.00    -0.000 C 
BRANCH  15  16
ATOM     16  C   UNL     1      15.019 -17.963  19.864  1.00  0.00    -0.003 C 
ATOM     17  C   UNL     1      15.075 -16.707  20.733  1.00  0.00     0.004 C 
ENDBRANCH  15  16
ENDBRANCH  14  15
ENDBRANCH  13  14
ENDBRANCH  12  13
ENDBRANCH  11  12
ENDBRANCH  10  11
ENDBRANCH   1  10
TORSDOF 13
ENDMDL
MODEL 6
REMARK VINA RESULT:    -3.918      1.468      3.222
REMARK INTER + INTRA:          -8.786
REMARK INTER:                  -6.563
REMARK INTRA:                  -2.222
REMARK UNBOUND:                -1.890
REMARK SMILES CCCCCCCCCCCCCCC(=O)[O-]
REMARK SMILES IDX 9 1 10 2 11 3 12 4 13 5 14 6 15 7 16 8 17 9 8 10 7 11 6 12
REMARK SMILES IDX 5 13 4 14 3 15 2 16 1 17
REMARK H PARENT
REMARK Flexibility Score: inf
ROOT
ATOM      1  C   UNL     1      15.910 -20.146  20.337  1.00  0.00     0.000 C 
ENDROOT
BRANCH   1   2
ATOM      2  C   UNL     1      16.192 -18.815  19.623  1.00  0.00     0.000 C 
BRANCH   2   3
ATOM      3  C   UNL     1      15.590 -17.608  20.364  1.00  0.00     0.000 C 
BRANCH   3   4
ATOM      4  C   UNL     1      14.199 -17.907  20.946  1.00  0.00     0.000 C 
BRANCH   4   5
ATOM      5  C   UNL     1      13.057 -17.407  20.042  1.00  0.00     0.006 C 
BRANCH   5   6
ATOM      6  C   UNL     1      11.893 -18.404  19.974  1.00  0.00     0.053 C 
BRANCH   6   7
ATOM      7  C   UNL     1      10.976 -18.273  21.151  1.00  0.00     0.041 C 
ATOM      8  O   UNL     1      10.807 -17.152  21.700  1.00  0.00    -0.550 OA
ATOM      9  O   UNL     1      10.332 -19.393  21.661  1.00  0.00    -0.550 OA
ENDBRANCH   6   7
ENDBRANCH   5   6
ENDBRANCH   4   5
ENDBRANCH   3   4
ENDBRANCH   2   3
ENDBRANCH   1   2
BRANCH   1  10
ATOM     10  C   UNL     1      15.101 -21.125  19.473  1.00  0.00     0.000 C 
BRANCH  10  11
ATOM     11  C   UNL     1      14.399 -22.175  20.343  1.00  0.00    -0.000 C 
BRANCH  11  12
ATOM     12  C   UNL     1      13.176 -21.578  21.050  1.00  0.00    -0.000 C 
BRANCH  12  13
ATOM     13  C   UNL     1      13.251 -21.802  22.564  1.00  0.00    -0.000 C 
BRANCH  13  14
ATOM     14  C   UNL     1      13.231 -20.465  23.320  1.00  0.00    -0.000 C 
BRANCH  14  15
ATOM     15  C   UNL     1      14.618 -20.050  23.841  1.00  0.00    -0.000 C 
BRANCH  15  16
ATOM     16  C   UNL     1      15.491 -21.208  24.355  1.00  0.00    -0.003 C 
ATOM     17  C   UNL     1      16.848 -21.290  23.657  1.00  0.00     0.004 C 
ENDBRANCH  15  16
ENDBRANCH  14  15
ENDBRANCH  13  14
ENDBRANCH  12  13
ENDBRANCH  11  12
ENDBRANCH  10  11
ENDBRANCH   1  10
TORSDOF 13
ENDMDL
MODEL 7
REMARK VINA RESULT:    -3.913      1.611      3.733
REMARK INTER + INTRA:          -8.777
REMARK INTER:                  -6.760
REMARK INTRA:                  -2.016
REMARK UNBOUND:                -1.890
REMARK SMILES CCCCCCCCCCCCCCC(=O)[O-]
REMARK SMILES IDX 9 1 10 2 11 3 12 4 13 5 14 6 15 7 16 8 17 9 8 10 7 11 6 12
REMARK SMILES IDX 5 13 4 14 3 15 2 16 1 17
REMARK H PARENT
REMARK Flexibility Score: inf
ROOT
ATOM      1  C   UNL     1      14.337 -20.102  24.157  1.00  0.00     0.000 C 
ENDROOT
BRANCH   1   2
ATOM      2  C   UNL     1      13.042 -20.392  23.381  1.00  0.00     0.000 C 
BRANCH   2   3
ATOM      3  C   UNL     1      12.607 -19.212  22.495  1.00  0.00     0.000 C 
BRANCH   3   4
ATOM      4  C   UNL     1      11.992 -19.670  21.162  1.00  0.00     0.000 C 
BRANCH   4   5
ATOM      5  C   UNL     1      12.691 -19.047  19.940  1.00  0.00     0.006 C 
BRANCH   5   6
ATOM      6  C   UNL     1      13.780 -18.044  20.345  1.00  0.00     0.053 C 
BRANCH   6   7
ATOM      7  C   UNL     1      13.399 -16.637  20.002  1.00  0.00     0.041 C 
ATOM      8  O   UNL     1      14.199 -15.902  19.364  1.00  0.00    -0.550 OA
ATOM      9  O   UNL     1      12.173 -16.127  20.412  1.00  0.00    -0.550 OA
ENDBRANCH   6   7
ENDBRANCH   5   6
ENDBRANCH   4   5
ENDBRANCH   3   4
ENDBRANCH   2   3
ENDBRANCH   1   2
BRANCH   1  10
ATOM     10  C   UNL     1      15.145 -21.371  24.462  1.00  0.00     0.000 C 
BRANCH  10  11
ATOM     11  C   UNL     1      16.651 -21.103  24.354  1.00  0.00    -0.000 C 
BRANCH  11  12
ATOM     12  C   UNL     1      17.073 -20.909  22.893  1.00  0.00    -0.000 C 
BRANCH  12  13
ATOM     13  C   UNL     1      16.413 -21.954  21.985  1.00  0.00    -0.000 C 
BRANCH  13  14
ATOM     14  C   UNL     1      15.604 -21.279  20.867  1.00  0.00    -0.000 C 
BRANCH  14  15
ATOM     15  C   UNL     1      14.546 -22.210  20.248  1.00  0.00    -0.000 C 
BRANCH  15  16
ATOM     16  C   UNL     1      14.430 -23.593  20.913  1.00  0.00    -0.003 C 
ATOM     17  C   UNL     1      13.323 -23.660  21.964  1.00  0.00     0.004 C 
ENDBRANCH  15  16
ENDBRANCH  14  15
ENDBRANCH  13  14
ENDBRANCH  12  13
ENDBRANCH  11  12
ENDBRANCH  10  11
ENDBRANCH   1  10
TORSDOF 13
ENDMDL
MODEL 8
REMARK VINA RESULT:    -3.872      2.710      4.645
REMARK INTER + INTRA:          -8.704
REMARK INTER:                  -6.839
REMARK INTRA:                  -1.866
REMARK UNBOUND:                -1.890
REMARK SMILES CCCCCCCCCCCCCCC(=O)[O-]
REMARK SMILES IDX 9 1 10 2 11 3 12 4 13 5 14 6 15 7 16 8 17 9 8 10 7 11 6 12
REMARK SMILES IDX 5 13 4 14 3 15 2 16 1 17
REMARK H PARENT
REMARK Flexibility Score: inf
ROOT
ATOM      1  C   UNL     1      14.099 -23.000  20.763  1.00  0.00     0.000 C 
ENDROOT
BRANCH   1   2
ATOM      2  C   UNL     1      13.113 -22.790  21.923  1.00  0.00     0.000 C 
BRANCH   2   3
ATOM      3  C   UNL     1      12.181 -21.587  21.696  1.00  0.00     0.000 C 
BRANCH   3   4
ATOM      4  C   UNL     1      12.437 -20.445  22.693  1.00  0.00     0.000 C 
BRANCH   4   5
ATOM      5  C   UNL     1      13.566 -20.768  23.688  1.00  0.00     0.006 C 
BRANCH   5   6
ATOM      6  C   UNL     1      14.921 -20.213  23.226  1.00  0.00     0.053 C 
BRANCH   6   7
ATOM      7  C   UNL     1      16.062 -21.052  23.711  1.00  0.00     0.041 C 
ATOM      8  O   UNL     1      16.960 -21.424  22.910  1.00  0.00    -0.550 OA
ATOM      9  O   UNL     1      16.119 -21.450  25.041  1.00  0.00    -0.550 OA
ENDBRANCH   6   7
ENDBRANCH   5   6
ENDBRANCH   4   5
ENDBRANCH   3   4
ENDBRANCH   2   3
ENDBRANCH   1   2
BRANCH   1  10
ATOM     10  C   UNL     1      14.007 -21.898  19.697  1.00  0.00     0.000 C 
BRANCH  10  11
ATOM     11  C   UNL     1      15.262 -21.018  19.708  1.00  0.00    -0.000 C 
BRANCH  11  12
ATOM     12  C   UNL     1      14.951 -19.606  19.197  1.00  0.00    -0.000 C 
BRANCH  12  13
ATOM     13  C   UNL     1      13.449 -19.309  19.278  1.00  0.00    -0.000 C 
BRANCH  13  14
ATOM     14  C   UNL     1      13.192 -17.799  19.392  1.00  0.00    -0.000 C 
BRANCH  14  15
ATOM     15  C   UNL     1      12.573 -17.396  20.744  1.00  0.00    -0.000 C 
BRANCH  15  16
ATOM     16  C   UNL     1      11.067 -17.086  20.700  1.00  0.00    -0.003 C 
ATOM     17  C   UNL     1      10.324 -17.554  21.951  1.00  0.00     0.004 C 
ENDBRANCH  15  16
ENDBRANCH  14  15
ENDBRANCH  13  14
ENDBRANCH  12  13
ENDBRANCH  11  12
ENDBRANCH  10  11
ENDBRANCH   1  10
TORSDOF 13
ENDMDL
MODEL 9
REMARK VINA RESULT:    -3.711      2.014      4.541
REMARK INTER + INTRA:          -8.422
REMARK INTER:                  -6.288
REMARK INTRA:                  -2.134
REMARK UNBOUND:                -1.890
REMARK SMILES CCCCCCCCCCCCCCC(=O)[O-]
REMARK SMILES IDX 9 1 10 2 11 3 12 4 13 5 14 6 15 7 16 8 17 9 8 10 7 11 6 12
REMARK SMILES IDX 5 13 4 14 3 15 2 16 1 17
REMARK H PARENT
REMARK Flexibility Score: inf
ROOT
ATOM      1  C   UNL     1      16.241 -22.042  21.865  1.00  0.00     0.000 C 
ENDROOT
BRANCH   1   2
ATOM      2  C   UNL     1      15.046 -22.081  20.899  1.00  0.00     0.000 C 
BRANCH   2   3
ATOM      3  C   UNL     1      15.176 -21.058  19.757  1.00  0.00     0.000 C 
BRANCH   3   4
ATOM      4  C   UNL     1      13.894 -20.232  19.556  1.00  0.00     0.000 C 
BRANCH   4   5
ATOM      5  C   UNL     1      14.125 -18.722  19.748  1.00  0.00     0.006 C 
BRANCH   5   6
ATOM      6  C   UNL     1      15.370 -18.430  20.596  1.00  0.00     0.053 C 
BRANCH   6   7
ATOM      7  C   UNL     1      15.898 -17.049  20.355  1.00  0.00     0.041 C 
ATOM      8  O   UNL     1      16.859 -16.868  19.562  1.00  0.00    -0.550 OA
ATOM      9  O   UNL     1      15.350 -15.965  21.031  1.00  0.00    -0.550 OA
ENDBRANCH   6   7
ENDBRANCH   5   6
ENDBRANCH   4   5
ENDBRANCH   3   4
ENDBRANCH   2   3
ENDBRANCH   1   2
BRANCH   1  10
ATOM     10  C   UNL     1      16.008 -21.109  23.062  1.00  0.00     0.000 C 
BRANCH  10  11
ATOM     11  C   UNL     1      14.608 -21.314  23.654  1.00  0.00    -0.000 C 
BRANCH  11  12
ATOM     12  C   UNL     1      13.967 -19.973  24.031  1.00  0.00    -0.000 C 
BRANCH  12  13
ATOM     13  C   UNL     1      12.774 -19.658  23.121  1.00  0.00    -0.000 C 
BRANCH  13  14
ATOM     14  C   UNL     1      12.208 -20.940  22.491  1.00  0.00    -0.000 C 
BRANCH  14  15
ATOM     15  C   UNL     1      10.868 -20.712  21.769  1.00  0.00    -0.000 C 
BRANCH  15  16
ATOM     16  C   UNL     1      10.377 -19.254  21.760  1.00  0.00    -0.003 C 
ATOM     17  C   UNL     1      10.470 -18.600  20.381  1.00  0.00     0.004 C 
ENDBRANCH  15  16
ENDBRANCH  14  15
ENDBRANCH  13  14
ENDBRANCH  12  13
ENDBRANCH  11  12
ENDBRANCH  10  11
ENDBRANCH   1  10
TORSDOF 13
ENDMDL
