MODEL 1
REMARK VINA RESULT:    16.030      0.000      0.000
REMARK INTER + INTRA:          41.566
REMARK INTER:                  42.269
REMARK INTRA:                  -0.703
REMARK UNBOUND:                -0.703
REMARK SMILES CCCCCCCCCCCCCCCCCCCCCCCCCCCCCC(=O)[O-]
REMARK SMILES IDX 16 1 17 2 18 3 19 4 20 5 21 6 22 7 23 8 24 9 25 10 26 11
REMARK SMILES IDX 27 12 28 13 29 14 30 15 31 16 32 17 15 18 14 19 13 20 12 21
REMARK SMILES IDX 11 22 10 23 9 24 8 25 7 26 6 27 5 28 4 29 3 30 2 31 1 32
REMARK H PARENT
REMARK Flexibility Score: inf
ROOT
ATOM      1  C   UNL     1     -21.817  59.280  -6.030  1.00  0.00     0.000 C 
ENDROOT
BRANCH   1   2
ATOM      2  C   UNL     1     -21.212  59.104  -4.622  1.00  0.00     0.000 C 
BRANCH   2   3
ATOM      3  C   UNL     1     -21.415  60.349  -3.738  1.00  0.00     0.000 C 
BRANCH   3   4
ATOM      4  C   UNL     1     -20.241  60.580  -2.771  1.00  0.00     0.000 C 
BRANCH   4   5
ATOM      5  C   UNL     1     -19.537  61.923  -3.011  1.00  0.00     0.000 C 
BRANCH   5   6
ATOM      6  C   UNL     1     -20.470  63.100  -2.684  1.00  0.00     0.000 C 
BRANCH   6   7
ATOM      7  C   UNL     1     -19.721  64.310  -2.105  1.00  0.00     0.000 C 
BRANCH   7   8
ATOM      8  C   UNL     1     -19.804  64.383  -0.572  1.00  0.00     0.000 C 
BRANCH   8   9
ATOM      9  C   UNL     1     -19.437  63.033   0.063  1.00  0.00     0.000 C 
BRANCH   9  10
ATOM     10  C   UNL     1     -17.918  62.805   0.154  1.00  0.00     0.000 C 
BRANCH  10  11
ATOM     11  C   UNL     1     -17.154  62.990  -1.170  1.00  0.00     0.000 C 
BRANCH  11  12
ATOM     12  C   UNL     1     -16.513  61.686  -1.676  1.00  0.00     0.000 C 
BRANCH  12  13
ATOM     13  C   UNL     1     -14.997  61.820  -1.905  1.00  0.00     0.006 C 
BRANCH  13  14
ATOM     14  C   UNL     1     -14.145  60.883  -1.035  1.00  0.00     0.053 C 
BRANCH  14  15
ATOM     15  C   UNL     1     -12.784  60.656  -1.619  1.00  0.00     0.041 C 
ATOM     16  O   UNL     1     -12.035  59.758  -1.154  1.00  0.00    -0.550 OA
ATOM     17  O   UNL     1     -12.329  61.464  -2.653  1.00  0.00    -0.550 OA
ENDBRANCH  14  15
ENDBRANCH  13  14
ENDBRANCH  12  13
ENDBRANCH  11  12
ENDBRANCH  10  11
ENDBRANCH   9  10
ENDBRANCH   8   9
ENDBRANCH   7   8
ENDBRANCH   6   7
ENDBRANCH   5   6
ENDBRANCH   4   5
ENDBRANCH   3   4
ENDBRANCH   2   3
ENDBRANCH   1   2
BRANCH   1  18
ATOM     18  C   UNL     1     -23.070  58.422  -6.275  1.00  0.00     0.000 C 
BRANCH  18  19
ATOM     19  C   UNL     1     -22.738  57.015  -6.798  1.00  0.00     0.000 C 
BRANCH  19  20
ATOM     20  C   UNL     1     -23.949  56.061  -6.727  1.00  0.00     0.000 C 
BRANCH  20  21
ATOM     21  C   UNL     1     -25.291  56.753  -7.023  1.00  0.00     0.000 C 
BRANCH  21  22
ATOM     22  C   UNL     1     -26.501  55.872  -6.674  1.00  0.00     0.000 C 
BRANCH  22  23
ATOM     23  C   UNL     1     -27.700  56.686  -6.157  1.00  0.00     0.000 C 
BRANCH  23  24
ATOM     24  C   UNL     1     -28.009  56.500  -4.657  1.00  0.00    -0.000 C 
BRANCH  24  25
ATOM     25  C   UNL     1     -29.100  57.431  -4.090  1.00  0.00    -0.000 C 
BRANCH  25  26
ATOM     26  C   UNL     1     -28.604  58.813  -3.625  1.00  0.00    -0.000 C 
BRANCH  26  27
ATOM     27  C   UNL     1     -29.281  59.285  -2.327  1.00  0.00    -0.000 C 
BRANCH  27  28
ATOM     28  C   UNL     1     -29.832  58.117  -1.492  1.00  0.00    -0.000 C 
BRANCH  28  29
ATOM     29  C   UNL     1     -30.111  58.517  -0.032  1.00  0.00    -0.000 C 
BRANCH  29  30
ATOM     30  C   UNL     1     -31.553  59.009   0.187  1.00  0.00    -0.000 C 
BRANCH  30  31
ATOM     31  C   UNL     1     -31.676  60.362   0.911  1.00  0.00    -0.003 C 
ATOM     32  C   UNL     1     -32.090  61.503  -0.016  1.00  0.00     0.004 C 
ENDBRANCH  30  31
ENDBRANCH  29  30
ENDBRANCH  28  29
ENDBRANCH  27  28
ENDBRANCH  26  27
ENDBRANCH  25  26
ENDBRANCH  24  25
ENDBRANCH  23  24
ENDBRANCH  22  23
ENDBRANCH  21  22
ENDBRANCH  20  21
ENDBRANCH  19  20
ENDBRANCH  18  19
ENDBRANCH   1  18
TORSDOF 28
ENDMDL
MODEL 2
REMARK VINA RESULT:    16.365      3.862      6.674
REMARK INTER + INTRA:          42.450
REMARK INTER:                  43.203
REMARK INTRA:                  -0.752
REMARK UNBOUND:                -0.703
REMARK SMILES CCCCCCCCCCCCCCCCCCCCCCCCCCCCCC(=O)[O-]
REMARK SMILES IDX 16 1 17 2 18 3 19 4 20 5 21 6 22 7 23 8 24 9 25 10 26 11
REMARK SMILES IDX 27 12 28 13 29 14 30 15 31 16 32 17 15 18 14 19 13 20 12 21
REMARK SMILES IDX 11 22 10 23 9 24 8 25 7 26 6 27 5 28 4 29 3 30 2 31 1 32
REMARK H PARENT
REMARK Flexibility Score: inf
ROOT
ATOM      1  C   UNL     1     -19.468  62.100  -2.705  1.00  0.00     0.000 C 
ENDROOT
BRANCH   1   2
ATOM      2  C   UNL     1     -19.471  62.000  -1.165  1.00  0.00     0.000 C 
BRANCH   2   3
ATOM      3  C   UNL     1     -18.804  63.217  -0.498  1.00  0.00     0.000 C 
BRANCH   3   4
ATOM      4  C   UNL     1     -17.270  63.171  -0.591  1.00  0.00     0.000 C 
BRANCH   4   5
ATOM      5  C   UNL     1     -16.769  62.041  -1.502  1.00  0.00     0.000 C 
BRANCH   5   6
ATOM      6  C   UNL     1     -15.235  62.040  -1.584  1.00  0.00     0.000 C 
BRANCH   6   7
ATOM      7  C   UNL     1     -14.701  61.179  -2.739  1.00  0.00     0.000 C 
BRANCH   7   8
ATOM      8  C   UNL     1     -13.320  61.634  -3.233  1.00  0.00     0.000 C 
BRANCH   8   9
ATOM      9  C   UNL     1     -13.357  61.974  -4.731  1.00  0.00     0.000 C 
BRANCH   9  10
ATOM     10  C   UNL     1     -12.029  61.675  -5.448  1.00  0.00     0.000 C 
BRANCH  10  11
ATOM     11  C   UNL     1     -12.076  61.807  -6.981  1.00  0.00     0.000 C 
BRANCH  11  12
ATOM     12  C   UNL     1     -13.228  62.703  -7.468  1.00  0.00     0.000 C 
BRANCH  12  13
ATOM     13  C   UNL     1     -12.837  63.568  -8.680  1.00  0.00     0.006 C 
BRANCH  13  14
ATOM     14  C   UNL     1     -13.683  63.310  -9.936  1.00  0.00     0.053 C 
BRANCH  14  15
ATOM     15  C   UNL     1     -14.890  62.475  -9.638  1.00  0.00     0.041 C 
ATOM     16  O   UNL     1     -14.867  61.232  -9.836  1.00  0.00    -0.550 OA
ATOM     17  O   UNL     1     -16.055  63.077  -9.180  1.00  0.00    -0.550 OA
ENDBRANCH  14  15
ENDBRANCH  13  14
ENDBRANCH  12  13
ENDBRANCH  11  12
ENDBRANCH  10  11
ENDBRANCH   9  10
ENDBRANCH   8   9
ENDBRANCH   7   8
ENDBRANCH   6   7
ENDBRANCH   5   6
ENDBRANCH   4   5
ENDBRANCH   3   4
ENDBRANCH   2   3
ENDBRANCH   1   2
BRANCH   1  18
ATOM     18  C   UNL     1     -20.175  60.926  -3.402  1.00  0.00     0.000 C 
BRANCH  18  19
ATOM     19  C   UNL     1     -21.070  60.116  -2.449  1.00  0.00     0.000 C 
BRANCH  19  20
ATOM     20  C   UNL     1     -22.485  60.716  -2.322  1.00  0.00     0.000 C 
BRANCH  20  21
ATOM     21  C   UNL     1     -22.749  61.379  -0.959  1.00  0.00     0.000 C 
BRANCH  21  22
ATOM     22  C   UNL     1     -24.235  61.358  -0.567  1.00  0.00     0.000 C 
BRANCH  22  23
ATOM     23  C   UNL     1     -25.108  60.604  -1.585  1.00  0.00     0.000 C 
BRANCH  23  24
ATOM     24  C   UNL     1     -25.928  59.438  -0.994  1.00  0.00    -0.000 C 
BRANCH  24  25
ATOM     25  C   UNL     1     -26.824  58.687  -2.000  1.00  0.00    -0.000 C 
BRANCH  25  26
ATOM     26  C   UNL     1     -28.208  59.318  -2.241  1.00  0.00    -0.000 C 
BRANCH  26  27
ATOM     27  C   UNL     1     -28.807  58.939  -3.606  1.00  0.00    -0.000 C 
BRANCH  27  28
ATOM     28  C   UNL     1     -29.044  57.426  -3.746  1.00  0.00    -0.000 C 
BRANCH  28  29
ATOM     29  C   UNL     1     -28.720  56.907  -5.158  1.00  0.00    -0.000 C 
BRANCH  29  30
ATOM     30  C   UNL     1     -27.709  55.746  -5.150  1.00  0.00    -0.000 C 
BRANCH  30  31
ATOM     31  C   UNL     1     -26.802  55.665  -6.391  1.00  0.00    -0.003 C 
ATOM     32  C   UNL     1     -26.420  57.037  -6.945  1.00  0.00     0.004 C 
ENDBRANCH  30  31
ENDBRANCH  29  30
ENDBRANCH  28  29
ENDBRANCH  27  28
ENDBRANCH  26  27
ENDBRANCH  25  26
ENDBRANCH  24  25
ENDBRANCH  23  24
ENDBRANCH  22  23
ENDBRANCH  21  22
ENDBRANCH  20  21
ENDBRANCH  19  20
ENDBRANCH  18  19
ENDBRANCH   1  18
TORSDOF 28
ENDMDL
MODEL 3
REMARK VINA RESULT:    16.973      5.204     13.581
REMARK INTER + INTRA:          44.052
REMARK INTER:                  44.527
REMARK INTRA:                  -0.475
REMARK UNBOUND:                -0.703
REMARK SMILES CCCCCCCCCCCCCCCCCCCCCCCCCCCCCC(=O)[O-]
REMARK SMILES IDX 16 1 17 2 18 3 19 4 20 5 21 6 22 7 23 8 24 9 25 10 26 11
REMARK SMILES IDX 27 12 28 13 29 14 30 15 31 16 32 17 15 18 14 19 13 20 12 21
REMARK SMILES IDX 11 22 10 23 9 24 8 25 7 26 6 27 5 28 4 29 3 30 2 31 1 32
REMARK H PARENT
REMARK Flexibility Score: inf
ROOT
ATOM      1  C   UNL     1     -20.083  61.481  -2.225  1.00  0.00     0.000 C 
ENDROOT
BRANCH   1   2
ATOM      2  C   UNL     1     -21.181  60.401  -2.141  1.00  0.00     0.000 C 
BRANCH   2   3
ATOM      3  C   UNL     1     -21.761  60.046  -3.523  1.00  0.00     0.000 C 
BRANCH   3   4
ATOM      4  C   UNL     1     -20.665  59.817  -4.577  1.00  0.00     0.000 C 
BRANCH   4   5
ATOM      5  C   UNL     1     -21.230  59.305  -5.911  1.00  0.00     0.000 C 
BRANCH   5   6
ATOM      6  C   UNL     1     -22.704  59.705  -6.074  1.00  0.00     0.000 C 
BRANCH   6   7
ATOM      7  C   UNL     1     -23.615  58.508  -6.387  1.00  0.00     0.000 C 
BRANCH   7   8
ATOM      8  C   UNL     1     -24.747  58.861  -7.364  1.00  0.00     0.000 C 
BRANCH   8   9
ATOM      9  C   UNL     1     -26.001  58.022  -7.075  1.00  0.00     0.000 C 
BRANCH   9  10
ATOM     10  C   UNL     1     -25.791  56.519  -7.331  1.00  0.00     0.000 C 
BRANCH  10  11
ATOM     11  C   UNL     1     -27.082  55.714  -7.565  1.00  0.00     0.000 C 
BRANCH  11  12
ATOM     12  C   UNL     1     -28.257  56.205  -6.702  1.00  0.00     0.000 C 
BRANCH  12  13
ATOM     13  C   UNL     1     -28.114  55.808  -5.222  1.00  0.00     0.006 C 
BRANCH  13  14
ATOM     14  C   UNL     1     -27.764  56.977  -4.288  1.00  0.00     0.053 C 
BRANCH  14  15
ATOM     15  C   UNL     1     -28.932  57.889  -4.069  1.00  0.00     0.041 C 
ATOM     16  O   UNL     1     -30.006  57.707  -4.698  1.00  0.00    -0.550 OA
ATOM     17  O   UNL     1     -28.819  58.966  -3.199  1.00  0.00    -0.550 OA
ENDBRANCH  14  15
ENDBRANCH  13  14
ENDBRANCH  12  13
ENDBRANCH  11  12
ENDBRANCH  10  11
ENDBRANCH   9  10
ENDBRANCH   8   9
ENDBRANCH   7   8
ENDBRANCH   6   7
ENDBRANCH   5   6
ENDBRANCH   4   5
ENDBRANCH   3   4
ENDBRANCH   2   3
ENDBRANCH   1   2
BRANCH   1  18
ATOM     18  C   UNL     1     -19.745  62.126  -0.871  1.00  0.00     0.000 C 
BRANCH  18  19
ATOM     19  C   UNL     1     -19.143  63.534  -1.013  1.00  0.00     0.000 C 
BRANCH  19  20
ATOM     20  C   UNL     1     -17.731  63.633  -0.398  1.00  0.00     0.000 C 
BRANCH  20  21
ATOM     21  C   UNL     1     -16.830  62.433  -0.736  1.00  0.00     0.000 C 
BRANCH  21  22
ATOM     22  C   UNL     1     -17.045  61.914  -2.167  1.00  0.00     0.000 C 
BRANCH  22  23
ATOM     23  C   UNL     1     -15.768  61.316  -2.782  1.00  0.00     0.000 C 
BRANCH  23  24
ATOM     24  C   UNL     1     -14.490  61.520  -1.942  1.00  0.00    -0.000 C 
BRANCH  24  25
ATOM     25  C   UNL     1     -13.189  61.681  -2.753  1.00  0.00    -0.000 C 
BRANCH  25  26
ATOM     26  C   UNL     1     -13.382  61.876  -4.269  1.00  0.00    -0.000 C 
BRANCH  26  27
ATOM     27  C   UNL     1     -12.141  61.474  -5.085  1.00  0.00    -0.000 C 
BRANCH  27  28
ATOM     28  C   UNL     1     -12.248  61.888  -6.562  1.00  0.00    -0.000 C 
BRANCH  28  29
ATOM     29  C   UNL     1     -13.492  62.749  -6.844  1.00  0.00    -0.000 C 
BRANCH  29  30
ATOM     30  C   UNL     1     -13.341  63.621  -8.104  1.00  0.00    -0.000 C 
BRANCH  30  31
ATOM     31  C   UNL     1     -14.160  63.153  -9.320  1.00  0.00    -0.003 C 
ATOM     32  C   UNL     1     -15.658  63.420  -9.175  1.00  0.00     0.004 C 
ENDBRANCH  30  31
ENDBRANCH  29  30
ENDBRANCH  28  29
ENDBRANCH  27  28
ENDBRANCH  26  27
ENDBRANCH  25  26
ENDBRANCH  24  25
ENDBRANCH  23  24
ENDBRANCH  22  23
ENDBRANCH  21  22
ENDBRANCH  20  21
ENDBRANCH  19  20
ENDBRANCH  18  19
ENDBRANCH   1  18
TORSDOF 28
ENDMDL
MODEL 4
REMARK VINA RESULT:    17.293      5.191     13.365
REMARK INTER + INTRA:          44.896
REMARK INTER:                  46.511
REMARK INTRA:                  -1.615
REMARK UNBOUND:                -0.703
REMARK SMILES CCCCCCCCCCCCCCCCCCCCCCCCCCCCCC(=O)[O-]
REMARK SMILES IDX 16 1 17 2 18 3 19 4 20 5 21 6 22 7 23 8 24 9 25 10 26 11
REMARK SMILES IDX 27 12 28 13 29 14 30 15 31 16 32 17 15 18 14 19 13 20 12 21
REMARK SMILES IDX 11 22 10 23 9 24 8 25 7 26 6 27 5 28 4 29 3 30 2 31 1 32
REMARK H PARENT
REMARK Flexibility Score: inf
ROOT
ATOM      1  C   UNL     1     -19.923  63.987  -0.380  1.00  0.00     0.000 C 
ENDROOT
BRANCH   1   2
ATOM      2  C   UNL     1     -20.497  62.615   0.029  1.00  0.00     0.000 C 
BRANCH   2   3
ATOM      3  C   UNL     1     -20.540  61.624  -1.149  1.00  0.00     0.000 C 
BRANCH   3   4
ATOM      4  C   UNL     1     -20.038  62.249  -2.461  1.00  0.00     0.000 C 
BRANCH   4   5
ATOM      5  C   UNL     1     -19.577  61.194  -3.477  1.00  0.00     0.000 C 
BRANCH   5   6
ATOM      6  C   UNL     1     -20.740  60.276  -3.882  1.00  0.00     0.000 C 
BRANCH   6   7
ATOM      7  C   UNL     1     -20.568  59.684  -5.290  1.00  0.00     0.000 C 
BRANCH   7   8
ATOM      8  C   UNL     1     -21.670  58.677  -5.651  1.00  0.00     0.000 C 
BRANCH   8   9
ATOM      9  C   UNL     1     -22.903  59.394  -6.223  1.00  0.00     0.000 C 
BRANCH   9  10
ATOM     10  C   UNL     1     -23.991  58.421  -6.713  1.00  0.00     0.000 C 
BRANCH  10  11
ATOM     11  C   UNL     1     -25.190  59.089  -7.410  1.00  0.00     0.000 C 
BRANCH  11  12
ATOM     12  C   UNL     1     -26.523  58.380  -7.115  1.00  0.00     0.000 C 
BRANCH  12  13
ATOM     13  C   UNL     1     -26.350  56.871  -6.864  1.00  0.00     0.006 C 
BRANCH  13  14
ATOM     14  C   UNL     1     -27.667  56.122  -6.607  1.00  0.00     0.053 C 
BRANCH  14  15
ATOM     15  C   UNL     1     -28.013  56.078  -5.150  1.00  0.00     0.041 C 
ATOM     16  O   UNL     1     -28.658  57.021  -4.622  1.00  0.00    -0.550 OA
ATOM     17  O   UNL     1     -27.588  55.012  -4.367  1.00  0.00    -0.550 OA
ENDBRANCH  14  15
ENDBRANCH  13  14
ENDBRANCH  12  13
ENDBRANCH  11  12
ENDBRANCH  10  11
ENDBRANCH   9  10
ENDBRANCH   8   9
ENDBRANCH   7   8
ENDBRANCH   6   7
ENDBRANCH   5   6
ENDBRANCH   4   5
ENDBRANCH   3   4
ENDBRANCH   2   3
ENDBRANCH   1   2
BRANCH   1  18
ATOM     18  C   UNL     1     -18.416  64.132  -0.111  1.00  0.00     0.000 C 
BRANCH  18  19
ATOM     19  C   UNL     1     -17.651  62.807  -0.263  1.00  0.00     0.000 C 
BRANCH  19  20
ATOM     20  C   UNL     1     -16.487  62.913  -1.270  1.00  0.00     0.000 C 
BRANCH  20  21
ATOM     21  C   UNL     1     -16.337  61.671  -2.166  1.00  0.00     0.000 C 
BRANCH  21  22
ATOM     22  C   UNL     1     -15.536  60.547  -1.492  1.00  0.00     0.000 C 
BRANCH  22  23
ATOM     23  C   UNL     1     -14.216  60.238  -2.219  1.00  0.00     0.000 C 
BRANCH  23  24
ATOM     24  C   UNL     1     -13.047  61.181  -1.864  1.00  0.00    -0.000 C 
BRANCH  24  25
ATOM     25  C   UNL     1     -12.755  62.285  -2.900  1.00  0.00    -0.000 C 
BRANCH  25  26
ATOM     26  C   UNL     1     -13.369  62.055  -4.293  1.00  0.00    -0.000 C 
BRANCH  26  27
ATOM     27  C   UNL     1     -12.361  61.479  -5.301  1.00  0.00    -0.000 C 
BRANCH  27  28
ATOM     28  C   UNL     1     -12.542  62.059  -6.714  1.00  0.00    -0.000 C 
BRANCH  28  29
ATOM     29  C   UNL     1     -13.792  62.949  -6.829  1.00  0.00    -0.000 C 
BRANCH  29  30
ATOM     30  C   UNL     1     -13.861  63.714  -8.163  1.00  0.00    -0.000 C 
BRANCH  30  31
ATOM     31  C   UNL     1     -14.718  63.045  -9.253  1.00  0.00    -0.003 C 
ATOM     32  C   UNL     1     -13.986  61.923  -9.988  1.00  0.00     0.004 C 
ENDBRANCH  30  31
ENDBRANCH  29  30
ENDBRANCH  28  29
ENDBRANCH  27  28
ENDBRANCH  26  27
ENDBRANCH  25  26
ENDBRANCH  24  25
ENDBRANCH  23  24
ENDBRANCH  22  23
ENDBRANCH  21  22
ENDBRANCH  20  21
ENDBRANCH  19  20
ENDBRANCH  18  19
ENDBRANCH   1  18
TORSDOF 28
ENDMDL
MODEL 5
REMARK VINA RESULT:    17.355      1.906      2.725
REMARK INTER + INTRA:          45.061
REMARK INTER:                  45.573
REMARK INTRA:                  -0.512
REMARK UNBOUND:                -0.703
REMARK SMILES CCCCCCCCCCCCCCCCCCCCCCCCCCCCCC(=O)[O-]
REMARK SMILES IDX 16 1 17 2 18 3 19 4 20 5 21 6 22 7 23 8 24 9 25 10 26 11
REMARK SMILES IDX 27 12 28 13 29 14 30 15 31 16 32 17 15 18 14 19 13 20 12 21
REMARK SMILES IDX 11 22 10 23 9 24 8 25 7 26 6 27 5 28 4 29 3 30 2 31 1 32
REMARK H PARENT
REMARK Flexibility Score: inf
ROOT
ATOM      1  C   UNL     1     -22.085  60.227  -4.788  1.00  0.00     0.000 C 
ENDROOT
BRANCH   1   2
ATOM      2  C   UNL     1     -21.155  60.074  -3.566  1.00  0.00     0.000 C 
BRANCH   2   3
ATOM      3  C   UNL     1     -19.836  60.851  -3.734  1.00  0.00     0.000 C 
BRANCH   3   4
ATOM      4  C   UNL     1     -19.459  61.646  -2.472  1.00  0.00     0.000 C 
BRANCH   4   5
ATOM      5  C   UNL     1     -20.292  61.237  -1.248  1.00  0.00     0.000 C 
BRANCH   5   6
ATOM      6  C   UNL     1     -20.234  62.319  -0.158  1.00  0.00     0.000 C 
BRANCH   6   7
ATOM      7  C   UNL     1     -20.733  63.686  -0.650  1.00  0.00     0.000 C 
BRANCH   7   8
ATOM      8  C   UNL     1     -20.019  64.862   0.035  1.00  0.00     0.000 C 
BRANCH   8   9
ATOM      9  C   UNL     1     -18.513  64.841  -0.268  1.00  0.00     0.000 C 
BRANCH   9  10
ATOM     10  C   UNL     1     -17.931  63.417  -0.325  1.00  0.00     0.000 C 
BRANCH  10  11
ATOM     11  C   UNL     1     -16.522  63.318  -0.936  1.00  0.00     0.000 C 
BRANCH  11  12
ATOM     12  C   UNL     1     -15.994  61.874  -0.989  1.00  0.00     0.000 C 
BRANCH  12  13
ATOM     13  C   UNL     1     -15.280  61.550  -2.313  1.00  0.00     0.006 C 
BRANCH  13  14
ATOM     14  C   UNL     1     -14.285  60.383  -2.222  1.00  0.00     0.053 C 
BRANCH  14  15
ATOM     15  C   UNL     1     -13.178  60.662  -1.252  1.00  0.00     0.041 C 
ATOM     16  O   UNL     1     -11.978  60.618  -1.628  1.00  0.00    -0.550 OA
ATOM     17  O   UNL     1     -13.473  60.932   0.078  1.00  0.00    -0.550 OA
ENDBRANCH  14  15
ENDBRANCH  13  14
ENDBRANCH  12  13
ENDBRANCH  11  12
ENDBRANCH  10  11
ENDBRANCH   9  10
ENDBRANCH   8   9
ENDBRANCH   7   8
ENDBRANCH   6   7
ENDBRANCH   5   6
ENDBRANCH   4   5
ENDBRANCH   3   4
ENDBRANCH   2   3
ENDBRANCH   1   2
BRANCH   1  18
ATOM     18  C   UNL     1     -21.687  59.344  -5.983  1.00  0.00     0.000 C 
BRANCH  18  19
ATOM     19  C   UNL     1     -22.853  58.490  -6.508  1.00  0.00     0.000 C 
BRANCH  19  20
ATOM     20  C   UNL     1     -24.207  59.222  -6.409  1.00  0.00     0.000 C 
BRANCH  20  21
ATOM     21  C   UNL     1     -25.344  58.512  -7.166  1.00  0.00     0.000 C 
BRANCH  21  22
ATOM     22  C   UNL     1     -24.898  57.181  -7.793  1.00  0.00     0.000 C 
BRANCH  22  23
ATOM     23  C   UNL     1     -25.650  55.970  -7.216  1.00  0.00     0.000 C 
BRANCH  23  24
ATOM     24  C   UNL     1     -27.126  56.238  -6.857  1.00  0.00    -0.000 C 
BRANCH  24  25
ATOM     25  C   UNL     1     -27.705  55.344  -5.740  1.00  0.00    -0.000 C 
BRANCH  25  26
ATOM     26  C   UNL     1     -28.046  56.075  -4.429  1.00  0.00    -0.000 C 
BRANCH  26  27
ATOM     27  C   UNL     1     -28.430  57.549  -4.649  1.00  0.00    -0.000 C 
BRANCH  27  28
ATOM     28  C   UNL     1     -29.166  58.153  -3.443  1.00  0.00    -0.000 C 
BRANCH  28  29
ATOM     29  C   UNL     1     -28.580  59.509  -3.013  1.00  0.00    -0.000 C 
BRANCH  29  30
ATOM     30  C   UNL     1     -27.040  59.525  -3.026  1.00  0.00    -0.000 C 
BRANCH  30  31
ATOM     31  C   UNL     1     -26.374  59.094  -1.707  1.00  0.00    -0.003 C 
ATOM     32  C   UNL     1     -25.360  60.112  -1.186  1.00  0.00     0.004 C 
ENDBRANCH  30  31
ENDBRANCH  29  30
ENDBRANCH  28  29
ENDBRANCH  27  28
ENDBRANCH  26  27
ENDBRANCH  25  26
ENDBRANCH  24  25
ENDBRANCH  23  24
ENDBRANCH  22  23
ENDBRANCH  21  22
ENDBRANCH  20  21
ENDBRANCH  19  20
ENDBRANCH  18  19
ENDBRANCH   1  18
TORSDOF 28
ENDMDL
MODEL 6
REMARK VINA RESULT:    17.582      6.399     12.660
REMARK INTER + INTRA:          45.659
REMARK INTER:                  47.251
REMARK INTRA:                  -1.592
REMARK UNBOUND:                -0.703
REMARK SMILES CCCCCCCCCCCCCCCCCCCCCCCCCCCCCC(=O)[O-]
REMARK SMILES IDX 16 1 17 2 18 3 19 4 20 5 21 6 22 7 23 8 24 9 25 10 26 11
REMARK SMILES IDX 27 12 28 13 29 14 30 15 31 16 32 17 15 18 14 19 13 20 12 21
REMARK SMILES IDX 11 22 10 23 9 24 8 25 7 26 6 27 5 28 4 29 3 30 2 31 1 32
REMARK H PARENT
REMARK Flexibility Score: inf
ROOT
ATOM      1  C   UNL     1     -19.043  64.021  -0.716  1.00  0.00     0.000 C 
ENDROOT
BRANCH   1   2
ATOM      2  C   UNL     1     -19.521  63.383  -2.037  1.00  0.00     0.000 C 
BRANCH   2   3
ATOM      3  C   UNL     1     -18.909  61.989  -2.269  1.00  0.00     0.000 C 
BRANCH   3   4
ATOM      4  C   UNL     1     -19.860  60.854  -1.854  1.00  0.00     0.000 C 
BRANCH   4   5
ATOM      5  C   UNL     1     -21.101  60.767  -2.754  1.00  0.00     0.000 C 
BRANCH   5   6
ATOM      6  C   UNL     1     -21.072  59.490  -3.608  1.00  0.00     0.000 C 
BRANCH   6   7
ATOM      7  C   UNL     1     -20.831  59.776  -5.098  1.00  0.00     0.000 C 
BRANCH   7   8
ATOM      8  C   UNL     1     -21.708  58.915  -6.020  1.00  0.00     0.000 C 
BRANCH   8   9
ATOM      9  C   UNL     1     -23.032  59.626  -6.338  1.00  0.00     0.000 C 
BRANCH   9  10
ATOM     10  C   UNL     1     -24.223  58.657  -6.452  1.00  0.00     0.000 C 
BRANCH  10  11
ATOM     11  C   UNL     1     -25.364  59.138  -7.367  1.00  0.00     0.000 C 
BRANCH  11  12
ATOM     12  C   UNL     1     -26.262  57.989  -7.856  1.00  0.00     0.000 C 
BRANCH  12  13
ATOM     13  C   UNL     1     -26.213  56.761  -6.928  1.00  0.00     0.006 C 
BRANCH  13  14
ATOM     14  C   UNL     1     -27.584  56.120  -6.662  1.00  0.00     0.053 C 
BRANCH  14  15
ATOM     15  C   UNL     1     -27.947  56.153  -5.209  1.00  0.00     0.041 C 
ATOM     16  O   UNL     1     -28.360  57.220  -4.683  1.00  0.00    -0.550 OA
ATOM     17  O   UNL     1     -27.791  55.016  -4.427  1.00  0.00    -0.550 OA
ENDBRANCH  14  15
ENDBRANCH  13  14
ENDBRANCH  12  13
ENDBRANCH  11  12
ENDBRANCH  10  11
ENDBRANCH   9  10
ENDBRANCH   8   9
ENDBRANCH   7   8
ENDBRANCH   6   7
ENDBRANCH   5   6
ENDBRANCH   4   5
ENDBRANCH   3   4
ENDBRANCH   2   3
ENDBRANCH   1   2
BRANCH   1  18
ATOM     18  C   UNL     1     -20.162  64.199   0.324  1.00  0.00     0.000 C 
BRANCH  18  19
ATOM     19  C   UNL     1     -20.898  62.887   0.642  1.00  0.00     0.000 C 
BRANCH  19  20
ATOM     20  C   UNL     1     -20.009  61.888   1.412  1.00  0.00     0.000 C 
BRANCH  20  21
ATOM     21  C   UNL     1     -20.640  61.393   2.725  1.00  0.00     0.000 C 
BRANCH  21  22
ATOM     22  C   UNL     1     -19.714  60.448   3.508  1.00  0.00     0.000 C 
BRANCH  22  23
ATOM     23  C   UNL     1     -18.826  61.191   4.522  1.00  0.00     0.000 C 
BRANCH  23  24
ATOM     24  C   UNL     1     -19.234  61.001   5.997  1.00  0.00    -0.000 C 
BRANCH  24  25
ATOM     25  C   UNL     1     -19.779  62.264   6.697  1.00  0.00    -0.000 C 
BRANCH  25  26
ATOM     26  C   UNL     1     -19.649  62.269   8.231  1.00  0.00    -0.000 C 
BRANCH  26  27
ATOM     27  C   UNL     1     -20.006  63.629   8.856  1.00  0.00    -0.000 C 
BRANCH  27  28
ATOM     28  C   UNL     1     -19.680  64.808   7.926  1.00  0.00    -0.000 C 
BRANCH  28  29
ATOM     29  C   UNL     1     -18.475  65.630   8.417  1.00  0.00    -0.000 C 
BRANCH  29  30
ATOM     30  C   UNL     1     -17.730  64.959   9.585  1.00  0.00    -0.000 C 
BRANCH  30  31
ATOM     31  C   UNL     1     -16.265  65.397   9.760  1.00  0.00    -0.003 C 
ATOM     32  C   UNL     1     -16.020  66.848   9.347  1.00  0.00     0.004 C 
ENDBRANCH  30  31
ENDBRANCH  29  30
ENDBRANCH  28  29
ENDBRANCH  27  28
ENDBRANCH  26  27
ENDBRANCH  25  26
ENDBRANCH  24  25
ENDBRANCH  23  24
ENDBRANCH  22  23
ENDBRANCH  21  22
ENDBRANCH  20  21
ENDBRANCH  19  20
ENDBRANCH  18  19
ENDBRANCH   1  18
TORSDOF 28
ENDMDL
MODEL 7
REMARK VINA RESULT:    17.608      3.459      6.512
REMARK INTER + INTRA:          45.727
REMARK INTER:                  44.486
REMARK INTRA:                   1.241
REMARK UNBOUND:                -0.703
REMARK SMILES CCCCCCCCCCCCCCCCCCCCCCCCCCCCCC(=O)[O-]
REMARK SMILES IDX 16 1 17 2 18 3 19 4 20 5 21 6 22 7 23 8 24 9 25 10 26 11
REMARK SMILES IDX 27 12 28 13 29 14 30 15 31 16 32 17 15 18 14 19 13 20 12 21
REMARK SMILES IDX 11 22 10 23 9 24 8 25 7 26 6 27 5 28 4 29 3 30 2 31 1 32
REMARK H PARENT
REMARK Flexibility Score: inf
ROOT
ATOM      1  C   UNL     1     -19.907  62.712  -2.096  1.00  0.00     0.000 C 
ENDROOT
BRANCH   1   2
ATOM      2  C   UNL     1     -19.853  63.407  -0.719  1.00  0.00     0.000 C 
BRANCH   2   3
ATOM      3  C   UNL     1     -18.506  63.191  -0.006  1.00  0.00     0.000 C 
BRANCH   3   4
ATOM      4  C   UNL     1     -17.307  63.342  -0.958  1.00  0.00     0.000 C 
BRANCH   4   5
ATOM      5  C   UNL     1     -16.846  61.998  -1.542  1.00  0.00     0.000 C 
BRANCH   5   6
ATOM      6  C   UNL     1     -15.645  62.190  -2.480  1.00  0.00     0.000 C 
BRANCH   6   7
ATOM      7  C   UNL     1     -14.627  61.043  -2.386  1.00  0.00     0.000 C 
BRANCH   7   8
ATOM      8  C   UNL     1     -13.256  61.413  -2.970  1.00  0.00     0.000 C 
BRANCH   8   9
ATOM      9  C   UNL     1     -13.270  61.319  -4.504  1.00  0.00     0.000 C 
BRANCH   9  10
ATOM     10  C   UNL     1     -11.987  61.869  -5.152  1.00  0.00     0.000 C 
BRANCH  10  11
ATOM     11  C   UNL     1     -11.876  61.635  -6.669  1.00  0.00     0.000 C 
BRANCH  11  12
ATOM     12  C   UNL     1     -13.070  62.208  -7.452  1.00  0.00     0.000 C 
BRANCH  12  13
ATOM     13  C   UNL     1     -13.070  61.782  -8.931  1.00  0.00     0.006 C 
BRANCH  13  14
ATOM     14  C   UNL     1     -14.248  62.340  -9.746  1.00  0.00     0.053 C 
BRANCH  14  15
ATOM     15  C   UNL     1     -14.964  63.437  -9.019  1.00  0.00     0.041 C 
ATOM     16  O   UNL     1     -15.783  64.172  -9.629  1.00  0.00    -0.550 OA
ATOM     17  O   UNL     1     -14.694  63.673  -7.677  1.00  0.00    -0.550 OA
ENDBRANCH  14  15
ENDBRANCH  13  14
ENDBRANCH  12  13
ENDBRANCH  11  12
ENDBRANCH  10  11
ENDBRANCH   9  10
ENDBRANCH   8   9
ENDBRANCH   7   8
ENDBRANCH   6   7
ENDBRANCH   5   6
ENDBRANCH   4   5
ENDBRANCH   3   4
ENDBRANCH   2   3
ENDBRANCH   1   2
BRANCH   1  18
ATOM     18  C   UNL     1     -19.736  61.185  -2.024  1.00  0.00     0.000 C 
BRANCH  18  19
ATOM     19  C   UNL     1     -21.070  60.429  -2.138  1.00  0.00     0.000 C 
BRANCH  19  20
ATOM     20  C   UNL     1     -21.601  60.390  -3.587  1.00  0.00     0.000 C 
BRANCH  20  21
ATOM     21  C   UNL     1     -20.671  59.644  -4.560  1.00  0.00     0.000 C 
BRANCH  21  22
ATOM     22  C   UNL     1     -21.414  59.102  -5.791  1.00  0.00     0.000 C 
BRANCH  22  23
ATOM     23  C   UNL     1     -22.793  59.754  -5.989  1.00  0.00     0.000 C 
BRANCH  23  24
ATOM     24  C   UNL     1     -23.807  58.896  -6.773  1.00  0.00    -0.000 C 
BRANCH  24  25
ATOM     25  C   UNL     1     -25.290  59.242  -6.528  1.00  0.00    -0.000 C 
BRANCH  25  26
ATOM     26  C   UNL     1     -26.302  58.279  -7.176  1.00  0.00    -0.000 C 
BRANCH  26  27
ATOM     27  C   UNL     1     -25.860  56.808  -7.099  1.00  0.00    -0.000 C 
BRANCH  27  28
ATOM     28  C   UNL     1     -27.049  55.833  -7.110  1.00  0.00    -0.000 C 
BRANCH  28  29
ATOM     29  C   UNL     1     -27.991  56.040  -5.911  1.00  0.00    -0.000 C 
BRANCH  29  30
ATOM     30  C   UNL     1     -27.315  56.773  -4.738  1.00  0.00    -0.000 C 
BRANCH  30  31
ATOM     31  C   UNL     1     -28.064  58.017  -4.230  1.00  0.00    -0.003 C 
ATOM     32  C   UNL     1     -29.550  57.762  -3.981  1.00  0.00     0.004 C 
ENDBRANCH  30  31
ENDBRANCH  29  30
ENDBRANCH  28  29
ENDBRANCH  27  28
ENDBRANCH  26  27
ENDBRANCH  25  26
ENDBRANCH  24  25
ENDBRANCH  23  24
ENDBRANCH  22  23
ENDBRANCH  21  22
ENDBRANCH  20  21
ENDBRANCH  19  20
ENDBRANCH  18  19
ENDBRANCH   1  18
TORSDOF 28
ENDMDL
MODEL 8
REMARK VINA RESULT:    17.636      4.972      7.301
REMARK INTER + INTRA:          45.800
REMARK INTER:                  47.666
REMARK INTRA:                  -1.866
REMARK UNBOUND:                -0.703
REMARK SMILES CCCCCCCCCCCCCCCCCCCCCCCCCCCCCC(=O)[O-]
REMARK SMILES IDX 16 1 17 2 18 3 19 4 20 5 21 6 22 7 23 8 24 9 25 10 26 11
REMARK SMILES IDX 27 12 28 13 29 14 30 15 31 16 32 17 15 18 14 19 13 20 12 21
REMARK SMILES IDX 11 22 10 23 9 24 8 25 7 26 6 27 5 28 4 29 3 30 2 31 1 32
REMARK H PARENT
REMARK Flexibility Score: inf
ROOT
ATOM      1  C   UNL     1     -18.347  61.862  -2.343  1.00  0.00     0.000 C 
ENDROOT
BRANCH   1   2
ATOM      2  C   UNL     1     -18.293  62.859  -1.167  1.00  0.00     0.000 C 
BRANCH   2   3
ATOM      3  C   UNL     1     -19.380  63.944  -1.268  1.00  0.00     0.000 C 
BRANCH   3   4
ATOM      4  C   UNL     1     -20.248  64.026  -0.001  1.00  0.00     0.000 C 
BRANCH   4   5
ATOM      5  C   UNL     1     -21.208  62.835   0.133  1.00  0.00     0.000 C 
BRANCH   5   6
ATOM      6  C   UNL     1     -20.551  61.684   0.911  1.00  0.00     0.000 C 
BRANCH   6   7
ATOM      7  C   UNL     1     -20.344  62.013   2.397  1.00  0.00     0.000 C 
BRANCH   7   8
ATOM      8  C   UNL     1     -19.997  60.775   3.238  1.00  0.00     0.000 C 
BRANCH   8   9
ATOM      9  C   UNL     1     -19.004  61.131   4.356  1.00  0.00     0.000 C 
BRANCH   9  10
ATOM     10  C   UNL     1     -18.745  59.964   5.324  1.00  0.00     0.000 C 
BRANCH  10  11
ATOM     11  C   UNL     1     -19.367  60.131   6.722  1.00  0.00     0.000 C 
BRANCH  11  12
ATOM     12  C   UNL     1     -18.929  61.430   7.419  1.00  0.00     0.000 C 
BRANCH  12  13
ATOM     13  C   UNL     1     -20.108  62.379   7.703  1.00  0.00     0.006 C 
BRANCH  13  14
ATOM     14  C   UNL     1     -19.947  63.216   8.982  1.00  0.00     0.053 C 
BRANCH  14  15
ATOM     15  C   UNL     1     -19.682  64.659   8.678  1.00  0.00     0.041 C 
ATOM     16  O   UNL     1     -20.225  65.563   9.366  1.00  0.00    -0.550 OA
ATOM     17  O   UNL     1     -18.867  65.005   7.608  1.00  0.00    -0.550 OA
ENDBRANCH  14  15
ENDBRANCH  13  14
ENDBRANCH  12  13
ENDBRANCH  11  12
ENDBRANCH  10  11
ENDBRANCH   9  10
ENDBRANCH   8   9
ENDBRANCH   7   8
ENDBRANCH   6   7
ENDBRANCH   5   6
ENDBRANCH   4   5
ENDBRANCH   3   4
ENDBRANCH   2   3
ENDBRANCH   1   2
BRANCH   1  18
ATOM     18  C   UNL     1     -19.740  61.740  -2.985  1.00  0.00     0.000 C 
BRANCH  18  19
ATOM     19  C   UNL     1     -20.555  60.563  -2.424  1.00  0.00     0.000 C 
BRANCH  19  20
ATOM     20  C   UNL     1     -21.614  60.054  -3.424  1.00  0.00     0.000 C 
BRANCH  20  21
ATOM     21  C   UNL     1     -21.013  59.538  -4.743  1.00  0.00     0.000 C 
BRANCH  21  22
ATOM     22  C   UNL     1     -21.882  59.879  -5.964  1.00  0.00     0.000 C 
BRANCH  22  23
ATOM     23  C   UNL     1     -22.992  58.844  -6.213  1.00  0.00     0.000 C 
BRANCH  23  24
ATOM     24  C   UNL     1     -24.399  59.442  -6.421  1.00  0.00    -0.000 C 
BRANCH  24  25
ATOM     25  C   UNL     1     -25.290  58.692  -7.432  1.00  0.00    -0.000 C 
BRANCH  25  26
ATOM     26  C   UNL     1     -25.620  57.235  -7.057  1.00  0.00    -0.000 C 
BRANCH  26  27
ATOM     27  C   UNL     1     -27.086  56.864  -7.342  1.00  0.00    -0.000 C 
BRANCH  27  28
ATOM     28  C   UNL     1     -27.603  55.751  -6.415  1.00  0.00    -0.000 C 
BRANCH  28  29
ATOM     29  C   UNL     1     -27.335  56.050  -4.930  1.00  0.00    -0.000 C 
BRANCH  29  30
ATOM     30  C   UNL     1     -28.625  56.317  -4.132  1.00  0.00    -0.000 C 
BRANCH  30  31
ATOM     31  C   UNL     1     -29.158  57.758  -4.221  1.00  0.00    -0.003 C 
ATOM     32  C   UNL     1     -28.129  58.805  -3.796  1.00  0.00     0.004 C 
ENDBRANCH  30  31
ENDBRANCH  29  30
ENDBRANCH  28  29
ENDBRANCH  27  28
ENDBRANCH  26  27
ENDBRANCH  25  26
ENDBRANCH  24  25
ENDBRANCH  23  24
ENDBRANCH  22  23
ENDBRANCH  21  22
ENDBRANCH  20  21
ENDBRANCH  19  20
ENDBRANCH  18  19
ENDBRANCH   1  18
TORSDOF 28
ENDMDL
MODEL 9
REMARK VINA RESULT:    17.707      1.133      2.519
REMARK INTER + INTRA:          45.987
REMARK INTER:                  45.010
REMARK INTRA:                   0.977
REMARK UNBOUND:                -0.703
REMARK SMILES CCCCCCCCCCCCCCCCCCCCCCCCCCCCCC(=O)[O-]
REMARK SMILES IDX 16 1 17 2 18 3 19 4 20 5 21 6 22 7 23 8 24 9 25 10 26 11
REMARK SMILES IDX 27 12 28 13 29 14 30 15 31 16 32 17 15 18 14 19 13 20 12 21
REMARK SMILES IDX 11 22 10 23 9 24 8 25 7 26 6 27 5 28 4 29 3 30 2 31 1 32
REMARK H PARENT
REMARK Flexibility Score: inf
ROOT
ATOM      1  C   UNL     1     -21.567  60.036  -2.792  1.00  0.00     0.000 C 
ENDROOT
BRANCH   1   2
ATOM      2  C   UNL     1     -20.226  60.796  -2.735  1.00  0.00     0.000 C 
BRANCH   2   3
ATOM      3  C   UNL     1     -20.383  62.218  -2.168  1.00  0.00     0.000 C 
BRANCH   3   4
ATOM      4  C   UNL     1     -20.991  62.224  -0.756  1.00  0.00     0.000 C 
BRANCH   4   5
ATOM      5  C   UNL     1     -21.333  63.639  -0.267  1.00  0.00     0.000 C 
BRANCH   5   6
ATOM      6  C   UNL     1     -20.067  64.391   0.170  1.00  0.00     0.000 C 
BRANCH   6   7
ATOM      7  C   UNL     1     -19.036  64.527  -0.961  1.00  0.00     0.000 C 
BRANCH   7   8
ATOM      8  C   UNL     1     -17.715  63.807  -0.653  1.00  0.00     0.000 C 
BRANCH   8   9
ATOM      9  C   UNL     1     -17.886  62.283  -0.751  1.00  0.00     0.000 C 
BRANCH   9  10
ATOM     10  C   UNL     1     -17.027  61.651  -1.861  1.00  0.00     0.000 C 
BRANCH  10  11
ATOM     11  C   UNL     1     -15.520  61.951  -1.763  1.00  0.00     0.000 C 
BRANCH  11  12
ATOM     12  C   UNL     1     -14.668  61.025  -2.650  1.00  0.00     0.000 C 
BRANCH  12  13
ATOM     13  C   UNL     1     -13.289  61.624  -2.980  1.00  0.00     0.006 C 
BRANCH  13  14
ATOM     14  C   UNL     1     -12.294  61.595  -1.810  1.00  0.00     0.053 C 
BRANCH  14  15
ATOM     15  C   UNL     1     -12.734  60.664  -0.722  1.00  0.00     0.041 C 
ATOM     16  O   UNL     1     -12.801  61.067   0.469  1.00  0.00    -0.550 OA
ATOM     17  O   UNL     1     -13.032  59.340  -1.018  1.00  0.00    -0.550 OA
ENDBRANCH  14  15
ENDBRANCH  13  14
ENDBRANCH  12  13
ENDBRANCH  11  12
ENDBRANCH  10  11
ENDBRANCH   9  10
ENDBRANCH   8   9
ENDBRANCH   7   8
ENDBRANCH   6   7
ENDBRANCH   5   6
ENDBRANCH   4   5
ENDBRANCH   3   4
ENDBRANCH   2   3
ENDBRANCH   1   2
BRANCH   1  18
ATOM     18  C   UNL     1     -22.233  60.059  -4.178  1.00  0.00     0.000 C 
BRANCH  18  19
ATOM     19  C   UNL     1     -21.273  59.652  -5.309  1.00  0.00     0.000 C 
BRANCH  19  20
ATOM     20  C   UNL     1     -21.971  58.810  -6.397  1.00  0.00     0.000 C 
BRANCH  20  21
ATOM     21  C   UNL     1     -23.499  58.988  -6.422  1.00  0.00     0.000 C 
BRANCH  21  22
ATOM     22  C   UNL     1     -24.237  57.716  -6.870  1.00  0.00     0.000 C 
BRANCH  22  23
ATOM     23  C   UNL     1     -25.702  57.983  -7.258  1.00  0.00     0.000 C 
BRANCH  23  24
ATOM     24  C   UNL     1     -26.704  57.902  -6.088  1.00  0.00    -0.000 C 
BRANCH  24  25
ATOM     25  C   UNL     1     -27.295  56.501  -5.824  1.00  0.00    -0.000 C 
BRANCH  25  26
ATOM     26  C   UNL     1     -28.251  56.411  -4.620  1.00  0.00    -0.000 C 
BRANCH  26  27
ATOM     27  C   UNL     1     -28.981  57.735  -4.338  1.00  0.00    -0.000 C 
BRANCH  27  28
ATOM     28  C   UNL     1     -28.714  58.266  -2.920  1.00  0.00    -0.000 C 
BRANCH  28  29
ATOM     29  C   UNL     1     -29.823  57.880  -1.927  1.00  0.00    -0.000 C 
BRANCH  29  30
ATOM     30  C   UNL     1     -29.738  58.660  -0.602  1.00  0.00    -0.000 C 
BRANCH  30  31
ATOM     31  C   UNL     1     -31.010  58.614   0.263  1.00  0.00    -0.003 C 
ATOM     32  C   UNL     1     -31.589  59.998   0.553  1.00  0.00     0.004 C 
ENDBRANCH  30  31
ENDBRANCH  29  30
ENDBRANCH  28  29
ENDBRANCH  27  28
ENDBRANCH  26  27
ENDBRANCH  25  26
ENDBRANCH  24  25
ENDBRANCH  23  24
ENDBRANCH  22  23
ENDBRANCH  21  22
ENDBRANCH  20  21
ENDBRANCH  19  20
ENDBRANCH  18  19
ENDBRANCH   1  18
TORSDOF 28
ENDMDL
