MODEL 1
REMARK VINA RESULT:    15.523      0.000      0.000
REMARK INTER + INTRA:          16.500
REMARK INTER:                  16.431
REMARK INTRA:                   0.069
REMARK UNBOUND:                 0.069
REMARK SMILES C=C1CC[C@H](C(C)C)[C@@H]2C=C(C)CC[C@H]12
REMARK SMILES IDX 12 1 11 2 10 3 9 4 15 5 14 6 13 7 2 8 1 9 3 10 4 11 5 12
REMARK SMILES IDX 6 13 7 14 8 15
REMARK H PARENT
REMARK Flexibility Score: inf
ROOT
ATOM      1  C   UNL     1       2.485   2.881 -10.102  1.00  0.00     0.039 C 
ATOM      2  C   UNL     1       1.741   4.103  -9.634  1.00  0.00    -0.077 C 
ATOM      3  C   UNL     1       1.039   4.828 -10.528  1.00  0.00    -0.024 C 
ATOM      4  C   UNL     1       0.274   6.105 -10.195  1.00  0.00     0.022 C 
ATOM      5  C   UNL     1       0.429   6.538  -8.692  1.00  0.00     0.022 C 
ATOM      6  C   UNL     1       0.676   5.348  -7.748  1.00  0.00     0.013 C 
ATOM      7  C   UNL     1       1.889   4.549  -8.203  1.00  0.00     0.031 C 
ATOM      8  C   UNL     1      -0.763   7.326  -8.175  1.00  0.00    -0.074 C 
ATOM      9  C   UNL     1      -0.579   8.366  -7.345  1.00  0.00     0.008 C 
ATOM     10  C   UNL     1      -2.173   6.885  -8.496  1.00  0.00     0.031 C 
ATOM     11  C   UNL     1      -2.210   5.794  -9.573  1.00  0.00     0.009 C 
ATOM     12  C   UNL     1      -1.217   6.125 -10.707  1.00  0.00    -0.001 C 
ENDROOT
BRANCH  12  13
ATOM     13  C   UNL     1      -1.501   5.329 -12.028  1.00  0.00    -0.014 C 
ATOM     14  C   UNL     1      -0.524   5.730 -13.147  1.00  0.00     0.007 C 
ATOM     15  C   UNL     1      -2.948   5.471 -12.539  1.00  0.00     0.007 C 
ENDBRANCH  12  13
TORSDOF 1
ENDMDL
