MODEL 1
REMARK VINA RESULT:    -4.514      0.000      0.000
REMARK INTER + INTRA:         -15.419
REMARK INTER:                 -11.375
REMARK INTRA:                  -4.044
REMARK UNBOUND:                -4.044
REMARK SMILES CCCCCCCCCCCCCCCCCCCCCCCCCCCC(=O)[O-]
REMARK SMILES IDX 15 1 16 2 17 3 18 4 19 5 20 6 21 7 22 8 23 9 24 10 25 11
REMARK SMILES IDX 26 12 27 13 28 14 29 15 30 16 14 17 13 18 12 19 11 20 10 21
REMARK SMILES IDX 9 22 8 23 7 24 6 25 5 26 4 27 3 28 2 29 1 30
REMARK H PARENT
REMARK Flexibility Score: inf
ROOT
ATOM      1  C   UNL     1     -52.563  15.135 -30.338  1.00  0.00     0.000 C 
ENDROOT
BRANCH   1   2
ATOM      2  C   UNL     1     -51.220  14.438 -30.028  1.00  0.00     0.000 C 
BRANCH   2   3
ATOM      3  C   UNL     1     -51.200  13.804 -28.629  1.00  0.00     0.000 C 
BRANCH   3   4
ATOM      4  C   UNL     1     -50.480  12.447 -28.650  1.00  0.00     0.000 C 
BRANCH   4   5
ATOM      5  C   UNL     1     -51.458  11.273 -28.817  1.00  0.00     0.000 C 
BRANCH   5   6
ATOM      6  C   UNL     1     -50.913  10.200 -29.774  1.00  0.00     0.000 C 
BRANCH   6   7
ATOM      7  C   UNL     1     -49.384  10.250 -29.926  1.00  0.00     0.000 C 
BRANCH   7   8
ATOM      8  C   UNL     1     -48.873   9.639 -31.249  1.00  0.00     0.000 C 
BRANCH   8   9
ATOM      9  C   UNL     1     -49.591   8.321 -31.588  1.00  0.00     0.000 C 
BRANCH   9  10
ATOM     10  C   UNL     1     -49.793   8.120 -33.105  1.00  0.00     0.000 C 
BRANCH  10  11
ATOM     11  C   UNL     1     -51.258   7.875 -33.511  1.00  0.00     0.000 C 
BRANCH  11  12
ATOM     12  C   UNL     1     -52.206   8.979 -33.021  1.00  0.00     0.006 C 
BRANCH  12  13
ATOM     13  C   UNL     1     -53.212   8.427 -32.005  1.00  0.00     0.053 C 
BRANCH  13  14
ATOM     14  C   UNL     1     -54.612   8.551 -32.525  1.00  0.00     0.041 C 
ATOM     15  O   UNL     1     -55.511   9.065 -31.808  1.00  0.00    -0.550 OA
ATOM     16  O   UNL     1     -54.928   8.093 -33.799  1.00  0.00    -0.550 OA
ENDBRANCH  13  14
ENDBRANCH  12  13
ENDBRANCH  11  12
ENDBRANCH  10  11
ENDBRANCH   9  10
ENDBRANCH   8   9
ENDBRANCH   7   8
ENDBRANCH   6   7
ENDBRANCH   5   6
ENDBRANCH   4   5
ENDBRANCH   3   4
ENDBRANCH   2   3
ENDBRANCH   1   2
BRANCH   1  17
ATOM     17  C   UNL     1     -53.261  14.592 -31.602  1.00  0.00     0.000 C 
BRANCH  17  18
ATOM     18  C   UNL     1     -53.036  13.092 -31.880  1.00  0.00     0.000 C 
BRANCH  18  19
ATOM     19  C   UNL     1     -54.299  12.221 -31.736  1.00  0.00     0.000 C 
BRANCH  19  20
ATOM     20  C   UNL     1     -55.443  12.962 -31.018  1.00  0.00     0.000 C 
BRANCH  20  21
ATOM     21  C   UNL     1     -55.690  12.444 -29.590  1.00  0.00     0.000 C 
BRANCH  21  22
ATOM     22  C   UNL     1     -54.966  13.226 -28.474  1.00  0.00    -0.000 C 
BRANCH  22  23
ATOM     23  C   UNL     1     -55.806  14.324 -27.790  1.00  0.00    -0.000 C 
BRANCH  23  24
ATOM     24  C   UNL     1     -55.737  15.713 -28.458  1.00  0.00    -0.000 C 
BRANCH  24  25
ATOM     25  C   UNL     1     -54.623  16.635 -27.928  1.00  0.00    -0.000 C 
BRANCH  25  26
ATOM     26  C   UNL     1     -55.174  17.933 -27.306  1.00  0.00    -0.000 C 
BRANCH  26  27
ATOM     27  C   UNL     1     -55.073  19.140 -28.256  1.00  0.00    -0.000 C 
BRANCH  27  28
ATOM     28  C   UNL     1     -53.867  19.119 -29.219  1.00  0.00    -0.000 C 
BRANCH  28  29
ATOM     29  C   UNL     1     -54.256  19.134 -30.712  1.00  0.00    -0.003 C 
ATOM     30  C   UNL     1     -55.569  19.879 -30.970  1.00  0.00     0.004 C 
ENDBRANCH  28  29
ENDBRANCH  27  28
ENDBRANCH  26  27
ENDBRANCH  25  26
ENDBRANCH  24  25
ENDBRANCH  23  24
ENDBRANCH  22  23
ENDBRANCH  21  22
ENDBRANCH  20  21
ENDBRANCH  19  20
ENDBRANCH  18  19
ENDBRANCH  17  18
ENDBRANCH   1  17
TORSDOF 26
ENDMDL
MODEL 2
REMARK VINA RESULT:    -4.511      2.630      8.293
REMARK INTER + INTRA:         -15.412
REMARK INTER:                 -10.816
REMARK INTRA:                  -4.595
REMARK UNBOUND:                -4.044
REMARK SMILES CCCCCCCCCCCCCCCCCCCCCCCCCCCC(=O)[O-]
REMARK SMILES IDX 15 1 16 2 17 3 18 4 19 5 20 6 21 7 22 8 23 9 24 10 25 11
REMARK SMILES IDX 26 12 27 13 28 14 29 15 30 16 14 17 13 18 12 19 11 20 10 21
REMARK SMILES IDX 9 22 8 23 7 24 6 25 5 26 4 27 3 28 2 29 1 30
REMARK H PARENT
REMARK Flexibility Score: inf
ROOT
ATOM      1  C   UNL     1     -53.513  12.648 -32.068  1.00  0.00     0.000 C 
ENDROOT
BRANCH   1   2
ATOM      2  C   UNL     1     -52.551  12.436 -30.879  1.00  0.00     0.000 C 
BRANCH   2   3
ATOM      3  C   UNL     1     -51.903  13.746 -30.409  1.00  0.00     0.000 C 
BRANCH   3   4
ATOM      4  C   UNL     1     -52.229  14.024 -28.934  1.00  0.00     0.000 C 
BRANCH   4   5
ATOM      5  C   UNL     1     -53.290  13.058 -28.382  1.00  0.00     0.000 C 
BRANCH   5   6
ATOM      6  C   UNL     1     -54.544  13.800 -27.888  1.00  0.00     0.000 C 
BRANCH   6   7
ATOM      7  C   UNL     1     -54.654  15.229 -28.441  1.00  0.00     0.000 C 
BRANCH   7   8
ATOM      8  C   UNL     1     -55.791  16.055 -27.800  1.00  0.00     0.000 C 
BRANCH   8   9
ATOM      9  C   UNL     1     -55.266  17.351 -27.157  1.00  0.00     0.000 C 
BRANCH   9  10
ATOM     10  C   UNL     1     -56.123  18.585 -27.506  1.00  0.00     0.000 C 
BRANCH  10  11
ATOM     11  C   UNL     1     -55.504  19.487 -28.590  1.00  0.00     0.000 C 
BRANCH  11  12
ATOM     12  C   UNL     1     -54.040  19.138 -28.892  1.00  0.00     0.006 C 
BRANCH  12  13
ATOM     13  C   UNL     1     -53.781  19.121 -30.403  1.00  0.00     0.053 C 
BRANCH  13  14
ATOM     14  C   UNL     1     -53.984  17.744 -30.959  1.00  0.00     0.041 C 
ATOM     15  O   UNL     1     -52.991  17.030 -31.258  1.00  0.00    -0.550 OA
ATOM     16  O   UNL     1     -55.269  17.251 -31.153  1.00  0.00    -0.550 OA
ENDBRANCH  13  14
ENDBRANCH  12  13
ENDBRANCH  11  12
ENDBRANCH  10  11
ENDBRANCH   9  10
ENDBRANCH   8   9
ENDBRANCH   7   8
ENDBRANCH   6   7
ENDBRANCH   5   6
ENDBRANCH   4   5
ENDBRANCH   3   4
ENDBRANCH   2   3
ENDBRANCH   1   2
BRANCH   1  17
ATOM     17  C   UNL     1     -54.619  13.686 -31.787  1.00  0.00     0.000 C 
BRANCH  17  18
ATOM     18  C   UNL     1     -55.861  13.137 -31.056  1.00  0.00     0.000 C 
BRANCH  18  19
ATOM     19  C   UNL     1     -56.001  11.603 -31.101  1.00  0.00     0.000 C 
BRANCH  19  20
ATOM     20  C   UNL     1     -55.941  10.968 -29.698  1.00  0.00     0.000 C 
BRANCH  20  21
ATOM     21  C   UNL     1     -55.094   9.685 -29.656  1.00  0.00     0.000 C 
BRANCH  21  22
ATOM     22  C   UNL     1     -54.671   9.132 -31.033  1.00  0.00    -0.000 C 
BRANCH  22  23
ATOM     23  C   UNL     1     -53.177   8.777 -31.168  1.00  0.00    -0.000 C 
BRANCH  23  24
ATOM     24  C   UNL     1     -52.483   8.354 -29.857  1.00  0.00    -0.000 C 
BRANCH  24  25
ATOM     25  C   UNL     1     -51.430   9.347 -29.329  1.00  0.00    -0.000 C 
BRANCH  25  26
ATOM     26  C   UNL     1     -50.017   8.735 -29.266  1.00  0.00    -0.000 C 
BRANCH  26  27
ATOM     27  C   UNL     1     -49.500   8.285 -30.644  1.00  0.00    -0.000 C 
BRANCH  27  28
ATOM     28  C   UNL     1     -49.099   9.427 -31.601  1.00  0.00    -0.000 C 
BRANCH  28  29
ATOM     29  C   UNL     1     -49.748   9.333 -32.999  1.00  0.00    -0.003 C 
ATOM     30  C   UNL     1     -50.817  10.407 -33.223  1.00  0.00     0.004 C 
ENDBRANCH  28  29
ENDBRANCH  27  28
ENDBRANCH  26  27
ENDBRANCH  25  26
ENDBRANCH  24  25
ENDBRANCH  23  24
ENDBRANCH  22  23
ENDBRANCH  21  22
ENDBRANCH  20  21
ENDBRANCH  19  20
ENDBRANCH  18  19
ENDBRANCH  17  18
ENDBRANCH   1  17
TORSDOF 26
ENDMDL
MODEL 3
REMARK VINA RESULT:    -4.485      3.147      8.447
REMARK INTER + INTRA:         -15.348
REMARK INTER:                 -11.143
REMARK INTRA:                  -4.205
REMARK UNBOUND:                -4.044
REMARK SMILES CCCCCCCCCCCCCCCCCCCCCCCCCCCC(=O)[O-]
REMARK SMILES IDX 15 1 16 2 17 3 18 4 19 5 20 6 21 7 22 8 23 9 24 10 25 11
REMARK SMILES IDX 26 12 27 13 28 14 29 15 30 16 14 17 13 18 12 19 11 20 10 21
REMARK SMILES IDX 9 22 8 23 7 24 6 25 5 26 4 27 3 28 2 29 1 30
REMARK H PARENT
REMARK Flexibility Score: inf
ROOT
ATOM      1  C   UNL     1     -51.172  13.833 -28.750  1.00  0.00     0.000 C 
ENDROOT
BRANCH   1   2
ATOM      2  C   UNL     1     -51.664  14.691 -29.936  1.00  0.00     0.000 C 
BRANCH   2   3
ATOM      3  C   UNL     1     -52.056  13.839 -31.151  1.00  0.00     0.000 C 
BRANCH   3   4
ATOM      4  C   UNL     1     -53.446  14.233 -31.675  1.00  0.00     0.000 C 
BRANCH   4   5
ATOM      5  C   UNL     1     -54.187  13.044 -32.307  1.00  0.00     0.000 C 
BRANCH   5   6
ATOM      6  C   UNL     1     -54.786  12.107 -31.245  1.00  0.00     0.000 C 
BRANCH   6   7
ATOM      7  C   UNL     1     -55.510  12.860 -30.119  1.00  0.00     0.000 C 
BRANCH   7   8
ATOM      8  C   UNL     1     -54.839  12.701 -28.736  1.00  0.00     0.000 C 
BRANCH   8   9
ATOM      9  C   UNL     1     -54.951  13.984 -27.893  1.00  0.00     0.000 C 
BRANCH   9  10
ATOM     10  C   UNL     1     -55.696  15.120 -28.624  1.00  0.00     0.000 C 
BRANCH  10  11
ATOM     11  C   UNL     1     -54.979  16.481 -28.553  1.00  0.00     0.000 C 
BRANCH  11  12
ATOM     12  C   UNL     1     -54.362  16.903 -29.894  1.00  0.00     0.006 C 
BRANCH  12  13
ATOM     13  C   UNL     1     -55.314  17.817 -30.672  1.00  0.00     0.053 C 
BRANCH  13  14
ATOM     14  C   UNL     1     -54.813  19.230 -30.667  1.00  0.00     0.041 C 
ATOM     15  O   UNL     1     -55.493  20.145 -31.202  1.00  0.00    -0.550 OA
ATOM     16  O   UNL     1     -53.591  19.536 -30.080  1.00  0.00    -0.550 OA
ENDBRANCH  13  14
ENDBRANCH  12  13
ENDBRANCH  11  12
ENDBRANCH  10  11
ENDBRANCH   9  10
ENDBRANCH   8   9
ENDBRANCH   7   8
ENDBRANCH   6   7
ENDBRANCH   5   6
ENDBRANCH   4   5
ENDBRANCH   3   4
ENDBRANCH   2   3
ENDBRANCH   1   2
BRANCH   1  17
ATOM     17  C   UNL     1     -51.234  12.316 -29.019  1.00  0.00     0.000 C 
BRANCH  17  18
ATOM     18  C   UNL     1     -49.992  11.520 -28.568  1.00  0.00     0.000 C 
BRANCH  18  19
ATOM     19  C   UNL     1     -49.839  10.143 -29.241  1.00  0.00     0.000 C 
BRANCH  19  20
ATOM     20  C   UNL     1     -48.727  10.133 -30.308  1.00  0.00     0.000 C 
BRANCH  20  21
ATOM     21  C   UNL     1     -48.990   9.125 -31.441  1.00  0.00     0.000 C 
BRANCH  21  22
ATOM     22  C   UNL     1     -49.799   9.676 -32.633  1.00  0.00    -0.000 C 
BRANCH  22  23
ATOM     23  C   UNL     1     -51.087  10.435 -32.257  1.00  0.00    -0.000 C 
BRANCH  23  24
ATOM     24  C   UNL     1     -52.375   9.914 -32.929  1.00  0.00    -0.000 C 
BRANCH  24  25
ATOM     25  C   UNL     1     -52.322   8.443 -33.382  1.00  0.00    -0.000 C 
BRANCH  25  26
ATOM     26  C   UNL     1     -53.715   7.875 -33.716  1.00  0.00    -0.000 C 
BRANCH  26  27
ATOM     27  C   UNL     1     -54.861   8.781 -33.232  1.00  0.00    -0.000 C 
BRANCH  27  28
ATOM     28  C   UNL     1     -55.835   8.129 -32.228  1.00  0.00    -0.000 C 
BRANCH  28  29
ATOM     29  C   UNL     1     -55.288   8.041 -30.788  1.00  0.00    -0.003 C 
ATOM     30  C   UNL     1     -55.991   9.012 -29.833  1.00  0.00     0.004 C 
ENDBRANCH  28  29
ENDBRANCH  27  28
ENDBRANCH  26  27
ENDBRANCH  25  26
ENDBRANCH  24  25
ENDBRANCH  23  24
ENDBRANCH  22  23
ENDBRANCH  21  22
ENDBRANCH  20  21
ENDBRANCH  19  20
ENDBRANCH  18  19
ENDBRANCH  17  18
ENDBRANCH   1  17
TORSDOF 26
ENDMDL
MODEL 4
REMARK VINA RESULT:    -4.337      1.618      3.893
REMARK INTER + INTRA:         -14.973
REMARK INTER:                 -11.154
REMARK INTRA:                  -3.819
REMARK UNBOUND:                -4.044
REMARK SMILES CCCCCCCCCCCCCCCCCCCCCCCCCCCC(=O)[O-]
REMARK SMILES IDX 15 1 16 2 17 3 18 4 19 5 20 6 21 7 22 8 23 9 24 10 25 11
REMARK SMILES IDX 26 12 27 13 28 14 29 15 30 16 14 17 13 18 12 19 11 20 10 21
REMARK SMILES IDX 9 22 8 23 7 24 6 25 5 26 4 27 3 28 2 29 1 30
REMARK H PARENT
REMARK Flexibility Score: inf
ROOT
ATOM      1  C   UNL     1     -50.641  13.509 -28.585  1.00  0.00     0.000 C 
ENDROOT
BRANCH   1   2
ATOM      2  C   UNL     1     -50.448  12.040 -28.151  1.00  0.00     0.000 C 
BRANCH   2   3
ATOM      3  C   UNL     1     -50.422  11.075 -29.345  1.00  0.00     0.000 C 
BRANCH   3   4
ATOM      4  C   UNL     1     -49.203  10.143 -29.274  1.00  0.00     0.000 C 
BRANCH   4   5
ATOM      5  C   UNL     1     -48.624   9.838 -30.664  1.00  0.00     0.000 C 
BRANCH   5   6
ATOM      6  C   UNL     1     -49.637  10.123 -31.786  1.00  0.00     0.000 C 
BRANCH   6   7
ATOM      7  C   UNL     1     -49.770   8.964 -32.786  1.00  0.00     0.000 C 
BRANCH   7   8
ATOM      8  C   UNL     1     -51.128   8.234 -32.711  1.00  0.00     0.000 C 
BRANCH   8   9
ATOM      9  C   UNL     1     -51.508   7.875 -31.263  1.00  0.00     0.000 C 
BRANCH   9  10
ATOM     10  C   UNL     1     -53.019   8.014 -30.987  1.00  0.00     0.000 C 
BRANCH  10  11
ATOM     11  C   UNL     1     -53.368   9.130 -29.984  1.00  0.00     0.000 C 
BRANCH  11  12
ATOM     12  C   UNL     1     -54.447  10.089 -30.509  1.00  0.00     0.006 C 
BRANCH  12  13
ATOM     13  C   UNL     1     -54.236  10.389 -31.997  1.00  0.00     0.053 C 
BRANCH  13  14
ATOM     14  C   UNL     1     -53.494  11.678 -32.177  1.00  0.00     0.041 C 
ATOM     15  O   UNL     1     -52.239  11.677 -32.283  1.00  0.00    -0.550 OA
ATOM     16  O   UNL     1     -54.186  12.883 -32.220  1.00  0.00    -0.550 OA
ENDBRANCH  13  14
ENDBRANCH  12  13
ENDBRANCH  11  12
ENDBRANCH  10  11
ENDBRANCH   9  10
ENDBRANCH   8   9
ENDBRANCH   7   8
ENDBRANCH   6   7
ENDBRANCH   5   6
ENDBRANCH   4   5
ENDBRANCH   3   4
ENDBRANCH   2   3
ENDBRANCH   1   2
BRANCH   1  17
ATOM     17  C   UNL     1     -51.888  13.733 -29.464  1.00  0.00     0.000 C 
BRANCH  17  18
ATOM     18  C   UNL     1     -52.085  15.179 -29.963  1.00  0.00     0.000 C 
BRANCH  18  19
ATOM     19  C   UNL     1     -51.967  15.347 -31.490  1.00  0.00     0.000 C 
BRANCH  19  20
ATOM     20  C   UNL     1     -52.811  16.525 -32.016  1.00  0.00     0.000 C 
BRANCH  20  21
ATOM     21  C   UNL     1     -53.251  17.493 -30.903  1.00  0.00     0.000 C 
BRANCH  21  22
ATOM     22  C   UNL     1     -54.620  18.167 -31.126  1.00  0.00    -0.000 C 
BRANCH  22  23
ATOM     23  C   UNL     1     -55.050  19.160 -30.027  1.00  0.00    -0.000 C 
BRANCH  23  24
ATOM     24  C   UNL     1     -54.288  19.029 -28.692  1.00  0.00    -0.000 C 
BRANCH  24  25
ATOM     25  C   UNL     1     -55.116  18.463 -27.523  1.00  0.00    -0.000 C 
BRANCH  25  26
ATOM     26  C   UNL     1     -54.926  16.945 -27.341  1.00  0.00    -0.000 C 
BRANCH  26  27
ATOM     27  C   UNL     1     -56.123  16.128 -27.857  1.00  0.00    -0.000 C 
BRANCH  27  28
ATOM     28  C   UNL     1     -55.955  15.537 -29.273  1.00  0.00    -0.000 C 
BRANCH  28  29
ATOM     29  C   UNL     1     -55.811  14.001 -29.300  1.00  0.00    -0.003 C 
ATOM     30  C   UNL     1     -54.979  13.469 -28.128  1.00  0.00     0.004 C 
ENDBRANCH  28  29
ENDBRANCH  27  28
ENDBRANCH  26  27
ENDBRANCH  25  26
ENDBRANCH  24  25
ENDBRANCH  23  24
ENDBRANCH  22  23
ENDBRANCH  21  22
ENDBRANCH  20  21
ENDBRANCH  19  20
ENDBRANCH  18  19
ENDBRANCH  17  18
ENDBRANCH   1  17
TORSDOF 26
ENDMDL
MODEL 5
REMARK VINA RESULT:    -4.285      2.188      4.974
REMARK INTER + INTRA:         -14.843
REMARK INTER:                 -10.610
REMARK INTRA:                  -4.233
REMARK UNBOUND:                -4.044
REMARK SMILES CCCCCCCCCCCCCCCCCCCCCCCCCCCC(=O)[O-]
REMARK SMILES IDX 15 1 16 2 17 3 18 4 19 5 20 6 21 7 22 8 23 9 24 10 25 11
REMARK SMILES IDX 26 12 27 13 28 14 29 15 30 16 14 17 13 18 12 19 11 20 10 21
REMARK SMILES IDX 9 22 8 23 7 24 6 25 5 26 4 27 3 28 2 29 1 30
REMARK H PARENT
REMARK Flexibility Score: inf
ROOT
ATOM      1  C   UNL     1     -53.395  14.613 -31.863  1.00  0.00     0.000 C 
ENDROOT
BRANCH   1   2
ATOM      2  C   UNL     1     -52.885  13.162 -31.733  1.00  0.00     0.000 C 
BRANCH   2   3
ATOM      3  C   UNL     1     -53.829  12.148 -32.396  1.00  0.00     0.000 C 
BRANCH   3   4
ATOM      4  C   UNL     1     -55.089  11.930 -31.544  1.00  0.00     0.000 C 
BRANCH   4   5
ATOM      5  C   UNL     1     -54.814  11.048 -30.316  1.00  0.00     0.000 C 
BRANCH   5   6
ATOM      6  C   UNL     1     -54.453   9.606 -30.711  1.00  0.00     0.000 C 
BRANCH   6   7
ATOM      7  C   UNL     1     -55.518   8.940 -31.594  1.00  0.00     0.000 C 
BRANCH   7   8
ATOM      8  C   UNL     1     -54.934   7.964 -32.640  1.00  0.00     0.000 C 
BRANCH   8   9
ATOM      9  C   UNL     1     -53.978   8.672 -33.615  1.00  0.00     0.000 C 
BRANCH   9  10
ATOM     10  C   UNL     1     -52.601   7.984 -33.712  1.00  0.00     0.000 C 
BRANCH  10  11
ATOM     11  C   UNL     1     -51.462   8.770 -33.036  1.00  0.00     0.000 C 
BRANCH  11  12
ATOM     12  C   UNL     1     -51.146   8.266 -31.621  1.00  0.00     0.006 C 
BRANCH  12  13
ATOM     13  C   UNL     1     -50.801   9.432 -30.687  1.00  0.00     0.053 C 
BRANCH  13  14
ATOM     14  C   UNL     1     -49.315   9.572 -30.544  1.00  0.00     0.041 C 
ATOM     15  O   UNL     1     -48.625  10.003 -31.505  1.00  0.00    -0.550 OA
ATOM     16  O   UNL     1     -48.691   9.219 -29.354  1.00  0.00    -0.550 OA
ENDBRANCH  13  14
ENDBRANCH  12  13
ENDBRANCH  11  12
ENDBRANCH  10  11
ENDBRANCH   9  10
ENDBRANCH   8   9
ENDBRANCH   7   8
ENDBRANCH   6   7
ENDBRANCH   5   6
ENDBRANCH   4   5
ENDBRANCH   3   4
ENDBRANCH   2   3
ENDBRANCH   1   2
BRANCH   1  17
ATOM     17  C   UNL     1     -52.271  15.668 -31.817  1.00  0.00     0.000 C 
BRANCH  17  18
ATOM     18  C   UNL     1     -52.596  16.935 -30.999  1.00  0.00     0.000 C 
BRANCH  18  19
ATOM     19  C   UNL     1     -54.096  17.281 -30.930  1.00  0.00     0.000 C 
BRANCH  19  20
ATOM     20  C   UNL     1     -54.339  18.771 -30.619  1.00  0.00     0.000 C 
BRANCH  20  21
ATOM     21  C   UNL     1     -53.945  19.157 -29.183  1.00  0.00     0.000 C 
BRANCH  21  22
ATOM     22  C   UNL     1     -55.079  19.055 -28.143  1.00  0.00    -0.000 C 
BRANCH  22  23
ATOM     23  C   UNL     1     -55.134  17.729 -27.358  1.00  0.00    -0.000 C 
BRANCH  23  24
ATOM     24  C   UNL     1     -56.097  16.669 -27.931  1.00  0.00    -0.000 C 
BRANCH  24  25
ATOM     25  C   UNL     1     -55.743  15.211 -27.580  1.00  0.00    -0.000 C 
BRANCH  25  26
ATOM     26  C   UNL     1     -54.985  14.495 -28.714  1.00  0.00    -0.000 C 
BRANCH  26  27
ATOM     27  C   UNL     1     -53.478  14.363 -28.435  1.00  0.00    -0.000 C 
BRANCH  27  28
ATOM     28  C   UNL     1     -52.992  12.934 -28.114  1.00  0.00    -0.000 C 
BRANCH  28  29
ATOM     29  C   UNL     1     -51.682  12.539 -28.830  1.00  0.00    -0.003 C 
ATOM     30  C   UNL     1     -50.606  13.625 -28.726  1.00  0.00     0.004 C 
ENDBRANCH  28  29
ENDBRANCH  27  28
ENDBRANCH  26  27
ENDBRANCH  25  26
ENDBRANCH  24  25
ENDBRANCH  23  24
ENDBRANCH  22  23
ENDBRANCH  21  22
ENDBRANCH  20  21
ENDBRANCH  19  20
ENDBRANCH  18  19
ENDBRANCH  17  18
ENDBRANCH   1  17
TORSDOF 26
ENDMDL
MODEL 6
REMARK VINA RESULT:    -4.128      1.848      6.376
REMARK INTER + INTRA:         -14.446
REMARK INTER:                 -10.945
REMARK INTRA:                  -3.500
REMARK UNBOUND:                -4.044
REMARK SMILES CCCCCCCCCCCCCCCCCCCCCCCCCCCC(=O)[O-]
REMARK SMILES IDX 15 1 16 2 17 3 18 4 19 5 20 6 21 7 22 8 23 9 24 10 25 11
REMARK SMILES IDX 26 12 27 13 28 14 29 15 30 16 14 17 13 18 12 19 11 20 10 21
REMARK SMILES IDX 9 22 8 23 7 24 6 25 5 26 4 27 3 28 2 29 1 30
REMARK H PARENT
REMARK Flexibility Score: inf
ROOT
ATOM      1  C   UNL     1     -55.135  18.297 -28.942  1.00  0.00     0.000 C 
ENDROOT
BRANCH   1   2
ATOM      2  C   UNL     1     -55.040  17.607 -27.564  1.00  0.00     0.000 C 
BRANCH   2   3
ATOM      3  C   UNL     1     -55.676  16.210 -27.563  1.00  0.00     0.000 C 
BRANCH   3   4
ATOM      4  C   UNL     1     -55.497  15.523 -28.926  1.00  0.00     0.000 C 
BRANCH   4   5
ATOM      5  C   UNL     1     -56.091  14.106 -28.945  1.00  0.00     0.000 C 
BRANCH   5   6
ATOM      6  C   UNL     1     -55.368  13.190 -29.946  1.00  0.00     0.000 C 
BRANCH   6   7
ATOM      7  C   UNL     1     -55.465  11.701 -29.578  1.00  0.00     0.000 C 
BRANCH   7   8
ATOM      8  C   UNL     1     -55.298  10.753 -30.786  1.00  0.00     0.000 C 
BRANCH   8   9
ATOM      9  C   UNL     1     -55.700   9.308 -30.441  1.00  0.00     0.000 C 
BRANCH   9  10
ATOM     10  C   UNL     1     -54.489   8.360 -30.318  1.00  0.00     0.000 C 
BRANCH  10  11
ATOM     11  C   UNL     1     -53.222   8.875 -31.028  1.00  0.00     0.000 C 
BRANCH  11  12
ATOM     12  C   UNL     1     -52.704   7.908 -32.102  1.00  0.00     0.006 C 
BRANCH  12  13
ATOM     13  C   UNL     1     -52.133   8.674 -33.300  1.00  0.00     0.053 C 
BRANCH  13  14
ATOM     14  C   UNL     1     -50.821   9.306 -32.948  1.00  0.00     0.041 C 
ATOM     15  O   UNL     1     -50.757  10.539 -32.703  1.00  0.00    -0.550 OA
ATOM     16  O   UNL     1     -49.665   8.535 -32.897  1.00  0.00    -0.550 OA
ENDBRANCH  13  14
ENDBRANCH  12  13
ENDBRANCH  11  12
ENDBRANCH  10  11
ENDBRANCH   9  10
ENDBRANCH   8   9
ENDBRANCH   7   8
ENDBRANCH   6   7
ENDBRANCH   5   6
ENDBRANCH   4   5
ENDBRANCH   3   4
ENDBRANCH   2   3
ENDBRANCH   1   2
BRANCH   1  17
ATOM     17  C   UNL     1     -53.889  19.134 -29.299  1.00  0.00     0.000 C 
BRANCH  17  18
ATOM     18  C   UNL     1     -53.175  18.721 -30.602  1.00  0.00     0.000 C 
BRANCH  18  19
ATOM     19  C   UNL     1     -53.570  17.329 -31.131  1.00  0.00     0.000 C 
BRANCH  19  20
ATOM     20  C   UNL     1     -52.342  16.445 -31.427  1.00  0.00     0.000 C 
BRANCH  20  21
ATOM     21  C   UNL     1     -52.719  15.012 -31.840  1.00  0.00     0.000 C 
BRANCH  21  22
ATOM     22  C   UNL     1     -52.051  13.894 -31.013  1.00  0.00    -0.000 C 
BRANCH  22  23
ATOM     23  C   UNL     1     -51.803  14.234 -29.529  1.00  0.00    -0.000 C 
BRANCH  23  24
ATOM     24  C   UNL     1     -52.010  13.063 -28.546  1.00  0.00    -0.000 C 
BRANCH  24  25
ATOM     25  C   UNL     1     -50.716  12.378 -28.068  1.00  0.00    -0.000 C 
BRANCH  25  26
ATOM     26  C   UNL     1     -49.629  12.337 -29.159  1.00  0.00    -0.000 C 
BRANCH  26  27
ATOM     27  C   UNL     1     -49.253  10.903 -29.574  1.00  0.00    -0.000 C 
BRANCH  27  28
ATOM     28  C   UNL     1     -50.329   9.834 -29.291  1.00  0.00    -0.000 C 
BRANCH  28  29
ATOM     29  C   UNL     1     -49.796   8.385 -29.315  1.00  0.00    -0.003 C 
ATOM     30  C   UNL     1     -48.294   8.307 -29.023  1.00  0.00     0.004 C 
ENDBRANCH  28  29
ENDBRANCH  27  28
ENDBRANCH  26  27
ENDBRANCH  25  26
ENDBRANCH  24  25
ENDBRANCH  23  24
ENDBRANCH  22  23
ENDBRANCH  21  22
ENDBRANCH  20  21
ENDBRANCH  19  20
ENDBRANCH  18  19
ENDBRANCH  17  18
ENDBRANCH   1  17
TORSDOF 26
ENDMDL
MODEL 7
REMARK VINA RESULT:    -4.122      2.271      8.282
REMARK INTER + INTRA:         -14.432
REMARK INTER:                 -10.812
REMARK INTRA:                  -3.620
REMARK UNBOUND:                -4.044
REMARK SMILES CCCCCCCCCCCCCCCCCCCCCCCCCCCC(=O)[O-]
REMARK SMILES IDX 15 1 16 2 17 3 18 4 19 5 20 6 21 7 22 8 23 9 24 10 25 11
REMARK SMILES IDX 26 12 27 13 28 14 29 15 30 16 14 17 13 18 12 19 11 20 10 21
REMARK SMILES IDX 9 22 8 23 7 24 6 25 5 26 4 27 3 28 2 29 1 30
REMARK H PARENT
REMARK Flexibility Score: inf
ROOT
ATOM      1  C   UNL     1     -50.579  13.071 -29.090  1.00  0.00     0.000 C 
ENDROOT
BRANCH   1   2
ATOM      2  C   UNL     1     -51.853  13.871 -28.743  1.00  0.00     0.000 C 
BRANCH   2   3
ATOM      3  C   UNL     1     -53.132  13.039 -28.919  1.00  0.00     0.000 C 
BRANCH   3   4
ATOM      4  C   UNL     1     -54.277  13.602 -28.064  1.00  0.00     0.000 C 
BRANCH   4   5
ATOM      5  C   UNL     1     -55.537  13.888 -28.895  1.00  0.00     0.000 C 
BRANCH   5   6
ATOM      6  C   UNL     1     -55.994  15.351 -28.766  1.00  0.00     0.000 C 
BRANCH   6   7
ATOM      7  C   UNL     1     -55.574  15.997 -27.437  1.00  0.00     0.000 C 
BRANCH   7   8
ATOM      8  C   UNL     1     -55.817  17.522 -27.385  1.00  0.00     0.000 C 
BRANCH   8   9
ATOM      9  C   UNL     1     -56.021  18.118 -28.788  1.00  0.00     0.000 C 
BRANCH   9  10
ATOM     10  C   UNL     1     -55.137  19.356 -29.050  1.00  0.00     0.000 C 
BRANCH  10  11
ATOM     11  C   UNL     1     -54.441  19.344 -30.424  1.00  0.00     0.000 C 
BRANCH  11  12
ATOM     12  C   UNL     1     -53.361  18.258 -30.538  1.00  0.00     0.006 C 
BRANCH  12  13
ATOM     13  C   UNL     1     -53.955  16.948 -31.068  1.00  0.00     0.053 C 
BRANCH  13  14
ATOM     14  C   UNL     1     -52.867  15.996 -31.462  1.00  0.00     0.041 C 
ATOM     15  O   UNL     1     -53.154  14.838 -31.865  1.00  0.00    -0.550 OA
ATOM     16  O   UNL     1     -51.534  16.383 -31.377  1.00  0.00    -0.550 OA
ENDBRANCH  13  14
ENDBRANCH  12  13
ENDBRANCH  11  12
ENDBRANCH  10  11
ENDBRANCH   9  10
ENDBRANCH   8   9
ENDBRANCH   7   8
ENDBRANCH   6   7
ENDBRANCH   5   6
ENDBRANCH   4   5
ENDBRANCH   3   4
ENDBRANCH   2   3
ENDBRANCH   1   2
BRANCH   1  17
ATOM     17  C   UNL     1     -50.560  11.651 -28.488  1.00  0.00     0.000 C 
BRANCH  17  18
ATOM     18  C   UNL     1     -50.851  10.513 -29.488  1.00  0.00     0.000 C 
BRANCH  18  19
ATOM     19  C   UNL     1     -49.732   9.460 -29.598  1.00  0.00     0.000 C 
BRANCH  19  20
ATOM     20  C   UNL     1     -48.986   9.535 -30.945  1.00  0.00     0.000 C 
BRANCH  20  21
ATOM     21  C   UNL     1     -49.286   8.339 -31.865  1.00  0.00     0.000 C 
BRANCH  21  22
ATOM     22  C   UNL     1     -50.125   8.669 -33.117  1.00  0.00    -0.000 C 
BRANCH  22  23
ATOM     23  C   UNL     1     -51.442   7.880 -33.252  1.00  0.00    -0.000 C 
BRANCH  23  24
ATOM     24  C   UNL     1     -52.568   8.315 -32.291  1.00  0.00    -0.000 C 
BRANCH  24  25
ATOM     25  C   UNL     1     -53.585   9.306 -32.888  1.00  0.00    -0.000 C 
BRANCH  25  26
ATOM     26  C   UNL     1     -53.199  10.776 -32.637  1.00  0.00    -0.000 C 
BRANCH  26  27
ATOM     27  C   UNL     1     -54.105  11.463 -31.599  1.00  0.00    -0.000 C 
BRANCH  27  28
ATOM     28  C   UNL     1     -55.478  10.794 -31.381  1.00  0.00    -0.000 C 
BRANCH  28  29
ATOM     29  C   UNL     1     -55.776  10.436 -29.910  1.00  0.00    -0.003 C 
ATOM     30  C   UNL     1     -54.632   9.657 -29.252  1.00  0.00     0.004 C 
ENDBRANCH  28  29
ENDBRANCH  27  28
ENDBRANCH  26  27
ENDBRANCH  25  26
ENDBRANCH  24  25
ENDBRANCH  23  24
ENDBRANCH  22  23
ENDBRANCH  21  22
ENDBRANCH  20  21
ENDBRANCH  19  20
ENDBRANCH  18  19
ENDBRANCH  17  18
ENDBRANCH   1  17
TORSDOF 26
ENDMDL
MODEL 8
REMARK VINA RESULT:    -4.075      2.164      5.676
REMARK INTER + INTRA:         -14.314
REMARK INTER:                 -10.627
REMARK INTRA:                  -3.688
REMARK UNBOUND:                -4.044
REMARK SMILES CCCCCCCCCCCCCCCCCCCCCCCCCCCC(=O)[O-]
REMARK SMILES IDX 15 1 16 2 17 3 18 4 19 5 20 6 21 7 22 8 23 9 24 10 25 11
REMARK SMILES IDX 26 12 27 13 28 14 29 15 30 16 14 17 13 18 12 19 11 20 10 21
REMARK SMILES IDX 9 22 8 23 7 24 6 25 5 26 4 27 3 28 2 29 1 30
REMARK H PARENT
REMARK Flexibility Score: inf
ROOT
ATOM      1  C   UNL     1     -54.609  16.282 -27.825  1.00  0.00     0.000 C 
ENDROOT
BRANCH   1   2
ATOM      2  C   UNL     1     -55.564  15.129 -28.202  1.00  0.00     0.000 C 
BRANCH   2   3
ATOM      3  C   UNL     1     -54.884  13.755 -28.120  1.00  0.00     0.000 C 
BRANCH   3   4
ATOM      4  C   UNL     1     -55.004  13.000 -29.453  1.00  0.00     0.000 C 
BRANCH   4   5
ATOM      5  C   UNL     1     -55.336  11.514 -29.250  1.00  0.00     0.000 C 
BRANCH   5   6
ATOM      6  C   UNL     1     -54.127  10.608 -29.539  1.00  0.00     0.000 C 
BRANCH   6   7
ATOM      7  C   UNL     1     -54.410   9.555 -30.622  1.00  0.00     0.000 C 
BRANCH   7   8
ATOM      8  C   UNL     1     -53.648   9.805 -31.942  1.00  0.00     0.000 C 
BRANCH   8   9
ATOM      9  C   UNL     1     -52.308  10.523 -31.704  1.00  0.00     0.000 C 
BRANCH   9  10
ATOM     10  C   UNL     1     -51.254  10.201 -32.784  1.00  0.00     0.000 C 
BRANCH  10  11
ATOM     11  C   UNL     1     -50.960   8.696 -32.937  1.00  0.00     0.000 C 
BRANCH  11  12
ATOM     12  C   UNL     1     -49.596   8.292 -32.360  1.00  0.00     0.006 C 
BRANCH  12  13
ATOM     13  C   UNL     1     -49.060   9.372 -31.414  1.00  0.00     0.053 C 
BRANCH  13  14
ATOM     14  C   UNL     1     -49.112   8.902 -29.991  1.00  0.00     0.041 C 
ATOM     15  O   UNL     1     -48.320   9.380 -29.137  1.00  0.00    -0.550 OA
ATOM     16  O   UNL     1     -50.030   7.930 -29.609  1.00  0.00    -0.550 OA
ENDBRANCH  13  14
ENDBRANCH  12  13
ENDBRANCH  11  12
ENDBRANCH  10  11
ENDBRANCH   9  10
ENDBRANCH   8   9
ENDBRANCH   7   8
ENDBRANCH   6   7
ENDBRANCH   5   6
ENDBRANCH   4   5
ENDBRANCH   3   4
ENDBRANCH   2   3
ENDBRANCH   1   2
BRANCH   1  17
ATOM     17  C   UNL     1     -55.307  17.444 -27.089  1.00  0.00     0.000 C 
BRANCH  17  18
ATOM     18  C   UNL     1     -56.125  18.391 -27.991  1.00  0.00     0.000 C 
BRANCH  18  19
ATOM     19  C   UNL     1     -55.347  19.622 -28.494  1.00  0.00     0.000 C 
BRANCH  19  20
ATOM     20  C   UNL     1     -55.669  19.957 -29.964  1.00  0.00     0.000 C 
BRANCH  20  21
ATOM     21  C   UNL     1     -54.420  19.981 -30.862  1.00  0.00     0.000 C 
BRANCH  21  22
ATOM     22  C   UNL     1     -53.193  19.234 -30.299  1.00  0.00    -0.000 C 
BRANCH  22  23
ATOM     23  C   UNL     1     -52.732  18.015 -31.121  1.00  0.00    -0.000 C 
BRANCH  23  24
ATOM     24  C   UNL     1     -53.818  16.949 -31.377  1.00  0.00    -0.000 C 
BRANCH  24  25
ATOM     25  C   UNL     1     -53.372  15.495 -31.133  1.00  0.00    -0.000 C 
BRANCH  25  26
ATOM     26  C   UNL     1     -51.850  15.308 -31.278  1.00  0.00    -0.000 C 
BRANCH  26  27
ATOM     27  C   UNL     1     -51.182  14.817 -29.981  1.00  0.00    -0.000 C 
BRANCH  27  28
ATOM     28  C   UNL     1     -51.543  13.376 -29.562  1.00  0.00    -0.000 C 
BRANCH  28  29
ATOM     29  C   UNL     1     -50.320  12.493 -29.232  1.00  0.00    -0.003 C 
ATOM     30  C   UNL     1     -50.484  11.733 -27.912  1.00  0.00     0.004 C 
ENDBRANCH  28  29
ENDBRANCH  27  28
ENDBRANCH  26  27
ENDBRANCH  25  26
ENDBRANCH  24  25
ENDBRANCH  23  24
ENDBRANCH  22  23
ENDBRANCH  21  22
ENDBRANCH  20  21
ENDBRANCH  19  20
ENDBRANCH  18  19
ENDBRANCH  17  18
ENDBRANCH   1  17
TORSDOF 26
ENDMDL
MODEL 9
REMARK VINA RESULT:    -3.962      1.470      8.407
REMARK INTER + INTRA:         -14.028
REMARK INTER:                 -10.840
REMARK INTRA:                  -3.187
REMARK UNBOUND:                -4.044
REMARK SMILES CCCCCCCCCCCCCCCCCCCCCCCCCCCC(=O)[O-]
REMARK SMILES IDX 15 1 16 2 17 3 18 4 19 5 20 6 21 7 22 8 23 9 24 10 25 11
REMARK SMILES IDX 26 12 27 13 28 14 29 15 30 16 14 17 13 18 12 19 11 20 10 21
REMARK SMILES IDX 9 22 8 23 7 24 6 25 5 26 4 27 3 28 2 29 1 30
REMARK H PARENT
REMARK Flexibility Score: inf
ROOT
ATOM      1  C   UNL     1     -51.509  14.578 -30.643  1.00  0.00     0.000 C 
ENDROOT
BRANCH   1   2
ATOM      2  C   UNL     1     -51.731  16.077 -30.939  1.00  0.00     0.000 C 
BRANCH   2   3
ATOM      3  C   UNL     1     -53.207  16.409 -31.202  1.00  0.00     0.000 C 
BRANCH   3   4
ATOM      4  C   UNL     1     -53.383  17.892 -31.562  1.00  0.00     0.000 C 
BRANCH   4   5
ATOM      5  C   UNL     1     -53.661  18.762 -30.326  1.00  0.00     0.000 C 
BRANCH   5   6
ATOM      6  C   UNL     1     -55.097  19.311 -30.319  1.00  0.00     0.000 C 
BRANCH   6   7
ATOM      7  C   UNL     1     -55.683  19.443 -28.905  1.00  0.00     0.000 C 
BRANCH   7   8
ATOM      8  C   UNL     1     -54.995  18.535 -27.861  1.00  0.00     0.000 C 
BRANCH   8   9
ATOM      9  C   UNL     1     -55.958  17.476 -27.298  1.00  0.00     0.000 C 
BRANCH   9  10
ATOM     10  C   UNL     1     -56.102  16.245 -28.218  1.00  0.00     0.000 C 
BRANCH  10  11
ATOM     11  C   UNL     1     -54.866  15.326 -28.225  1.00  0.00     0.000 C 
BRANCH  11  12
ATOM     12  C   UNL     1     -55.129  13.976 -28.908  1.00  0.00     0.006 C 
BRANCH  12  13
ATOM     13  C   UNL     1     -55.596  14.177 -30.354  1.00  0.00     0.053 C 
BRANCH  13  14
ATOM     14  C   UNL     1     -55.223  12.996 -31.199  1.00  0.00     0.041 C 
ATOM     15  O   UNL     1     -55.867  11.918 -31.100  1.00  0.00    -0.550 OA
ATOM     16  O   UNL     1     -54.160  13.082 -32.090  1.00  0.00    -0.550 OA
ENDBRANCH  13  14
ENDBRANCH  12  13
ENDBRANCH  11  12
ENDBRANCH  10  11
ENDBRANCH   9  10
ENDBRANCH   8   9
ENDBRANCH   7   8
ENDBRANCH   6   7
ENDBRANCH   5   6
ENDBRANCH   4   5
ENDBRANCH   3   4
ENDBRANCH   2   3
ENDBRANCH   1   2
BRANCH   1  17
ATOM     17  C   UNL     1     -51.261  14.275 -29.152  1.00  0.00     0.000 C 
BRANCH  17  18
ATOM     18  C   UNL     1     -50.479  12.975 -28.870  1.00  0.00     0.000 C 
BRANCH  18  19
ATOM     19  C   UNL     1     -51.359  11.715 -28.755  1.00  0.00     0.000 C 
BRANCH  19  20
ATOM     20  C   UNL     1     -50.636  10.449 -29.254  1.00  0.00     0.000 C 
BRANCH  20  21
ATOM     21  C   UNL     1     -49.211  10.732 -29.763  1.00  0.00     0.000 C 
BRANCH  21  22
ATOM     22  C   UNL     1     -48.826  10.006 -31.068  1.00  0.00    -0.000 C 
BRANCH  22  23
ATOM     23  C   UNL     1     -48.933   8.469 -31.021  1.00  0.00    -0.000 C 
BRANCH  23  24
ATOM     24  C   UNL     1     -50.161   7.875 -31.742  1.00  0.00    -0.000 C 
BRANCH  24  25
ATOM     25  C   UNL     1     -50.587   8.619 -33.021  1.00  0.00    -0.000 C 
BRANCH  25  26
ATOM     26  C   UNL     1     -51.794   7.961 -33.717  1.00  0.00    -0.000 C 
BRANCH  26  27
ATOM     27  C   UNL     1     -53.048   7.922 -32.826  1.00  0.00    -0.000 C 
BRANCH  27  28
ATOM     28  C   UNL     1     -53.294   9.190 -31.981  1.00  0.00    -0.000 C 
BRANCH  28  29
ATOM     29  C   UNL     1     -53.397   8.923 -30.464  1.00  0.00    -0.003 C 
ATOM     30  C   UNL     1     -54.846   8.920 -29.966  1.00  0.00     0.004 C 
ENDBRANCH  28  29
ENDBRANCH  27  28
ENDBRANCH  26  27
ENDBRANCH  25  26
ENDBRANCH  24  25
ENDBRANCH  23  24
ENDBRANCH  22  23
ENDBRANCH  21  22
ENDBRANCH  20  21
ENDBRANCH  19  20
ENDBRANCH  18  19
ENDBRANCH  17  18
ENDBRANCH   1  17
TORSDOF 26
ENDMDL
