MODEL 1
REMARK VINA RESULT:    -3.569      0.000      0.000
REMARK INTER + INTRA:          -4.429
REMARK INTER:                  -4.822
REMARK INTRA:                   0.393
REMARK UNBOUND:                 0.393
REMARK SMILES C=C(C)[C@@H]1CC[C@H](C)C2=C(C1)[C@H](C)CC2
REMARK SMILES IDX 10 1 9 2 15 3 14 4 12 5 13 6 7 7 8 8 6 9 11 11 4 12 5 13
REMARK SMILES IDX 2 15 1 16 3 17
REMARK H PARENT
REMARK Flexibility Score: 80.00
ROOT
ATOM      1  C   UNL     1       1.300  14.170  16.019  1.00  0.00    -0.067 C 
ATOM      2  C   UNL     1       0.661  14.928  16.915  1.00  0.00    -0.068 C 
ATOM      3  C   UNL     1      -0.151  14.101  17.855  1.00  0.00     0.032 C 
ATOM      4  C   UNL     1       0.254  12.660  17.548  1.00  0.00     0.012 C 
ATOM      5  C   UNL     1       1.006  12.714  16.210  1.00  0.00     0.012 C 
ATOM      6  C   UNL     1       0.148  12.175  15.058  1.00  0.00     0.012 C 
ENDROOT
BRANCH   2   7
ATOM      7  C   UNL     1       0.646  16.441  16.973  1.00  0.00     0.012 C 
ATOM      8  C   UNL     1       1.954  17.010  17.539  1.00  0.00     0.012 C 
BRANCH   7   9
ATOM      9  C   UNL     1       0.205  17.090  15.643  1.00  0.00     0.008 CG0
ATOM     10  G   UNL     1       1.210  16.983  14.483  1.00  0.00     0.000 G0
ENDBRANCH   7   9
ENDBRANCH   2   7
BRANCH   1  11
ATOM     11  C   UNL     1       2.189  14.676  14.911  1.00  0.00     0.039 C 
BRANCH  11  12
ATOM     12  C   UNL     1       1.425  15.573  13.916  1.00  0.00     0.018 C 
BRANCH  12  13
ATOM     13  C   UNL     1       1.212  17.001  14.465  1.00  0.00     0.009 CG0
ATOM     14  G   UNL     1       0.217  17.071  15.636  1.00  0.00     0.000 G0
ENDBRANCH  12  13
BRANCH  12  15
ATOM     15  C   UNL     1       2.160  15.628  12.582  1.00  0.00    -0.077 C 
ATOM     16  C   UNL     1       2.418  14.509  11.885  1.00  0.00     0.008 C 
ATOM     17  C   UNL     1       2.606  16.953  12.016  1.00  0.00     0.039 C 
ENDBRANCH  12  15
ENDBRANCH  11  12
ENDBRANCH   1  11
TORSDOF 1
ENDMDL
MODEL 2
REMARK VINA RESULT:    -3.429      1.715      3.219
REMARK INTER + INTRA:          -4.238
REMARK INTER:                  -4.643
REMARK INTRA:                   0.405
REMARK UNBOUND:                 0.393
REMARK SMILES C=C(C)[C@@H]1CC[C@H](C)C2=C(C1)[C@H](C)CC2
REMARK SMILES IDX 10 1 9 2 15 3 14 4 12 5 13 6 7 7 8 8 6 9 11 11 4 12 5 13
REMARK SMILES IDX 2 15 1 16 3 17
REMARK H PARENT
REMARK Flexibility Score: 80.00
ROOT
ATOM      1  C   UNL     1      -0.237  14.185  16.091  1.00  0.00    -0.067 C 
ATOM      2  C   UNL     1       0.648  13.199  16.267  1.00  0.00    -0.068 C 
ATOM      3  C   UNL     1       0.485  12.546  17.599  1.00  0.00     0.032 C 
ATOM      4  C   UNL     1      -0.807  13.137  18.161  1.00  0.00     0.012 C 
ATOM      5  C   UNL     1      -1.125  14.357  17.285  1.00  0.00     0.012 C 
ATOM      6  C   UNL     1      -0.814  15.671  18.012  1.00  0.00     0.012 C 
ENDROOT
BRANCH   2   7
ATOM      7  C   UNL     1       1.758  12.800  15.317  1.00  0.00     0.012 C 
ATOM      8  C   UNL     1       1.230  12.002  14.116  1.00  0.00     0.012 C 
BRANCH   7   9
ATOM      9  C   UNL     1       2.673  13.982  14.930  1.00  0.00     0.008 CG0
ATOM     10  G   UNL     1       2.052  15.025  13.985  1.00  0.00     0.000 G0
ENDBRANCH   7   9
ENDBRANCH   2   7
BRANCH   1  11
ATOM     11  C   UNL     1      -0.342  15.067  14.872  1.00  0.00     0.039 C 
BRANCH  11  12
ATOM     12  C   UNL     1       0.942  15.888  14.636  1.00  0.00     0.018 C 
BRANCH  12  13
ATOM     13  C   UNL     1       2.061  15.044  13.988  1.00  0.00     0.009 CG0
ATOM     14  G   UNL     1       2.656  13.981  14.927  1.00  0.00     0.000 G0
ENDBRANCH  12  13
BRANCH  12  15
ATOM     15  C   UNL     1       0.638  17.108  13.773  1.00  0.00    -0.077 C 
ATOM     16  C   UNL     1      -0.427  17.887  14.024  1.00  0.00     0.008 C 
ATOM     17  C   UNL     1       1.541  17.465  12.620  1.00  0.00     0.039 C 
ENDBRANCH  12  15
ENDBRANCH  11  12
ENDBRANCH   1  11
TORSDOF 1
ENDMDL
MODEL 3
REMARK VINA RESULT:    -3.378      1.715      2.654
REMARK INTER + INTRA:          -4.170
REMARK INTER:                  -4.748
REMARK INTRA:                   0.578
REMARK UNBOUND:                 0.393
REMARK SMILES C=C(C)[C@@H]1CC[C@H](C)C2=C(C1)[C@H](C)CC2
REMARK SMILES IDX 10 1 9 2 15 3 14 4 12 5 13 6 7 7 8 8 6 9 11 11 4 12 5 13
REMARK SMILES IDX 2 15 1 16 3 17
REMARK H PARENT
REMARK Flexibility Score: 80.00
ROOT
ATOM      1  C   UNL     1       0.457  14.900  15.385  1.00  0.00    -0.067 C 
ATOM      2  C   UNL     1       1.337  14.574  16.336  1.00  0.00    -0.068 C 
ATOM      3  C   UNL     1       2.166  13.399  15.938  1.00  0.00     0.032 C 
ATOM      4  C   UNL     1       1.820  13.164  14.469  1.00  0.00     0.012 C 
ATOM      5  C   UNL     1       0.551  13.985  14.202  1.00  0.00     0.012 C 
ATOM      6  C   UNL     1      -0.691  13.090  14.105  1.00  0.00     0.012 C 
ENDROOT
BRANCH   2   7
ATOM      7  C   UNL     1       1.469  15.214  17.703  1.00  0.00     0.012 C 
ATOM      8  C   UNL     1       2.652  14.642  18.495  1.00  0.00     0.012 C 
BRANCH   7   9
ATOM      9  C   UNL     1       1.438  16.757  17.650  1.00  0.00     0.008 CG0
ATOM     10  G   UNL     1       1.493  17.378  16.243  1.00  0.00     0.000 G0
ENDBRANCH   7   9
ENDBRANCH   2   7
BRANCH   1  11
ATOM     11  C   UNL     1      -0.550  16.020  15.462  1.00  0.00     0.039 C 
BRANCH  11  12
ATOM     12  C   UNL     1       0.124  17.407  15.496  1.00  0.00     0.018 C 
BRANCH  12  13
ATOM     13  C   UNL     1       1.485  17.373  16.224  1.00  0.00     0.009 CG0
ATOM     14  G   UNL     1       1.420  16.750  17.629  1.00  0.00     0.000 G0
ENDBRANCH  12  13
BRANCH  12  15
ATOM     15  C   UNL     1       0.299  17.944  14.081  1.00  0.00    -0.077 C 
ATOM     16  C   UNL     1      -0.750  18.401  13.377  1.00  0.00     0.008 C 
ATOM     17  C   UNL     1       1.666  17.978  13.446  1.00  0.00     0.039 C 
ENDBRANCH  12  15
ENDBRANCH  11  12
ENDBRANCH   1  11
TORSDOF 1
ENDMDL
MODEL 4
REMARK VINA RESULT:    -3.364      1.756      3.366
REMARK INTER + INTRA:          -4.151
REMARK INTER:                  -4.611
REMARK INTRA:                   0.460
REMARK UNBOUND:                 0.393
REMARK SMILES C=C(C)[C@@H]1CC[C@H](C)C2=C(C1)[C@H](C)CC2
REMARK SMILES IDX 10 1 9 2 15 3 14 4 12 5 13 6 7 7 8 8 6 9 11 11 4 12 5 13
REMARK SMILES IDX 2 15 1 16 3 17
REMARK H PARENT
REMARK Flexibility Score: 80.00
ROOT
ATOM      1  C   UNL     1       1.717  15.222  15.411  1.00  0.00    -0.067 C 
ATOM      2  C   UNL     1       1.074  16.338  15.056  1.00  0.00    -0.068 C 
ATOM      3  C   UNL     1       0.681  17.148  16.245  1.00  0.00     0.032 C 
ATOM      4  C   UNL     1       1.383  16.471  17.420  1.00  0.00     0.012 C 
ATOM      5  C   UNL     1       1.847  15.103  16.898  1.00  0.00     0.012 C 
ATOM      6  C   UNL     1       0.968  13.967  17.434  1.00  0.00     0.012 C 
ENDROOT
BRANCH   2   7
ATOM      7  C   UNL     1       0.680  16.746  13.651  1.00  0.00     0.012 C 
ATOM      8  C   UNL     1       1.875  17.278  12.849  1.00  0.00     0.012 C 
BRANCH   7   9
ATOM      9  C   UNL     1      -0.135  15.660  12.915  1.00  0.00     0.008 CG0
ATOM     10  G   UNL     1       0.652  14.410  12.485  1.00  0.00     0.000 G0
ENDBRANCH   7   9
ENDBRANCH   2   7
BRANCH   1  11
ATOM     11  C   UNL     1       2.236  14.165  14.468  1.00  0.00     0.039 C 
BRANCH  11  12
ATOM     12  C   UNL     1       1.104  13.511  13.649  1.00  0.00     0.018 C 
BRANCH  12  13
ATOM     13  C   UNL     1       0.645  14.403  12.476  1.00  0.00     0.009 CG0
ATOM     14  G   UNL     1      -0.143  15.649  12.917  1.00  0.00     0.000 G0
ENDBRANCH  12  13
BRANCH  12  15
ATOM     15  C   UNL     1       1.548  12.148  13.130  1.00  0.00    -0.077 C 
ATOM     16  C   UNL     1       2.493  12.041  12.181  1.00  0.00     0.008 C 
ATOM     17  C   UNL     1       0.931  10.889  13.682  1.00  0.00     0.039 C 
ENDBRANCH  12  15
ENDBRANCH  11  12
ENDBRANCH   1  11
TORSDOF 1
ENDMDL
MODEL 5
REMARK VINA RESULT:    -3.343      1.282      4.077
REMARK INTER + INTRA:          -4.122
REMARK INTER:                  -4.757
REMARK INTRA:                   0.635
REMARK UNBOUND:                 0.393
REMARK SMILES C=C(C)[C@@H]1CC[C@H](C)C2=C(C1)[C@H](C)CC2
REMARK SMILES IDX 10 1 9 2 15 3 14 4 12 5 13 6 7 7 8 8 6 9 11 11 4 12 5 13
REMARK SMILES IDX 2 15 1 16 3 17
REMARK H PARENT
REMARK Flexibility Score: 80.00
ROOT
ATOM      1  C   UNL     1       1.715  15.011  14.947  1.00  0.00    -0.067 C 
ATOM      2  C   UNL     1       1.183  16.026  14.259  1.00  0.00    -0.068 C 
ATOM      3  C   UNL     1       1.241  15.782  12.788  1.00  0.00     0.032 C 
ATOM      4  C   UNL     1       1.699  14.331  12.656  1.00  0.00     0.012 C 
ATOM      5  C   UNL     1       2.224  13.931  14.043  1.00  0.00     0.012 C 
ATOM      6  C   UNL     1       3.756  13.873  14.072  1.00  0.00     0.012 C 
ENDROOT
BRANCH   2   7
ATOM      7  C   UNL     1       0.654  17.326  14.829  1.00  0.00     0.012 C 
ATOM      8  C   UNL     1       0.018  18.212  13.749  1.00  0.00     0.012 C 
BRANCH   7   9
ATOM      9  C   UNL     1      -0.235  17.119  16.074  1.00  0.00     0.008 CG0
ATOM     10  G   UNL     1      -0.615  15.661  16.388  1.00  0.00     0.000 G0
ENDBRANCH   7   9
ENDBRANCH   2   7
BRANCH   1  11
ATOM     11  C   UNL     1       1.840  14.934  16.448  1.00  0.00     0.039 C 
BRANCH  11  12
ATOM     12  C   UNL     1       0.466  14.857  17.143  1.00  0.00     0.018 C 
BRANCH  12  13
ATOM     13  C   UNL     1      -0.619  15.644  16.375  1.00  0.00     0.009 CG0
ATOM     14  G   UNL     1      -0.228  17.101  16.072  1.00  0.00     0.000 G0
ENDBRANCH  12  13
BRANCH  12  15
ATOM     15  C   UNL     1       0.040  13.404  17.312  1.00  0.00    -0.077 C 
ATOM     16  C   UNL     1      -0.636  12.762  16.344  1.00  0.00     0.008 C 
ATOM     17  C   UNL     1       0.378  12.656  18.576  1.00  0.00     0.039 C 
ENDBRANCH  12  15
ENDBRANCH  11  12
ENDBRANCH   1  11
TORSDOF 1
ENDMDL
MODEL 6
REMARK VINA RESULT:    -3.291      1.756      4.903
REMARK INTER + INTRA:          -4.052
REMARK INTER:                  -4.640
REMARK INTRA:                   0.588
REMARK UNBOUND:                 0.393
REMARK SMILES C=C(C)[C@@H]1CC[C@H](C)C2=C(C1)[C@H](C)CC2
REMARK SMILES IDX 10 1 9 2 15 3 14 4 12 5 13 6 7 7 8 8 6 9 11 11 4 12 5 13
REMARK SMILES IDX 2 15 1 16 3 17
REMARK H PARENT
REMARK Flexibility Score: 80.00
ROOT
ATOM      1  C   UNL     1       0.902  15.929  13.965  1.00  0.00    -0.067 C 
ATOM      2  C   UNL     1       2.054  15.590  13.380  1.00  0.00    -0.068 C 
ATOM      3  C   UNL     1       2.659  16.741  12.648  1.00  0.00     0.032 C 
ATOM      4  C   UNL     1       1.807  17.943  13.052  1.00  0.00     0.012 C 
ATOM      5  C   UNL     1       0.546  17.361  13.707  1.00  0.00     0.012 C 
ATOM      6  C   UNL     1      -0.670  17.462  12.779  1.00  0.00     0.012 C 
ENDROOT
BRANCH   2   7
ATOM      7  C   UNL     1       2.680  14.211  13.347  1.00  0.00     0.012 C 
ATOM      8  C   UNL     1       4.074  14.225  12.705  1.00  0.00     0.012 C 
BRANCH   7   9
ATOM      9  C   UNL     1       2.628  13.494  14.714  1.00  0.00     0.008 CG0
ATOM     10  G   UNL     1       2.223  14.369  15.912  1.00  0.00     0.000 G0
ENDBRANCH   7   9
ENDBRANCH   2   7
BRANCH   1  11
ATOM     11  C   UNL     1       0.017  15.009  14.767  1.00  0.00     0.039 C 
BRANCH  11  12
ATOM     12  C   UNL     1       0.691  14.547  16.075  1.00  0.00     0.018 C 
BRANCH  12  13
ATOM     13  C   UNL     1       2.216  14.370  15.912  1.00  0.00     0.009 CG0
ATOM     14  G   UNL     1       2.612  13.483  14.720  1.00  0.00     0.000 G0
ENDBRANCH  12  13
BRANCH  12  15
ATOM     15  C   UNL     1       0.394  15.533  17.199  1.00  0.00    -0.077 C 
ATOM     16  C   UNL     1      -0.767  15.488  17.875  1.00  0.00     0.008 C 
ATOM     17  C   UNL     1       1.411  16.581  17.577  1.00  0.00     0.039 C 
ENDBRANCH  12  15
ENDBRANCH  11  12
ENDBRANCH   1  11
TORSDOF 1
ENDMDL
MODEL 7
REMARK VINA RESULT:    -3.288      1.635      3.440
REMARK INTER + INTRA:          -4.049
REMARK INTER:                  -4.684
REMARK INTRA:                   0.635
REMARK UNBOUND:                 0.393
REMARK SMILES C=C(C)[C@@H]1CC[C@H](C)C2=C(C1)[C@H](C)CC2
REMARK SMILES IDX 10 1 9 2 15 3 14 4 12 5 13 6 7 7 8 8 6 9 11 11 4 12 5 13
REMARK SMILES IDX 2 15 1 16 3 17
REMARK H PARENT
REMARK Flexibility Score: 80.00
ROOT
ATOM      1  C   UNL     1       0.689  14.735  15.037  1.00  0.00    -0.067 C 
ATOM      2  C   UNL     1       0.723  13.778  15.969  1.00  0.00    -0.068 C 
ATOM      3  C   UNL     1       1.759  12.749  15.664  1.00  0.00     0.032 C 
ATOM      4  C   UNL     1       2.542  13.330  14.488  1.00  0.00     0.012 C 
ATOM      5  C   UNL     1       1.692  14.491  13.951  1.00  0.00     0.012 C 
ATOM      6  C   UNL     1       0.994  14.119  12.637  1.00  0.00     0.012 C 
ENDROOT
BRANCH   2   7
ATOM      7  C   UNL     1      -0.203  13.644  17.161  1.00  0.00     0.012 C 
ATOM      8  C   UNL     1       0.249  12.535  18.120  1.00  0.00     0.012 C 
BRANCH   7   9
ATOM      9  C   UNL     1      -0.490  14.994  17.854  1.00  0.00     0.008 CG0
ATOM     10  G   UNL     1       0.449  16.152  17.475  1.00  0.00     0.000 G0
ENDBRANCH   7   9
ENDBRANCH   2   7
BRANCH   1  11
ATOM     11  C   UNL     1      -0.250  15.916  15.019  1.00  0.00     0.039 C 
BRANCH  11  12
ATOM     12  C   UNL     1       0.025  16.894  16.179  1.00  0.00     0.018 C 
BRANCH  12  13
ATOM     13  C   UNL     1       0.449  16.161  17.470  1.00  0.00     0.009 CG0
ATOM     14  G   UNL     1      -0.476  14.992  17.850  1.00  0.00     0.000 G0
ENDBRANCH  12  13
BRANCH  12  15
ATOM     15  C   UNL     1       1.091  17.906  15.776  1.00  0.00    -0.077 C 
ATOM     16  C   UNL     1       1.260  18.261  14.491  1.00  0.00     0.008 C 
ATOM     17  C   UNL     1       1.975  18.534  16.823  1.00  0.00     0.039 C 
ENDBRANCH  12  15
ENDBRANCH  11  12
ENDBRANCH   1  11
TORSDOF 1
ENDMDL
MODEL 8
REMARK VINA RESULT:    -3.285      1.443      2.156
REMARK INTER + INTRA:          -4.044
REMARK INTER:                  -4.626
REMARK INTRA:                   0.581
REMARK UNBOUND:                 0.393
REMARK SMILES C=C(C)[C@@H]1CC[C@H](C)C2=C(C1)[C@H](C)CC2
REMARK SMILES IDX 10 1 9 2 15 3 14 4 12 5 13 6 7 7 8 8 6 9 11 11 4 12 5 13
REMARK SMILES IDX 2 15 1 16 3 17
REMARK H PARENT
REMARK Flexibility Score: 80.00
ROOT
ATOM      1  C   UNL     1       0.905  14.451  15.458  1.00  0.00    -0.067 C 
ATOM      2  C   UNL     1       1.027  15.716  15.870  1.00  0.00    -0.068 C 
ATOM      3  C   UNL     1       1.429  15.790  17.305  1.00  0.00     0.032 C 
ATOM      4  C   UNL     1       1.765  14.350  17.685  1.00  0.00     0.012 C 
ATOM      5  C   UNL     1       1.196  13.476  16.557  1.00  0.00     0.012 C 
ATOM      6  C   UNL     1      -0.082  12.751  16.995  1.00  0.00     0.012 C 
ENDROOT
BRANCH   2   7
ATOM      7  C   UNL     1       0.724  16.963  15.065  1.00  0.00     0.012 C 
ATOM      8  C   UNL     1       1.122  18.243  15.812  1.00  0.00     0.012 C 
BRANCH   7   9
ATOM      9  C   UNL     1       1.259  16.890  13.618  1.00  0.00     0.008 CG0
ATOM     10  G   UNL     1       2.228  15.732  13.323  1.00  0.00     0.000 G0
ENDBRANCH   7   9
ENDBRANCH   2   7
BRANCH   1  11
ATOM     11  C   UNL     1       0.493  14.011  14.075  1.00  0.00     0.039 C 
BRANCH  11  12
ATOM     12  C   UNL     1       1.547  14.378  13.011  1.00  0.00     0.018 C 
BRANCH  12  13
ATOM     13  C   UNL     1       2.233  15.728  13.313  1.00  0.00     0.009 CG0
ATOM     14  G   UNL     1       1.247  16.869  13.618  1.00  0.00     0.000 G0
ENDBRANCH  12  13
BRANCH  12  15
ATOM     15  C   UNL     1       2.590  13.273  12.896  1.00  0.00    -0.077 C 
ATOM     16  C   UNL     1       2.233  12.007  12.625  1.00  0.00     0.008 C 
ATOM     17  C   UNL     1       4.053  13.589  13.081  1.00  0.00     0.039 C 
ENDBRANCH  12  15
ENDBRANCH  11  12
ENDBRANCH   1  11
TORSDOF 1
ENDMDL
MODEL 9
REMARK VINA RESULT:    -3.137      1.501      3.964
REMARK INTER + INTRA:          -3.845
REMARK INTER:                  -4.440
REMARK INTRA:                   0.596
REMARK UNBOUND:                 0.393
REMARK SMILES C=C(C)[C@@H]1CC[C@H](C)C2=C(C1)[C@H](C)CC2
REMARK SMILES IDX 10 1 9 2 15 3 14 4 12 5 13 6 7 7 8 8 6 9 11 11 4 12 5 13
REMARK SMILES IDX 2 15 1 16 3 17
REMARK H PARENT
REMARK Flexibility Score: 80.00
ROOT
ATOM      1  C   UNL     1       2.257  14.760  14.020  1.00  0.00    -0.067 C 
ATOM      2  C   UNL     1       1.769  15.871  14.580  1.00  0.00    -0.068 C 
ATOM      3  C   UNL     1       1.540  16.942  13.567  1.00  0.00     0.032 C 
ATOM      4  C   UNL     1       1.754  16.251  12.222  1.00  0.00     0.012 C 
ATOM      5  C   UNL     1       2.443  14.916  12.542  1.00  0.00     0.012 C 
ATOM      6  C   UNL     1       3.933  14.949  12.180  1.00  0.00     0.012 C 
ENDROOT
BRANCH   2   7
ATOM      7  C   UNL     1       1.539  16.113  16.058  1.00  0.00     0.012 C 
ATOM      8  C   UNL     1       0.749  17.403  16.315  1.00  0.00     0.012 C 
BRANCH   7   9
ATOM      9  C   UNL     1       0.973  14.875  16.788  1.00  0.00     0.008 CG0
ATOM     10  G   UNL     1       0.355  13.793  15.888  1.00  0.00     0.000 G0
ENDBRANCH   7   9
ENDBRANCH   2   7
BRANCH   1  11
ATOM     11  C   UNL     1       2.623  13.492  14.751  1.00  0.00     0.039 C 
BRANCH  11  12
ATOM     12  C   UNL     1       1.387  12.781  15.335  1.00  0.00     0.018 C 
BRANCH  12  13
ATOM     13  C   UNL     1       0.354  13.779  15.901  1.00  0.00     0.009 CG0
ATOM     14  G   UNL     1       0.974  14.875  16.785  1.00  0.00     0.000 G0
ENDBRANCH  12  13
BRANCH  12  15
ATOM     15  C   UNL     1       0.736  11.897  14.277  1.00  0.00    -0.077 C 
ATOM     16  C   UNL     1       1.473  11.072  13.514  1.00  0.00     0.008 C 
ATOM     17  C   UNL     1      -0.757  11.931  14.074  1.00  0.00     0.039 C 
ENDBRANCH  12  15
ENDBRANCH  11  12
ENDBRANCH   1  11
TORSDOF 1
ENDMDL
