MODEL 1
REMARK VINA RESULT:    -3.078      0.000      0.000
REMARK INTER + INTRA:          -6.159
REMARK INTER:                  -4.877
REMARK INTRA:                  -1.282
REMARK UNBOUND:                -1.282
REMARK SMILES CCCCCCCCCCCC(=O)[O-]
REMARK SMILES IDX 7 1 8 2 9 3 10 4 11 5 12 6 13 7 14 8 6 9 5 10 4 11 3 12 2 13
REMARK SMILES IDX 1 14
REMARK H PARENT
REMARK Flexibility Score: inf
ROOT
ATOM      1  C   UNL     1      55.042  81.743  32.233  1.00  0.00     0.000 C 
ENDROOT
BRANCH   1   2
ATOM      2  C   UNL     1      53.557  81.840  32.617  1.00  0.00     0.000 C 
BRANCH   2   3
ATOM      3  C   UNL     1      52.622  81.409  31.476  1.00  0.00     0.000 C 
BRANCH   3   4
ATOM      4  C   UNL     1      52.460  82.493  30.400  1.00  0.00     0.006 C 
BRANCH   4   5
ATOM      5  C   UNL     1      51.483  83.580  30.860  1.00  0.00     0.053 C 
BRANCH   5   6
ATOM      6  C   UNL     1      50.153  82.982  31.193  1.00  0.00     0.041 C 
ATOM      7  O   UNL     1      49.466  82.424  30.298  1.00  0.00    -0.550 OA
ATOM      8  O   UNL     1      49.649  83.084  32.483  1.00  0.00    -0.550 OA
ENDBRANCH   5   6
ENDBRANCH   4   5
ENDBRANCH   3   4
ENDBRANCH   2   3
ENDBRANCH   1   2
BRANCH   1   9
ATOM      9  C   UNL     1      55.808  82.992  32.697  1.00  0.00     0.000 C 
BRANCH   9  10
ATOM     10  C   UNL     1      55.198  84.298  32.160  1.00  0.00    -0.000 C 
BRANCH  10  11
ATOM     11  C   UNL     1      55.760  84.766  30.804  1.00  0.00    -0.000 C 
BRANCH  11  12
ATOM     12  C   UNL     1      57.166  84.213  30.487  1.00  0.00    -0.000 C 
BRANCH  12  13
ATOM     13  C   UNL     1      57.253  83.612  29.077  1.00  0.00    -0.003 C 
ATOM     14  C   UNL     1      56.213  82.512  28.882  1.00  0.00     0.004 C 
ENDBRANCH  12  13
ENDBRANCH  11  12
ENDBRANCH  10  11
ENDBRANCH   9  10
ENDBRANCH   1   9
TORSDOF 10
ENDMDL
MODEL 2
REMARK VINA RESULT:    -3.055      1.551      3.299
REMARK INTER + INTRA:          -6.123
REMARK INTER:                  -4.574
REMARK INTRA:                  -1.549
REMARK UNBOUND:                -1.282
REMARK SMILES CCCCCCCCCCCC(=O)[O-]
REMARK SMILES IDX 7 1 8 2 9 3 10 4 11 5 12 6 13 7 14 8 6 9 5 10 4 11 3 12 2 13
REMARK SMILES IDX 1 14
REMARK H PARENT
REMARK Flexibility Score: inf
ROOT
ATOM      1  C   UNL     1      55.250  85.037  31.447  1.00  0.00     0.000 C 
ENDROOT
BRANCH   1   2
ATOM      2  C   UNL     1      54.819  85.030  29.971  1.00  0.00     0.000 C 
BRANCH   2   3
ATOM      3  C   UNL     1      53.302  84.859  29.798  1.00  0.00     0.000 C 
BRANCH   3   4
ATOM      4  C   UNL     1      52.523  85.124  31.095  1.00  0.00     0.006 C 
BRANCH   4   5
ATOM      5  C   UNL     1      51.122  84.507  31.029  1.00  0.00     0.053 C 
BRANCH   5   6
ATOM      6  C   UNL     1      50.585  84.277  32.406  1.00  0.00     0.041 C 
ATOM      7  O   UNL     1      51.139  84.814  33.401  1.00  0.00    -0.550 OA
ATOM      8  O   UNL     1      49.502  83.428  32.596  1.00  0.00    -0.550 OA
ENDBRANCH   5   6
ENDBRANCH   4   5
ENDBRANCH   3   4
ENDBRANCH   2   3
ENDBRANCH   1   2
BRANCH   1   9
ATOM      9  C   UNL     1      56.311  83.957  31.710  1.00  0.00     0.000 C 
BRANCH   9  10
ATOM     10  C   UNL     1      55.903  82.982  32.827  1.00  0.00    -0.000 C 
BRANCH  10  11
ATOM     11  C   UNL     1      55.127  81.739  32.350  1.00  0.00    -0.000 C 
BRANCH  11  12
ATOM     12  C   UNL     1      53.597  81.860  32.511  1.00  0.00    -0.000 C 
BRANCH  12  13
ATOM     13  C   UNL     1      52.841  81.434  31.245  1.00  0.00    -0.003 C 
ATOM     14  C   UNL     1      53.789  81.293  30.058  1.00  0.00     0.004 C 
ENDBRANCH  12  13
ENDBRANCH  11  12
ENDBRANCH  10  11
ENDBRANCH   9  10
ENDBRANCH   1   9
TORSDOF 10
ENDMDL
MODEL 3
REMARK VINA RESULT:    -3.022      0.953      2.487
REMARK INTER + INTRA:          -6.070
REMARK INTER:                  -4.726
REMARK INTRA:                  -1.344
REMARK UNBOUND:                -1.282
REMARK SMILES CCCCCCCCCCCC(=O)[O-]
REMARK SMILES IDX 7 1 8 2 9 3 10 4 11 5 12 6 13 7 14 8 6 9 5 10 4 11 3 12 2 13
REMARK SMILES IDX 1 14
REMARK H PARENT
REMARK Flexibility Score: inf
ROOT
ATOM      1  C   UNL     1      54.642  81.469  30.002  1.00  0.00     0.000 C 
ENDROOT
BRANCH   1   2
ATOM      2  C   UNL     1      53.142  81.482  30.335  1.00  0.00     0.000 C 
BRANCH   2   3
ATOM      3  C   UNL     1      52.870  81.664  31.836  1.00  0.00     0.000 C 
BRANCH   3   4
ATOM      4  C   UNL     1      52.402  83.084  32.187  1.00  0.00     0.006 C 
BRANCH   4   5
ATOM      5  C   UNL     1      51.396  83.601  31.153  1.00  0.00     0.053 C 
BRANCH   5   6
ATOM      6  C   UNL     1      50.041  83.019  31.403  1.00  0.00     0.041 C 
ATOM      7  O   UNL     1      49.418  83.294  32.461  1.00  0.00    -0.550 OA
ATOM      8  O   UNL     1      49.486  82.132  30.489  1.00  0.00    -0.550 OA
ENDBRANCH   5   6
ENDBRANCH   4   5
ENDBRANCH   3   4
ENDBRANCH   2   3
ENDBRANCH   1   2
BRANCH   1   9
ATOM      9  C   UNL     1      55.021  82.684  29.141  1.00  0.00     0.000 C 
BRANCH   9  10
ATOM     10  C   UNL     1      56.516  83.034  29.230  1.00  0.00    -0.000 C 
BRANCH  10  11
ATOM     11  C   UNL     1      56.867  84.118  30.267  1.00  0.00    -0.000 C 
BRANCH  11  12
ATOM     12  C   UNL     1      55.651  84.938  30.747  1.00  0.00    -0.000 C 
BRANCH  12  13
ATOM     13  C   UNL     1      55.401  84.783  32.254  1.00  0.00    -0.003 C 
ATOM     14  C   UNL     1      56.140  83.571  32.813  1.00  0.00     0.004 C 
ENDBRANCH  12  13
ENDBRANCH  11  12
ENDBRANCH  10  11
ENDBRANCH   9  10
ENDBRANCH   1   9
TORSDOF 10
ENDMDL
MODEL 4
REMARK VINA RESULT:    -2.901      2.921      5.262
REMARK INTER + INTRA:          -5.879
REMARK INTER:                  -4.529
REMARK INTRA:                  -1.351
REMARK UNBOUND:                -1.282
REMARK SMILES CCCCCCCCCCCC(=O)[O-]
REMARK SMILES IDX 7 1 8 2 9 3 10 4 11 5 12 6 13 7 14 8 6 9 5 10 4 11 3 12 2 13
REMARK SMILES IDX 1 14
REMARK H PARENT
REMARK Flexibility Score: inf
ROOT
ATOM      1  C   UNL     1      51.889  81.222  31.020  1.00  0.00     0.000 C 
ENDROOT
BRANCH   1   2
ATOM      2  C   UNL     1      53.079  81.144  30.051  1.00  0.00     0.000 C 
BRANCH   2   3
ATOM      3  C   UNL     1      54.365  81.740  30.643  1.00  0.00     0.000 C 
BRANCH   3   4
ATOM      4  C   UNL     1      54.273  81.960  32.161  1.00  0.00     0.006 C 
BRANCH   4   5
ATOM      5  C   UNL     1      55.632  82.367  32.739  1.00  0.00     0.053 C 
BRANCH   5   6
ATOM      6  C   UNL     1      56.003  83.743  32.286  1.00  0.00     0.041 C 
ATOM      7  O   UNL     1      56.934  83.908  31.454  1.00  0.00    -0.550 OA
ATOM      8  O   UNL     1      55.354  84.850  32.818  1.00  0.00    -0.550 OA
ENDBRANCH   5   6
ENDBRANCH   4   5
ENDBRANCH   3   4
ENDBRANCH   2   3
ENDBRANCH   1   2
BRANCH   1   9
ATOM      9  C   UNL     1      50.742  82.044  30.412  1.00  0.00     0.000 C 
BRANCH   9  10
ATOM     10  C   UNL     1      51.237  83.286  29.653  1.00  0.00    -0.000 C 
BRANCH  10  11
ATOM     11  C   UNL     1      51.035  84.622  30.395  1.00  0.00    -0.000 C 
BRANCH  11  12
ATOM     12  C   UNL     1      52.202  84.996  31.334  1.00  0.00    -0.000 C 
BRANCH  12  13
ATOM     13  C   UNL     1      51.889  84.687  32.805  1.00  0.00    -0.003 C 
ATOM     14  C   UNL     1      50.440  85.026  33.143  1.00  0.00     0.004 C 
ENDBRANCH  12  13
ENDBRANCH  11  12
ENDBRANCH  10  11
ENDBRANCH   9  10
ENDBRANCH   1   9
TORSDOF 10
ENDMDL
MODEL 5
REMARK VINA RESULT:    -2.879      1.502      2.853
REMARK INTER + INTRA:          -5.843
REMARK INTER:                  -4.584
REMARK INTRA:                  -1.260
REMARK UNBOUND:                -1.282
REMARK SMILES CCCCCCCCCCCC(=O)[O-]
REMARK SMILES IDX 7 1 8 2 9 3 10 4 11 5 12 6 13 7 14 8 6 9 5 10 4 11 3 12 2 13
REMARK SMILES IDX 1 14
REMARK H PARENT
REMARK Flexibility Score: inf
ROOT
ATOM      1  C   UNL     1      52.782  82.268  30.714  1.00  0.00     0.000 C 
ENDROOT
BRANCH   1   2
ATOM      2  C   UNL     1      52.531  83.604  29.996  1.00  0.00     0.000 C 
BRANCH   2   3
ATOM      3  C   UNL     1      52.413  84.786  30.970  1.00  0.00     0.000 C 
BRANCH   3   4
ATOM      4  C   UNL     1      52.175  84.339  32.420  1.00  0.00     0.006 C 
BRANCH   4   5
ATOM      5  C   UNL     1      51.024  85.125  33.055  1.00  0.00     0.053 C 
BRANCH   5   6
ATOM      6  C   UNL     1      49.734  84.385  32.895  1.00  0.00     0.041 C 
ATOM      7  O   UNL     1      48.657  84.890  33.308  1.00  0.00    -0.550 OA
ATOM      8  O   UNL     1      49.726  83.114  32.335  1.00  0.00    -0.550 OA
ENDBRANCH   5   6
ENDBRANCH   4   5
ENDBRANCH   3   4
ENDBRANCH   2   3
ENDBRANCH   1   2
BRANCH   1   9
ATOM      9  C   UNL     1      53.935  81.499  30.049  1.00  0.00     0.000 C 
BRANCH   9  10
ATOM     10  C   UNL     1      55.245  81.583  30.849  1.00  0.00    -0.000 C 
BRANCH  10  11
ATOM     11  C   UNL     1      55.141  82.342  32.186  1.00  0.00    -0.000 C 
BRANCH  11  12
ATOM     12  C   UNL     1      56.082  83.562  32.285  1.00  0.00    -0.000 C 
BRANCH  12  13
ATOM     13  C   UNL     1      56.118  84.379  30.986  1.00  0.00    -0.003 C 
ATOM     14  C   UNL     1      57.512  84.366  30.366  1.00  0.00     0.004 C 
ENDBRANCH  12  13
ENDBRANCH  11  12
ENDBRANCH  10  11
ENDBRANCH   9  10
ENDBRANCH   1   9
TORSDOF 10
ENDMDL
MODEL 6
REMARK VINA RESULT:    -2.750      1.135      2.260
REMARK INTER + INTRA:          -5.639
REMARK INTER:                  -4.157
REMARK INTRA:                  -1.482
REMARK UNBOUND:                -1.282
REMARK SMILES CCCCCCCCCCCC(=O)[O-]
REMARK SMILES IDX 7 1 8 2 9 3 10 4 11 5 12 6 13 7 14 8 6 9 5 10 4 11 3 12 2 13
REMARK SMILES IDX 1 14
REMARK H PARENT
REMARK Flexibility Score: inf
ROOT
ATOM      1  C   UNL     1      53.275  81.371  30.561  1.00  0.00     0.000 C 
ENDROOT
BRANCH   1   2
ATOM      2  C   UNL     1      53.232  81.802  32.036  1.00  0.00     0.000 C 
BRANCH   2   3
ATOM      3  C   UNL     1      52.394  83.070  32.258  1.00  0.00     0.000 C 
BRANCH   3   4
ATOM      4  C   UNL     1      52.174  83.870  30.965  1.00  0.00     0.006 C 
BRANCH   4   5
ATOM      5  C   UNL     1      50.717  84.327  30.845  1.00  0.00     0.053 C 
BRANCH   5   6
ATOM      6  C   UNL     1      49.786  83.203  31.173  1.00  0.00     0.041 C 
ATOM      7  O   UNL     1      49.647  82.241  30.373  1.00  0.00    -0.550 OA
ATOM      8  O   UNL     1      49.033  83.241  32.340  1.00  0.00    -0.550 OA
ENDBRANCH   5   6
ENDBRANCH   4   5
ENDBRANCH   3   4
ENDBRANCH   2   3
ENDBRANCH   1   2
BRANCH   1   9
ATOM      9  C   UNL     1      54.717  81.391  30.029  1.00  0.00     0.000 C 
BRANCH   9  10
ATOM     10  C   UNL     1      54.912  82.388  28.875  1.00  0.00    -0.000 C 
BRANCH  10  11
ATOM     11  C   UNL     1      55.477  83.760  29.292  1.00  0.00    -0.000 C 
BRANCH  11  12
ATOM     12  C   UNL     1      56.444  83.696  30.493  1.00  0.00    -0.000 C 
BRANCH  12  13
ATOM     13  C   UNL     1      55.877  84.395  31.737  1.00  0.00    -0.003 C 
ATOM     14  C   UNL     1      56.241  83.636  33.009  1.00  0.00     0.004 C 
ENDBRANCH  12  13
ENDBRANCH  11  12
ENDBRANCH  10  11
ENDBRANCH   9  10
ENDBRANCH   1   9
TORSDOF 10
ENDMDL
MODEL 7
REMARK VINA RESULT:    -2.734      3.066      5.353
REMARK INTER + INTRA:          -5.615
REMARK INTER:                  -4.356
REMARK INTRA:                  -1.258
REMARK UNBOUND:                -1.282
REMARK SMILES CCCCCCCCCCCC(=O)[O-]
REMARK SMILES IDX 7 1 8 2 9 3 10 4 11 5 12 6 13 7 14 8 6 9 5 10 4 11 3 12 2 13
REMARK SMILES IDX 1 14
REMARK H PARENT
REMARK Flexibility Score: inf
ROOT
ATOM      1  C   UNL     1      53.353  81.543  30.959  1.00  0.00     0.000 C 
ENDROOT
BRANCH   1   2
ATOM      2  C   UNL     1      53.796  81.769  32.413  1.00  0.00     0.000 C 
BRANCH   2   3
ATOM      3  C   UNL     1      55.261  82.221  32.523  1.00  0.00     0.000 C 
BRANCH   3   4
ATOM      4  C   UNL     1      55.441  83.722  32.254  1.00  0.00     0.006 C 
BRANCH   4   5
ATOM      5  C   UNL     1      56.790  84.002  31.585  1.00  0.00     0.053 C 
BRANCH   5   6
ATOM      6  C   UNL     1      56.637  84.058  30.098  1.00  0.00     0.041 C 
ATOM      7  O   UNL     1      55.494  84.162  29.582  1.00  0.00    -0.550 OA
ATOM      8  O   UNL     1      57.754  83.945  29.280  1.00  0.00    -0.550 OA
ENDBRANCH   5   6
ENDBRANCH   4   5
ENDBRANCH   3   4
ENDBRANCH   2   3
ENDBRANCH   1   2
BRANCH   1   9
ATOM      9  C   UNL     1      51.837  81.306  30.881  1.00  0.00     0.000 C 
BRANCH   9  10
ATOM     10  C   UNL     1      51.072  82.525  30.338  1.00  0.00    -0.000 C 
BRANCH  10  11
ATOM     11  C   UNL     1      51.960  83.707  29.904  1.00  0.00    -0.000 C 
BRANCH  11  12
ATOM     12  C   UNL     1      51.554  85.056  30.536  1.00  0.00    -0.000 C 
BRANCH  12  13
ATOM     13  C   UNL     1      50.965  84.887  31.944  1.00  0.00    -0.003 C 
ATOM     14  C   UNL     1      52.045  85.020  33.013  1.00  0.00     0.004 C 
ENDBRANCH  12  13
ENDBRANCH  11  12
ENDBRANCH  10  11
ENDBRANCH   9  10
ENDBRANCH   1   9
TORSDOF 10
ENDMDL
MODEL 8
REMARK VINA RESULT:    -2.728      2.697      5.353
REMARK INTER + INTRA:          -5.604
REMARK INTER:                  -4.541
REMARK INTRA:                  -1.063
REMARK UNBOUND:                -1.282
REMARK SMILES CCCCCCCCCCCC(=O)[O-]
REMARK SMILES IDX 7 1 8 2 9 3 10 4 11 5 12 6 13 7 14 8 6 9 5 10 4 11 3 12 2 13
REMARK SMILES IDX 1 14
REMARK H PARENT
REMARK Flexibility Score: inf
ROOT
ATOM      1  C   UNL     1      54.852  81.366  29.880  1.00  0.00     0.000 C 
ENDROOT
BRANCH   1   2
ATOM      2  C   UNL     1      55.532  82.490  29.082  1.00  0.00     0.000 C 
BRANCH   2   3
ATOM      3  C   UNL     1      54.929  83.873  29.375  1.00  0.00     0.000 C 
BRANCH   3   4
ATOM      4  C   UNL     1      55.910  84.808  30.097  1.00  0.00     0.006 C 
BRANCH   4   5
ATOM      5  C   UNL     1      56.724  84.044  31.146  1.00  0.00     0.053 C 
BRANCH   5   6
ATOM      6  C   UNL     1      55.939  83.895  32.411  1.00  0.00     0.041 C 
ATOM      7  O   UNL     1      55.312  84.876  32.888  1.00  0.00    -0.550 OA
ATOM      8  O   UNL     1      55.940  82.683  33.090  1.00  0.00    -0.550 OA
ENDBRANCH   5   6
ENDBRANCH   4   5
ENDBRANCH   3   4
ENDBRANCH   2   3
ENDBRANCH   1   2
BRANCH   1   9
ATOM      9  C   UNL     1      53.459  81.058  29.309  1.00  0.00     0.000 C 
BRANCH   9  10
ATOM     10  C   UNL     1      52.357  81.083  30.382  1.00  0.00    -0.000 C 
BRANCH  10  11
ATOM     11  C   UNL     1      52.777  81.706  31.727  1.00  0.00    -0.000 C 
BRANCH  11  12
ATOM     12  C   UNL     1      52.231  83.132  31.952  1.00  0.00    -0.000 C 
BRANCH  12  13
ATOM     13  C   UNL     1      50.697  83.172  31.980  1.00  0.00    -0.003 C 
ATOM     14  C   UNL     1      50.191  84.439  32.663  1.00  0.00     0.004 C 
ENDBRANCH  12  13
ENDBRANCH  11  12
ENDBRANCH  10  11
ENDBRANCH   9  10
ENDBRANCH   1   9
TORSDOF 10
ENDMDL
MODEL 9
REMARK VINA RESULT:    -2.674      1.447      2.772
REMARK INTER + INTRA:          -5.519
REMARK INTER:                  -4.081
REMARK INTRA:                  -1.438
REMARK UNBOUND:                -1.282
REMARK SMILES CCCCCCCCCCCC(=O)[O-]
REMARK SMILES IDX 7 1 8 2 9 3 10 4 11 5 12 6 13 7 14 8 6 9 5 10 4 11 3 12 2 13
REMARK SMILES IDX 1 14
REMARK H PARENT
REMARK Flexibility Score: inf
ROOT
ATOM      1  C   UNL     1      54.580  81.453  31.015  1.00  0.00     0.000 C 
ENDROOT
BRANCH   1   2
ATOM      2  C   UNL     1      53.107  81.446  30.578  1.00  0.00     0.000 C 
BRANCH   2   3
ATOM      3  C   UNL     1      52.823  82.438  29.439  1.00  0.00     0.000 C 
BRANCH   3   4
ATOM      4  C   UNL     1      51.325  82.566  29.123  1.00  0.00     0.006 C 
BRANCH   4   5
ATOM      5  C   UNL     1      50.475  82.227  30.351  1.00  0.00     0.053 C 
BRANCH   5   6
ATOM      6  C   UNL     1      49.424  83.269  30.565  1.00  0.00     0.041 C 
ATOM      7  O   UNL     1      48.317  82.958  31.077  1.00  0.00    -0.550 OA
ATOM      8  O   UNL     1      49.647  84.577  30.152  1.00  0.00    -0.550 OA
ENDBRANCH   5   6
ENDBRANCH   4   5
ENDBRANCH   3   4
ENDBRANCH   2   3
ENDBRANCH   1   2
BRANCH   1   9
ATOM      9  C   UNL     1      55.429  82.309  30.063  1.00  0.00     0.000 C 
BRANCH   9  10
ATOM     10  C   UNL     1      56.036  83.542  30.753  1.00  0.00    -0.000 C 
BRANCH  10  11
ATOM     11  C   UNL     1      55.670  83.698  32.241  1.00  0.00    -0.000 C 
BRANCH  11  12
ATOM     12  C   UNL     1      54.929  85.012  32.567  1.00  0.00    -0.000 C 
BRANCH  12  13
ATOM     13  C   UNL     1      53.586  85.123  31.832  1.00  0.00    -0.003 C 
ATOM     14  C   UNL     1      52.467  84.455  32.625  1.00  0.00     0.004 C 
ENDBRANCH  12  13
ENDBRANCH  11  12
ENDBRANCH  10  11
ENDBRANCH   9  10
ENDBRANCH   1   9
TORSDOF 10
ENDMDL
