MODEL 1
REMARK VINA RESULT:    -3.322      0.000      0.000
REMARK INTER + INTRA:          -4.037
REMARK INTER:                  -3.904
REMARK INTRA:                  -0.133
REMARK UNBOUND:                -0.133
REMARK SMILES CCCCC(=O)[O-]
REMARK SMILES IDX 4 1 5 2 6 3 7 4 3 5 2 6 1 7
REMARK H PARENT
REMARK Flexibility Score: inf
ROOT
ATOM      1  C   UNL     1      60.158  29.344  10.758  1.00  0.00     0.053 C 
ENDROOT
BRANCH   1   2
ATOM      2  C   UNL     1      61.074  28.381  10.066  1.00  0.00     0.041 C 
ATOM      3  O   UNL     1      60.610  27.540   9.252  1.00  0.00    -0.550 OA
ATOM      4  O   UNL     1      62.443  28.433  10.296  1.00  0.00    -0.550 OA
ENDBRANCH   1   2
BRANCH   1   5
ATOM      5  C   UNL     1      59.209  28.634  11.735  1.00  0.00     0.006 C 
BRANCH   5   6
ATOM      6  C   UNL     1      59.923  27.832  12.837  1.00  0.00    -0.003 C 
ATOM      7  C   UNL     1      60.763  28.711  13.763  1.00  0.00     0.004 C 
ENDBRANCH   5   6
ENDBRANCH   1   5
TORSDOF 3
ENDMDL
MODEL 2
REMARK VINA RESULT:    -3.293      1.157      1.614
REMARK INTER + INTRA:          -4.003
REMARK INTER:                  -3.893
REMARK INTRA:                  -0.110
REMARK UNBOUND:                -0.133
REMARK SMILES CCCCC(=O)[O-]
REMARK SMILES IDX 4 1 5 2 6 3 7 4 3 5 2 6 1 7
REMARK H PARENT
REMARK Flexibility Score: inf
ROOT
ATOM      1  C   UNL     1      59.262  28.940  11.684  1.00  0.00     0.053 C 
ENDROOT
BRANCH   1   2
ATOM      2  C   UNL     1      59.906  28.807  10.338  1.00  0.00     0.041 C 
ATOM      3  O   UNL     1      59.616  29.614   9.416  1.00  0.00    -0.550 OA
ATOM      4  O   UNL     1      60.850  27.814  10.112  1.00  0.00    -0.550 OA
ENDBRANCH   1   2
BRANCH   1   5
ATOM      5  C   UNL     1      59.859  27.960  12.707  1.00  0.00     0.006 C 
BRANCH   5   6
ATOM      6  C   UNL     1      60.806  28.615  13.728  1.00  0.00    -0.003 C 
ATOM      7  C   UNL     1      62.267  28.596  13.281  1.00  0.00     0.004 C 
ENDBRANCH   5   6
ENDBRANCH   1   5
TORSDOF 3
ENDMDL
MODEL 3
REMARK VINA RESULT:    -3.286     14.645     16.181
REMARK INTER + INTRA:          -3.995
REMARK INTER:                  -3.861
REMARK INTRA:                  -0.134
REMARK UNBOUND:                -0.133
REMARK SMILES CCCCC(=O)[O-]
REMARK SMILES IDX 4 1 5 2 6 3 7 4 3 5 2 6 1 7
REMARK H PARENT
REMARK Flexibility Score: inf
ROOT
ATOM      1  C   UNL     1      61.722  27.514  27.584  1.00  0.00     0.053 C 
ENDROOT
BRANCH   1   2
ATOM      2  C   UNL     1      61.241  28.769  28.245  1.00  0.00     0.041 C 
ATOM      3  O   UNL     1      60.301  28.723  29.082  1.00  0.00    -0.550 OA
ATOM      4  O   UNL     1      61.851  29.984  27.962  1.00  0.00    -0.550 OA
ENDBRANCH   1   2
BRANCH   1   5
ATOM      5  C   UNL     1      60.673  26.930  26.624  1.00  0.00     0.006 C 
BRANCH   5   6
ATOM      6  C   UNL     1      60.279  27.873  25.473  1.00  0.00    -0.003 C 
ATOM      7  C   UNL     1      61.450  28.202  24.548  1.00  0.00     0.004 C 
ENDBRANCH   5   6
ENDBRANCH   1   5
TORSDOF 3
ENDMDL
MODEL 4
REMARK VINA RESULT:    -3.252      2.361      3.423
REMARK INTER + INTRA:          -3.955
REMARK INTER:                  -3.839
REMARK INTRA:                  -0.116
REMARK UNBOUND:                -0.133
REMARK SMILES CCCCC(=O)[O-]
REMARK SMILES IDX 4 1 5 2 6 3 7 4 3 5 2 6 1 7
REMARK H PARENT
REMARK Flexibility Score: inf
ROOT
ATOM      1  C   UNL     1      59.545  29.345  11.617  1.00  0.00     0.053 C 
ENDROOT
BRANCH   1   2
ATOM      2  C   UNL     1      59.292  28.291  12.652  1.00  0.00     0.041 C 
ATOM      3  O   UNL     1      60.218  27.927  13.424  1.00  0.00    -0.550 OA
ATOM      4  O   UNL     1      58.027  27.733  12.784  1.00  0.00    -0.550 OA
ENDBRANCH   1   2
BRANCH   1   5
ATOM      5  C   UNL     1      59.482  28.777  10.191  1.00  0.00     0.006 C 
BRANCH   5   6
ATOM      6  C   UNL     1      60.727  27.974   9.776  1.00  0.00    -0.003 C 
ATOM      7  C   UNL     1      62.035  28.668  10.154  1.00  0.00     0.004 C 
ENDBRANCH   5   6
ENDBRANCH   1   5
TORSDOF 3
ENDMDL
MODEL 5
REMARK VINA RESULT:    -3.230      1.144      2.038
REMARK INTER + INTRA:          -3.929
REMARK INTER:                  -3.831
REMARK INTRA:                  -0.098
REMARK UNBOUND:                -0.133
REMARK SMILES CCCCC(=O)[O-]
REMARK SMILES IDX 4 1 5 2 6 3 7 4 3 5 2 6 1 7
REMARK H PARENT
REMARK Flexibility Score: inf
ROOT
ATOM      1  C   UNL     1      61.889  29.414  11.486  1.00  0.00     0.053 C 
ENDROOT
BRANCH   1   2
ATOM      2  C   UNL     1      62.078  28.587  10.251  1.00  0.00     0.041 C 
ATOM      3  O   UNL     1      63.191  28.574   9.662  1.00  0.00    -0.550 OA
ATOM      4  O   UNL     1      61.035  27.807   9.769  1.00  0.00    -0.550 OA
ENDBRANCH   1   2
BRANCH   1   5
ATOM      5  C   UNL     1      62.074  28.586  12.767  1.00  0.00     0.006 C 
BRANCH   5   6
ATOM      6  C   UNL     1      60.833  28.544  13.675  1.00  0.00    -0.003 C 
ATOM      7  C   UNL     1      59.689  27.723  13.080  1.00  0.00     0.004 C 
ENDBRANCH   5   6
ENDBRANCH   1   5
TORSDOF 3
ENDMDL
MODEL 6
REMARK VINA RESULT:    -3.224     14.406     15.720
REMARK INTER + INTRA:          -3.922
REMARK INTER:                  -3.811
REMARK INTRA:                  -0.111
REMARK UNBOUND:                -0.133
REMARK SMILES CCCCC(=O)[O-]
REMARK SMILES IDX 4 1 5 2 6 3 7 4 3 5 2 6 1 7
REMARK H PARENT
REMARK Flexibility Score: inf
ROOT
ATOM      1  C   UNL     1      61.322  26.824  26.797  1.00  0.00     0.053 C 
ENDROOT
BRANCH   1   2
ATOM      2  C   UNL     1      60.317  27.100  25.721  1.00  0.00     0.041 C 
ATOM      3  O   UNL     1      60.476  28.075  24.941  1.00  0.00    -0.550 OA
ATOM      4  O   UNL     1      59.222  26.261  25.558  1.00  0.00    -0.550 OA
ENDBRANCH   1   2
BRANCH   1   5
ATOM      5  C   UNL     1      60.807  27.236  28.185  1.00  0.00     0.006 C 
BRANCH   5   6
ATOM      6  C   UNL     1      60.715  28.757  28.397  1.00  0.00    -0.003 C 
ATOM      7  C   UNL     1      61.991  29.492  27.988  1.00  0.00     0.004 C 
ENDBRANCH   5   6
ENDBRANCH   1   5
TORSDOF 3
ENDMDL
MODEL 7
REMARK VINA RESULT:    -3.189      2.453      3.440
REMARK INTER + INTRA:          -3.881
REMARK INTER:                  -3.773
REMARK INTRA:                  -0.108
REMARK UNBOUND:                -0.133
REMARK SMILES CCCCC(=O)[O-]
REMARK SMILES IDX 4 1 5 2 6 3 7 4 3 5 2 6 1 7
REMARK H PARENT
REMARK Flexibility Score: inf
ROOT
ATOM      1  C   UNL     1      60.394  27.891  13.294  1.00  0.00     0.053 C 
ENDROOT
BRANCH   1   2
ATOM      2  C   UNL     1      59.144  28.285  12.569  1.00  0.00     0.041 C 
ATOM      3  O   UNL     1      59.186  29.160  11.664  1.00  0.00    -0.550 OA
ATOM      4  O   UNL     1      57.939  27.663  12.869  1.00  0.00    -0.550 OA
ENDBRANCH   1   2
BRANCH   1   5
ATOM      5  C   UNL     1      61.274  29.106  13.625  1.00  0.00     0.006 C 
BRANCH   5   6
ATOM      6  C   UNL     1      62.706  29.019  13.066  1.00  0.00    -0.003 C 
ATOM      7  C   UNL     1      62.748  29.019  11.539  1.00  0.00     0.004 C 
ENDBRANCH   5   6
ENDBRANCH   1   5
TORSDOF 3
ENDMDL
MODEL 8
REMARK VINA RESULT:    -3.134      3.057      3.481
REMARK INTER + INTRA:          -3.816
REMARK INTER:                  -3.798
REMARK INTRA:                  -0.018
REMARK UNBOUND:                -0.133
REMARK SMILES CCCCC(=O)[O-]
REMARK SMILES IDX 4 1 5 2 6 3 7 4 3 5 2 6 1 7
REMARK H PARENT
REMARK Flexibility Score: inf
ROOT
ATOM      1  C   UNL     1      60.223  30.386  11.844  1.00  0.00     0.053 C 
ENDROOT
BRANCH   1   2
ATOM      2  C   UNL     1      59.419  29.145  11.600  1.00  0.00     0.041 C 
ATOM      3  O   UNL     1      58.927  28.509  12.569  1.00  0.00    -0.550 OA
ATOM      4  O   UNL     1      59.185  28.711  10.301  1.00  0.00    -0.550 OA
ENDBRANCH   1   2
BRANCH   1   5
ATOM      5  C   UNL     1      59.661  31.217  13.008  1.00  0.00     0.006 C 
BRANCH   5   6
ATOM      6  C   UNL     1      60.362  32.571  13.211  1.00  0.00    -0.003 C 
ATOM      7  C   UNL     1      60.266  33.080  14.649  1.00  0.00     0.004 C 
ENDBRANCH   5   6
ENDBRANCH   1   5
TORSDOF 3
ENDMDL
MODEL 9
REMARK VINA RESULT:    -3.125     14.143     15.040
REMARK INTER + INTRA:          -3.806
REMARK INTER:                  -3.697
REMARK INTRA:                  -0.109
REMARK UNBOUND:                -0.133
REMARK SMILES CCCCC(=O)[O-]
REMARK SMILES IDX 4 1 5 2 6 3 7 4 3 5 2 6 1 7
REMARK H PARENT
REMARK Flexibility Score: inf
ROOT
ATOM      1  C   UNL     1      60.712  28.128  25.063  1.00  0.00     0.053 C 
ENDROOT
BRANCH   1   2
ATOM      2  C   UNL     1      60.230  26.957  25.865  1.00  0.00     0.041 C 
ATOM      3  O   UNL     1      59.269  26.258  25.448  1.00  0.00    -0.550 OA
ATOM      4  O   UNL     1      60.863  26.619  27.054  1.00  0.00    -0.550 OA
ENDBRANCH   1   2
BRANCH   1   5
ATOM      5  C   UNL     1      62.167  28.493  25.396  1.00  0.00     0.006 C 
BRANCH   5   6
ATOM      6  C   UNL     1      62.342  29.894  26.009  1.00  0.00    -0.003 C 
ATOM      7  C   UNL     1      62.249  29.891  27.534  1.00  0.00     0.004 C 
ENDBRANCH   5   6
ENDBRANCH   1   5
TORSDOF 3
ENDMDL
