MODEL 1
REMARK VINA RESULT:    -4.653      0.000      0.000
REMARK INTER + INTRA:          -5.303
REMARK INTER:                  -5.197
REMARK INTRA:                  -0.106
REMARK UNBOUND:                -0.106
REMARK SMILES COc1cc2ccc(=O)oc2cc1OC
REMARK SMILES IDX 3 1 13 2 12 3 11 4 5 5 4 6 6 7 7 8 8 9 9 10 10 11 2 12 1 13
REMARK SMILES IDX 14 14 15 15
REMARK H PARENT
REMARK Flexibility Score: inf
ROOT
ATOM      1  C   UNL     1     -15.052  -9.444  98.220  1.00  0.00     0.161 A 
ATOM      2  C   UNL     1     -14.138 -10.237  98.933  1.00  0.00     0.164 A 
ATOM      3  C   UNL     1     -13.197 -11.021  98.234  1.00  0.00     0.098 A 
ATOM      4  C   UNL     1     -13.168 -11.013  96.838  1.00  0.00     0.142 A 
ATOM      5  C   UNL     1     -14.085 -10.216  96.122  1.00  0.00     0.022 A 
ATOM      6  C   UNL     1     -15.022  -9.436  96.811  1.00  0.00     0.062 A 
ATOM      7  C   UNL     1     -14.031 -10.231  94.724  1.00  0.00     0.019 A 
ATOM      8  C   UNL     1     -13.080 -11.024  94.083  1.00  0.00     0.094 A 
ATOM      9  C   UNL     1     -12.202 -11.789  94.860  1.00  0.00     0.336 A 
ATOM     10  O   UNL     1     -11.337 -12.511  94.301  1.00  0.00    -0.246 OA
ATOM     11  O   UNL     1     -12.276 -11.756  96.188  1.00  0.00    -0.423 OA
ENDROOT
BRANCH   1  12
ATOM     12  O   UNL     1     -15.975  -8.675  98.948  1.00  0.00    -0.493 OA
ATOM     13  C   UNL     1     -15.793  -7.305  99.290  1.00  0.00     0.278 C 
ENDBRANCH   1  12
BRANCH   2  14
ATOM     14  O   UNL     1     -14.196 -10.221 100.336  1.00  0.00    -0.493 OA
ATOM     15  C   UNL     1     -13.573 -11.183 101.181  1.00  0.00     0.278 C 
ENDBRANCH   2  14
TORSDOF 2
ENDMDL
MODEL 2
REMARK VINA RESULT:    -4.579      1.264      2.799
REMARK INTER + INTRA:          -5.221
REMARK INTER:                  -5.110
REMARK INTRA:                  -0.111
REMARK UNBOUND:                -0.106
REMARK SMILES COc1cc2ccc(=O)oc2cc1OC
REMARK SMILES IDX 3 1 13 2 12 3 11 4 5 5 4 6 6 7 7 8 8 9 9 10 10 11 2 12 1 13
REMARK SMILES IDX 14 14 15 15
REMARK H PARENT
REMARK Flexibility Score: inf
ROOT
ATOM      1  C   UNL     1     -14.112 -10.203  98.738  1.00  0.00     0.161 A 
ATOM      2  C   UNL     1     -15.128  -9.462  98.112  1.00  0.00     0.164 A 
ATOM      3  C   UNL     1     -15.205  -9.431  96.704  1.00  0.00     0.098 A 
ATOM      4  C   UNL     1     -14.277 -10.130  95.930  1.00  0.00     0.142 A 
ATOM      5  C   UNL     1     -13.257 -10.873  96.558  1.00  0.00     0.022 A 
ATOM      6  C   UNL     1     -13.177 -10.908  97.955  1.00  0.00     0.062 A 
ATOM      7  C   UNL     1     -12.342 -11.562  95.754  1.00  0.00     0.019 A 
ATOM      8  C   UNL     1     -12.465 -11.497  94.366  1.00  0.00     0.094 A 
ATOM      9  C   UNL     1     -13.503 -10.739  93.813  1.00  0.00     0.336 A 
ATOM     10  O   UNL     1     -13.631 -10.667  92.564  1.00  0.00    -0.246 OA
ATOM     11  O   UNL     1     -14.358 -10.093  94.602  1.00  0.00    -0.423 OA
ENDROOT
BRANCH   1  12
ATOM     12  O   UNL     1     -14.066 -10.213 100.142  1.00  0.00    -0.493 OA
ATOM     13  C   UNL     1     -13.580 -11.297 100.925  1.00  0.00     0.278 C 
ENDBRANCH   1  12
BRANCH   2  14
ATOM     14  O   UNL     1     -16.044  -8.772  98.921  1.00  0.00    -0.493 OA
ATOM     15  C   UNL     1     -15.938  -7.394  99.265  1.00  0.00     0.278 C 
ENDBRANCH   2  14
TORSDOF 2
ENDMDL
MODEL 3
REMARK VINA RESULT:    -4.457      1.490      4.905
REMARK INTER + INTRA:          -5.084
REMARK INTER:                  -4.960
REMARK INTRA:                  -0.124
REMARK UNBOUND:                -0.106
REMARK SMILES COc1cc2ccc(=O)oc2cc1OC
REMARK SMILES IDX 3 1 13 2 12 3 11 4 5 5 4 6 6 7 7 8 8 9 9 10 10 11 2 12 1 13
REMARK SMILES IDX 14 14 15 15
REMARK H PARENT
REMARK Flexibility Score: inf
ROOT
ATOM      1  C   UNL     1     -14.062 -10.292  94.956  1.00  0.00     0.161 A 
ATOM      2  C   UNL     1     -13.090 -11.234  95.331  1.00  0.00     0.164 A 
ATOM      3  C   UNL     1     -12.822 -11.457  96.698  1.00  0.00     0.098 A 
ATOM      4  C   UNL     1     -13.516 -10.746  97.679  1.00  0.00     0.142 A 
ATOM      5  C   UNL     1     -14.492  -9.800  97.303  1.00  0.00     0.022 A 
ATOM      6  C   UNL     1     -14.762  -9.576  95.948  1.00  0.00     0.062 A 
ATOM      7  C   UNL     1     -15.169  -9.104  98.311  1.00  0.00     0.019 A 
ATOM      8  C   UNL     1     -14.864  -9.364  99.646  1.00  0.00     0.094 A 
ATOM      9  C   UNL     1     -13.884 -10.317  99.944  1.00  0.00     0.336 A 
ATOM     10  O   UNL     1     -13.594 -10.566 101.143  1.00  0.00    -0.246 OA
ATOM     11  O   UNL     1     -13.255 -10.964  98.966  1.00  0.00    -0.423 OA
ENDROOT
BRANCH   1  12
ATOM     12  O   UNL     1     -14.304 -10.096  93.587  1.00  0.00    -0.493 OA
ATOM     13  C   UNL     1     -13.759  -9.032  92.815  1.00  0.00     0.278 C 
ENDBRANCH   1  12
BRANCH   2  14
ATOM     14  O   UNL     1     -12.412 -11.930  94.318  1.00  0.00    -0.493 OA
ATOM     15  C   UNL     1     -11.027 -12.258  94.351  1.00  0.00     0.278 C 
ENDBRANCH   2  14
TORSDOF 2
ENDMDL
MODEL 4
REMARK VINA RESULT:    -4.351      1.449      5.640
REMARK INTER + INTRA:          -4.965
REMARK INTER:                  -4.830
REMARK INTRA:                  -0.135
REMARK UNBOUND:                -0.106
REMARK SMILES COc1cc2ccc(=O)oc2cc1OC
REMARK SMILES IDX 3 1 13 2 12 3 11 4 5 5 4 6 6 7 7 8 8 9 9 10 10 11 2 12 1 13
REMARK SMILES IDX 14 14 15 15
REMARK H PARENT
REMARK Flexibility Score: inf
ROOT
ATOM      1  C   UNL     1     -13.130 -11.314  95.564  1.00  0.00     0.161 A 
ATOM      2  C   UNL     1     -13.923 -10.287  95.026  1.00  0.00     0.164 A 
ATOM      3  C   UNL     1     -14.598  -9.400  95.889  1.00  0.00     0.098 A 
ATOM      4  C   UNL     1     -14.483  -9.536  97.274  1.00  0.00     0.142 A 
ATOM      5  C   UNL     1     -13.687 -10.567  97.814  1.00  0.00     0.022 A 
ATOM      6  C   UNL     1     -13.015 -11.451  96.961  1.00  0.00     0.062 A 
ATOM      7  C   UNL     1     -13.594 -10.677  99.206  1.00  0.00     0.019 A 
ATOM      8  C   UNL     1     -14.282  -9.772 100.013  1.00  0.00     0.094 A 
ATOM      9  C   UNL     1     -15.053  -8.775  99.406  1.00  0.00     0.336 A 
ATOM     10  O   UNL     1     -15.682  -7.949 100.116  1.00  0.00    -0.246 OA
ATOM     11  O   UNL     1     -15.125  -8.693  98.080  1.00  0.00    -0.423 OA
ENDROOT
BRANCH   1  12
ATOM     12  O   UNL     1     -12.471 -12.180  94.675  1.00  0.00    -0.493 OA
ATOM     13  C   UNL     1     -11.072 -12.153  94.410  1.00  0.00     0.278 C 
ENDBRANCH   1  12
BRANCH   2  14
ATOM     14  O   UNL     1     -14.015 -10.180  93.629  1.00  0.00    -0.493 OA
ATOM     15  C   UNL     1     -13.778  -8.984  92.894  1.00  0.00     0.278 C 
ENDBRANCH   2  14
TORSDOF 2
ENDMDL
MODEL 5
REMARK VINA RESULT:    -4.276      1.866      5.123
REMARK INTER + INTRA:          -4.882
REMARK INTER:                  -4.744
REMARK INTRA:                  -0.138
REMARK UNBOUND:                -0.106
REMARK SMILES COc1cc2ccc(=O)oc2cc1OC
REMARK SMILES IDX 3 1 13 2 12 3 11 4 5 5 4 6 6 7 7 8 8 9 9 10 10 11 2 12 1 13
REMARK SMILES IDX 14 14 15 15
REMARK H PARENT
REMARK Flexibility Score: inf
ROOT
ATOM      1  C   UNL     1     -13.478 -10.492  94.775  1.00  0.00     0.161 A 
ATOM      2  C   UNL     1     -12.140 -10.849  95.010  1.00  0.00     0.164 A 
ATOM      3  C   UNL     1     -11.644 -10.873  96.330  1.00  0.00     0.098 A 
ATOM      4  C   UNL     1     -12.474 -10.542  97.403  1.00  0.00     0.142 A 
ATOM      5  C   UNL     1     -13.817 -10.183  97.167  1.00  0.00     0.022 A 
ATOM      6  C   UNL     1     -14.315 -10.159  95.859  1.00  0.00     0.062 A 
ATOM      7  C   UNL     1     -14.622  -9.857  98.264  1.00  0.00     0.019 A 
ATOM      8  C   UNL     1     -14.080  -9.897  99.548  1.00  0.00     0.094 A 
ATOM      9  C   UNL     1     -12.739 -10.262  99.706  1.00  0.00     0.336 A 
ATOM     10  O   UNL     1     -12.231 -10.304 100.856  1.00  0.00    -0.246 OA
ATOM     11  O   UNL     1     -11.996 -10.567  98.645  1.00  0.00    -0.423 OA
ENDROOT
BRANCH   1  12
ATOM     12  O   UNL     1     -13.940 -10.480  93.448  1.00  0.00    -0.493 OA
ATOM     13  C   UNL     1     -14.731 -11.506  92.860  1.00  0.00     0.278 C 
ENDBRANCH   1  12
BRANCH   2  14
ATOM     14  O   UNL     1     -11.335 -11.176  93.908  1.00  0.00    -0.493 OA
ATOM     15  C   UNL     1     -10.365 -10.307  93.331  1.00  0.00     0.278 C 
ENDBRANCH   2  14
TORSDOF 2
ENDMDL
MODEL 6
REMARK VINA RESULT:    -4.013      2.209      5.446
REMARK INTER + INTRA:          -4.589
REMARK INTER:                  -4.461
REMARK INTRA:                  -0.128
REMARK UNBOUND:                -0.106
REMARK SMILES COc1cc2ccc(=O)oc2cc1OC
REMARK SMILES IDX 3 1 13 2 12 3 11 4 5 5 4 6 6 7 7 8 8 9 9 10 10 11 2 12 1 13
REMARK SMILES IDX 14 14 15 15
REMARK H PARENT
REMARK Flexibility Score: inf
ROOT
ATOM      1  C   UNL     1     -11.739  -9.943  94.877  1.00  0.00     0.161 A 
ATOM      2  C   UNL     1     -12.803 -10.858  94.818  1.00  0.00     0.164 A 
ATOM      3  C   UNL     1     -13.397 -11.317  96.012  1.00  0.00     0.098 A 
ATOM      4  C   UNL     1     -12.934 -10.868  97.250  1.00  0.00     0.142 A 
ATOM      5  C   UNL     1     -11.866  -9.950  97.309  1.00  0.00     0.022 A 
ATOM      6  C   UNL     1     -11.273  -9.490  96.127  1.00  0.00     0.062 A 
ATOM      7  C   UNL     1     -11.425  -9.520  98.566  1.00  0.00     0.019 A 
ATOM      8  C   UNL     1     -12.049 -10.006  99.714  1.00  0.00     0.094 A 
ATOM      9  C   UNL     1     -13.103 -10.916  99.578  1.00  0.00     0.336 A 
ATOM     10  O   UNL     1     -13.679 -11.367 100.602  1.00  0.00    -0.246 OA
ATOM     11  O   UNL     1     -13.502 -11.308  98.371  1.00  0.00    -0.423 OA
ENDROOT
BRANCH   1  12
ATOM     12  O   UNL     1     -11.171  -9.505  93.669  1.00  0.00    -0.493 OA
ATOM     13  C   UNL     1      -9.920  -9.952  93.156  1.00  0.00     0.278 C 
ENDBRANCH   1  12
BRANCH   2  14
ATOM     14  O   UNL     1     -13.242 -11.288  93.556  1.00  0.00    -0.493 OA
ATOM     15  C   UNL     1     -14.604 -11.310  93.140  1.00  0.00     0.278 C 
ENDBRANCH   2  14
TORSDOF 2
ENDMDL
MODEL 7
REMARK VINA RESULT:    -3.986      3.675      7.367
REMARK INTER + INTRA:          -4.558
REMARK INTER:                  -4.393
REMARK INTRA:                  -0.165
REMARK UNBOUND:                -0.106
REMARK SMILES COc1cc2ccc(=O)oc2cc1OC
REMARK SMILES IDX 3 1 13 2 12 3 11 4 5 5 4 6 6 7 7 8 8 9 9 10 10 11 2 12 1 13
REMARK SMILES IDX 14 14 15 15
REMARK H PARENT
REMARK Flexibility Score: inf
ROOT
ATOM      1  C   UNL     1     -13.004 -10.233  90.313  1.00  0.00     0.161 A 
ATOM      2  C   UNL     1     -11.619 -10.162  90.537  1.00  0.00     0.164 A 
ATOM      3  C   UNL     1     -11.115 -10.292  91.848  1.00  0.00     0.098 A 
ATOM      4  C   UNL     1     -11.984 -10.489  92.923  1.00  0.00     0.142 A 
ATOM      5  C   UNL     1     -13.374 -10.560  92.698  1.00  0.00     0.022 A 
ATOM      6  C   UNL     1     -13.879 -10.433  91.399  1.00  0.00     0.062 A 
ATOM      7  C   UNL     1     -14.217 -10.758  93.797  1.00  0.00     0.019 A 
ATOM      8  C   UNL     1     -13.665 -10.879  95.072  1.00  0.00     0.094 A 
ATOM      9  C   UNL     1     -12.276 -10.798  95.218  1.00  0.00     0.336 A 
ATOM     10  O   UNL     1     -11.759 -10.905  96.360  1.00  0.00    -0.246 OA
ATOM     11  O   UNL     1     -11.497 -10.609  94.156  1.00  0.00    -0.423 OA
ENDROOT
BRANCH   1  12
ATOM     12  O   UNL     1     -13.471 -10.102  88.995  1.00  0.00    -0.493 OA
ATOM     13  C   UNL     1     -13.828 -11.192  88.152  1.00  0.00     0.278 C 
ENDBRANCH   1  12
BRANCH   2  14
ATOM     14  O   UNL     1     -10.775  -9.963  89.433  1.00  0.00    -0.493 OA
ATOM     15  C   UNL     1      -9.994 -10.983  88.819  1.00  0.00     0.278 C 
ENDBRANCH   2  14
TORSDOF 2
ENDMDL
MODEL 8
REMARK VINA RESULT:    -3.971      7.474      9.439
REMARK INTER + INTRA:          -4.541
REMARK INTER:                  -4.400
REMARK INTRA:                  -0.141
REMARK UNBOUND:                -0.106
REMARK SMILES COc1cc2ccc(=O)oc2cc1OC
REMARK SMILES IDX 3 1 13 2 12 3 11 4 5 5 4 6 6 7 7 8 8 9 9 10 10 11 2 12 1 13
REMARK SMILES IDX 14 14 15 15
REMARK H PARENT
REMARK Flexibility Score: inf
ROOT
ATOM      1  C   UNL     1      -8.901  -7.729  91.182  1.00  0.00     0.161 A 
ATOM      2  C   UNL     1      -8.530  -8.528  92.276  1.00  0.00     0.164 A 
ATOM      3  C   UNL     1      -7.423  -8.161  93.067  1.00  0.00     0.098 A 
ATOM      4  C   UNL     1      -6.693  -7.008  92.770  1.00  0.00     0.142 A 
ATOM      5  C   UNL     1      -7.065  -6.205  91.672  1.00  0.00     0.022 A 
ATOM      6  C   UNL     1      -8.164  -6.566  90.883  1.00  0.00     0.062 A 
ATOM      7  C   UNL     1      -6.313  -5.057  91.401  1.00  0.00     0.019 A 
ATOM      8  C   UNL     1      -5.227  -4.740  92.217  1.00  0.00     0.094 A 
ATOM      9  C   UNL     1      -4.917  -5.584  93.289  1.00  0.00     0.336 A 
ATOM     10  O   UNL     1      -3.941  -5.316  94.037  1.00  0.00    -0.246 OA
ATOM     11  O   UNL     1      -5.649  -6.670  93.524  1.00  0.00    -0.423 OA
ENDROOT
BRANCH   1  12
ATOM     12  O   UNL     1     -10.009  -8.124  90.415  1.00  0.00    -0.493 OA
ATOM     13  C   UNL     1     -11.152  -7.311  90.169  1.00  0.00     0.278 C 
ENDBRANCH   1  12
BRANCH   2  14
ATOM     14  O   UNL     1      -9.286  -9.680  92.545  1.00  0.00    -0.493 OA
ATOM     15  C   UNL     1     -10.303  -9.765  93.538  1.00  0.00     0.278 C 
ENDBRANCH   2  14
TORSDOF 2
ENDMDL
MODEL 9
REMARK VINA RESULT:    -3.918      7.769      8.616
REMARK INTER + INTRA:          -4.482
REMARK INTER:                  -4.364
REMARK INTRA:                  -0.119
REMARK UNBOUND:                -0.106
REMARK SMILES COc1cc2ccc(=O)oc2cc1OC
REMARK SMILES IDX 3 1 13 2 12 3 11 4 5 5 4 6 6 7 7 8 8 9 9 10 10 11 2 12 1 13
REMARK SMILES IDX 14 14 15 15
REMARK H PARENT
REMARK Flexibility Score: inf
ROOT
ATOM      1  C   UNL     1     -12.246  -8.445  90.323  1.00  0.00     0.161 A 
ATOM      2  C   UNL     1     -12.522  -9.762  89.921  1.00  0.00     0.164 A 
ATOM      3  C   UNL     1     -11.468 -10.604  89.511  1.00  0.00     0.098 A 
ATOM      4  C   UNL     1     -10.153 -10.136  89.503  1.00  0.00     0.142 A 
ATOM      5  C   UNL     1      -9.876  -8.814  89.906  1.00  0.00     0.022 A 
ATOM      6  C   UNL     1     -10.919  -7.974  90.314  1.00  0.00     0.062 A 
ATOM      7  C   UNL     1      -8.547  -8.376  89.885  1.00  0.00     0.019 A 
ATOM      8  C   UNL     1      -7.543  -9.250  89.471  1.00  0.00     0.094 A 
ATOM      9  C   UNL     1      -7.893 -10.548  89.084  1.00  0.00     0.336 A 
ATOM     10  O   UNL     1      -7.002 -11.353  88.707  1.00  0.00    -0.246 OA
ATOM     11  O   UNL     1      -9.165 -10.939  89.113  1.00  0.00    -0.423 OA
ENDROOT
BRANCH   1  12
ATOM     12  O   UNL     1     -13.320  -7.634  90.726  1.00  0.00    -0.493 OA
ATOM     13  C   UNL     1     -13.921  -6.629  89.917  1.00  0.00     0.278 C 
ENDBRANCH   1  12
BRANCH   2  14
ATOM     14  O   UNL     1     -13.856 -10.199  89.943  1.00  0.00    -0.493 OA
ATOM     15  C   UNL     1     -14.343 -11.344  89.250  1.00  0.00     0.278 C 
ENDBRANCH   2  14
TORSDOF 2
ENDMDL
