MODEL 1
REMARK VINA RESULT:    -3.529      0.000      0.000
REMARK INTER + INTRA:         -10.585
REMARK INTER:                  -7.655
REMARK INTRA:                  -2.930
REMARK UNBOUND:                -2.930
REMARK SMILES CCCCCCCCCCCCCCCCCCCCCC(=O)[O-]
REMARK SMILES IDX 12 1 11 2 10 3 9 4 8 5 7 6 6 7 5 8 4 9 3 10 2 11 1 12 13 13
REMARK SMILES IDX 14 14 15 15 16 16 17 17 18 18 19 19 20 20 21 21 22 22 23 23
REMARK SMILES IDX 24 24
REMARK H PARENT
REMARK Flexibility Score: inf
ROOT
ATOM      1  C   UNL     1      61.123  32.246  59.197  1.00  0.00     0.000 C 
ENDROOT
BRANCH   1   2
ATOM      2  C   UNL     1      61.734  33.158  60.276  1.00  0.00     0.000 C 
BRANCH   2   3
ATOM      3  C   UNL     1      61.416  34.644  60.050  1.00  0.00     0.000 C 
BRANCH   3   4
ATOM      4  C   UNL     1      62.449  35.576  60.701  1.00  0.00    -0.000 C 
BRANCH   4   5
ATOM      5  C   UNL     1      63.699  34.793  61.131  1.00  0.00    -0.000 C 
BRANCH   5   6
ATOM      6  C   UNL     1      64.887  35.706  61.483  1.00  0.00    -0.000 C 
BRANCH   6   7
ATOM      7  C   UNL     1      66.061  35.670  60.483  1.00  0.00    -0.000 C 
BRANCH   7   8
ATOM      8  C   UNL     1      65.714  36.130  59.055  1.00  0.00    -0.000 C 
BRANCH   8   9
ATOM      9  C   UNL     1      65.810  34.992  58.024  1.00  0.00    -0.000 C 
BRANCH   9  10
ATOM     10  C   UNL     1      64.432  34.455  57.598  1.00  0.00    -0.000 C 
BRANCH  10  11
ATOM     11  C   UNL     1      64.335  32.920  57.521  1.00  0.00    -0.003 C 
ATOM     12  C   UNL     1      64.921  32.221  58.750  1.00  0.00     0.004 C 
ENDBRANCH  10  11
ENDBRANCH   9  10
ENDBRANCH   8   9
ENDBRANCH   7   8
ENDBRANCH   6   7
ENDBRANCH   5   6
ENDBRANCH   4   5
ENDBRANCH   3   4
ENDBRANCH   2   3
ENDBRANCH   1   2
BRANCH   1  13
ATOM     13  C   UNL     1      60.542  30.943  59.788  1.00  0.00     0.000 C 
BRANCH  13  14
ATOM     14  C   UNL     1      60.830  30.755  61.291  1.00  0.00     0.000 C 
BRANCH  14  15
ATOM     15  C   UNL     1      61.852  29.656  61.627  1.00  0.00     0.000 C 
BRANCH  15  16
ATOM     16  C   UNL     1      63.314  29.995  61.274  1.00  0.00     0.000 C 
BRANCH  16  17
ATOM     17  C   UNL     1      64.066  28.853  60.558  1.00  0.00     0.000 C 
BRANCH  17  18
ATOM     18  C   UNL     1      63.111  27.805  59.956  1.00  0.00     0.000 C 
BRANCH  18  19
ATOM     19  C   UNL     1      63.136  26.475  60.743  1.00  0.00     0.000 C 
BRANCH  19  20
ATOM     20  C   UNL     1      61.736  25.965  61.128  1.00  0.00     0.006 C 
BRANCH  20  21
ATOM     21  C   UNL     1      61.652  25.509  62.590  1.00  0.00     0.053 C 
BRANCH  21  22
ATOM     22  C   UNL     1      61.764  24.020  62.684  1.00  0.00     0.041 C 
ATOM     23  O   UNL     1      62.832  23.491  63.090  1.00  0.00    -0.550 OA
ATOM     24  O   UNL     1      60.683  23.215  62.344  1.00  0.00    -0.550 OA
ENDBRANCH  21  22
ENDBRANCH  20  21
ENDBRANCH  19  20
ENDBRANCH  18  19
ENDBRANCH  17  18
ENDBRANCH  16  17
ENDBRANCH  15  16
ENDBRANCH  14  15
ENDBRANCH  13  14
ENDBRANCH   1  13
TORSDOF 20
ENDMDL
MODEL 2
REMARK VINA RESULT:    -3.481      1.995      3.575
REMARK INTER + INTRA:         -10.481
REMARK INTER:                  -6.692
REMARK INTRA:                  -3.789
REMARK UNBOUND:                -2.930
REMARK SMILES CCCCCCCCCCCCCCCCCCCCCC(=O)[O-]
REMARK SMILES IDX 12 1 11 2 10 3 9 4 8 5 7 6 6 7 5 8 4 9 3 10 2 11 1 12 13 13
REMARK SMILES IDX 14 14 15 15 16 16 17 17 18 18 19 19 20 20 21 21 22 22 23 23
REMARK SMILES IDX 24 24
REMARK H PARENT
REMARK Flexibility Score: inf
ROOT
ATOM      1  C   UNL     1      61.198  31.861  60.483  1.00  0.00     0.000 C 
ENDROOT
BRANCH   1   2
ATOM      2  C   UNL     1      60.479  31.867  59.123  1.00  0.00     0.000 C 
BRANCH   2   3
ATOM      3  C   UNL     1      61.409  32.234  57.957  1.00  0.00     0.000 C 
BRANCH   3   4
ATOM      4  C   UNL     1      62.523  31.198  57.739  1.00  0.00    -0.000 C 
BRANCH   4   5
ATOM      5  C   UNL     1      63.848  31.887  57.379  1.00  0.00    -0.000 C 
BRANCH   5   6
ATOM      6  C   UNL     1      64.644  32.340  58.616  1.00  0.00    -0.000 C 
BRANCH   6   7
ATOM      7  C   UNL     1      64.490  33.829  58.987  1.00  0.00    -0.000 C 
BRANCH   7   8
ATOM      8  C   UNL     1      64.557  34.134  60.494  1.00  0.00    -0.000 C 
BRANCH   8   9
ATOM      9  C   UNL     1      63.312  34.878  61.007  1.00  0.00    -0.000 C 
BRANCH   9  10
ATOM     10  C   UNL     1      62.378  35.332  59.871  1.00  0.00    -0.000 C 
BRANCH  10  11
ATOM     11  C   UNL     1      60.911  35.541  60.289  1.00  0.00    -0.003 C 
ATOM     12  C   UNL     1      60.033  36.064  59.151  1.00  0.00     0.004 C 
ENDBRANCH  10  11
ENDBRANCH   9  10
ENDBRANCH   8   9
ENDBRANCH   7   8
ENDBRANCH   6   7
ENDBRANCH   5   6
ENDBRANCH   4   5
ENDBRANCH   3   4
ENDBRANCH   2   3
ENDBRANCH   1   2
BRANCH   1  13
ATOM     13  C   UNL     1      60.790  30.658  61.360  1.00  0.00     0.000 C 
BRANCH  13  14
ATOM     14  C   UNL     1      61.943  29.677  61.653  1.00  0.00     0.000 C 
BRANCH  14  15
ATOM     15  C   UNL     1      63.347  30.195  61.299  1.00  0.00     0.000 C 
BRANCH  15  16
ATOM     16  C   UNL     1      64.241  29.191  60.546  1.00  0.00     0.000 C 
BRANCH  16  17
ATOM     17  C   UNL     1      63.522  27.882  60.155  1.00  0.00     0.000 C 
BRANCH  17  18
ATOM     18  C   UNL     1      63.170  27.829  58.656  1.00  0.00     0.000 C 
BRANCH  18  19
ATOM     19  C   UNL     1      61.704  27.400  58.418  1.00  0.00     0.000 C 
BRANCH  19  20
ATOM     20  C   UNL     1      61.073  26.678  59.621  1.00  0.00     0.006 C 
BRANCH  20  21
ATOM     21  C   UNL     1      59.544  26.607  59.536  1.00  0.00     0.053 C 
BRANCH  21  22
ATOM     22  C   UNL     1      58.929  26.905  60.867  1.00  0.00     0.041 C 
ATOM     23  O   UNL     1      58.388  28.022  61.079  1.00  0.00    -0.550 OA
ATOM     24  O   UNL     1      58.934  25.942  61.870  1.00  0.00    -0.550 OA
ENDBRANCH  21  22
ENDBRANCH  20  21
ENDBRANCH  19  20
ENDBRANCH  18  19
ENDBRANCH  17  18
ENDBRANCH  16  17
ENDBRANCH  15  16
ENDBRANCH  14  15
ENDBRANCH  13  14
ENDBRANCH   1  13
TORSDOF 20
ENDMDL
MODEL 3
REMARK VINA RESULT:    -3.445      1.274      3.166
REMARK INTER + INTRA:         -10.404
REMARK INTER:                  -7.013
REMARK INTRA:                  -3.391
REMARK UNBOUND:                -2.930
REMARK SMILES CCCCCCCCCCCCCCCCCCCCCC(=O)[O-]
REMARK SMILES IDX 12 1 11 2 10 3 9 4 8 5 7 6 6 7 5 8 4 9 3 10 2 11 1 12 13 13
REMARK SMILES IDX 14 14 15 15 16 16 17 17 18 18 19 19 20 20 21 21 22 22 23 23
REMARK SMILES IDX 24 24
REMARK H PARENT
REMARK Flexibility Score: inf
ROOT
ATOM      1  C   UNL     1      60.015  29.017  60.068  1.00  0.00     0.000 C 
ENDROOT
BRANCH   1   2
ATOM      2  C   UNL     1      60.397  29.235  58.593  1.00  0.00     0.000 C 
BRANCH   2   3
ATOM      3  C   UNL     1      60.509  30.722  58.220  1.00  0.00     0.000 C 
BRANCH   3   4
ATOM      4  C   UNL     1      61.916  31.107  57.738  1.00  0.00    -0.000 C 
BRANCH   4   5
ATOM      5  C   UNL     1      62.405  32.383  58.439  1.00  0.00    -0.000 C 
BRANCH   5   6
ATOM      6  C   UNL     1      63.899  32.663  58.203  1.00  0.00    -0.000 C 
BRANCH   6   7
ATOM      7  C   UNL     1      64.474  33.864  58.982  1.00  0.00    -0.000 C 
BRANCH   7   8
ATOM      8  C   UNL     1      64.361  33.760  60.514  1.00  0.00    -0.000 C 
BRANCH   8   9
ATOM      9  C   UNL     1      64.475  35.126  61.212  1.00  0.00    -0.000 C 
BRANCH   9  10
ATOM     10  C   UNL     1      63.691  36.235  60.487  1.00  0.00    -0.000 C 
BRANCH  10  11
ATOM     11  C   UNL     1      62.229  36.391  60.941  1.00  0.00    -0.003 C 
ATOM     12  C   UNL     1      61.266  35.472  60.186  1.00  0.00     0.004 C 
ENDBRANCH  10  11
ENDBRANCH   9  10
ENDBRANCH   8   9
ENDBRANCH   7   8
ENDBRANCH   6   7
ENDBRANCH   5   6
ENDBRANCH   4   5
ENDBRANCH   3   4
ENDBRANCH   2   3
ENDBRANCH   1   2
BRANCH   1  13
ATOM     13  C   UNL     1      60.580  30.118  60.991  1.00  0.00     0.000 C 
BRANCH  13  14
ATOM     14  C   UNL     1      61.888  29.725  61.706  1.00  0.00     0.000 C 
BRANCH  14  15
ATOM     15  C   UNL     1      63.147  30.459  61.216  1.00  0.00     0.000 C 
BRANCH  15  16
ATOM     16  C   UNL     1      64.340  29.547  60.870  1.00  0.00     0.000 C 
BRANCH  16  17
ATOM     17  C   UNL     1      64.266  28.927  59.459  1.00  0.00     0.000 C 
BRANCH  17  18
ATOM     18  C   UNL     1      64.384  27.391  59.482  1.00  0.00     0.000 C 
BRANCH  18  19
ATOM     19  C   UNL     1      63.019  26.705  59.714  1.00  0.00     0.000 C 
BRANCH  19  20
ATOM     20  C   UNL     1      62.962  25.875  61.008  1.00  0.00     0.006 C 
BRANCH  20  21
ATOM     21  C   UNL     1      61.632  26.028  61.755  1.00  0.00     0.053 C 
BRANCH  21  22
ATOM     22  C   UNL     1      61.513  25.000  62.835  1.00  0.00     0.041 C 
ATOM     23  O   UNL     1      60.585  25.078  63.683  1.00  0.00    -0.550 OA
ATOM     24  O   UNL     1      62.414  23.943  62.895  1.00  0.00    -0.550 OA
ENDBRANCH  21  22
ENDBRANCH  20  21
ENDBRANCH  19  20
ENDBRANCH  18  19
ENDBRANCH  17  18
ENDBRANCH  16  17
ENDBRANCH  15  16
ENDBRANCH  14  15
ENDBRANCH  13  14
ENDBRANCH   1  13
TORSDOF 20
ENDMDL
MODEL 4
REMARK VINA RESULT:    -3.397      3.056      4.143
REMARK INTER + INTRA:         -10.299
REMARK INTER:                  -6.549
REMARK INTRA:                  -3.750
REMARK UNBOUND:                -2.930
REMARK SMILES CCCCCCCCCCCCCCCCCCCCCC(=O)[O-]
REMARK SMILES IDX 12 1 11 2 10 3 9 4 8 5 7 6 6 7 5 8 4 9 3 10 2 11 1 12 13 13
REMARK SMILES IDX 14 14 15 15 16 16 17 17 18 18 19 19 20 20 21 21 22 22 23 23
REMARK SMILES IDX 24 24
REMARK H PARENT
REMARK Flexibility Score: inf
ROOT
ATOM      1  C   UNL     1      59.757  34.498  57.639  1.00  0.00     0.000 C 
ENDROOT
BRANCH   1   2
ATOM      2  C   UNL     1      61.114  34.828  58.287  1.00  0.00     0.000 C 
BRANCH   2   3
ATOM      3  C   UNL     1      60.974  35.652  59.576  1.00  0.00     0.000 C 
BRANCH   3   4
ATOM      4  C   UNL     1      61.900  35.158  60.699  1.00  0.00    -0.000 C 
BRANCH   4   5
ATOM      5  C   UNL     1      62.923  34.148  60.159  1.00  0.00    -0.000 C 
BRANCH   5   6
ATOM      6  C   UNL     1      64.239  34.144  60.957  1.00  0.00    -0.000 C 
BRANCH   6   7
ATOM      7  C   UNL     1      64.711  35.526  61.454  1.00  0.00    -0.000 C 
BRANCH   7   8
ATOM      8  C   UNL     1      65.179  36.490  60.349  1.00  0.00    -0.000 C 
BRANCH   8   9
ATOM      9  C   UNL     1      66.018  35.791  59.266  1.00  0.00    -0.000 C 
BRANCH   9  10
ATOM     10  C   UNL     1      65.726  36.318  57.850  1.00  0.00    -0.000 C 
BRANCH  10  11
ATOM     11  C   UNL     1      64.525  35.656  57.151  1.00  0.00    -0.003 C 
ATOM     12  C   UNL     1      64.702  34.149  56.955  1.00  0.00     0.004 C 
ENDBRANCH  10  11
ENDBRANCH   9  10
ENDBRANCH   8   9
ENDBRANCH   7   8
ENDBRANCH   6   7
ENDBRANCH   5   6
ENDBRANCH   4   5
ENDBRANCH   3   4
ENDBRANCH   2   3
ENDBRANCH   1   2
BRANCH   1  13
ATOM     13  C   UNL     1      59.416  32.995  57.720  1.00  0.00     0.000 C 
BRANCH  13  14
ATOM     14  C   UNL     1      60.627  32.095  58.039  1.00  0.00     0.000 C 
BRANCH  14  15
ATOM     15  C   UNL     1      60.394  31.055  59.147  1.00  0.00     0.000 C 
BRANCH  15  16
ATOM     16  C   UNL     1      60.901  31.465  60.543  1.00  0.00     0.000 C 
BRANCH  16  17
ATOM     17  C   UNL     1      61.183  30.274  61.483  1.00  0.00     0.000 C 
BRANCH  17  18
ATOM     18  C   UNL     1      62.523  29.582  61.172  1.00  0.00     0.000 C 
BRANCH  18  19
ATOM     19  C   UNL     1      63.705  30.577  61.170  1.00  0.00     0.000 C 
BRANCH  19  20
ATOM     20  C   UNL     1      64.658  30.394  59.976  1.00  0.00     0.006 C 
BRANCH  20  21
ATOM     21  C   UNL     1      64.069  30.920  58.661  1.00  0.00     0.053 C 
BRANCH  21  22
ATOM     22  C   UNL     1      64.015  29.832  57.636  1.00  0.00     0.041 C 
ATOM     23  O   UNL     1      64.984  29.650  56.853  1.00  0.00    -0.550 OA
ATOM     24  O   UNL     1      62.901  29.003  57.557  1.00  0.00    -0.550 OA
ENDBRANCH  21  22
ENDBRANCH  20  21
ENDBRANCH  19  20
ENDBRANCH  18  19
ENDBRANCH  17  18
ENDBRANCH  16  17
ENDBRANCH  15  16
ENDBRANCH  14  15
ENDBRANCH  13  14
ENDBRANCH   1  13
TORSDOF 20
ENDMDL
MODEL 5
REMARK VINA RESULT:    -3.378      2.822      4.124
REMARK INTER + INTRA:         -10.259
REMARK INTER:                  -6.015
REMARK INTRA:                  -4.244
REMARK UNBOUND:                -2.930
REMARK SMILES CCCCCCCCCCCCCCCCCCCCCC(=O)[O-]
REMARK SMILES IDX 12 1 11 2 10 3 9 4 8 5 7 6 6 7 5 8 4 9 3 10 2 11 1 12 13 13
REMARK SMILES IDX 14 14 15 15 16 16 17 17 18 18 19 19 20 20 21 21 22 22 23 23
REMARK SMILES IDX 24 24
REMARK H PARENT
REMARK Flexibility Score: inf
ROOT
ATOM      1  C   UNL     1      60.682  29.761  60.335  1.00  0.00     0.000 C 
ENDROOT
BRANCH   1   2
ATOM      2  C   UNL     1      60.542  31.187  59.773  1.00  0.00     0.000 C 
BRANCH   2   3
ATOM      3  C   UNL     1      61.352  32.223  60.568  1.00  0.00     0.000 C 
BRANCH   3   4
ATOM      4  C   UNL     1      61.871  33.371  59.689  1.00  0.00    -0.000 C 
BRANCH   4   5
ATOM      5  C   UNL     1      61.524  34.734  60.307  1.00  0.00    -0.000 C 
BRANCH   5   6
ATOM      6  C   UNL     1      62.766  35.516  60.770  1.00  0.00    -0.000 C 
BRANCH   6   7
ATOM      7  C   UNL     1      64.008  34.654  61.077  1.00  0.00    -0.000 C 
BRANCH   7   8
ATOM      8  C   UNL     1      65.350  35.265  60.634  1.00  0.00    -0.000 C 
BRANCH   8   9
ATOM      9  C   UNL     1      65.307  35.815  59.198  1.00  0.00    -0.000 C 
BRANCH   9  10
ATOM     10  C   UNL     1      65.558  34.731  58.135  1.00  0.00    -0.000 C 
BRANCH  10  11
ATOM     11  C   UNL     1      64.390  34.504  57.158  1.00  0.00    -0.003 C 
ATOM     12  C   UNL     1      63.398  35.668  57.131  1.00  0.00     0.004 C 
ENDBRANCH  10  11
ENDBRANCH   9  10
ENDBRANCH   8   9
ENDBRANCH   7   8
ENDBRANCH   6   7
ENDBRANCH   5   6
ENDBRANCH   4   5
ENDBRANCH   3   4
ENDBRANCH   2   3
ENDBRANCH   1   2
BRANCH   1  13
ATOM     13  C   UNL     1      61.817  29.648  61.376  1.00  0.00     0.000 C 
BRANCH  13  14
ATOM     14  C   UNL     1      62.856  28.556  61.052  1.00  0.00     0.000 C 
BRANCH  14  15
ATOM     15  C   UNL     1      64.151  29.061  60.393  1.00  0.00     0.000 C 
BRANCH  15  16
ATOM     16  C   UNL     1      64.488  30.540  60.667  1.00  0.00     0.000 C 
BRANCH  16  17
ATOM     17  C   UNL     1      64.818  31.352  59.397  1.00  0.00     0.000 C 
BRANCH  17  18
ATOM     18  C   UNL     1      64.587  30.546  58.105  1.00  0.00     0.000 C 
BRANCH  18  19
ATOM     19  C   UNL     1      63.320  31.006  57.349  1.00  0.00     0.000 C 
BRANCH  19  20
ATOM     20  C   UNL     1      62.709  29.913  56.456  1.00  0.00     0.006 C 
BRANCH  20  21
ATOM     21  C   UNL     1      62.182  28.717  57.257  1.00  0.00     0.053 C 
BRANCH  21  22
ATOM     22  C   UNL     1      60.881  28.238  56.694  1.00  0.00     0.041 C 
ATOM     23  O   UNL     1      60.850  27.234  55.936  1.00  0.00    -0.550 OA
ATOM     24  O   UNL     1      59.697  28.888  57.023  1.00  0.00    -0.550 OA
ENDBRANCH  21  22
ENDBRANCH  20  21
ENDBRANCH  19  20
ENDBRANCH  18  19
ENDBRANCH  17  18
ENDBRANCH  16  17
ENDBRANCH  15  16
ENDBRANCH  14  15
ENDBRANCH  13  14
ENDBRANCH   1  13
TORSDOF 20
ENDMDL
MODEL 6
REMARK VINA RESULT:    -3.351     11.261     13.196
REMARK INTER + INTRA:         -10.200
REMARK INTER:                  -7.519
REMARK INTRA:                  -2.681
REMARK UNBOUND:                -2.930
REMARK SMILES CCCCCCCCCCCCCCCCCCCCCC(=O)[O-]
REMARK SMILES IDX 12 1 11 2 10 3 9 4 8 5 7 6 6 7 5 8 4 9 3 10 2 11 1 12 13 13
REMARK SMILES IDX 14 14 15 15 16 16 17 17 18 18 19 19 20 20 21 21 22 22 23 23
REMARK SMILES IDX 24 24
REMARK H PARENT
REMARK Flexibility Score: inf
ROOT
ATOM      1  C   UNL     1      60.032  25.110  51.540  1.00  0.00     0.000 C 
ENDROOT
BRANCH   1   2
ATOM      2  C   UNL     1      59.800  25.292  50.030  1.00  0.00     0.000 C 
BRANCH   2   3
ATOM      3  C   UNL     1      59.197  26.661  49.680  1.00  0.00     0.000 C 
BRANCH   3   4
ATOM      4  C   UNL     1      60.231  27.632  49.091  1.00  0.00    -0.000 C 
BRANCH   4   5
ATOM      5  C   UNL     1      60.140  29.006  49.771  1.00  0.00    -0.000 C 
BRANCH   5   6
ATOM      6  C   UNL     1      59.487  28.944  51.163  1.00  0.00    -0.000 C 
BRANCH   6   7
ATOM      7  C   UNL     1      58.188  29.762  51.316  1.00  0.00    -0.000 C 
BRANCH   7   8
ATOM      8  C   UNL     1      56.924  28.930  51.599  1.00  0.00    -0.000 C 
BRANCH   8   9
ATOM      9  C   UNL     1      56.024  28.775  50.362  1.00  0.00    -0.000 C 
BRANCH   9  10
ATOM     10  C   UNL     1      55.114  27.535  50.437  1.00  0.00    -0.000 C 
BRANCH  10  11
ATOM     11  C   UNL     1      55.584  26.340  49.589  1.00  0.00    -0.003 C 
ATOM     12  C   UNL     1      54.430  25.585  48.926  1.00  0.00     0.004 C 
ENDBRANCH  10  11
ENDBRANCH   9  10
ENDBRANCH   8   9
ENDBRANCH   7   8
ENDBRANCH   6   7
ENDBRANCH   5   6
ENDBRANCH   4   5
ENDBRANCH   3   4
ENDBRANCH   2   3
ENDBRANCH   1   2
BRANCH   1  13
ATOM     13  C   UNL     1      61.515  25.287  51.933  1.00  0.00     0.000 C 
BRANCH  13  14
ATOM     14  C   UNL     1      62.483  25.297  50.733  1.00  0.00     0.000 C 
BRANCH  14  15
ATOM     15  C   UNL     1      63.506  24.149  50.709  1.00  0.00     0.000 C 
BRANCH  15  16
ATOM     16  C   UNL     1      62.906  22.739  50.869  1.00  0.00     0.000 C 
BRANCH  16  17
ATOM     17  C   UNL     1      62.360  22.137  49.557  1.00  0.00     0.000 C 
BRANCH  17  18
ATOM     18  C   UNL     1      60.881  21.724  49.669  1.00  0.00     0.000 C 
BRANCH  18  19
ATOM     19  C   UNL     1      60.476  21.398  51.124  1.00  0.00     0.000 C 
BRANCH  19  20
ATOM     20  C   UNL     1      59.636  20.115  51.254  1.00  0.00     0.006 C 
BRANCH  20  21
ATOM     21  C   UNL     1      60.012  19.051  50.214  1.00  0.00     0.053 C 
BRANCH  21  22
ATOM     22  C   UNL     1      58.784  18.455  49.603  1.00  0.00     0.041 C 
ATOM     23  O   UNL     1      57.643  18.845  49.966  1.00  0.00    -0.550 OA
ATOM     24  O   UNL     1      58.897  17.482  48.617  1.00  0.00    -0.550 OA
ENDBRANCH  21  22
ENDBRANCH  20  21
ENDBRANCH  19  20
ENDBRANCH  18  19
ENDBRANCH  17  18
ENDBRANCH  16  17
ENDBRANCH  15  16
ENDBRANCH  14  15
ENDBRANCH  13  14
ENDBRANCH   1  13
TORSDOF 20
ENDMDL
MODEL 7
REMARK VINA RESULT:    -3.348     10.162     12.337
REMARK INTER + INTRA:         -10.193
REMARK INTER:                  -6.298
REMARK INTRA:                  -3.895
REMARK UNBOUND:                -2.930
REMARK SMILES CCCCCCCCCCCCCCCCCCCCCC(=O)[O-]
REMARK SMILES IDX 12 1 11 2 10 3 9 4 8 5 7 6 6 7 5 8 4 9 3 10 2 11 1 12 13 13
REMARK SMILES IDX 14 14 15 15 16 16 17 17 18 18 19 19 20 20 21 21 22 22 23 23
REMARK SMILES IDX 24 24
REMARK H PARENT
REMARK Flexibility Score: inf
ROOT
ATOM      1  C   UNL     1      55.214  28.977  50.357  1.00  0.00     0.000 C 
ENDROOT
BRANCH   1   2
ATOM      2  C   UNL     1      56.688  28.538  50.422  1.00  0.00     0.000 C 
BRANCH   2   3
ATOM      3  C   UNL     1      57.540  29.443  51.325  1.00  0.00     0.000 C 
BRANCH   3   4
ATOM      4  C   UNL     1      58.949  29.686  50.761  1.00  0.00    -0.000 C 
BRANCH   4   5
ATOM      5  C   UNL     1      59.077  29.111  49.342  1.00  0.00    -0.000 C 
BRANCH   5   6
ATOM      6  C   UNL     1      60.476  28.543  49.049  1.00  0.00    -0.000 C 
BRANCH   6   7
ATOM      7  C   UNL     1      60.669  27.055  49.409  1.00  0.00    -0.000 C 
BRANCH   7   8
ATOM      8  C   UNL     1      59.381  26.212  49.406  1.00  0.00    -0.000 C 
BRANCH   8   9
ATOM      9  C   UNL     1      59.315  25.220  50.580  1.00  0.00    -0.000 C 
BRANCH   9  10
ATOM     10  C   UNL     1      58.181  25.540  51.569  1.00  0.00    -0.000 C 
BRANCH  10  11
ATOM     11  C   UNL     1      58.637  26.210  52.877  1.00  0.00    -0.003 C 
ATOM     12  C   UNL     1      58.327  25.373  54.120  1.00  0.00     0.004 C 
ENDBRANCH  10  11
ENDBRANCH   9  10
ENDBRANCH   8   9
ENDBRANCH   7   8
ENDBRANCH   6   7
ENDBRANCH   5   6
ENDBRANCH   4   5
ENDBRANCH   3   4
ENDBRANCH   2   3
ENDBRANCH   1   2
BRANCH   1  13
ATOM     13  C   UNL     1      54.306  27.895  49.734  1.00  0.00     0.000 C 
BRANCH  13  14
ATOM     14  C   UNL     1      55.012  26.546  49.496  1.00  0.00     0.000 C 
BRANCH  14  15
ATOM     15  C   UNL     1      54.087  25.318  49.479  1.00  0.00     0.000 C 
BRANCH  15  16
ATOM     16  C   UNL     1      53.690  24.781  50.868  1.00  0.00     0.000 C 
BRANCH  16  17
ATOM     17  C   UNL     1      54.641  25.217  52.003  1.00  0.00     0.000 C 
BRANCH  17  18
ATOM     18  C   UNL     1      53.928  26.056  53.080  1.00  0.00     0.000 C 
BRANCH  18  19
ATOM     19  C   UNL     1      54.915  26.618  54.128  1.00  0.00     0.000 C 
BRANCH  19  20
ATOM     20  C   UNL     1      55.184  28.125  53.970  1.00  0.00     0.006 C 
BRANCH  20  21
ATOM     21  C   UNL     1      56.392  28.601  54.786  1.00  0.00     0.053 C 
BRANCH  21  22
ATOM     22  C   UNL     1      56.183  28.331  56.242  1.00  0.00     0.041 C 
ATOM     23  O   UNL     1      56.997  27.608  56.875  1.00  0.00    -0.550 OA
ATOM     24  O   UNL     1      55.101  28.895  56.909  1.00  0.00    -0.550 OA
ENDBRANCH  21  22
ENDBRANCH  20  21
ENDBRANCH  19  20
ENDBRANCH  18  19
ENDBRANCH  17  18
ENDBRANCH  16  17
ENDBRANCH  15  16
ENDBRANCH  14  15
ENDBRANCH  13  14
ENDBRANCH   1  13
TORSDOF 20
ENDMDL
MODEL 8
REMARK VINA RESULT:    -3.300     10.096     12.549
REMARK INTER + INTRA:         -10.089
REMARK INTER:                  -6.007
REMARK INTRA:                  -4.082
REMARK UNBOUND:                -2.930
REMARK SMILES CCCCCCCCCCCCCCCCCCCCCC(=O)[O-]
REMARK SMILES IDX 12 1 11 2 10 3 9 4 8 5 7 6 6 7 5 8 4 9 3 10 2 11 1 12 13 13
REMARK SMILES IDX 14 14 15 15 16 16 17 17 18 18 19 19 20 20 21 21 22 22 23 23
REMARK SMILES IDX 24 24
REMARK H PARENT
REMARK Flexibility Score: inf
ROOT
ATOM      1  C   UNL     1      58.271  27.168  53.346  1.00  0.00     0.000 C 
ENDROOT
BRANCH   1   2
ATOM      2  C   UNL     1      57.882  25.825  52.703  1.00  0.00     0.000 C 
BRANCH   2   3
ATOM      3  C   UNL     1      57.792  25.902  51.171  1.00  0.00     0.000 C 
BRANCH   3   4
ATOM      4  C   UNL     1      56.381  26.255  50.677  1.00  0.00    -0.000 C 
BRANCH   4   5
ATOM      5  C   UNL     1      56.348  27.671  50.082  1.00  0.00    -0.000 C 
BRANCH   5   6
ATOM      6  C   UNL     1      54.921  28.231  49.945  1.00  0.00    -0.000 C 
BRANCH   6   7
ATOM      7  C   UNL     1      54.545  29.327  50.963  1.00  0.00    -0.000 C 
BRANCH   7   8
ATOM      8  C   UNL     1      55.707  29.825  51.843  1.00  0.00    -0.000 C 
BRANCH   8   9
ATOM      9  C   UNL     1      55.489  29.531  53.337  1.00  0.00    -0.000 C 
BRANCH   9  10
ATOM     10  C   UNL     1      54.253  28.653  53.599  1.00  0.00    -0.000 C 
BRANCH  10  11
ATOM     11  C   UNL     1      54.568  27.191  53.962  1.00  0.00    -0.003 C 
ATOM     12  C   UNL     1      53.766  26.183  53.137  1.00  0.00     0.004 C 
ENDBRANCH  10  11
ENDBRANCH   9  10
ENDBRANCH   8   9
ENDBRANCH   7   8
ENDBRANCH   6   7
ENDBRANCH   5   6
ENDBRANCH   4   5
ENDBRANCH   3   4
ENDBRANCH   2   3
ENDBRANCH   1   2
BRANCH   1  13
ATOM     13  C   UNL     1      59.610  27.714  52.805  1.00  0.00     0.000 C 
BRANCH  13  14
ATOM     14  C   UNL     1      59.616  29.238  52.574  1.00  0.00     0.000 C 
BRANCH  14  15
ATOM     15  C   UNL     1      59.246  29.684  51.149  1.00  0.00     0.000 C 
BRANCH  15  16
ATOM     16  C   UNL     1      60.345  29.462  50.091  1.00  0.00     0.000 C 
BRANCH  16  17
ATOM     17  C   UNL     1      59.932  28.508  48.950  1.00  0.00     0.000 C 
BRANCH  17  18
ATOM     18  C   UNL     1      60.342  27.049  49.224  1.00  0.00     0.000 C 
BRANCH  18  19
ATOM     19  C   UNL     1      61.801  26.939  49.723  1.00  0.00     0.000 C 
BRANCH  19  20
ATOM     20  C   UNL     1      62.026  25.775  50.704  1.00  0.00     0.006 C 
BRANCH  20  21
ATOM     21  C   UNL     1      62.588  24.522  50.021  1.00  0.00     0.053 C 
BRANCH  21  22
ATOM     22  C   UNL     1      61.498  23.531  49.762  1.00  0.00     0.041 C 
ATOM     23  O   UNL     1      60.396  23.629  50.364  1.00  0.00    -0.550 OA
ATOM     24  O   UNL     1      61.689  22.509  48.839  1.00  0.00    -0.550 OA
ENDBRANCH  21  22
ENDBRANCH  20  21
ENDBRANCH  19  20
ENDBRANCH  18  19
ENDBRANCH  17  18
ENDBRANCH  16  17
ENDBRANCH  15  16
ENDBRANCH  14  15
ENDBRANCH  13  14
ENDBRANCH   1  13
TORSDOF 20
ENDMDL
MODEL 9
REMARK VINA RESULT:    -3.299      3.314      7.093
REMARK INTER + INTRA:         -10.087
REMARK INTER:                  -6.506
REMARK INTRA:                  -3.581
REMARK UNBOUND:                -2.930
REMARK SMILES CCCCCCCCCCCCCCCCCCCCCC(=O)[O-]
REMARK SMILES IDX 12 1 11 2 10 3 9 4 8 5 7 6 6 7 5 8 4 9 3 10 2 11 1 12 13 13
REMARK SMILES IDX 14 14 15 15 16 16 17 17 18 18 19 19 20 20 21 21 22 22 23 23
REMARK SMILES IDX 24 24
REMARK H PARENT
REMARK Flexibility Score: inf
ROOT
ATOM      1  C   UNL     1      65.018  35.332  61.173  1.00  0.00     0.000 C 
ENDROOT
BRANCH   1   2
ATOM      2  C   UNL     1      64.106  34.098  61.062  1.00  0.00     0.000 C 
BRANCH   2   3
ATOM      3  C   UNL     1      64.257  33.362  59.722  1.00  0.00     0.000 C 
BRANCH   3   4
ATOM      4  C   UNL     1      62.919  32.842  59.177  1.00  0.00    -0.000 C 
BRANCH   4   5
ATOM      5  C   UNL     1      61.779  33.117  60.170  1.00  0.00    -0.000 C 
BRANCH   5   6
ATOM      6  C   UNL     1      61.135  31.830  60.714  1.00  0.00    -0.000 C 
BRANCH   6   7
ATOM      7  C   UNL     1      61.784  30.516  60.233  1.00  0.00    -0.000 C 
BRANCH   7   8
ATOM      8  C   UNL     1      62.351  29.622  61.352  1.00  0.00    -0.000 C 
BRANCH   8   9
ATOM      9  C   UNL     1      63.425  28.645  60.845  1.00  0.00    -0.000 C 
BRANCH   9  10
ATOM     10  C   UNL     1      64.141  29.148  59.580  1.00  0.00    -0.000 C 
BRANCH  10  11
ATOM     11  C   UNL     1      65.574  29.660  59.812  1.00  0.00    -0.003 C 
ATOM     12  C   UNL     1      66.426  28.699  60.643  1.00  0.00     0.004 C 
ENDBRANCH  10  11
ENDBRANCH   9  10
ENDBRANCH   8   9
ENDBRANCH   7   8
ENDBRANCH   6   7
ENDBRANCH   5   6
ENDBRANCH   4   5
ENDBRANCH   3   4
ENDBRANCH   2   3
ENDBRANCH   1   2
BRANCH   1  13
ATOM     13  C   UNL     1      64.230  36.656  61.085  1.00  0.00     0.000 C 
BRANCH  13  14
ATOM     14  C   UNL     1      62.699  36.471  61.039  1.00  0.00     0.000 C 
BRANCH  14  15
ATOM     15  C   UNL     1      62.016  36.991  59.763  1.00  0.00     0.000 C 
BRANCH  15  16
ATOM     16  C   UNL     1      62.591  36.438  58.445  1.00  0.00     0.000 C 
BRANCH  16  17
ATOM     17  C   UNL     1      61.515  35.985  57.434  1.00  0.00     0.000 C 
BRANCH  17  18
ATOM     18  C   UNL     1      60.100  36.442  57.835  1.00  0.00     0.000 C 
BRANCH  18  19
ATOM     19  C   UNL     1      59.144  35.249  58.055  1.00  0.00     0.000 C 
BRANCH  19  20
ATOM     20  C   UNL     1      59.642  33.939  57.421  1.00  0.00     0.006 C 
BRANCH  20  21
ATOM     21  C   UNL     1      58.622  32.799  57.532  1.00  0.00     0.053 C 
BRANCH  21  22
ATOM     22  C   UNL     1      59.315  31.473  57.560  1.00  0.00     0.041 C 
ATOM     23  O   UNL     1      58.817  30.512  58.203  1.00  0.00    -0.550 OA
ATOM     24  O   UNL     1      60.502  31.292  56.859  1.00  0.00    -0.550 OA
ENDBRANCH  21  22
ENDBRANCH  20  21
ENDBRANCH  19  20
ENDBRANCH  18  19
ENDBRANCH  17  18
ENDBRANCH  16  17
ENDBRANCH  15  16
ENDBRANCH  14  15
ENDBRANCH  13  14
ENDBRANCH   1  13
TORSDOF 20
ENDMDL
