MODEL 1
REMARK VINA RESULT:    -7.743      0.000      0.000
REMARK INTER + INTRA:         -12.420
REMARK INTER:                 -10.458
REMARK INTRA:                  -1.961
REMARK UNBOUND:                -1.961
REMARK SMILES CC[C@H](CC[C@H](C)[C@@H]1CC[C@@H]2[C@H]3CC(=O)C4=CC(=O)CC[C@]4(C)[C@H]3CC[C@@]21C)C(C)C
REMARK SMILES IDX 4 1 3 2 2 3 1 4 29 5 30 6 31 7 5 8 6 9 7 10 8 11 9 12 27 13
REMARK SMILES IDX 10 14 11 15 26 16 28 17 12 18 25 19 24 20 13 21 22 22 14 23
REMARK SMILES IDX 16 24 21 25 23 26 15 27 17 28 20 29 18 30 19 31
REMARK H PARENT
REMARK Flexibility Score: inf
ROOT
ATOM      1  C   UNL     1       8.903 -12.784  26.665  1.00  0.00     0.004 C 
ENDROOT
BRANCH   1   2
ATOM      2  C   UNL     1       8.036 -13.138  25.422  1.00  0.00    -0.009 C 
BRANCH   2   3
ATOM      3  C   UNL     1       6.526 -12.943  25.740  1.00  0.00     0.000 C 
ATOM      4  C   UNL     1       6.280 -12.333  27.124  1.00  0.00     0.004 C 
ENDBRANCH   2   3
BRANCH   2   5
ATOM      5  C   UNL     1       8.476 -12.352  24.140  1.00  0.00    -0.014 C 
ATOM      6  C   UNL     1       9.091 -13.280  23.079  1.00  0.00     0.007 C 
ATOM      7  C   UNL     1       7.353 -11.507  23.510  1.00  0.00     0.007 C 
ENDBRANCH   2   5
ENDBRANCH   1   2
BRANCH   1   8
ATOM      8  C   UNL     1      10.296 -13.455  26.650  1.00  0.00     0.004 C 
BRANCH   8   9
ATOM      9  C   UNL     1      10.267 -14.999  26.858  1.00  0.00    -0.011 C 
ATOM     10  C   UNL     1      10.526 -15.336  28.337  1.00  0.00     0.008 C 
BRANCH   9  11
ATOM     11  C   UNL     1      11.228 -15.765  25.876  1.00  0.00    -0.002 C 
ATOM     12  C   UNL     1      11.825 -14.828  24.814  1.00  0.00     0.005 C 
ATOM     13  C   UNL     1      10.657 -16.976  25.063  1.00  0.00    -0.026 C 
ATOM     14  C   UNL     1      12.117 -15.668  23.581  1.00  0.00     0.005 C 
ATOM     15  C   UNL     1      11.679 -17.103  23.900  1.00  0.00    -0.001 C 
ATOM     16  C   UNL     1       9.236 -16.670  24.510  1.00  0.00     0.007 C 
ATOM     17  C   UNL     1      10.656 -18.268  25.920  1.00  0.00     0.012 C 
ATOM     18  C   UNL     1      11.218 -17.862  22.611  1.00  0.00     0.004 C 
ATOM     19  C   UNL     1       8.800 -17.647  23.417  1.00  0.00     0.005 C 
ATOM     20  C   UNL     1       9.743 -17.596  22.191  1.00  0.00     0.003 C 
ATOM     21  C   UNL     1      11.515 -19.372  22.643  1.00  0.00     0.085 C 
ATOM     22  C   UNL     1       9.257 -18.476  20.937  1.00  0.00    -0.000 C 
ATOM     23  C   UNL     1      11.399 -19.905  21.252  1.00  0.00     0.159 C 
ATOM     24  C   UNL     1      10.405 -19.300  20.332  1.00  0.00     0.005 C 
ATOM     25  C   UNL     1       8.687 -17.500  19.858  1.00  0.00     0.020 C 
ATOM     26  C   UNL     1       8.157 -19.506  21.320  1.00  0.00     0.017 C 
ATOM     27  O   UNL     1      12.127 -20.868  20.887  1.00  0.00    -0.295 OA
ATOM     28  C   UNL     1      10.463 -19.573  19.015  1.00  0.00     0.055 C 
ATOM     29  C   UNL     1       8.337 -18.189  18.534  1.00  0.00     0.081 C 
ATOM     30  C   UNL     1       9.474 -19.041  18.064  1.00  0.00     0.156 C 
ATOM     31  O   UNL     1       9.566 -19.338  16.844  1.00  0.00    -0.295 OA
ENDBRANCH   9  11
ENDBRANCH   8   9
ENDBRANCH   1   8
TORSDOF 6
ENDMDL
MODEL 2
REMARK VINA RESULT:    -7.579      0.431      1.502
REMARK INTER + INTRA:         -12.199
REMARK INTER:                 -10.456
REMARK INTRA:                  -1.743
REMARK UNBOUND:                -1.961
REMARK SMILES CC[C@H](CC[C@H](C)[C@@H]1CC[C@@H]2[C@H]3CC(=O)C4=CC(=O)CC[C@]4(C)[C@H]3CC[C@@]21C)C(C)C
REMARK SMILES IDX 4 1 3 2 2 3 1 4 29 5 30 6 31 7 5 8 6 9 7 10 8 11 9 12 27 13
REMARK SMILES IDX 10 14 11 15 26 16 28 17 12 18 25 19 24 20 13 21 22 22 14 23
REMARK SMILES IDX 16 24 21 25 23 26 15 27 17 28 20 29 18 30 19 31
REMARK H PARENT
REMARK Flexibility Score: inf
ROOT
ATOM      1  C   UNL     1       9.139 -12.644  26.874  1.00  0.00     0.004 C 
ENDROOT
BRANCH   1   2
ATOM      2  C   UNL     1       8.111 -12.446  25.722  1.00  0.00    -0.009 C 
BRANCH   2   3
ATOM      3  C   UNL     1       8.653 -13.059  24.401  1.00  0.00     0.000 C 
ATOM      4  C   UNL     1       8.595 -12.083  23.220  1.00  0.00     0.004 C 
ENDBRANCH   2   3
BRANCH   2   5
ATOM      5  C   UNL     1       6.688 -12.991  26.088  1.00  0.00    -0.014 C 
ATOM      6  C   UNL     1       6.657 -14.528  26.143  1.00  0.00     0.007 C 
ATOM      7  C   UNL     1       6.113 -12.408  27.391  1.00  0.00     0.007 C 
ENDBRANCH   2   5
ENDBRANCH   1   2
BRANCH   1   8
ATOM      8  C   UNL     1      10.413 -13.401  26.435  1.00  0.00     0.004 C 
BRANCH   8   9
ATOM      9  C   UNL     1      10.368 -14.937  26.693  1.00  0.00    -0.011 C 
ATOM     10  C   UNL     1      10.637 -15.228  28.181  1.00  0.00     0.008 C 
BRANCH   9  11
ATOM     11  C   UNL     1      11.310 -15.746  25.729  1.00  0.00    -0.002 C 
ATOM     12  C   UNL     1      11.941 -14.843  24.657  1.00  0.00     0.005 C 
ATOM     13  C   UNL     1      10.706 -16.950  24.929  1.00  0.00    -0.026 C 
ATOM     14  C   UNL     1      12.214 -15.710  23.437  1.00  0.00     0.005 C 
ATOM     15  C   UNL     1      11.730 -17.126  23.774  1.00  0.00    -0.001 C 
ATOM     16  C   UNL     1       9.298 -16.610  24.364  1.00  0.00     0.007 C 
ATOM     17  C   UNL     1      10.662 -18.230  25.805  1.00  0.00     0.012 C 
ATOM     18  C   UNL     1      11.253 -17.889  22.493  1.00  0.00     0.004 C 
ATOM     19  C   UNL     1       8.839 -17.589  23.283  1.00  0.00     0.005 C 
ATOM     20  C   UNL     1       9.789 -17.584  22.061  1.00  0.00     0.003 C 
ATOM     21  C   UNL     1      11.503 -19.406  22.549  1.00  0.00     0.085 C 
ATOM     22  C   UNL     1       9.283 -18.467  20.817  1.00  0.00    -0.000 C 
ATOM     23  C   UNL     1      11.378 -19.956  21.165  1.00  0.00     0.159 C 
ATOM     24  C   UNL     1      10.409 -19.334  20.231  1.00  0.00     0.005 C 
ATOM     25  C   UNL     1       8.749 -17.490  19.721  1.00  0.00     0.020 C 
ATOM     26  C   UNL     1       8.150 -19.457  21.209  1.00  0.00     0.017 C 
ATOM     27  O   UNL     1      12.078 -20.946  20.818  1.00  0.00    -0.295 OA
ATOM     28  C   UNL     1      10.465 -19.628  18.918  1.00  0.00     0.055 C 
ATOM     29  C   UNL     1       8.385 -18.187  18.406  1.00  0.00     0.081 C 
ATOM     30  C   UNL     1       9.498 -19.080  17.954  1.00  0.00     0.156 C 
ATOM     31  O   UNL     1       9.587 -19.398  16.739  1.00  0.00    -0.295 OA
ENDBRANCH   9  11
ENDBRANCH   8   9
ENDBRANCH   1   8
TORSDOF 6
ENDMDL
MODEL 3
REMARK VINA RESULT:    -7.361      4.322      7.165
REMARK INTER + INTRA:         -11.904
REMARK INTER:                  -9.733
REMARK INTRA:                  -2.170
REMARK UNBOUND:                -1.961
REMARK SMILES CC[C@H](CC[C@H](C)[C@@H]1CC[C@@H]2[C@H]3CC(=O)C4=CC(=O)CC[C@]4(C)[C@H]3CC[C@@]21C)C(C)C
REMARK SMILES IDX 4 1 3 2 2 3 1 4 29 5 30 6 31 7 5 8 6 9 7 10 8 11 9 12 27 13
REMARK SMILES IDX 10 14 11 15 26 16 28 17 12 18 25 19 24 20 13 21 22 22 14 23
REMARK SMILES IDX 16 24 21 25 23 26 15 27 17 28 20 29 18 30 19 31
REMARK H PARENT
REMARK Flexibility Score: inf
ROOT
ATOM      1  C   UNL     1      11.070 -17.511  19.045  1.00  0.00     0.004 C 
ENDROOT
BRANCH   1   2
ATOM      2  C   UNL     1       9.744 -17.981  18.379  1.00  0.00    -0.009 C 
BRANCH   2   3
ATOM      3  C   UNL     1       9.902 -19.419  17.811  1.00  0.00     0.000 C 
ATOM      4  C   UNL     1      10.268 -19.438  16.323  1.00  0.00     0.004 C 
ENDBRANCH   2   3
BRANCH   2   5
ATOM      5  C   UNL     1       8.513 -17.856  19.341  1.00  0.00    -0.014 C 
ATOM      6  C   UNL     1       7.276 -17.291  18.623  1.00  0.00     0.007 C 
ATOM      7  C   UNL     1       8.149 -19.168  20.059  1.00  0.00     0.007 C 
ENDBRANCH   2   5
ENDBRANCH   1   2
BRANCH   1   8
ATOM      8  C   UNL     1      12.084 -18.657  19.265  1.00  0.00     0.004 C 
BRANCH   8   9
ATOM      9  C   UNL     1      12.754 -18.659  20.672  1.00  0.00    -0.011 C 
ATOM     10  C   UNL     1      14.286 -18.620  20.525  1.00  0.00     0.008 C 
BRANCH   9  11
ATOM     11  C   UNL     1      12.255 -19.838  21.585  1.00  0.00    -0.002 C 
ATOM     12  C   UNL     1      11.422 -20.860  20.794  1.00  0.00     0.005 C 
ATOM     13  C   UNL     1      11.378 -19.495  22.837  1.00  0.00    -0.026 C 
ATOM     14  C   UNL     1      10.447 -21.502  21.768  1.00  0.00     0.005 C 
ATOM     15  C   UNL     1      10.687 -20.853  23.137  1.00  0.00    -0.001 C 
ATOM     16  C   UNL     1      10.320 -18.404  22.510  1.00  0.00     0.007 C 
ATOM     17  C   UNL     1      12.266 -19.070  24.035  1.00  0.00     0.012 C 
ATOM     18  C   UNL     1       9.377 -20.824  23.994  1.00  0.00     0.004 C 
ATOM     19  C   UNL     1       9.218 -18.308  23.565  1.00  0.00     0.005 C 
ATOM     20  C   UNL     1       8.424 -19.631  23.689  1.00  0.00     0.003 C 
ATOM     21  C   UNL     1       9.625 -20.955  25.508  1.00  0.00     0.085 C 
ATOM     22  C   UNL     1       7.148 -19.556  24.662  1.00  0.00    -0.000 C 
ATOM     23  C   UNL     1       8.332 -21.303  26.170  1.00  0.00     0.159 C 
ATOM     24  C   UNL     1       7.070 -20.768  25.605  1.00  0.00     0.005 C 
ATOM     25  C   UNL     1       5.866 -19.504  23.769  1.00  0.00     0.020 C 
ATOM     26  C   UNL     1       7.173 -18.305  25.586  1.00  0.00     0.017 C 
ATOM     27  O   UNL     1       8.332 -22.025  27.204  1.00  0.00    -0.295 OA
ATOM     28  C   UNL     1       5.890 -21.274  26.012  1.00  0.00     0.055 C 
ATOM     29  C   UNL     1       4.561 -19.598  24.567  1.00  0.00     0.081 C 
ATOM     30  C   UNL     1       4.606 -20.748  25.524  1.00  0.00     0.156 C 
ATOM     31  O   UNL     1       3.531 -21.248  25.946  1.00  0.00    -0.295 OA
ENDBRANCH   9  11
ENDBRANCH   8   9
ENDBRANCH   1   8
TORSDOF 6
ENDMDL
MODEL 4
REMARK VINA RESULT:    -7.081      1.662      2.358
REMARK INTER + INTRA:         -11.525
REMARK INTER:                  -9.138
REMARK INTRA:                  -2.387
REMARK UNBOUND:                -1.961
REMARK SMILES CC[C@H](CC[C@H](C)[C@@H]1CC[C@@H]2[C@H]3CC(=O)C4=CC(=O)CC[C@]4(C)[C@H]3CC[C@@]21C)C(C)C
REMARK SMILES IDX 4 1 3 2 2 3 1 4 29 5 30 6 31 7 5 8 6 9 7 10 8 11 9 12 27 13
REMARK SMILES IDX 10 14 11 15 26 16 28 17 12 18 25 19 24 20 13 21 22 22 14 23
REMARK SMILES IDX 16 24 21 25 23 26 15 27 17 28 20 29 18 30 19 31
REMARK H PARENT
REMARK Flexibility Score: inf
ROOT
ATOM      1  C   UNL     1       9.816 -15.445  27.936  1.00  0.00     0.004 C 
ENDROOT
BRANCH   1   2
ATOM      2  C   UNL     1       8.967 -14.674  26.884  1.00  0.00    -0.009 C 
BRANCH   2   3
ATOM      3  C   UNL     1       9.359 -13.170  26.866  1.00  0.00     0.000 C 
ATOM      4  C   UNL     1       8.177 -12.240  27.159  1.00  0.00     0.004 C 
ENDBRANCH   2   3
BRANCH   2   5
ATOM      5  C   UNL     1       9.045 -15.323  25.459  1.00  0.00    -0.014 C 
ATOM      6  C   UNL     1       7.929 -16.357  25.236  1.00  0.00     0.007 C 
ATOM      7  C   UNL     1       9.051 -14.300  24.309  1.00  0.00     0.007 C 
ENDBRANCH   2   5
ENDBRANCH   1   2
BRANCH   1   8
ATOM      8  C   UNL     1      11.269 -14.927  28.049  1.00  0.00     0.004 C 
BRANCH   8   9
ATOM      9  C   UNL     1      12.358 -16.014  27.810  1.00  0.00    -0.011 C 
ATOM     10  C   UNL     1      13.375 -16.004  28.965  1.00  0.00     0.008 C 
BRANCH   9  11
ATOM     11  C   UNL     1      13.035 -15.899  26.395  1.00  0.00    -0.002 C 
ATOM     12  C   UNL     1      12.539 -14.666  25.622  1.00  0.00     0.005 C 
ATOM     13  C   UNL     1      12.876 -17.090  25.390  1.00  0.00    -0.026 C 
ATOM     14  C   UNL     1      12.647 -14.986  24.140  1.00  0.00     0.005 C 
ATOM     15  C   UNL     1      13.194 -16.415  24.027  1.00  0.00    -0.001 C 
ATOM     16  C   UNL     1      11.426 -17.650  25.397  1.00  0.00     0.007 C 
ATOM     17  C   UNL     1      13.908 -18.208  25.687  1.00  0.00     0.012 C 
ATOM     18  C   UNL     1      12.678 -17.125  22.730  1.00  0.00     0.004 C 
ATOM     19  C   UNL     1      11.126 -18.540  24.189  1.00  0.00     0.005 C 
ATOM     20  C   UNL     1      11.265 -17.766  22.856  1.00  0.00     0.003 C 
ATOM     21  C   UNL     1      13.683 -18.125  22.132  1.00  0.00     0.085 C 
ATOM     22  C   UNL     1      10.809 -18.590  21.554  1.00  0.00    -0.000 C 
ATOM     23  C   UNL     1      13.264 -18.435  20.732  1.00  0.00     0.159 C 
ATOM     24  C   UNL     1      11.819 -18.453  20.403  1.00  0.00     0.005 C 
ATOM     25  C   UNL     1       9.419 -18.039  21.101  1.00  0.00     0.020 C 
ATOM     26  C   UNL     1      10.686 -20.116  21.826  1.00  0.00     0.017 C 
ATOM     27  O   UNL     1      14.138 -18.695  19.859  1.00  0.00    -0.295 OA
ATOM     28  C   UNL     1      11.428 -18.463  19.114  1.00  0.00     0.055 C 
ATOM     29  C   UNL     1       8.936 -18.623  19.768  1.00  0.00     0.081 C 
ATOM     30  C   UNL     1      10.010 -18.532  18.730  1.00  0.00     0.156 C 
ATOM     31  O   UNL     1       9.699 -18.551  17.510  1.00  0.00    -0.295 OA
ENDBRANCH   9  11
ENDBRANCH   8   9
ENDBRANCH   1   8
TORSDOF 6
ENDMDL
MODEL 5
REMARK VINA RESULT:    -7.042      1.591      2.519
REMARK INTER + INTRA:         -11.474
REMARK INTER:                  -9.633
REMARK INTRA:                  -1.841
REMARK UNBOUND:                -1.961
REMARK SMILES CC[C@H](CC[C@H](C)[C@@H]1CC[C@@H]2[C@H]3CC(=O)C4=CC(=O)CC[C@]4(C)[C@H]3CC[C@@]21C)C(C)C
REMARK SMILES IDX 4 1 3 2 2 3 1 4 29 5 30 6 31 7 5 8 6 9 7 10 8 11 9 12 27 13
REMARK SMILES IDX 10 14 11 15 26 16 28 17 12 18 25 19 24 20 13 21 22 22 14 23
REMARK SMILES IDX 16 24 21 25 23 26 15 27 17 28 20 29 18 30 19 31
REMARK H PARENT
REMARK Flexibility Score: inf
ROOT
ATOM      1  C   UNL     1      12.050 -13.616  25.602  1.00  0.00     0.004 C 
ENDROOT
BRANCH   1   2
ATOM      2  C   UNL     1      10.980 -13.200  26.653  1.00  0.00    -0.009 C 
BRANCH   2   3
ATOM      3  C   UNL     1      11.366 -11.847  27.314  1.00  0.00     0.000 C 
ATOM      4  C   UNL     1      12.651 -11.244  26.738  1.00  0.00     0.004 C 
ENDBRANCH   2   3
BRANCH   2   5
ATOM      5  C   UNL     1       9.531 -13.174  26.056  1.00  0.00    -0.014 C 
ATOM      6  C   UNL     1       9.543 -13.040  24.524  1.00  0.00     0.007 C 
ATOM      7  C   UNL     1       8.666 -14.378  26.471  1.00  0.00     0.007 C 
ENDBRANCH   2   5
ENDBRANCH   1   2
BRANCH   1   8
ATOM      8  C   UNL     1      12.909 -14.821  26.047  1.00  0.00     0.004 C 
BRANCH   8   9
ATOM      9  C   UNL     1      12.113 -15.940  26.783  1.00  0.00    -0.011 C 
ATOM     10  C   UNL     1      12.541 -16.005  28.260  1.00  0.00     0.008 C 
BRANCH   9  11
ATOM     11  C   UNL     1      12.201 -17.331  26.056  1.00  0.00    -0.002 C 
ATOM     12  C   UNL     1      13.505 -17.477  25.256  1.00  0.00     0.005 C 
ATOM     13  C   UNL     1      11.069 -17.721  25.046  1.00  0.00    -0.026 C 
ATOM     14  C   UNL     1      13.225 -18.424  24.099  1.00  0.00     0.005 C 
ATOM     15  C   UNL     1      11.750 -18.831  24.200  1.00  0.00    -0.001 C 
ATOM     16  C   UNL     1      10.670 -16.517  24.146  1.00  0.00     0.007 C 
ATOM     17  C   UNL     1       9.835 -18.295  25.790  1.00  0.00     0.012 C 
ATOM     18  C   UNL     1      11.144 -19.142  22.790  1.00  0.00     0.004 C 
ATOM     19  C   UNL     1       9.859 -16.934  22.919  1.00  0.00     0.005 C 
ATOM     20  C   UNL     1      10.656 -17.891  22.001  1.00  0.00     0.003 C 
ATOM     21  C   UNL     1      10.060 -20.234  22.810  1.00  0.00     0.085 C 
ATOM     22  C   UNL     1       9.930 -18.244  20.611  1.00  0.00    -0.000 C 
ATOM     23  C   UNL     1       9.845 -20.710  21.410  1.00  0.00     0.159 C 
ATOM     24  C   UNL     1       9.995 -19.747  20.293  1.00  0.00     0.005 C 
ATOM     25  C   UNL     1      10.644 -17.438  19.479  1.00  0.00     0.020 C 
ATOM     26  C   UNL     1       8.419 -17.881  20.617  1.00  0.00     0.017 C 
ATOM     27  O   UNL     1       9.521 -21.911  21.200  1.00  0.00    -0.295 OA
ATOM     28  C   UNL     1      10.071 -20.200  19.027  1.00  0.00     0.055 C 
ATOM     29  C   UNL     1      10.162 -17.804  18.071  1.00  0.00     0.081 C 
ATOM     30  C   UNL     1      10.170 -19.288  17.877  1.00  0.00     0.156 C 
ATOM     31  O   UNL     1      10.225 -19.763  16.713  1.00  0.00    -0.295 OA
ENDBRANCH   9  11
ENDBRANCH   8   9
ENDBRANCH   1   8
TORSDOF 6
ENDMDL
MODEL 6
REMARK VINA RESULT:    -6.859      3.670      8.046
REMARK INTER + INTRA:         -11.226
REMARK INTER:                  -9.803
REMARK INTRA:                  -1.423
REMARK UNBOUND:                -1.961
REMARK SMILES CC[C@H](CC[C@H](C)[C@@H]1CC[C@@H]2[C@H]3CC(=O)C4=CC(=O)CC[C@]4(C)[C@H]3CC[C@@]21C)C(C)C
REMARK SMILES IDX 4 1 3 2 2 3 1 4 29 5 30 6 31 7 5 8 6 9 7 10 8 11 9 12 27 13
REMARK SMILES IDX 10 14 11 15 26 16 28 17 12 18 25 19 24 20 13 21 22 22 14 23
REMARK SMILES IDX 16 24 21 25 23 26 15 27 17 28 20 29 18 30 19 31
REMARK H PARENT
REMARK Flexibility Score: inf
ROOT
ATOM      1  C   UNL     1       8.463 -22.070  22.307  1.00  0.00     0.004 C 
ENDROOT
BRANCH   1   2
ATOM      2  C   UNL     1       7.768 -23.039  23.306  1.00  0.00    -0.009 C 
BRANCH   2   3
ATOM      3  C   UNL     1       8.511 -24.403  23.346  1.00  0.00     0.000 C 
ATOM      4  C   UNL     1       7.757 -25.519  22.615  1.00  0.00     0.004 C 
ENDBRANCH   2   3
BRANCH   2   5
ATOM      5  C   UNL     1       7.603 -22.412  24.733  1.00  0.00    -0.014 C 
ATOM      6  C   UNL     1       7.184 -20.934  24.668  1.00  0.00     0.007 C 
ATOM      7  C   UNL     1       6.640 -23.191  25.648  1.00  0.00     0.007 C 
ENDBRANCH   2   5
ENDBRANCH   1   2
BRANCH   1   8
ATOM      8  C   UNL     1       9.999 -22.016  22.475  1.00  0.00     0.004 C 
BRANCH   8   9
ATOM      9  C   UNL     1      10.663 -20.730  21.899  1.00  0.00    -0.011 C 
ATOM     10  C   UNL     1      11.604 -21.097  20.738  1.00  0.00     0.008 C 
BRANCH   9  11
ATOM     11  C   UNL     1      11.363 -19.857  23.004  1.00  0.00    -0.002 C 
ATOM     12  C   UNL     1      10.861 -20.209  24.414  1.00  0.00     0.005 C 
ATOM     13  C   UNL     1      11.240 -18.298  22.916  1.00  0.00    -0.026 C 
ATOM     14  C   UNL     1      11.001 -18.960  25.270  1.00  0.00     0.005 C 
ATOM     15  C   UNL     1      11.572 -17.858  24.368  1.00  0.00    -0.001 C 
ATOM     16  C   UNL     1       9.799 -17.861  22.528  1.00  0.00     0.007 C 
ATOM     17  C   UNL     1      12.285 -17.715  21.928  1.00  0.00     0.012 C 
ATOM     18  C   UNL     1      11.090 -16.439  24.823  1.00  0.00     0.004 C 
ATOM     19  C   UNL     1       9.535 -16.378  22.794  1.00  0.00     0.005 C 
ATOM     20  C   UNL     1       9.686 -16.027  24.293  1.00  0.00     0.003 C 
ATOM     21  C   UNL     1      12.121 -15.326  24.567  1.00  0.00     0.085 C 
ATOM     22  C   UNL     1       9.266 -14.523  24.673  1.00  0.00    -0.000 C 
ATOM     23  C   UNL     1      11.732 -14.128  25.371  1.00  0.00     0.159 C 
ATOM     24  C   UNL     1      10.294 -13.855  25.601  1.00  0.00     0.005 C 
ATOM     25  C   UNL     1       7.875 -14.578  25.384  1.00  0.00     0.020 C 
ATOM     26  C   UNL     1       9.162 -13.599  23.426  1.00  0.00     0.017 C 
ATOM     27  O   UNL     1      12.625 -13.361  25.825  1.00  0.00    -0.295 OA
ATOM     28  C   UNL     1       9.926 -12.953  26.530  1.00  0.00     0.055 C 
ATOM     29  C   UNL     1       7.425 -13.228  25.951  1.00  0.00     0.081 C 
ATOM     30  C   UNL     1       8.516 -12.605  26.765  1.00  0.00     0.156 C 
ATOM     31  O   UNL     1       8.227 -11.745  27.638  1.00  0.00    -0.295 OA
ENDBRANCH   9  11
ENDBRANCH   8   9
ENDBRANCH   1   8
TORSDOF 6
ENDMDL
MODEL 7
REMARK VINA RESULT:    -6.792      3.919      7.801
REMARK INTER + INTRA:         -11.136
REMARK INTER:                  -8.775
REMARK INTRA:                  -2.360
REMARK UNBOUND:                -1.961
REMARK SMILES CC[C@H](CC[C@H](C)[C@@H]1CC[C@@H]2[C@H]3CC(=O)C4=CC(=O)CC[C@]4(C)[C@H]3CC[C@@]21C)C(C)C
REMARK SMILES IDX 4 1 3 2 2 3 1 4 29 5 30 6 31 7 5 8 6 9 7 10 8 11 9 12 27 13
REMARK SMILES IDX 10 14 11 15 26 16 28 17 12 18 25 19 24 20 13 21 22 22 14 23
REMARK SMILES IDX 16 24 21 25 23 26 15 27 17 28 20 29 18 30 19 31
REMARK H PARENT
REMARK Flexibility Score: inf
ROOT
ATOM      1  C   UNL     1      11.060 -20.782  20.396  1.00  0.00     0.004 C 
ENDROOT
BRANCH   1   2
ATOM      2  C   UNL     1      10.977 -19.425  19.639  1.00  0.00    -0.009 C 
BRANCH   2   3
ATOM      3  C   UNL     1       9.495 -18.990  19.465  1.00  0.00     0.000 C 
ATOM      4  C   UNL     1       9.240 -18.251  18.146  1.00  0.00     0.004 C 
ENDBRANCH   2   3
BRANCH   2   5
ATOM      5  C   UNL     1      11.846 -18.308  20.314  1.00  0.00    -0.014 C 
ATOM      6  C   UNL     1      11.063 -17.544  21.394  1.00  0.00     0.007 C 
ATOM      7  C   UNL     1      13.177 -18.820  20.894  1.00  0.00     0.007 C 
ENDBRANCH   2   5
ENDBRANCH   1   2
BRANCH   1   8
ATOM      8  C   UNL     1       9.699 -21.253  20.959  1.00  0.00     0.004 C 
BRANCH   8   9
ATOM      9  C   UNL     1       9.772 -21.856  22.394  1.00  0.00    -0.011 C 
ATOM     10  C   UNL     1       9.177 -23.275  22.399  1.00  0.00     0.008 C 
BRANCH   9  11
ATOM     11  C   UNL     1       9.134 -20.918  23.483  1.00  0.00    -0.002 C 
ATOM     12  C   UNL     1       8.431 -19.705  22.853  1.00  0.00     0.005 C 
ATOM     13  C   UNL     1      10.066 -20.309  24.585  1.00  0.00    -0.026 C 
ATOM     14  C   UNL     1       8.482 -18.573  23.867  1.00  0.00     0.005 C 
ATOM     15  C   UNL     1       9.229 -19.105  25.097  1.00  0.00    -0.001 C 
ATOM     16  C   UNL     1      11.414 -19.820  23.984  1.00  0.00     0.007 C 
ATOM     17  C   UNL     1      10.302 -21.324  25.734  1.00  0.00     0.012 C 
ATOM     18  C   UNL     1       9.990 -17.960  25.845  1.00  0.00     0.004 C 
ATOM     19  C   UNL     1      12.185 -18.895  24.927  1.00  0.00     0.005 C 
ATOM     20  C   UNL     1      11.386 -17.611  25.253  1.00  0.00     0.003 C 
ATOM     21  C   UNL     1      10.075 -18.166  27.368  1.00  0.00     0.085 C 
ATOM     22  C   UNL     1      12.198 -16.518  26.107  1.00  0.00    -0.000 C 
ATOM     23  C   UNL     1      10.458 -16.867  27.999  1.00  0.00     0.159 C 
ATOM     24  C   UNL     1      11.356 -15.948  27.260  1.00  0.00     0.005 C 
ATOM     25  C   UNL     1      12.612 -15.363  25.139  1.00  0.00     0.020 C 
ATOM     26  C   UNL     1      13.475 -17.106  26.771  1.00  0.00     0.017 C 
ATOM     27  O   UNL     1      10.032 -16.581  29.151  1.00  0.00    -0.295 OA
ATOM     28  C   UNL     1      11.499 -14.676  27.679  1.00  0.00     0.055 C 
ATOM     29  C   UNL     1      13.252 -14.167  25.853  1.00  0.00     0.081 C 
ATOM     30  C   UNL     1      12.414 -13.734  27.016  1.00  0.00     0.156 C 
ATOM     31  O   UNL     1      12.521 -12.559  27.455  1.00  0.00    -0.295 OA
ENDBRANCH   9  11
ENDBRANCH   8   9
ENDBRANCH   1   8
TORSDOF 6
ENDMDL
MODEL 8
REMARK VINA RESULT:    -6.685      3.952      6.968
REMARK INTER + INTRA:         -10.991
REMARK INTER:                  -8.842
REMARK INTRA:                  -2.148
REMARK UNBOUND:                -1.961
REMARK SMILES CC[C@H](CC[C@H](C)[C@@H]1CC[C@@H]2[C@H]3CC(=O)C4=CC(=O)CC[C@]4(C)[C@H]3CC[C@@]21C)C(C)C
REMARK SMILES IDX 4 1 3 2 2 3 1 4 29 5 30 6 31 7 5 8 6 9 7 10 8 11 9 12 27 13
REMARK SMILES IDX 10 14 11 15 26 16 28 17 12 18 25 19 24 20 13 21 22 22 14 23
REMARK SMILES IDX 16 24 21 25 23 26 15 27 17 28 20 29 18 30 19 31
REMARK H PARENT
REMARK Flexibility Score: inf
ROOT
ATOM      1  C   UNL     1       6.196 -23.867  26.067  1.00  0.00     0.004 C 
ENDROOT
BRANCH   1   2
ATOM      2  C   UNL     1       6.428 -23.785  24.531  1.00  0.00    -0.009 C 
BRANCH   2   3
ATOM      3  C   UNL     1       6.544 -25.211  23.922  1.00  0.00     0.000 C 
ATOM      4  C   UNL     1       7.780 -25.384  23.034  1.00  0.00     0.004 C 
ENDBRANCH   2   3
BRANCH   2   5
ATOM      5  C   UNL     1       5.342 -22.918  23.805  1.00  0.00    -0.014 C 
ATOM      6  C   UNL     1       5.925 -22.150  22.607  1.00  0.00     0.007 C 
ATOM      7  C   UNL     1       4.101 -23.716  23.364  1.00  0.00     0.007 C 
ENDBRANCH   2   5
ENDBRANCH   1   2
BRANCH   1   8
ATOM      8  C   UNL     1       5.634 -22.560  26.672  1.00  0.00     0.004 C 
BRANCH   8   9
ATOM      9  C   UNL     1       6.674 -21.730  27.483  1.00  0.00    -0.011 C 
ATOM     10  C   UNL     1       6.212 -21.590  28.945  1.00  0.00     0.008 C 
BRANCH   9  11
ATOM     11  C   UNL     1       7.010 -20.349  26.810  1.00  0.00    -0.002 C 
ATOM     12  C   UNL     1       5.906 -19.903  25.838  1.00  0.00     0.005 C 
ATOM     13  C   UNL     1       8.338 -20.220  25.990  1.00  0.00    -0.026 C 
ATOM     14  C   UNL     1       6.560 -19.035  24.775  1.00  0.00     0.005 C 
ATOM     15  C   UNL     1       8.058 -18.975  25.103  1.00  0.00    -0.001 C 
ATOM     16  C   UNL     1       8.587 -21.475  25.107  1.00  0.00     0.007 C 
ATOM     17  C   UNL     1       9.544 -19.948  26.927  1.00  0.00     0.012 C 
ATOM     18  C   UNL     1       8.921 -18.800  23.809  1.00  0.00     0.004 C 
ATOM     19  C   UNL     1       9.644 -21.243  24.027  1.00  0.00     0.005 C 
ATOM     20  C   UNL     1       9.227 -20.121  23.045  1.00  0.00     0.003 C 
ATOM     21  C   UNL     1      10.207 -17.983  24.029  1.00  0.00     0.085 C 
ATOM     22  C   UNL     1      10.213 -19.931  21.790  1.00  0.00    -0.000 C 
ATOM     23  C   UNL     1      10.730 -17.557  22.696  1.00  0.00     0.159 C 
ATOM     24  C   UNL     1      10.535 -18.451  21.530  1.00  0.00     0.005 C 
ATOM     25  C   UNL     1       9.513 -20.544  20.534  1.00  0.00     0.020 C 
ATOM     26  C   UNL     1      11.586 -20.630  21.997  1.00  0.00     0.017 C 
ATOM     27  O   UNL     1      11.342 -16.460  22.585  1.00  0.00    -0.295 OA
ATOM     28  C   UNL     1      10.752 -17.982  20.286  1.00  0.00     0.055 C 
ATOM     29  C   UNL     1      10.270 -20.286  19.226  1.00  0.00     0.081 C 
ATOM     30  C   UNL     1      10.624 -18.837  19.097  1.00  0.00     0.156 C 
ATOM     31  O   UNL     1      10.851 -18.352  17.957  1.00  0.00    -0.295 OA
ENDBRANCH   9  11
ENDBRANCH   8   9
ENDBRANCH   1   8
TORSDOF 6
ENDMDL
MODEL 9
REMARK VINA RESULT:    -6.632      3.881      7.337
REMARK INTER + INTRA:         -10.919
REMARK INTER:                  -8.618
REMARK INTRA:                  -2.301
REMARK UNBOUND:                -1.961
REMARK SMILES CC[C@H](CC[C@H](C)[C@@H]1CC[C@@H]2[C@H]3CC(=O)C4=CC(=O)CC[C@]4(C)[C@H]3CC[C@@]21C)C(C)C
REMARK SMILES IDX 4 1 3 2 2 3 1 4 29 5 30 6 31 7 5 8 6 9 7 10 8 11 9 12 27 13
REMARK SMILES IDX 10 14 11 15 26 16 28 17 12 18 25 19 24 20 13 21 22 22 14 23
REMARK SMILES IDX 16 24 21 25 23 26 15 27 17 28 20 29 18 30 19 31
REMARK H PARENT
REMARK Flexibility Score: inf
ROOT
ATOM      1  C   UNL     1       5.655 -23.318  24.386  1.00  0.00     0.004 C 
ENDROOT
BRANCH   1   2
ATOM      2  C   UNL     1       5.700 -21.896  25.017  1.00  0.00    -0.009 C 
BRANCH   2   3
ATOM      3  C   UNL     1       4.259 -21.356  25.240  1.00  0.00     0.000 C 
ATOM      4  C   UNL     1       3.963 -20.088  24.432  1.00  0.00     0.004 C 
ENDBRANCH   2   3
BRANCH   2   5
ATOM      5  C   UNL     1       6.560 -21.848  26.327  1.00  0.00    -0.014 C 
ATOM      6  C   UNL     1       7.398 -20.561  26.417  1.00  0.00     0.007 C 
ATOM      7  C   UNL     1       5.740 -22.032  27.617  1.00  0.00     0.007 C 
ENDBRANCH   2   5
ENDBRANCH   1   2
BRANCH   1   8
ATOM      8  C   UNL     1       7.023 -24.039  24.404  1.00  0.00     0.004 C 
BRANCH   8   9
ATOM      9  C   UNL     1       7.806 -23.962  23.059  1.00  0.00    -0.011 C 
ATOM     10  C   UNL     1       7.891 -25.359  22.419  1.00  0.00     0.008 C 
BRANCH   9  11
ATOM     11  C   UNL     1       9.209 -23.268  23.208  1.00  0.00    -0.002 C 
ATOM     12  C   UNL     1       9.620 -23.121  24.682  1.00  0.00     0.005 C 
ATOM     13  C   UNL     1       9.406 -21.839  22.596  1.00  0.00    -0.026 C 
ATOM     14  C   UNL     1      10.530 -21.907  24.781  1.00  0.00     0.005 C 
ATOM     15  C   UNL     1      10.649 -21.319  23.369  1.00  0.00    -0.001 C 
ATOM     16  C   UNL     1       8.175 -20.930  22.865  1.00  0.00     0.007 C 
ATOM     17  C   UNL     1       9.716 -21.925  21.079  1.00  0.00     0.012 C 
ATOM     18  C   UNL     1      10.879 -19.771  23.411  1.00  0.00     0.004 C 
ATOM     19  C   UNL     1       8.467 -19.447  22.626  1.00  0.00     0.005 C 
ATOM     20  C   UNL     1       9.583 -18.923  23.562  1.00  0.00     0.003 C 
ATOM     21  C   UNL     1      11.747 -19.244  22.254  1.00  0.00     0.085 C 
ATOM     22  C   UNL     1       9.831 -17.337  23.482  1.00  0.00    -0.000 C 
ATOM     23  C   UNL     1      12.214 -17.868  22.603  1.00  0.00     0.159 C 
ATOM     24  C   UNL     1      11.328 -16.993  23.408  1.00  0.00     0.005 C 
ATOM     25  C   UNL     1       9.206 -16.688  24.759  1.00  0.00     0.020 C 
ATOM     26  C   UNL     1       9.189 -16.695  22.220  1.00  0.00     0.017 C 
ATOM     27  O   UNL     1      13.338 -17.465  22.196  1.00  0.00    -0.295 OA
ATOM     28  C   UNL     1      11.822 -15.867  23.957  1.00  0.00     0.055 C 
ATOM     29  C   UNL     1       9.514 -15.194  24.897  1.00  0.00     0.081 C 
ATOM     30  C   UNL     1      10.979 -14.936  24.722  1.00  0.00     0.156 C 
ATOM     31  O   UNL     1      11.489 -13.890  25.204  1.00  0.00    -0.295 OA
ENDBRANCH   9  11
ENDBRANCH   8   9
ENDBRANCH   1   8
TORSDOF 6
ENDMDL
