MODEL 1
REMARK VINA RESULT:    -4.329      0.000      0.000
REMARK INTER + INTRA:          -4.455
REMARK INTER:                  -4.455
REMARK INTRA:                   0.000
REMARK UNBOUND:                 0.000
REMARK SMILES Nc1ncnc2nc[nH]c12
REMARK SMILES IDX 8 1 7 2 6 3 5 4 4 5 3 6 2 7 10 8 9 9 1 11
REMARK H PARENT 9 10 1 12 1 13
REMARK Flexibility Score: inf
ROOT
ATOM      1  C   UNL     1      -4.964  -7.439  13.399  1.00  0.00     0.199 A 
ATOM      2  N   UNL     1      -4.991  -8.717  12.935  1.00  0.00    -0.217 NA
ATOM      3  C   UNL     1      -4.793  -8.547  11.617  1.00  0.00     0.182 A 
ATOM      4  N   UNL     1      -4.730  -9.519  10.677  1.00  0.00    -0.215 NA
ATOM      5  C   UNL     1      -4.520  -9.148   9.377  1.00  0.00     0.226 A 
ATOM      6  N   UNL     1      -4.379  -7.823   9.045  1.00  0.00    -0.217 NA
ATOM      7  C   UNL     1      -4.443  -6.841   9.993  1.00  0.00     0.152 A 
ATOM      8  C   UNL     1      -4.657  -7.236  11.311  1.00  0.00     0.127 A 
ATOM      9  N   UNL     1      -4.762  -6.510  12.430  1.00  0.00    -0.340 N 
ATOM     10  H   UNL     1      -4.705  -5.474  12.546  1.00  0.00     0.168 HD
ENDROOT
BRANCH   7  11
ATOM     11  N   UNL     1      -4.293  -5.469   9.625  1.00  0.00    -0.382 N 
ATOM     12  H   UNL     1      -4.725  -5.089   8.754  1.00  0.00     0.158 HD
ATOM     13  H   UNL     1      -3.742  -4.823  10.233  1.00  0.00     0.158 HD
ENDBRANCH   7  11
TORSDOF 1
ENDMDL
MODEL 2
REMARK VINA RESULT:    -4.300      1.554      3.317
REMARK INTER + INTRA:          -4.425
REMARK INTER:                  -4.425
REMARK INTRA:                   0.000
REMARK UNBOUND:                 0.000
REMARK SMILES Nc1ncnc2nc[nH]c12
REMARK SMILES IDX 8 1 7 2 6 3 5 4 4 5 3 6 2 7 10 8 9 9 1 11
REMARK H PARENT 9 10 1 12 1 13
REMARK Flexibility Score: inf
ROOT
ATOM      1  C   UNL     1      -6.117  -8.895   7.392  1.00  0.00     0.199 A 
ATOM      2  N   UNL     1      -6.257  -9.796   8.402  1.00  0.00    -0.217 NA
ATOM      3  C   UNL     1      -5.711  -9.144   9.443  1.00  0.00     0.182 A 
ATOM      4  N   UNL     1      -5.593  -9.602  10.711  1.00  0.00    -0.215 NA
ATOM      5  C   UNL     1      -5.006  -8.788  11.640  1.00  0.00     0.226 A 
ATOM      6  N   UNL     1      -4.550  -7.543  11.286  1.00  0.00    -0.217 NA
ATOM      7  C   UNL     1      -4.668  -7.079  10.006  1.00  0.00     0.152 A 
ATOM      8  C   UNL     1      -5.269  -7.920   9.073  1.00  0.00     0.127 A 
ATOM      9  N   UNL     1      -5.516  -7.738   7.770  1.00  0.00    -0.340 N 
ATOM     10  H   UNL     1      -5.303  -6.909   7.174  1.00  0.00     0.168 HD
ENDROOT
BRANCH   7  11
ATOM     11  N   UNL     1      -4.187  -5.780   9.660  1.00  0.00    -0.382 N 
ATOM     12  H   UNL     1      -3.170  -5.597   9.515  1.00  0.00     0.158 HD
ATOM     13  H   UNL     1      -4.858  -4.988   9.546  1.00  0.00     0.158 HD
ENDBRANCH   7  11
TORSDOF 1
ENDMDL
MODEL 3
REMARK VINA RESULT:    -4.253     14.957     15.842
REMARK INTER + INTRA:          -4.378
REMARK INTER:                  -4.378
REMARK INTRA:                   0.000
REMARK UNBOUND:                 0.000
REMARK SMILES Nc1ncnc2nc[nH]c12
REMARK SMILES IDX 8 1 7 2 6 3 5 4 4 5 3 6 2 7 10 8 9 9 1 11
REMARK H PARENT 9 10 1 12 1 13
REMARK Flexibility Score: inf
ROOT
ATOM      1  C   UNL     1       0.488   6.963   9.767  1.00  0.00     0.199 A 
ATOM      2  N   UNL     1      -0.189   7.919  10.458  1.00  0.00    -0.217 NA
ATOM      3  C   UNL     1      -1.367   7.959   9.812  1.00  0.00     0.182 A 
ATOM      4  N   UNL     1      -2.420   8.758  10.102  1.00  0.00    -0.215 NA
ATOM      5  C   UNL     1      -3.542   8.654   9.325  1.00  0.00     0.226 A 
ATOM      6  N   UNL     1      -3.588   7.762   8.283  1.00  0.00    -0.217 NA
ATOM      7  C   UNL     1      -2.524   6.956   7.989  1.00  0.00     0.152 A 
ATOM      8  C   UNL     1      -1.391   7.074   8.789  1.00  0.00     0.127 A 
ATOM      9  N   UNL     1      -0.220   6.427   8.740  1.00  0.00    -0.340 N 
ATOM     10  H   UNL     1       0.089   5.684   8.075  1.00  0.00     0.168 HD
ENDROOT
BRANCH   7  11
ATOM     11  N   UNL     1      -2.594   6.035   6.900  1.00  0.00    -0.382 N 
ATOM     12  H   UNL     1      -2.246   5.055   6.992  1.00  0.00     0.158 HD
ATOM     13  H   UNL     1      -2.999   6.337   5.986  1.00  0.00     0.158 HD
ENDBRANCH   7  11
TORSDOF 1
ENDMDL
MODEL 4
REMARK VINA RESULT:    -4.132      1.006      2.981
REMARK INTER + INTRA:          -4.252
REMARK INTER:                  -4.252
REMARK INTRA:                   0.000
REMARK UNBOUND:                 0.000
REMARK SMILES Nc1ncnc2nc[nH]c12
REMARK SMILES IDX 8 1 7 2 6 3 5 4 4 5 3 6 2 7 10 8 9 9 1 11
REMARK H PARENT 9 10 1 12 1 13
REMARK Flexibility Score: inf
ROOT
ATOM      1  C   UNL     1      -4.616  -7.277   9.016  1.00  0.00     0.199 A 
ATOM      2  N   UNL     1      -4.627  -8.588   9.377  1.00  0.00    -0.217 NA
ATOM      3  C   UNL     1      -4.690  -8.514  10.718  1.00  0.00     0.182 A 
ATOM      4  N   UNL     1      -4.725  -9.554  11.584  1.00  0.00    -0.215 NA
ATOM      5  C   UNL     1      -4.789  -9.278  12.922  1.00  0.00     0.226 A 
ATOM      6  N   UNL     1      -4.814  -7.979  13.365  1.00  0.00    -0.217 NA
ATOM      7  C   UNL     1      -4.778  -6.929  12.492  1.00  0.00     0.152 A 
ATOM      8  C   UNL     1      -4.714  -7.227  11.133  1.00  0.00     0.127 A 
ATOM      9  N   UNL     1      -4.668  -6.419  10.067  1.00  0.00    -0.340 N 
ATOM     10  H   UNL     1      -4.670  -5.376  10.036  1.00  0.00     0.168 HD
ENDROOT
BRANCH   7  11
ATOM     11  N   UNL     1      -4.805  -5.585  12.975  1.00  0.00    -0.382 N 
ATOM     12  H   UNL     1      -4.638  -5.365  13.981  1.00  0.00     0.158 HD
ATOM     13  H   UNL     1      -4.996  -4.798  12.316  1.00  0.00     0.158 HD
ENDBRANCH   7  11
TORSDOF 1
ENDMDL
MODEL 5
REMARK VINA RESULT:    -4.119     14.921     16.283
REMARK INTER + INTRA:          -4.239
REMARK INTER:                  -4.239
REMARK INTRA:                   0.000
REMARK UNBOUND:                 0.000
REMARK SMILES Nc1ncnc2nc[nH]c12
REMARK SMILES IDX 8 1 7 2 6 3 5 4 4 5 3 6 2 7 10 8 9 9 1 11
REMARK H PARENT 9 10 1 12 1 13
REMARK Flexibility Score: inf
ROOT
ATOM      1  C   UNL     1      -5.332   9.062   7.969  1.00  0.00     0.199 A 
ATOM      2  N   UNL     1      -4.647   9.573   9.027  1.00  0.00    -0.217 NA
ATOM      3  C   UNL     1      -3.555   8.792   9.065  1.00  0.00     0.182 A 
ATOM      4  N   UNL     1      -2.530   8.877   9.946  1.00  0.00    -0.215 NA
ATOM      5  C   UNL     1      -1.498   7.987   9.824  1.00  0.00     0.226 A 
ATOM      6  N   UNL     1      -1.511   7.037   8.834  1.00  0.00    -0.217 NA
ATOM      7  C   UNL     1      -2.545   6.950   7.944  1.00  0.00     0.152 A 
ATOM      8  C   UNL     1      -3.587   7.863   8.081  1.00  0.00     0.127 A 
ATOM      9  N   UNL     1      -4.710   8.015   7.369  1.00  0.00    -0.340 N 
ATOM     10  H   UNL     1      -5.041   7.466   6.546  1.00  0.00     0.168 HD
ENDROOT
BRANCH   7  11
ATOM     11  N   UNL     1      -2.537   5.953   6.921  1.00  0.00    -0.382 N 
ATOM     12  H   UNL     1      -2.847   4.975   7.111  1.00  0.00     0.158 HD
ATOM     13  H   UNL     1      -2.216   6.197   5.958  1.00  0.00     0.158 HD
ENDBRANCH   7  11
TORSDOF 1
ENDMDL
MODEL 6
REMARK VINA RESULT:    -3.756     15.064     16.007
REMARK INTER + INTRA:          -3.866
REMARK INTER:                  -3.866
REMARK INTRA:                   0.000
REMARK UNBOUND:                 0.000
REMARK SMILES Nc1ncnc2nc[nH]c12
REMARK SMILES IDX 8 1 7 2 6 3 5 4 4 5 3 6 2 7 10 8 9 9 1 11
REMARK H PARENT 9 10 1 12 1 13
REMARK Flexibility Score: inf
ROOT
ATOM      1  C   UNL     1       1.828   6.447   7.475  1.00  0.00     0.199 A 
ATOM      2  N   UNL     1       1.856   7.208   8.602  1.00  0.00    -0.217 NA
ATOM      3  C   UNL     1       0.549   7.398   8.851  1.00  0.00     0.182 A 
ATOM      4  N   UNL     1       0.016   8.100   9.878  1.00  0.00    -0.215 NA
ATOM      5  C   UNL     1      -1.347   8.181   9.967  1.00  0.00     0.226 A 
ATOM      6  N   UNL     1      -2.143   7.565   9.035  1.00  0.00    -0.217 NA
ATOM      7  C   UNL     1      -1.606   6.856   7.997  1.00  0.00     0.152 A 
ATOM      8  C   UNL     1      -0.218   6.783   7.922  1.00  0.00     0.127 A 
ATOM      9  N   UNL     1       0.574   6.170   7.034  1.00  0.00    -0.340 N 
ATOM     10  H   UNL     1       0.305   5.609   6.196  1.00  0.00     0.168 HD
ENDROOT
BRANCH   7  11
ATOM     11  N   UNL     1      -2.454   6.222   7.038  1.00  0.00    -0.382 N 
ATOM     12  H   UNL     1      -3.078   5.429   7.304  1.00  0.00     0.158 HD
ATOM     13  H   UNL     1      -2.458   6.551   6.047  1.00  0.00     0.158 HD
ENDBRANCH   7  11
TORSDOF 1
ENDMDL
MODEL 7
REMARK VINA RESULT:    -3.681     15.051     15.858
REMARK INTER + INTRA:          -3.789
REMARK INTER:                  -3.789
REMARK INTRA:                   0.000
REMARK UNBOUND:                 0.000
REMARK SMILES Nc1ncnc2nc[nH]c12
REMARK SMILES IDX 8 1 7 2 6 3 5 4 4 5 3 6 2 7 10 8 9 9 1 11
REMARK H PARENT 9 10 1 12 1 13
REMARK Flexibility Score: inf
ROOT
ATOM      1  C   UNL     1      -3.171   6.829   7.731  1.00  0.00     0.199 A 
ATOM      2  N   UNL     1      -3.017   7.579   8.855  1.00  0.00    -0.217 NA
ATOM      3  C   UNL     1      -1.682   7.586   9.013  1.00  0.00     0.182 A 
ATOM      4  N   UNL     1      -0.989   8.202   9.999  1.00  0.00    -0.215 NA
ATOM      5  C   UNL     1       0.375   8.097   9.992  1.00  0.00     0.226 A 
ATOM      6  N   UNL     1       1.014   7.383   9.009  1.00  0.00    -0.217 NA
ATOM      7  C   UNL     1       0.315   6.760   8.014  1.00  0.00     0.152 A 
ATOM      8  C   UNL     1      -1.072   6.877   8.035  1.00  0.00     0.127 A 
ATOM      9  N   UNL     1      -2.000   6.385   7.205  1.00  0.00    -0.340 N 
ATOM     10  H   UNL     1      -1.869   5.797   6.353  1.00  0.00     0.168 HD
ENDROOT
BRANCH   7  11
ATOM     11  N   UNL     1       1.000   6.022   7.001  1.00  0.00    -0.382 N 
ATOM     12  H   UNL     1       1.002   4.979   6.995  1.00  0.00     0.158 HD
ATOM     13  H   UNL     1       1.513   6.528   6.245  1.00  0.00     0.158 HD
ENDBRANCH   7  11
TORSDOF 1
ENDMDL
MODEL 8
REMARK VINA RESULT:    -3.398     15.155     15.643
REMARK INTER + INTRA:          -3.497
REMARK INTER:                  -3.497
REMARK INTRA:                   0.000
REMARK UNBOUND:                 0.000
REMARK SMILES Nc1ncnc2nc[nH]c12
REMARK SMILES IDX 8 1 7 2 6 3 5 4 4 5 3 6 2 7 10 8 9 9 1 11
REMARK H PARENT 9 10 1 12 1 13
REMARK Flexibility Score: inf
ROOT
ATOM      1  C   UNL     1       4.642   3.743   8.032  1.00  0.00     0.199 A 
ATOM      2  N   UNL     1       4.698   4.302   9.271  1.00  0.00    -0.217 NA
ATOM      3  C   UNL     1       3.658   5.153   9.248  1.00  0.00     0.182 A 
ATOM      4  N   UNL     1       3.262   5.971  10.251  1.00  0.00    -0.215 NA
ATOM      5  C   UNL     1       2.173   6.771  10.039  1.00  0.00     0.226 A 
ATOM      6  N   UNL     1       1.507   6.739   8.839  1.00  0.00    -0.217 NA
ATOM      7  C   UNL     1       1.907   5.913   7.826  1.00  0.00     0.152 A 
ATOM      8  C   UNL     1       3.017   5.105   8.058  1.00  0.00     0.127 A 
ATOM      9  N   UNL     1       3.625   4.214   7.266  1.00  0.00    -0.340 N 
ATOM     10  H   UNL     1       3.385   3.937   6.289  1.00  0.00     0.168 HD
ENDROOT
BRANCH   7  11
ATOM     11  N   UNL     1       1.199   5.895   6.586  1.00  0.00    -0.382 N 
ATOM     12  H   UNL     1       0.285   5.401   6.488  1.00  0.00     0.158 HD
ATOM     13  H   UNL     1       1.595   6.384   5.752  1.00  0.00     0.158 HD
ENDBRANCH   7  11
TORSDOF 1
ENDMDL
MODEL 9
REMARK VINA RESULT:    -3.305     15.452     15.780
REMARK INTER + INTRA:          -3.402
REMARK INTER:                  -3.402
REMARK INTRA:                   0.000
REMARK UNBOUND:                 0.000
REMARK SMILES Nc1ncnc2nc[nH]c12
REMARK SMILES IDX 8 1 7 2 6 3 5 4 4 5 3 6 2 7 10 8 9 9 1 11
REMARK H PARENT 9 10 1 12 1 13
REMARK Flexibility Score: inf
ROOT
ATOM      1  C   UNL     1      -1.241   7.083   8.879  1.00  0.00     0.199 A 
ATOM      2  N   UNL     1      -0.433   6.984   9.969  1.00  0.00    -0.217 NA
ATOM      3  C   UNL     1       0.758   6.695   9.416  1.00  0.00     0.182 A 
ATOM      4  N   UNL     1       1.925   6.492  10.072  1.00  0.00    -0.215 NA
ATOM      5  C   UNL     1       3.040   6.207   9.332  1.00  0.00     0.226 A 
ATOM      6  N   UNL     1       2.967   6.130   7.964  1.00  0.00    -0.217 NA
ATOM      7  C   UNL     1       1.789   6.334   7.301  1.00  0.00     0.152 A 
ATOM      8  C   UNL     1       0.664   6.624   8.068  1.00  0.00     0.127 A 
ATOM      9  N   UNL     1      -0.600   6.867   7.702  1.00  0.00    -0.340 N 
ATOM     10  H   UNL     1      -1.009   6.889   6.742  1.00  0.00     0.168 HD
ENDROOT
BRANCH   7  11
ATOM     11  N   UNL     1       1.737   6.250   5.876  1.00  0.00    -0.382 N 
ATOM     12  H   UNL     1       1.077   5.601   5.394  1.00  0.00     0.158 HD
ATOM     13  H   UNL     1       2.368   6.845   5.295  1.00  0.00     0.158 HD
ENDBRANCH   7  11
TORSDOF 1
ENDMDL
