MODEL 1
REMARK VINA RESULT:    -3.356      0.000      0.000
REMARK INTER + INTRA:          -4.416
REMARK INTER:                  -4.141
REMARK INTRA:                  -0.275
REMARK UNBOUND:                -0.275
REMARK SMILES C=CCc1ccc(OC)c(OC)c1
REMARK SMILES IDX 7 1 10 2 13 3 4 4 5 5 6 6 8 7 9 8 11 9 12 10 3 11 2 12 1 13
REMARK H PARENT
REMARK Flexibility Score: inf
ROOT
ATOM      1  C   UNL     1     136.639 148.014 138.549  1.00  0.00     0.160 A 
ATOM      2  C   UNL     1     137.967 147.665 138.256  1.00  0.00     0.160 A 
ATOM      3  C   UNL     1     138.405 146.344 138.476  1.00  0.00     0.054 A 
ATOM      4  C   UNL     1     137.527 145.377 138.990  1.00  0.00    -0.040 A 
ATOM      5  C   UNL     1     136.201 145.732 139.270  1.00  0.00     0.008 A 
ATOM      6  C   UNL     1     135.760 147.038 139.055  1.00  0.00     0.051 A 
ENDROOT
BRANCH   1   7
ATOM      7  O   UNL     1     136.231 149.337 138.320  1.00  0.00    -0.493 OA
ATOM      8  C   UNL     1     135.092 149.708 137.550  1.00  0.00     0.278 C 
ENDBRANCH   1   7
BRANCH   2   9
ATOM      9  O   UNL     1     138.819 148.657 137.747  1.00  0.00    -0.493 OA
ATOM     10  C   UNL     1     139.918 148.408 136.875  1.00  0.00     0.278 C 
ENDBRANCH   2   9
BRANCH   4  11
ATOM     11  C   UNL     1     137.996 143.961 139.194  1.00  0.00     0.062 C 
BRANCH  11  12
ATOM     12  C   UNL     1     136.862 143.082 139.641  1.00  0.00    -0.030 C 
ATOM     13  C   UNL     1     136.718 141.835 139.185  1.00  0.00     0.004 C 
ENDBRANCH  11  12
ENDBRANCH   4  11
TORSDOF 4
ENDMDL
MODEL 2
REMARK VINA RESULT:    -3.349     11.678     14.652
REMARK INTER + INTRA:          -4.407
REMARK INTER:                  -4.130
REMARK INTRA:                  -0.277
REMARK UNBOUND:                -0.275
REMARK SMILES C=CCc1ccc(OC)c(OC)c1
REMARK SMILES IDX 7 1 10 2 13 3 4 4 5 5 6 6 8 7 9 8 11 9 12 10 3 11 2 12 1 13
REMARK H PARENT
REMARK Flexibility Score: inf
ROOT
ATOM      1  C   UNL     1     145.065 133.514 138.698  1.00  0.00     0.160 A 
ATOM      2  C   UNL     1     143.735 133.810 138.361  1.00  0.00     0.160 A 
ATOM      3  C   UNL     1     143.257 135.129 138.503  1.00  0.00     0.054 A 
ATOM      4  C   UNL     1     144.097 136.145 138.983  1.00  0.00    -0.040 A 
ATOM      5  C   UNL     1     145.426 135.842 139.307  1.00  0.00     0.008 A 
ATOM      6  C   UNL     1     145.907 134.539 139.170  1.00  0.00     0.051 A 
ENDROOT
BRANCH   1   7
ATOM      7  O   UNL     1     145.513 132.192 138.547  1.00  0.00    -0.493 OA
ATOM      8  C   UNL     1     146.398 131.753 137.522  1.00  0.00     0.278 C 
ENDBRANCH   1   7
BRANCH   2   9
ATOM      9  O   UNL     1     142.920 132.771 137.887  1.00  0.00    -0.493 OA
ATOM     10  C   UNL     1     141.724 132.959 137.137  1.00  0.00     0.278 C 
ENDBRANCH   2   9
BRANCH   4  11
ATOM     11  C   UNL     1     143.587 137.556 139.103  1.00  0.00     0.062 C 
BRANCH  11  12
ATOM     12  C   UNL     1     144.691 138.490 139.512  1.00  0.00    -0.030 C 
ATOM     13  C   UNL     1     144.719 139.763 139.108  1.00  0.00     0.004 C 
ENDBRANCH  11  12
ENDBRANCH   4  11
TORSDOF 4
ENDMDL
MODEL 3
REMARK VINA RESULT:    -3.344      9.712     11.491
REMARK INTER + INTRA:          -4.401
REMARK INTER:                  -4.093
REMARK INTRA:                  -0.307
REMARK UNBOUND:                -0.275
REMARK SMILES C=CCc1ccc(OC)c(OC)c1
REMARK SMILES IDX 7 1 10 2 13 3 4 4 5 5 6 6 8 7 9 8 11 9 12 10 3 11 2 12 1 13
REMARK H PARENT
REMARK Flexibility Score: inf
ROOT
ATOM      1  C   UNL     1     149.281 143.316 137.988  1.00  0.00     0.160 A 
ATOM      2  C   UNL     1     148.224 143.913 138.692  1.00  0.00     0.160 A 
ATOM      3  C   UNL     1     146.957 143.297 138.702  1.00  0.00     0.054 A 
ATOM      4  C   UNL     1     146.742 142.095 138.010  1.00  0.00    -0.040 A 
ATOM      5  C   UNL     1     147.806 141.501 137.317  1.00  0.00     0.008 A 
ATOM      6  C   UNL     1     149.063 142.106 137.302  1.00  0.00     0.051 A 
ENDROOT
BRANCH   1   7
ATOM      7  O   UNL     1     150.532 143.954 137.995  1.00  0.00    -0.493 OA
ATOM      8  C   UNL     1     151.064 144.698 136.904  1.00  0.00     0.278 C 
ENDBRANCH   1   7
BRANCH   2   9
ATOM      9  O   UNL     1     148.471 145.117 139.371  1.00  0.00    -0.493 OA
ATOM     10  C   UNL     1     148.144 146.409 138.871  1.00  0.00     0.278 C 
ENDBRANCH   2   9
BRANCH   4  11
ATOM     11  C   UNL     1     145.393 141.429 138.051  1.00  0.00     0.062 C 
BRANCH  11  12
ATOM     12  C   UNL     1     144.499 141.967 136.969  1.00  0.00    -0.030 C 
ATOM     13  C   UNL     1     143.301 142.491 137.244  1.00  0.00     0.004 C 
ENDBRANCH  11  12
ENDBRANCH   4  11
TORSDOF 4
ENDMDL
MODEL 4
REMARK VINA RESULT:    -3.320      2.091      3.232
REMARK INTER + INTRA:          -4.371
REMARK INTER:                  -4.076
REMARK INTRA:                  -0.295
REMARK UNBOUND:                -0.275
REMARK SMILES C=CCc1ccc(OC)c(OC)c1
REMARK SMILES IDX 7 1 10 2 13 3 4 4 5 5 6 6 8 7 9 8 11 9 12 10 3 11 2 12 1 13
REMARK H PARENT
REMARK Flexibility Score: inf
ROOT
ATOM      1  C   UNL     1     138.176 149.215 137.985  1.00  0.00     0.160 A 
ATOM      2  C   UNL     1     137.593 148.167 138.713  1.00  0.00     0.160 A 
ATOM      3  C   UNL     1     138.205 146.898 138.719  1.00  0.00     0.054 A 
ATOM      4  C   UNL     1     139.387 146.672 137.998  1.00  0.00    -0.040 A 
ATOM      5  C   UNL     1     139.968 147.727 137.281  1.00  0.00     0.008 A 
ATOM      6  C   UNL     1     139.367 148.987 137.271  1.00  0.00     0.051 A 
ENDROOT
BRANCH   1   7
ATOM      7  O   UNL     1     137.544 150.469 137.998  1.00  0.00    -0.493 OA
ATOM      8  C   UNL     1     136.885 151.051 136.877  1.00  0.00     0.278 C 
ENDBRANCH   1   7
BRANCH   2   9
ATOM      9  O   UNL     1     136.408 148.425 139.420  1.00  0.00    -0.493 OA
ATOM     10  C   UNL     1     135.106 148.058 138.976  1.00  0.00     0.278 C 
ENDBRANCH   2   9
BRANCH   4  11
ATOM     11  C   UNL     1     140.050 145.321 138.033  1.00  0.00     0.062 C 
BRANCH  11  12
ATOM     12  C   UNL     1     139.599 144.475 136.875  1.00  0.00    -0.030 C 
ATOM     13  C   UNL     1     139.264 143.191 137.033  1.00  0.00     0.004 C 
ENDBRANCH  11  12
ENDBRANCH   4  11
TORSDOF 4
ENDMDL
MODEL 5
REMARK VINA RESULT:    -3.310      8.567     10.322
REMARK INTER + INTRA:          -4.360
REMARK INTER:                  -4.083
REMARK INTRA:                  -0.277
REMARK UNBOUND:                -0.275
REMARK SMILES C=CCc1ccc(OC)c(OC)c1
REMARK SMILES IDX 7 1 10 2 13 3 4 4 5 5 6 6 8 7 9 8 11 9 12 10 3 11 2 12 1 13
REMARK H PARENT
REMARK Flexibility Score: inf
ROOT
ATOM      1  C   UNL     1     133.559 136.587 138.653  1.00  0.00     0.160 A 
ATOM      2  C   UNL     1     133.864 137.911 138.301  1.00  0.00     0.160 A 
ATOM      3  C   UNL     1     135.187 138.377 138.426  1.00  0.00     0.054 A 
ATOM      4  C   UNL     1     136.200 137.532 138.905  1.00  0.00    -0.040 A 
ATOM      5  C   UNL     1     135.888 136.210 139.245  1.00  0.00     0.008 A 
ATOM      6  C   UNL     1     134.579 135.740 139.124  1.00  0.00     0.051 A 
ENDROOT
BRANCH   1   7
ATOM      7  O   UNL     1     132.231 136.150 138.518  1.00  0.00    -0.493 OA
ATOM      8  C   UNL     1     131.794 135.182 137.569  1.00  0.00     0.278 C 
ENDBRANCH   1   7
BRANCH   2   9
ATOM      9  O   UNL     1     132.827 138.731 137.829  1.00  0.00    -0.493 OA
ATOM     10  C   UNL     1     133.020 139.924 137.076  1.00  0.00     0.278 C 
ENDBRANCH   2   9
BRANCH   4  11
ATOM     11  C   UNL     1     137.617 138.031 139.008  1.00  0.00     0.062 C 
BRANCH  11  12
ATOM     12  C   UNL     1     138.535 136.937 139.476  1.00  0.00    -0.030 C 
ATOM     13  C   UNL     1     139.800 136.854 139.054  1.00  0.00     0.004 C 
ENDBRANCH  11  12
ENDBRANCH   4  11
TORSDOF 4
ENDMDL
MODEL 6
REMARK VINA RESULT:    -3.307      8.574     10.325
REMARK INTER + INTRA:          -4.355
REMARK INTER:                  -4.083
REMARK INTRA:                  -0.272
REMARK UNBOUND:                -0.275
REMARK SMILES C=CCc1ccc(OC)c(OC)c1
REMARK SMILES IDX 7 1 10 2 13 3 4 4 5 5 6 6 8 7 9 8 11 9 12 10 3 11 2 12 1 13
REMARK H PARENT
REMARK Flexibility Score: inf
ROOT
ATOM      1  C   UNL     1     148.020 144.929 138.603  1.00  0.00     0.160 A 
ATOM      2  C   UNL     1     147.707 143.600 138.278  1.00  0.00     0.160 A 
ATOM      3  C   UNL     1     146.381 143.143 138.414  1.00  0.00     0.054 A 
ATOM      4  C   UNL     1     145.374 144.002 138.877  1.00  0.00    -0.040 A 
ATOM      5  C   UNL     1     145.693 145.330 139.190  1.00  0.00     0.008 A 
ATOM      6  C   UNL     1     147.004 145.790 139.058  1.00  0.00     0.051 A 
ENDROOT
BRANCH   1   7
ATOM      7  O   UNL     1     149.349 145.356 138.458  1.00  0.00    -0.493 OA
ATOM      8  C   UNL     1     149.809 146.224 137.427  1.00  0.00     0.278 C 
ENDBRANCH   1   7
BRANCH   2   9
ATOM      9  O   UNL     1     148.739 142.765 137.821  1.00  0.00    -0.493 OA
ATOM     10  C   UNL     1     148.538 141.541 137.122  1.00  0.00     0.278 C 
ENDBRANCH   2   9
BRANCH   4  11
ATOM     11  C   UNL     1     143.954 143.513 138.991  1.00  0.00     0.062 C 
BRANCH  11  12
ATOM     12  C   UNL     1     143.023 144.648 139.311  1.00  0.00    -0.030 C 
ATOM     13  C   UNL     1     141.705 144.551 139.116  1.00  0.00     0.004 C 
ENDBRANCH  11  12
ENDBRANCH   4  11
TORSDOF 4
ENDMDL
MODEL 7
REMARK VINA RESULT:    -3.265      2.008      2.610
REMARK INTER + INTRA:          -4.304
REMARK INTER:                  -4.001
REMARK INTRA:                  -0.302
REMARK UNBOUND:                -0.275
REMARK SMILES C=CCc1ccc(OC)c(OC)c1
REMARK SMILES IDX 7 1 10 2 13 3 4 4 5 5 6 6 8 7 9 8 11 9 12 10 3 11 2 12 1 13
REMARK H PARENT
REMARK Flexibility Score: inf
ROOT
ATOM      1  C   UNL     1     135.508 147.955 138.713  1.00  0.00     0.160 A 
ATOM      2  C   UNL     1     136.600 148.656 138.178  1.00  0.00     0.160 A 
ATOM      3  C   UNL     1     137.872 148.050 138.154  1.00  0.00     0.054 A 
ATOM      4  C   UNL     1     138.056 146.756 138.665  1.00  0.00    -0.040 A 
ATOM      5  C   UNL     1     136.959 146.060 139.187  1.00  0.00     0.008 A 
ATOM      6  C   UNL     1     135.696 146.654 139.215  1.00  0.00     0.051 A 
ENDROOT
BRANCH   1   7
ATOM      7  O   UNL     1     134.253 148.584 138.724  1.00  0.00    -0.493 OA
ATOM      8  C   UNL     1     133.619 149.097 139.891  1.00  0.00     0.278 C 
ENDBRANCH   1   7
BRANCH   2   9
ATOM      9  O   UNL     1     136.383 149.950 137.679  1.00  0.00    -0.493 OA
ATOM     10  C   UNL     1     137.286 151.040 137.839  1.00  0.00     0.278 C 
ENDBRANCH   2   9
BRANCH   4  11
ATOM     11  C   UNL     1     139.413 146.106 138.608  1.00  0.00     0.062 C 
BRANCH  11  12
ATOM     12  C   UNL     1     139.636 145.453 137.272  1.00  0.00    -0.030 C 
ATOM     13  C   UNL     1     139.391 144.154 137.076  1.00  0.00     0.004 C 
ENDBRANCH  11  12
ENDBRANCH   4  11
TORSDOF 4
ENDMDL
MODEL 8
REMARK VINA RESULT:    -3.213      8.004     10.043
REMARK INTER + INTRA:          -4.239
REMARK INTER:                  -3.918
REMARK INTRA:                  -0.321
REMARK UNBOUND:                -0.275
REMARK SMILES C=CCc1ccc(OC)c(OC)c1
REMARK SMILES IDX 7 1 10 2 13 3 4 4 5 5 6 6 8 7 9 8 11 9 12 10 3 11 2 12 1 13
REMARK H PARENT
REMARK Flexibility Score: inf
ROOT
ATOM      1  C   UNL     1     132.416 137.935 138.236  1.00  0.00     0.160 A 
ATOM      2  C   UNL     1     133.502 137.522 139.022  1.00  0.00     0.160 A 
ATOM      3  C   UNL     1     134.691 138.279 139.020  1.00  0.00     0.054 A 
ATOM      4  C   UNL     1     134.799 139.436 138.235  1.00  0.00    -0.040 A 
ATOM      5  C   UNL     1     133.706 139.846 137.461  1.00  0.00     0.008 A 
ATOM      6  C   UNL     1     132.525 139.102 137.457  1.00  0.00     0.051 A 
ENDROOT
BRANCH   1   7
ATOM      7  O   UNL     1     131.245 137.161 138.258  1.00  0.00    -0.493 OA
ATOM      8  C   UNL     1     130.915 136.171 137.289  1.00  0.00     0.278 C 
ENDBRANCH   1   7
BRANCH   2   9
ATOM      9  O   UNL     1     133.363 136.358 139.793  1.00  0.00    -0.493 OA
ATOM     10  C   UNL     1     134.004 135.118 139.509  1.00  0.00     0.278 C 
ENDBRANCH   2   9
BRANCH   4  11
ATOM     11  C   UNL     1     136.063 140.254 138.262  1.00  0.00     0.062 C 
BRANCH  11  12
ATOM     12  C   UNL     1     137.008 139.812 137.180  1.00  0.00    -0.030 C 
ATOM     13  C   UNL     1     138.009 138.962 137.427  1.00  0.00     0.004 C 
ENDBRANCH  11  12
ENDBRANCH   4  11
TORSDOF 4
ENDMDL
MODEL 9
REMARK VINA RESULT:    -3.197     11.665     14.766
REMARK INTER + INTRA:          -4.220
REMARK INTER:                  -3.942
REMARK INTRA:                  -0.278
REMARK UNBOUND:                -0.275
REMARK SMILES C=CCc1ccc(OC)c(OC)c1
REMARK SMILES IDX 7 1 10 2 13 3 4 4 5 5 6 6 8 7 9 8 11 9 12 10 3 11 2 12 1 13
REMARK H PARENT
REMARK Flexibility Score: inf
ROOT
ATOM      1  C   UNL     1     143.855 132.563 138.254  1.00  0.00     0.160 A 
ATOM      2  C   UNL     1     144.367 133.778 138.734  1.00  0.00     0.160 A 
ATOM      3  C   UNL     1     143.591 134.950 138.631  1.00  0.00     0.054 A 
ATOM      4  C   UNL     1     142.315 134.912 138.048  1.00  0.00    -0.040 A 
ATOM      5  C   UNL     1     141.809 133.693 137.581  1.00  0.00     0.008 A 
ATOM      6  C   UNL     1     142.571 132.528 137.678  1.00  0.00     0.051 A 
ENDROOT
BRANCH   1   7
ATOM      7  O   UNL     1     144.652 131.412 138.369  1.00  0.00    -0.493 OA
ATOM      8  C   UNL     1     145.449 130.875 137.319  1.00  0.00     0.278 C 
ENDBRANCH   1   7
BRANCH   2   9
ATOM      9  O   UNL     1     145.648 133.782 139.308  1.00  0.00    -0.493 OA
ATOM     10  C   UNL     1     145.905 133.808 140.709  1.00  0.00     0.278 C 
ENDBRANCH   2   9
BRANCH   4  11
ATOM     11  C   UNL     1     141.481 136.163 137.970  1.00  0.00     0.062 C 
BRANCH  11  12
ATOM     12  C   UNL     1     142.038 137.112 136.946  1.00  0.00    -0.030 C 
ATOM     13  C   UNL     1     142.467 138.333 137.280  1.00  0.00     0.004 C 
ENDBRANCH  11  12
ENDBRANCH   4  11
TORSDOF 4
ENDMDL
