MODEL 1
REMARK VINA RESULT:    -6.682      0.000      0.000
REMARK INTER + INTRA:          -7.795
REMARK INTER:                  -7.658
REMARK INTRA:                  -0.136
REMARK UNBOUND:                -0.136
REMARK SMILES O=C([O-])C=Cc1ccc(O)cc1
REMARK SMILES IDX 6 1 7 2 12 3 8 4 11 5 9 6 5 7 4 8 2 9 1 10 3 11 10 12
REMARK H PARENT 10 13
REMARK Flexibility Score: inf
ROOT
ATOM      1  C   UNL     1     -11.967   1.525  -9.577  1.00  0.00    -0.025 A 
ATOM      2  C   UNL     1     -13.358   1.714  -9.645  1.00  0.00     0.012 A 
ATOM      3  C   UNL     1     -11.178   2.505  -8.941  1.00  0.00     0.012 A 
ATOM      4  C   UNL     1     -13.947   2.865  -9.113  1.00  0.00     0.047 A 
ATOM      5  C   UNL     1     -11.772   3.655  -8.410  1.00  0.00     0.047 A 
ATOM      6  C   UNL     1     -13.154   3.840  -8.496  1.00  0.00     0.115 A 
ENDROOT
BRANCH   1   7
ATOM      7  C   UNL     1     -11.391   0.282 -10.147  1.00  0.00     0.010 C 
ATOM      8  C   UNL     1     -10.675  -0.600  -9.437  1.00  0.00     0.025 C 
BRANCH   8   9
ATOM      9  C   UNL     1     -10.113  -1.816 -10.046  1.00  0.00     0.064 C 
ATOM     10  O   UNL     1      -9.070  -1.735 -10.746  1.00  0.00    -0.545 OA
ATOM     11  O   UNL     1     -10.715  -3.056  -9.860  1.00  0.00    -0.545 OA
ENDBRANCH   8   9
ENDBRANCH   1   7
BRANCH   6  12
ATOM     12  O   UNL     1     -13.730   4.992  -7.964  1.00  0.00    -0.508 OA
ATOM     13  H   UNL     1     -14.612   4.961  -7.467  1.00  0.00     0.293 HD
ENDBRANCH   6  12
TORSDOF 3
ENDMDL
MODEL 2
REMARK VINA RESULT:    -6.429      1.447      5.777
REMARK INTER + INTRA:          -7.505
REMARK INTER:                  -7.354
REMARK INTRA:                  -0.151
REMARK UNBOUND:                -0.136
REMARK SMILES O=C([O-])C=Cc1ccc(O)cc1
REMARK SMILES IDX 6 1 7 2 12 3 8 4 11 5 9 6 5 7 4 8 2 9 1 10 3 11 10 12
REMARK H PARENT 10 13
REMARK Flexibility Score: inf
ROOT
ATOM      1  C   UNL     1     -11.973   0.220 -10.047  1.00  0.00    -0.025 A 
ATOM      2  C   UNL     1     -10.744  -0.322  -9.630  1.00  0.00     0.012 A 
ATOM      3  C   UNL     1     -12.922  -0.632 -10.648  1.00  0.00     0.012 A 
ATOM      4  C   UNL     1     -10.459  -1.676  -9.829  1.00  0.00     0.047 A 
ATOM      5  C   UNL     1     -12.633  -1.987 -10.844  1.00  0.00     0.047 A 
ATOM      6  C   UNL     1     -11.403  -2.511 -10.439  1.00  0.00     0.115 A 
ENDROOT
BRANCH   1   7
ATOM      7  C   UNL     1     -12.233   1.660  -9.804  1.00  0.00     0.010 C 
ATOM      8  C   UNL     1     -11.554   2.400  -8.917  1.00  0.00     0.025 C 
BRANCH   8   9
ATOM      9  C   UNL     1     -11.853   3.824  -8.700  1.00  0.00     0.064 C 
ATOM     10  O   UNL     1     -11.762   4.631  -9.662  1.00  0.00    -0.545 OA
ATOM     11  O   UNL     1     -12.235   4.295  -7.449  1.00  0.00    -0.545 OA
ENDBRANCH   8   9
ENDBRANCH   1   7
BRANCH   6  12
ATOM     12  O   UNL     1     -11.129  -3.862 -10.643  1.00  0.00    -0.508 OA
ATOM     13  H   UNL     1     -11.313  -4.311 -11.533  1.00  0.00     0.293 HD
ENDBRANCH   6  12
TORSDOF 3
ENDMDL
MODEL 3
REMARK VINA RESULT:    -6.122      1.512      2.461
REMARK INTER + INTRA:          -7.153
REMARK INTER:                  -7.019
REMARK INTRA:                  -0.133
REMARK UNBOUND:                -0.136
REMARK SMILES O=C([O-])C=Cc1ccc(O)cc1
REMARK SMILES IDX 6 1 7 2 12 3 8 4 11 5 9 6 5 7 4 8 2 9 1 10 3 11 10 12
REMARK H PARENT 10 13
REMARK Flexibility Score: inf
ROOT
ATOM      1  C   UNL     1     -11.645  -0.064 -10.027  1.00  0.00    -0.025 A 
ATOM      2  C   UNL     1     -11.276   1.160  -9.439  1.00  0.00     0.012 A 
ATOM      3  C   UNL     1     -12.969  -0.227 -10.482  1.00  0.00     0.012 A 
ATOM      4  C   UNL     1     -12.212   2.187  -9.288  1.00  0.00     0.047 A 
ATOM      5  C   UNL     1     -13.902   0.804 -10.329  1.00  0.00     0.047 A 
ATOM      6  C   UNL     1     -13.529   2.010  -9.730  1.00  0.00     0.115 A 
ENDROOT
BRANCH   1   7
ATOM      7  C   UNL     1     -10.612  -1.119 -10.175  1.00  0.00     0.010 C 
ATOM      8  C   UNL     1     -10.449  -2.128  -9.309  1.00  0.00     0.025 C 
BRANCH   8   9
ATOM      9  C   UNL     1      -9.404  -3.147  -9.490  1.00  0.00     0.064 C 
ATOM     10  O   UNL     1      -9.504  -3.981 -10.428  1.00  0.00    -0.545 OA
ATOM     11  O   UNL     1      -8.304  -3.206  -8.641  1.00  0.00    -0.545 OA
ENDBRANCH   8   9
ENDBRANCH   1   7
BRANCH   6  12
ATOM     12  O   UNL     1     -14.471   3.026  -9.583  1.00  0.00    -0.508 OA
ATOM     13  H   UNL     1     -15.391   2.959 -10.001  1.00  0.00     0.293 HD
ENDBRANCH   6  12
TORSDOF 3
ENDMDL
MODEL 4
REMARK VINA RESULT:    -5.770      2.118      5.442
REMARK INTER + INTRA:          -6.750
REMARK INTER:                  -6.610
REMARK INTRA:                  -0.139
REMARK UNBOUND:                -0.136
REMARK SMILES O=C([O-])C=Cc1ccc(O)cc1
REMARK SMILES IDX 6 1 7 2 12 3 8 4 11 5 9 6 5 7 4 8 2 9 1 10 3 11 10 12
REMARK H PARENT 10 13
REMARK Flexibility Score: inf
ROOT
ATOM      1  C   UNL     1     -12.765   0.601 -10.042  1.00  0.00    -0.025 A 
ATOM      2  C   UNL     1     -14.064   0.154 -10.342  1.00  0.00     0.012 A 
ATOM      3  C   UNL     1     -11.695  -0.313 -10.131  1.00  0.00     0.012 A 
ATOM      4  C   UNL     1     -14.293  -1.178 -10.699  1.00  0.00     0.047 A 
ATOM      5  C   UNL     1     -11.929  -1.644 -10.489  1.00  0.00     0.047 A 
ATOM      6  C   UNL     1     -13.226  -2.081 -10.771  1.00  0.00     0.115 A 
ENDROOT
BRANCH   1   7
ATOM      7  C   UNL     1     -12.571   2.026  -9.678  1.00  0.00     0.010 C 
ATOM      8  C   UNL     1     -11.592   2.463  -8.874  1.00  0.00     0.025 C 
BRANCH   8   9
ATOM      9  C   UNL     1     -11.444   3.886  -8.531  1.00  0.00     0.064 C 
ATOM     10  O   UNL     1     -12.465   4.566  -8.246  1.00  0.00    -0.545 OA
ATOM     11  O   UNL     1     -10.194   4.495  -8.516  1.00  0.00    -0.545 OA
ENDBRANCH   8   9
ENDBRANCH   1   7
BRANCH   6  12
ATOM     12  O   UNL     1     -13.443  -3.411 -11.125  1.00  0.00    -0.508 OA
ATOM     13  H   UNL     1     -12.837  -4.152 -10.795  1.00  0.00     0.293 HD
ENDBRANCH   6  12
TORSDOF 3
ENDMDL
MODEL 5
REMARK VINA RESULT:    -4.837     14.292     16.321
REMARK INTER + INTRA:          -5.679
REMARK INTER:                  -5.532
REMARK INTRA:                  -0.148
REMARK UNBOUND:                -0.136
REMARK SMILES O=C([O-])C=Cc1ccc(O)cc1
REMARK SMILES IDX 6 1 7 2 12 3 8 4 11 5 9 6 5 7 4 8 2 9 1 10 3 11 10 12
REMARK H PARENT 10 13
REMARK Flexibility Score: inf
ROOT
ATOM      1  C   UNL     1     -12.125   5.335   5.854  1.00  0.00    -0.025 A 
ATOM      2  C   UNL     1     -10.899   6.022   5.793  1.00  0.00     0.012 A 
ATOM      3  C   UNL     1     -12.456   4.642   7.036  1.00  0.00     0.012 A 
ATOM      4  C   UNL     1     -10.015   5.998   6.876  1.00  0.00     0.047 A 
ATOM      5  C   UNL     1     -11.569   4.621   8.117  1.00  0.00     0.047 A 
ATOM      6  C   UNL     1     -10.347   5.295   8.040  1.00  0.00     0.115 A 
ENDROOT
BRANCH   1   7
ATOM      7  C   UNL     1     -13.033   5.400   4.683  1.00  0.00     0.010 C 
ATOM      8  C   UNL     1     -13.264   6.517   3.980  1.00  0.00     0.025 C 
BRANCH   8   9
ATOM      9  C   UNL     1     -14.182   6.537   2.831  1.00  0.00     0.064 C 
ATOM     10  O   UNL     1     -15.123   5.703   2.773  1.00  0.00    -0.545 OA
ATOM     11  O   UNL     1     -14.028   7.465   1.806  1.00  0.00    -0.545 OA
ENDBRANCH   8   9
ENDBRANCH   1   7
BRANCH   6  12
ATOM     12  O   UNL     1      -9.474   5.263   9.125  1.00  0.00    -0.508 OA
ATOM     13  H   UNL     1      -9.501   5.973   9.847  1.00  0.00     0.293 HD
ENDBRANCH   6  12
TORSDOF 3
ENDMDL
MODEL 6
REMARK VINA RESULT:    -4.665      2.144      6.381
REMARK INTER + INTRA:          -5.483
REMARK INTER:                  -5.344
REMARK INTRA:                  -0.139
REMARK UNBOUND:                -0.136
REMARK SMILES O=C([O-])C=Cc1ccc(O)cc1
REMARK SMILES IDX 6 1 7 2 12 3 8 4 11 5 9 6 5 7 4 8 2 9 1 10 3 11 10 12
REMARK H PARENT 10 13
REMARK Flexibility Score: inf
ROOT
ATOM      1  C   UNL     1     -10.186  -1.400  -9.193  1.00  0.00    -0.025 A 
ATOM      2  C   UNL     1      -9.991  -2.168  -8.031  1.00  0.00     0.012 A 
ATOM      3  C   UNL     1      -9.910  -1.983 -10.446  1.00  0.00     0.012 A 
ATOM      4  C   UNL     1      -9.509  -3.477  -8.116  1.00  0.00     0.047 A 
ATOM      5  C   UNL     1      -9.429  -3.294 -10.527  1.00  0.00     0.047 A 
ATOM      6  C   UNL     1      -9.224  -4.043  -9.365  1.00  0.00     0.115 A 
ENDROOT
BRANCH   1   7
ATOM      7  C   UNL     1     -10.709  -0.019  -9.051  1.00  0.00     0.010 C 
ATOM      8  C   UNL     1     -11.726   0.470  -9.774  1.00  0.00     0.025 C 
BRANCH   8   9
ATOM      9  C   UNL     1     -12.206   1.850  -9.607  1.00  0.00     0.064 C 
ATOM     10  O   UNL     1     -13.373   2.150  -9.970  1.00  0.00    -0.545 OA
ATOM     11  O   UNL     1     -11.391   2.832  -9.055  1.00  0.00    -0.545 OA
ENDBRANCH   8   9
ENDBRANCH   1   7
BRANCH   6  12
ATOM     12  O   UNL     1      -8.743  -5.347  -9.461  1.00  0.00    -0.508 OA
ATOM     13  H   UNL     1      -8.294  -5.805  -8.677  1.00  0.00     0.293 HD
ENDBRANCH   6  12
TORSDOF 3
ENDMDL
MODEL 7
REMARK VINA RESULT:    -4.562     16.425     17.620
REMARK INTER + INTRA:          -5.364
REMARK INTER:                  -5.216
REMARK INTRA:                  -0.149
REMARK UNBOUND:                -0.136
REMARK SMILES O=C([O-])C=Cc1ccc(O)cc1
REMARK SMILES IDX 6 1 7 2 12 3 8 4 11 5 9 6 5 7 4 8 2 9 1 10 3 11 10 12
REMARK H PARENT 10 13
REMARK Flexibility Score: inf
ROOT
ATOM      1  C   UNL     1      -9.960   6.481   6.248  1.00  0.00    -0.025 A 
ATOM      2  C   UNL     1      -9.497   5.751   7.358  1.00  0.00     0.012 A 
ATOM      3  C   UNL     1     -11.251   6.215   5.750  1.00  0.00     0.012 A 
ATOM      4  C   UNL     1     -10.295   4.763   7.941  1.00  0.00     0.047 A 
ATOM      5  C   UNL     1     -12.046   5.225   6.337  1.00  0.00     0.047 A 
ATOM      6  C   UNL     1     -11.571   4.495   7.430  1.00  0.00     0.115 A 
ENDROOT
BRANCH   1   7
ATOM      7  C   UNL     1      -9.080   7.527   5.671  1.00  0.00     0.010 C 
ATOM      8  C   UNL     1      -8.324   8.354   6.406  1.00  0.00     0.025 C 
BRANCH   8   9
ATOM      9  C   UNL     1      -7.474   9.385   5.792  1.00  0.00     0.064 C 
ATOM     10  O   UNL     1      -7.648   9.694   4.584  1.00  0.00    -0.545 OA
ATOM     11  O   UNL     1      -6.480  10.026   6.523  1.00  0.00    -0.545 OA
ENDBRANCH   8   9
ENDBRANCH   1   7
BRANCH   6  12
ATOM     12  O   UNL     1     -12.374   3.512   8.003  1.00  0.00    -0.508 OA
ATOM     13  H   UNL     1     -13.335   3.698   8.263  1.00  0.00     0.293 HD
ENDBRANCH   6  12
TORSDOF 3
ENDMDL
MODEL 8
REMARK VINA RESULT:    -4.286     16.093     17.134
REMARK INTER + INTRA:          -5.048
REMARK INTER:                  -4.899
REMARK INTRA:                  -0.149
REMARK UNBOUND:                -0.136
REMARK SMILES O=C([O-])C=Cc1ccc(O)cc1
REMARK SMILES IDX 6 1 7 2 12 3 8 4 11 5 9 6 5 7 4 8 2 9 1 10 3 11 10 12
REMARK H PARENT 10 13
REMARK Flexibility Score: inf
ROOT
ATOM      1  C   UNL     1     -12.025   6.758   6.151  1.00  0.00    -0.025 A 
ATOM      2  C   UNL     1     -12.883   5.646   6.226  1.00  0.00     0.012 A 
ATOM      3  C   UNL     1     -10.670   6.596   6.505  1.00  0.00     0.012 A 
ATOM      4  C   UNL     1     -12.407   4.408   6.666  1.00  0.00     0.047 A 
ATOM      5  C   UNL     1     -10.198   5.354   6.944  1.00  0.00     0.047 A 
ATOM      6  C   UNL     1     -11.062   4.260   7.030  1.00  0.00     0.115 A 
ENDROOT
BRANCH   1   7
ATOM      7  C   UNL     1     -12.576   8.048   5.666  1.00  0.00     0.010 C 
ATOM      8  C   UNL     1     -13.664   8.149   4.891  1.00  0.00     0.025 C 
BRANCH   8   9
ATOM      9  C   UNL     1     -14.169   9.449   4.425  1.00  0.00     0.064 C 
ATOM     10  O   UNL     1     -15.025  10.066   5.112  1.00  0.00    -0.545 OA
ATOM     11  O   UNL     1     -13.717  10.011   3.236  1.00  0.00    -0.545 OA
ENDBRANCH   8   9
ENDBRANCH   1   7
BRANCH   6  12
ATOM     12  O   UNL     1     -10.577   3.031   7.471  1.00  0.00    -0.508 OA
ATOM     13  H   UNL     1     -10.004   2.444   6.877  1.00  0.00     0.293 HD
ENDBRANCH   6  12
TORSDOF 3
ENDMDL
MODEL 9
REMARK VINA RESULT:    -3.790     17.885     19.389
REMARK INTER + INTRA:          -4.480
REMARK INTER:                  -4.337
REMARK INTRA:                  -0.143
REMARK UNBOUND:                -0.136
REMARK SMILES O=C([O-])C=Cc1ccc(O)cc1
REMARK SMILES IDX 6 1 7 2 12 3 8 4 11 5 9 6 5 7 4 8 2 9 1 10 3 11 10 12
REMARK H PARENT 10 13
REMARK Flexibility Score: inf
ROOT
ATOM      1  C   UNL     1      -8.306  11.378   6.338  1.00  0.00    -0.025 A 
ATOM      2  C   UNL     1      -7.607  11.762   7.497  1.00  0.00     0.012 A 
ATOM      3  C   UNL     1      -7.643  10.593   5.374  1.00  0.00     0.012 A 
ATOM      4  C   UNL     1      -6.271  11.392   7.677  1.00  0.00     0.047 A 
ATOM      5  C   UNL     1      -6.306  10.224   5.559  1.00  0.00     0.047 A 
ATOM      6  C   UNL     1      -5.616  10.624   6.706  1.00  0.00     0.115 A 
ENDROOT
BRANCH   1   7
ATOM      7  C   UNL     1      -9.725  11.787   6.198  1.00  0.00     0.010 C 
ATOM      8  C   UNL     1     -10.593  11.193   5.367  1.00  0.00     0.025 C 
BRANCH   8   9
ATOM      9  C   UNL     1     -11.990  11.639   5.252  1.00  0.00     0.064 C 
ATOM     10  O   UNL     1     -12.642  11.913   6.294  1.00  0.00    -0.545 OA
ATOM     11  O   UNL     1     -12.604  11.764   4.011  1.00  0.00    -0.545 OA
ENDBRANCH   8   9
ENDBRANCH   1   7
BRANCH   6  12
ATOM     12  O   UNL     1      -4.285  10.250   6.875  1.00  0.00    -0.508 OA
ATOM     13  H   UNL     1      -3.818   9.642   6.213  1.00  0.00     0.293 HD
ENDBRANCH   6  12
TORSDOF 3
ENDMDL
