MODEL 1
REMARK VINA RESULT:    -2.957      0.000      0.000
REMARK INTER + INTRA:         -12.850
REMARK INTER:                  -7.452
REMARK INTRA:                  -5.398
REMARK UNBOUND:                -5.398
REMARK SMILES CCCCCCCCCCCCCCCCCCCCCCCCCCCC(=O)[O-]
REMARK SMILES IDX 15 1 16 2 17 3 18 4 19 5 20 6 21 7 22 8 23 9 24 10 25 11
REMARK SMILES IDX 26 12 27 13 28 14 29 15 30 16 14 17 13 18 12 19 11 20 10 21
REMARK SMILES IDX 9 22 8 23 7 24 6 25 5 26 4 27 3 28 2 29 1 30
REMARK H PARENT
REMARK Flexibility Score: inf
ROOT
ATOM      1  C   UNL     1      -1.229   4.859  39.094  1.00  0.00     0.000 C 
ENDROOT
BRANCH   1   2
ATOM      2  C   UNL     1      -2.652   5.436  39.020  1.00  0.00     0.000 C 
BRANCH   2   3
ATOM      3  C   UNL     1      -3.158   5.941  40.382  1.00  0.00     0.000 C 
BRANCH   3   4
ATOM      4  C   UNL     1      -3.596   7.415  40.344  1.00  0.00     0.000 C 
BRANCH   4   5
ATOM      5  C   UNL     1      -2.687   8.344  39.517  1.00  0.00     0.000 C 
BRANCH   5   6
ATOM      6  C   UNL     1      -1.342   8.669  40.200  1.00  0.00     0.000 C 
BRANCH   6   7
ATOM      7  C   UNL     1      -0.194   8.820  39.188  1.00  0.00     0.000 C 
BRANCH   7   8
ATOM      8  C   UNL     1      -0.657   8.457  37.773  1.00  0.00     0.000 C 
BRANCH   8   9
ATOM      9  C   UNL     1       0.532   8.034  36.896  1.00  0.00     0.000 C 
BRANCH   9  10
ATOM     10  C   UNL     1       0.088   7.371  35.582  1.00  0.00     0.000 C 
BRANCH  10  11
ATOM     11  C   UNL     1      -0.695   6.067  35.813  1.00  0.00     0.000 C 
BRANCH  11  12
ATOM     12  C   UNL     1      -1.299   5.500  34.515  1.00  0.00     0.006 C 
BRANCH  12  13
ATOM     13  C   UNL     1      -1.081   3.991  34.320  1.00  0.00     0.053 C 
BRANCH  13  14
ATOM     14  C   UNL     1      -1.539   3.198  35.506  1.00  0.00     0.041 C 
ATOM     15  O   UNL     1      -0.798   2.308  35.998  1.00  0.00    -0.550 OA
ATOM     16  O   UNL     1      -2.794   3.427  36.053  1.00  0.00    -0.550 OA
ENDBRANCH  13  14
ENDBRANCH  12  13
ENDBRANCH  11  12
ENDBRANCH  10  11
ENDBRANCH   9  10
ENDBRANCH   8   9
ENDBRANCH   7   8
ENDBRANCH   6   7
ENDBRANCH   5   6
ENDBRANCH   4   5
ENDBRANCH   3   4
ENDBRANCH   2   3
ENDBRANCH   1   2
BRANCH   1  17
ATOM     17  C   UNL     1      -0.791   4.546  40.534  1.00  0.00     0.000 C 
BRANCH  17  18
ATOM     18  C   UNL     1       0.728   4.684  40.739  1.00  0.00     0.000 C 
BRANCH  18  19
ATOM     19  C   UNL     1       1.328   6.052  40.356  1.00  0.00     0.000 C 
BRANCH  19  20
ATOM     20  C   UNL     1       2.358   6.026  39.212  1.00  0.00     0.000 C 
BRANCH  20  21
ATOM     21  C   UNL     1       3.325   4.833  39.305  1.00  0.00     0.000 C 
BRANCH  21  22
ATOM     22  C   UNL     1       3.234   3.900  38.087  1.00  0.00    -0.000 C 
BRANCH  22  23
ATOM     23  C   UNL     1       2.068   4.259  37.148  1.00  0.00    -0.000 C 
BRANCH  23  24
ATOM     24  C   UNL     1       2.302   3.769  35.710  1.00  0.00    -0.000 C 
BRANCH  24  25
ATOM     25  C   UNL     1       2.838   4.878  34.788  1.00  0.00    -0.000 C 
BRANCH  25  26
ATOM     26  C   UNL     1       2.358   4.725  33.333  1.00  0.00    -0.000 C 
BRANCH  26  27
ATOM     27  C   UNL     1       1.843   6.024  32.680  1.00  0.00    -0.000 C 
BRANCH  27  28
ATOM     28  C   UNL     1       1.274   5.862  31.256  1.00  0.00    -0.000 C 
BRANCH  28  29
ATOM     29  C   UNL     1       0.507   4.551  31.013  1.00  0.00    -0.003 C 
ATOM     30  C   UNL     1       0.305   4.248  29.528  1.00  0.00     0.004 C 
ENDBRANCH  28  29
ENDBRANCH  27  28
ENDBRANCH  26  27
ENDBRANCH  25  26
ENDBRANCH  24  25
ENDBRANCH  23  24
ENDBRANCH  22  23
ENDBRANCH  21  22
ENDBRANCH  20  21
ENDBRANCH  19  20
ENDBRANCH  18  19
ENDBRANCH  17  18
ENDBRANCH   1  17
TORSDOF 26
ENDMDL
MODEL 2
REMARK VINA RESULT:    -2.809      5.261     10.687
REMARK INTER + INTRA:         -12.476
REMARK INTER:                  -7.176
REMARK INTRA:                  -5.301
REMARK UNBOUND:                -5.398
REMARK SMILES CCCCCCCCCCCCCCCCCCCCCCCCCCCC(=O)[O-]
REMARK SMILES IDX 15 1 16 2 17 3 18 4 19 5 20 6 21 7 22 8 23 9 24 10 25 11
REMARK SMILES IDX 26 12 27 13 28 14 29 15 30 16 14 17 13 18 12 19 11 20 10 21
REMARK SMILES IDX 9 22 8 23 7 24 6 25 5 26 4 27 3 28 2 29 1 30
REMARK H PARENT
REMARK Flexibility Score: inf
ROOT
ATOM      1  C   UNL     1      -2.198   4.274  26.973  1.00  0.00     0.000 C 
ENDROOT
BRANCH   1   2
ATOM      2  C   UNL     1      -2.801   2.870  26.799  1.00  0.00     0.000 C 
BRANCH   2   3
ATOM      3  C   UNL     1      -1.943   1.772  27.450  1.00  0.00     0.000 C 
BRANCH   3   4
ATOM      4  C   UNL     1      -0.830   1.258  26.520  1.00  0.00     0.000 C 
BRANCH   4   5
ATOM      5  C   UNL     1       0.568   1.849  26.788  1.00  0.00     0.000 C 
BRANCH   5   6
ATOM      6  C   UNL     1       1.055   1.665  28.240  1.00  0.00     0.000 C 
BRANCH   6   7
ATOM      7  C   UNL     1       1.508   2.988  28.877  1.00  0.00     0.000 C 
BRANCH   7   8
ATOM      8  C   UNL     1       0.421   3.560  29.792  1.00  0.00     0.000 C 
BRANCH   8   9
ATOM      9  C   UNL     1       0.116   5.024  29.439  1.00  0.00     0.000 C 
BRANCH   9  10
ATOM     10  C   UNL     1       1.391   5.865  29.261  1.00  0.00     0.000 C 
BRANCH  10  11
ATOM     11  C   UNL     1       1.248   7.284  29.840  1.00  0.00     0.000 C 
BRANCH  11  12
ATOM     12  C   UNL     1       0.882   7.280  31.336  1.00  0.00     0.006 C 
BRANCH  12  13
ATOM     13  C   UNL     1       1.811   6.430  32.216  1.00  0.00     0.053 C 
BRANCH  13  14
ATOM     14  C   UNL     1       1.091   5.843  33.391  1.00  0.00     0.041 C 
ATOM     15  O   UNL     1       0.627   6.592  34.289  1.00  0.00    -0.550 OA
ATOM     16  O   UNL     1       0.956   4.466  33.507  1.00  0.00    -0.550 OA
ENDBRANCH  13  14
ENDBRANCH  12  13
ENDBRANCH  11  12
ENDBRANCH  10  11
ENDBRANCH   9  10
ENDBRANCH   8   9
ENDBRANCH   7   8
ENDBRANCH   6   7
ENDBRANCH   5   6
ENDBRANCH   4   5
ENDBRANCH   3   4
ENDBRANCH   2   3
ENDBRANCH   1   2
BRANCH   1  17
ATOM     17  C   UNL     1      -1.616   4.835  25.666  1.00  0.00     0.000 C 
BRANCH  17  18
ATOM     18  C   UNL     1      -0.189   5.385  25.836  1.00  0.00     0.000 C 
BRANCH  18  19
ATOM     19  C   UNL     1      -0.084   6.915  26.007  1.00  0.00     0.000 C 
BRANCH  19  20
ATOM     20  C   UNL     1       0.298   7.698  24.737  1.00  0.00     0.000 C 
BRANCH  20  21
ATOM     21  C   UNL     1       1.197   8.912  25.029  1.00  0.00     0.000 C 
BRANCH  21  22
ATOM     22  C   UNL     1       1.844   8.847  26.421  1.00  0.00    -0.000 C 
BRANCH  22  23
ATOM     23  C   UNL     1       3.377   8.719  26.360  1.00  0.00    -0.000 C 
BRANCH  23  24
ATOM     24  C   UNL     1       3.869   7.342  26.834  1.00  0.00    -0.000 C 
BRANCH  24  25
ATOM     25  C   UNL     1       3.586   6.229  25.810  1.00  0.00    -0.000 C 
BRANCH  25  26
ATOM     26  C   UNL     1       3.511   4.833  26.456  1.00  0.00    -0.000 C 
BRANCH  26  27
ATOM     27  C   UNL     1       3.462   3.658  25.459  1.00  0.00    -0.000 C 
BRANCH  27  28
ATOM     28  C   UNL     1       4.440   2.503  25.756  1.00  0.00    -0.000 C 
BRANCH  28  29
ATOM     29  C   UNL     1       5.232   2.649  27.066  1.00  0.00    -0.003 C 
ATOM     30  C   UNL     1       4.848   1.602  28.112  1.00  0.00     0.004 C 
ENDBRANCH  28  29
ENDBRANCH  27  28
ENDBRANCH  26  27
ENDBRANCH  25  26
ENDBRANCH  24  25
ENDBRANCH  23  24
ENDBRANCH  22  23
ENDBRANCH  21  22
ENDBRANCH  20  21
ENDBRANCH  19  20
ENDBRANCH  18  19
ENDBRANCH  17  18
ENDBRANCH   1  17
TORSDOF 26
ENDMDL
MODEL 3
REMARK VINA RESULT:    -2.801      3.034      5.512
REMARK INTER + INTRA:         -12.456
REMARK INTER:                  -7.800
REMARK INTRA:                  -4.656
REMARK UNBOUND:                -5.398
REMARK SMILES CCCCCCCCCCCCCCCCCCCCCCCCCCCC(=O)[O-]
REMARK SMILES IDX 15 1 16 2 17 3 18 4 19 5 20 6 21 7 22 8 23 9 24 10 25 11
REMARK SMILES IDX 26 12 27 13 28 14 29 15 30 16 14 17 13 18 12 19 11 20 10 21
REMARK SMILES IDX 9 22 8 23 7 24 6 25 5 26 4 27 3 28 2 29 1 30
REMARK H PARENT
REMARK Flexibility Score: inf
ROOT
ATOM      1  C   UNL     1      -1.269   4.823  39.173  1.00  0.00     0.000 C 
ENDROOT
BRANCH   1   2
ATOM      2  C   UNL     1      -2.672   5.410  38.946  1.00  0.00     0.000 C 
BRANCH   2   3
ATOM      3  C   UNL     1      -3.508   5.464  40.236  1.00  0.00     0.000 C 
BRANCH   3   4
ATOM      4  C   UNL     1      -3.999   6.883  40.568  1.00  0.00     0.000 C 
BRANCH   4   5
ATOM      5  C   UNL     1      -2.974   8.005  40.310  1.00  0.00     0.000 C 
BRANCH   5   6
ATOM      6  C   UNL     1      -1.845   8.069  41.359  1.00  0.00     0.000 C 
BRANCH   6   7
ATOM      7  C   UNL     1      -0.496   8.472  40.742  1.00  0.00     0.000 C 
BRANCH   7   8
ATOM      8  C   UNL     1      -0.688   9.079  39.348  1.00  0.00     0.000 C 
BRANCH   8   9
ATOM      9  C   UNL     1       0.059   8.261  38.283  1.00  0.00     0.000 C 
BRANCH   9  10
ATOM     10  C   UNL     1      -0.805   7.978  37.043  1.00  0.00     0.000 C 
BRANCH  10  11
ATOM     11  C   UNL     1      -0.157   6.957  36.093  1.00  0.00     0.000 C 
BRANCH  11  12
ATOM     12  C   UNL     1       1.175   6.404  36.634  1.00  0.00     0.006 C 
BRANCH  12  13
ATOM     13  C   UNL     1       1.389   4.903  36.380  1.00  0.00     0.053 C 
BRANCH  13  14
ATOM     14  C   UNL     1       2.571   4.646  35.495  1.00  0.00     0.041 C 
ATOM     15  O   UNL     1       3.657   4.246  35.988  1.00  0.00    -0.550 OA
ATOM     16  O   UNL     1       2.478   4.872  34.129  1.00  0.00    -0.550 OA
ENDBRANCH  13  14
ENDBRANCH  12  13
ENDBRANCH  11  12
ENDBRANCH  10  11
ENDBRANCH   9  10
ENDBRANCH   8   9
ENDBRANCH   7   8
ENDBRANCH   6   7
ENDBRANCH   5   6
ENDBRANCH   4   5
ENDBRANCH   3   4
ENDBRANCH   2   3
ENDBRANCH   1   2
BRANCH   1  17
ATOM     17  C   UNL     1      -1.012   4.457  40.644  1.00  0.00     0.000 C 
BRANCH  17  18
ATOM     18  C   UNL     1       0.378   4.899  41.135  1.00  0.00     0.000 C 
BRANCH  18  19
ATOM     19  C   UNL     1       1.399   5.229  40.026  1.00  0.00     0.000 C 
BRANCH  19  20
ATOM     20  C   UNL     1       2.612   4.283  39.942  1.00  0.00     0.000 C 
BRANCH  20  21
ATOM     21  C   UNL     1       3.889   4.991  39.457  1.00  0.00     0.000 C 
BRANCH  21  22
ATOM     22  C   UNL     1       5.128   4.604  40.280  1.00  0.00    -0.000 C 
BRANCH  22  23
ATOM     23  C   UNL     1       5.774   3.291  39.803  1.00  0.00    -0.000 C 
BRANCH  23  24
ATOM     24  C   UNL     1       6.641   3.487  38.549  1.00  0.00    -0.000 C 
BRANCH  24  25
ATOM     25  C   UNL     1       8.141   3.288  38.830  1.00  0.00    -0.000 C 
BRANCH  25  26
ATOM     26  C   UNL     1       9.008   4.425  38.260  1.00  0.00    -0.000 C 
BRANCH  26  27
ATOM     27  C   UNL     1       9.520   5.437  39.306  1.00  0.00    -0.000 C 
BRANCH  27  28
ATOM     28  C   UNL     1       8.505   6.521  39.723  1.00  0.00    -0.000 C 
BRANCH  28  29
ATOM     29  C   UNL     1       8.284   6.647  41.240  1.00  0.00    -0.003 C 
ATOM     30  C   UNL     1       8.395   5.308  41.970  1.00  0.00     0.004 C 
ENDBRANCH  28  29
ENDBRANCH  27  28
ENDBRANCH  26  27
ENDBRANCH  25  26
ENDBRANCH  24  25
ENDBRANCH  23  24
ENDBRANCH  22  23
ENDBRANCH  21  22
ENDBRANCH  20  21
ENDBRANCH  19  20
ENDBRANCH  18  19
ENDBRANCH  17  18
ENDBRANCH   1  17
TORSDOF 26
ENDMDL
MODEL 4
REMARK VINA RESULT:    -2.796      6.238     10.883
REMARK INTER + INTRA:         -12.443
REMARK INTER:                  -7.646
REMARK INTRA:                  -4.798
REMARK UNBOUND:                -5.398
REMARK SMILES CCCCCCCCCCCCCCCCCCCCCCCCCCCC(=O)[O-]
REMARK SMILES IDX 15 1 16 2 17 3 18 4 19 5 20 6 21 7 22 8 23 9 24 10 25 11
REMARK SMILES IDX 26 12 27 13 28 14 29 15 30 16 14 17 13 18 12 19 11 20 10 21
REMARK SMILES IDX 9 22 8 23 7 24 6 25 5 26 4 27 3 28 2 29 1 30
REMARK H PARENT
REMARK Flexibility Score: inf
ROOT
ATOM      1  C   UNL     1       0.990   7.922  27.053  1.00  0.00     0.000 C 
ENDROOT
BRANCH   1   2
ATOM      2  C   UNL     1       1.156   8.250  25.560  1.00  0.00     0.000 C 
BRANCH   2   3
ATOM      3  C   UNL     1       0.380   7.281  24.651  1.00  0.00     0.000 C 
BRANCH   3   4
ATOM      4  C   UNL     1      -0.915   6.764  25.300  1.00  0.00     0.000 C 
BRANCH   4   5
ATOM      5  C   UNL     1      -1.192   5.263  25.095  1.00  0.00     0.000 C 
BRANCH   5   6
ATOM      6  C   UNL     1      -2.017   4.621  26.231  1.00  0.00     0.000 C 
BRANCH   6   7
ATOM      7  C   UNL     1      -1.730   3.118  26.383  1.00  0.00     0.000 C 
BRANCH   7   8
ATOM      8  C   UNL     1      -2.148   2.617  27.769  1.00  0.00     0.000 C 
BRANCH   8   9
ATOM      9  C   UNL     1      -2.785   3.745  28.595  1.00  0.00     0.000 C 
BRANCH   9  10
ATOM     10  C   UNL     1      -4.026   3.277  29.373  1.00  0.00     0.000 C 
BRANCH  10  11
ATOM     11  C   UNL     1      -5.252   3.079  28.465  1.00  0.00     0.000 C 
BRANCH  11  12
ATOM     12  C   UNL     1      -5.707   1.610  28.394  1.00  0.00     0.006 C 
BRANCH  12  13
ATOM     13  C   UNL     1      -5.408   0.790  29.659  1.00  0.00     0.053 C 
BRANCH  13  14
ATOM     14  C   UNL     1      -6.559   0.797  30.618  1.00  0.00     0.041 C 
ATOM     15  O   UNL     1      -6.350   0.752  31.859  1.00  0.00    -0.550 OA
ATOM     16  O   UNL     1      -7.862   0.827  30.141  1.00  0.00    -0.550 OA
ENDBRANCH  13  14
ENDBRANCH  12  13
ENDBRANCH  11  12
ENDBRANCH  10  11
ENDBRANCH   9  10
ENDBRANCH   8   9
ENDBRANCH   7   8
ENDBRANCH   6   7
ENDBRANCH   5   6
ENDBRANCH   4   5
ENDBRANCH   3   4
ENDBRANCH   2   3
ENDBRANCH   1   2
BRANCH   1  17
ATOM     17  C   UNL     1       2.338   7.780  27.780  1.00  0.00     0.000 C 
BRANCH  17  18
ATOM     18  C   UNL     1       3.522   8.306  26.950  1.00  0.00     0.000 C 
BRANCH  18  19
ATOM     19  C   UNL     1       4.565   7.247  26.537  1.00  0.00     0.000 C 
BRANCH  19  20
ATOM     20  C   UNL     1       4.086   5.785  26.609  1.00  0.00     0.000 C 
BRANCH  20  21
ATOM     21  C   UNL     1       3.516   5.276  25.273  1.00  0.00     0.000 C 
BRANCH  21  22
ATOM     22  C   UNL     1       2.425   4.211  25.464  1.00  0.00    -0.000 C 
BRANCH  22  23
ATOM     23  C   UNL     1       1.728   4.310  26.833  1.00  0.00    -0.000 C 
BRANCH  23  24
ATOM     24  C   UNL     1       1.738   2.973  27.593  1.00  0.00    -0.000 C 
BRANCH  24  25
ATOM     25  C   UNL     1       1.326   3.129  29.067  1.00  0.00    -0.000 C 
BRANCH  25  26
ATOM     26  C   UNL     1       0.660   4.487  29.358  1.00  0.00    -0.000 C 
BRANCH  26  27
ATOM     27  C   UNL     1       0.115   4.649  30.792  1.00  0.00    -0.000 C 
BRANCH  27  28
ATOM     28  C   UNL     1       1.021   5.445  31.753  1.00  0.00    -0.000 C 
BRANCH  28  29
ATOM     29  C   UNL     1       0.509   6.852  32.106  1.00  0.00    -0.003 C 
ATOM     30  C   UNL     1       0.983   7.920  31.120  1.00  0.00     0.004 C 
ENDBRANCH  28  29
ENDBRANCH  27  28
ENDBRANCH  26  27
ENDBRANCH  25  26
ENDBRANCH  24  25
ENDBRANCH  23  24
ENDBRANCH  22  23
ENDBRANCH  21  22
ENDBRANCH  20  21
ENDBRANCH  19  20
ENDBRANCH  18  19
ENDBRANCH  17  18
ENDBRANCH   1  17
TORSDOF 26
ENDMDL
MODEL 5
REMARK VINA RESULT:    -2.758      5.450      9.885
REMARK INTER + INTRA:         -12.349
REMARK INTER:                  -7.107
REMARK INTRA:                  -5.242
REMARK UNBOUND:                -5.398
REMARK SMILES CCCCCCCCCCCCCCCCCCCCCCCCCCCC(=O)[O-]
REMARK SMILES IDX 15 1 16 2 17 3 18 4 19 5 20 6 21 7 22 8 23 9 24 10 25 11
REMARK SMILES IDX 26 12 27 13 28 14 29 15 30 16 14 17 13 18 12 19 11 20 10 21
REMARK SMILES IDX 9 22 8 23 7 24 6 25 5 26 4 27 3 28 2 29 1 30
REMARK H PARENT
REMARK Flexibility Score: inf
ROOT
ATOM      1  C   UNL     1       2.348   4.766  26.265  1.00  0.00     0.000 C 
ENDROOT
BRANCH   1   2
ATOM      2  C   UNL     1       2.433   4.916  27.793  1.00  0.00     0.000 C 
BRANCH   2   3
ATOM      3  C   UNL     1       1.200   4.344  28.514  1.00  0.00     0.000 C 
BRANCH   3   4
ATOM      4  C   UNL     1       0.460   5.400  29.354  1.00  0.00     0.000 C 
BRANCH   4   5
ATOM      5  C   UNL     1       1.328   6.582  29.826  1.00  0.00     0.000 C 
BRANCH   5   6
ATOM      6  C   UNL     1       1.387   6.737  31.360  1.00  0.00     0.000 C 
BRANCH   6   7
ATOM      7  C   UNL     1       0.354   5.854  32.077  1.00  0.00     0.000 C 
BRANCH   7   8
ATOM      8  C   UNL     1       0.978   5.145  33.284  1.00  0.00     0.000 C 
BRANCH   8   9
ATOM      9  C   UNL     1       0.674   3.639  33.258  1.00  0.00     0.000 C 
BRANCH   9  10
ATOM     10  C   UNL     1       1.212   2.951  31.992  1.00  0.00     0.000 C 
BRANCH  10  11
ATOM     11  C   UNL     1       0.182   2.004  31.352  1.00  0.00     0.000 C 
BRANCH  11  12
ATOM     12  C   UNL     1      -1.200   2.662  31.176  1.00  0.00     0.006 C 
BRANCH  12  13
ATOM     13  C   UNL     1      -2.338   1.962  31.935  1.00  0.00     0.053 C 
BRANCH  13  14
ATOM     14  C   UNL     1      -3.341   1.349  31.005  1.00  0.00     0.041 C 
ATOM     15  O   UNL     1      -4.372   1.989  30.675  1.00  0.00    -0.550 OA
ATOM     16  O   UNL     1      -3.147   0.061  30.525  1.00  0.00    -0.550 OA
ENDBRANCH  13  14
ENDBRANCH  12  13
ENDBRANCH  11  12
ENDBRANCH  10  11
ENDBRANCH   9  10
ENDBRANCH   8   9
ENDBRANCH   7   8
ENDBRANCH   6   7
ENDBRANCH   5   6
ENDBRANCH   4   5
ENDBRANCH   3   4
ENDBRANCH   2   3
ENDBRANCH   1   2
BRANCH   1  17
ATOM     17  C   UNL     1       3.321   5.698  25.524  1.00  0.00     0.000 C 
BRANCH  17  18
ATOM     18  C   UNL     1       4.121   6.605  26.477  1.00  0.00     0.000 C 
BRANCH  18  19
ATOM     19  C   UNL     1       3.865   8.118  26.322  1.00  0.00     0.000 C 
BRANCH  19  20
ATOM     20  C   UNL     1       3.250   8.814  27.551  1.00  0.00     0.000 C 
BRANCH  20  21
ATOM     21  C   UNL     1       1.739   9.063  27.404  1.00  0.00     0.000 C 
BRANCH  21  22
ATOM     22  C   UNL     1       1.208   8.674  26.016  1.00  0.00    -0.000 C 
BRANCH  22  23
ATOM     23  C   UNL     1       0.055   7.656  26.082  1.00  0.00    -0.000 C 
BRANCH  23  24
ATOM     24  C   UNL     1      -0.348   7.137  24.692  1.00  0.00    -0.000 C 
BRANCH  24  25
ATOM     25  C   UNL     1      -1.203   5.859  24.764  1.00  0.00    -0.000 C 
BRANCH  25  26
ATOM     26  C   UNL     1      -1.477   5.407  26.210  1.00  0.00    -0.000 C 
BRANCH  26  27
ATOM     27  C   UNL     1      -2.183   4.042  26.341  1.00  0.00    -0.000 C 
BRANCH  27  28
ATOM     28  C   UNL     1      -1.246   2.817  26.358  1.00  0.00    -0.000 C 
BRANCH  28  29
ATOM     29  C   UNL     1      -1.437   1.876  27.560  1.00  0.00    -0.003 C 
ATOM     30  C   UNL     1      -2.188   0.595  27.197  1.00  0.00     0.004 C 
ENDBRANCH  28  29
ENDBRANCH  27  28
ENDBRANCH  26  27
ENDBRANCH  25  26
ENDBRANCH  24  25
ENDBRANCH  23  24
ENDBRANCH  22  23
ENDBRANCH  21  22
ENDBRANCH  20  21
ENDBRANCH  19  20
ENDBRANCH  18  19
ENDBRANCH  17  18
ENDBRANCH   1  17
TORSDOF 26
ENDMDL
MODEL 6
REMARK VINA RESULT:    -2.755      1.982      4.402
REMARK INTER + INTRA:         -12.340
REMARK INTER:                  -6.387
REMARK INTRA:                  -5.953
REMARK UNBOUND:                -5.398
REMARK SMILES CCCCCCCCCCCCCCCCCCCCCCCCCCCC(=O)[O-]
REMARK SMILES IDX 15 1 16 2 17 3 18 4 19 5 20 6 21 7 22 8 23 9 24 10 25 11
REMARK SMILES IDX 26 12 27 13 28 14 29 15 30 16 14 17 13 18 12 19 11 20 10 21
REMARK SMILES IDX 9 22 8 23 7 24 6 25 5 26 4 27 3 28 2 29 1 30
REMARK H PARENT
REMARK Flexibility Score: inf
ROOT
ATOM      1  C   UNL     1      -0.511   8.350  38.401  1.00  0.00     0.000 C 
ENDROOT
BRANCH   1   2
ATOM      2  C   UNL     1      -1.443   9.125  39.346  1.00  0.00     0.000 C 
BRANCH   2   3
ATOM      3  C   UNL     1      -2.919   8.717  39.189  1.00  0.00     0.000 C 
BRANCH   3   4
ATOM      4  C   UNL     1      -3.427   7.862  40.362  1.00  0.00     0.000 C 
BRANCH   4   5
ATOM      5  C   UNL     1      -2.416   7.657  41.506  1.00  0.00     0.000 C 
BRANCH   5   6
ATOM      6  C   UNL     1      -1.951   6.195  41.672  1.00  0.00     0.000 C 
BRANCH   6   7
ATOM      7  C   UNL     1      -2.324   5.323  40.462  1.00  0.00     0.000 C 
BRANCH   7   8
ATOM      8  C   UNL     1      -1.080   4.668  39.852  1.00  0.00     0.000 C 
BRANCH   8   9
ATOM      9  C   UNL     1      -1.181   4.613  38.319  1.00  0.00     0.000 C 
BRANCH   9  10
ATOM     10  C   UNL     1      -2.512   5.176  37.795  1.00  0.00     0.000 C 
BRANCH  10  11
ATOM     11  C   UNL     1      -2.408   5.687  36.348  1.00  0.00     0.000 C 
BRANCH  11  12
ATOM     12  C   UNL     1      -1.090   5.276  35.667  1.00  0.00     0.006 C 
BRANCH  12  13
ATOM     13  C   UNL     1      -1.253   4.251  34.534  1.00  0.00     0.053 C 
BRANCH  13  14
ATOM     14  C   UNL     1      -1.373   2.851  35.054  1.00  0.00     0.041 C 
ATOM     15  O   UNL     1      -2.496   2.286  35.101  1.00  0.00    -0.550 OA
ATOM     16  O   UNL     1      -0.246   2.180  35.511  1.00  0.00    -0.550 OA
ENDBRANCH  13  14
ENDBRANCH  12  13
ENDBRANCH  11  12
ENDBRANCH  10  11
ENDBRANCH   9  10
ENDBRANCH   8   9
ENDBRANCH   7   8
ENDBRANCH   6   7
ENDBRANCH   5   6
ENDBRANCH   4   5
ENDBRANCH   3   4
ENDBRANCH   2   3
ENDBRANCH   1   2
BRANCH   1  17
ATOM     17  C   UNL     1       0.724   7.784  39.122  1.00  0.00     0.000 C 
BRANCH  17  18
ATOM     18  C   UNL     1       1.625   6.948  38.195  1.00  0.00     0.000 C 
BRANCH  18  19
ATOM     19  C   UNL     1       2.406   5.808  38.881  1.00  0.00     0.000 C 
BRANCH  19  20
ATOM     20  C   UNL     1       2.933   4.709  37.940  1.00  0.00     0.000 C 
BRANCH  20  21
ATOM     21  C   UNL     1       2.163   4.639  36.610  1.00  0.00     0.000 C 
BRANCH  21  22
ATOM     22  C   UNL     1       2.878   3.778  35.558  1.00  0.00    -0.000 C 
BRANCH  22  23
ATOM     23  C   UNL     1       4.410   3.810  35.701  1.00  0.00    -0.000 C 
BRANCH  23  24
ATOM     24  C   UNL     1       5.057   2.451  35.389  1.00  0.00    -0.000 C 
BRANCH  24  25
ATOM     25  C   UNL     1       4.416   1.296  36.179  1.00  0.00    -0.000 C 
BRANCH  25  26
ATOM     26  C   UNL     1       4.793   1.316  37.671  1.00  0.00    -0.000 C 
BRANCH  26  27
ATOM     27  C   UNL     1       3.611   1.120  38.642  1.00  0.00    -0.000 C 
BRANCH  27  28
ATOM     28  C   UNL     1       2.222   1.040  37.978  1.00  0.00    -0.000 C 
BRANCH  28  29
ATOM     29  C   UNL     1       1.060   1.549  38.849  1.00  0.00    -0.003 C 
ATOM     30  C   UNL     1       1.529   2.120  40.188  1.00  0.00     0.004 C 
ENDBRANCH  28  29
ENDBRANCH  27  28
ENDBRANCH  26  27
ENDBRANCH  25  26
ENDBRANCH  24  25
ENDBRANCH  23  24
ENDBRANCH  22  23
ENDBRANCH  21  22
ENDBRANCH  20  21
ENDBRANCH  19  20
ENDBRANCH  18  19
ENDBRANCH  17  18
ENDBRANCH   1  17
TORSDOF 26
ENDMDL
MODEL 7
REMARK VINA RESULT:    -2.746      2.737      4.866
REMARK INTER + INTRA:         -12.317
REMARK INTER:                  -8.152
REMARK INTRA:                  -4.165
REMARK UNBOUND:                -5.398
REMARK SMILES CCCCCCCCCCCCCCCCCCCCCCCCCCCC(=O)[O-]
REMARK SMILES IDX 15 1 16 2 17 3 18 4 19 5 20 6 21 7 22 8 23 9 24 10 25 11
REMARK SMILES IDX 26 12 27 13 28 14 29 15 30 16 14 17 13 18 12 19 11 20 10 21
REMARK SMILES IDX 9 22 8 23 7 24 6 25 5 26 4 27 3 28 2 29 1 30
REMARK H PARENT
REMARK Flexibility Score: inf
ROOT
ATOM      1  C   UNL     1      -1.642   4.700  37.850  1.00  0.00     0.000 C 
ENDROOT
BRANCH   1   2
ATOM      2  C   UNL     1      -1.709   5.185  39.307  1.00  0.00     0.000 C 
BRANCH   2   3
ATOM      3  C   UNL     1      -2.635   6.400  39.485  1.00  0.00     0.000 C 
BRANCH   3   4
ATOM      4  C   UNL     1      -1.861   7.714  39.691  1.00  0.00     0.000 C 
BRANCH   4   5
ATOM      5  C   UNL     1      -2.101   8.787  38.611  1.00  0.00     0.000 C 
BRANCH   5   6
ATOM      6  C   UNL     1      -1.012   8.825  37.519  1.00  0.00     0.000 C 
BRANCH   6   7
ATOM      7  C   UNL     1       0.349   8.329  38.033  1.00  0.00     0.000 C 
BRANCH   7   8
ATOM      8  C   UNL     1       0.937   7.268  37.097  1.00  0.00     0.000 C 
BRANCH   8   9
ATOM      9  C   UNL     1       1.666   6.174  37.893  1.00  0.00     0.000 C 
BRANCH   9  10
ATOM     10  C   UNL     1       2.350   5.140  36.983  1.00  0.00     0.000 C 
BRANCH  10  11
ATOM     11  C   UNL     1       1.739   3.735  37.124  1.00  0.00     0.000 C 
BRANCH  11  12
ATOM     12  C   UNL     1       2.503   2.671  36.313  1.00  0.00     0.006 C 
BRANCH  12  13
ATOM     13  C   UNL     1       2.068   2.559  34.843  1.00  0.00     0.053 C 
BRANCH  13  14
ATOM     14  C   UNL     1       3.180   2.901  33.899  1.00  0.00     0.041 C 
ATOM     15  O   UNL     1       3.762   4.013  33.981  1.00  0.00    -0.550 OA
ATOM     16  O   UNL     1       3.556   1.999  32.913  1.00  0.00    -0.550 OA
ENDBRANCH  13  14
ENDBRANCH  12  13
ENDBRANCH  11  12
ENDBRANCH  10  11
ENDBRANCH   9  10
ENDBRANCH   8   9
ENDBRANCH   7   8
ENDBRANCH   6   7
ENDBRANCH   5   6
ENDBRANCH   4   5
ENDBRANCH   3   4
ENDBRANCH   2   3
ENDBRANCH   1   2
BRANCH   1  17
ATOM     17  C   UNL     1      -2.608   5.461  36.928  1.00  0.00     0.000 C 
BRANCH  17  18
ATOM     18  C   UNL     1      -2.010   5.739  35.537  1.00  0.00     0.000 C 
BRANCH  18  19
ATOM     19  C   UNL     1      -1.067   4.647  34.990  1.00  0.00     0.000 C 
BRANCH  19  20
ATOM     20  C   UNL     1      -0.449   4.938  33.610  1.00  0.00     0.000 C 
BRANCH  20  21
ATOM     21  C   UNL     1       0.789   5.849  33.689  1.00  0.00     0.000 C 
BRANCH  21  22
ATOM     22  C   UNL     1       1.320   6.246  32.303  1.00  0.00    -0.000 C 
BRANCH  22  23
ATOM     23  C   UNL     1       0.847   7.642  31.861  1.00  0.00    -0.000 C 
BRANCH  23  24
ATOM     24  C   UNL     1       1.329   8.003  30.447  1.00  0.00    -0.000 C 
BRANCH  24  25
ATOM     25  C   UNL     1       1.272   6.807  29.480  1.00  0.00    -0.000 C 
BRANCH  25  26
ATOM     26  C   UNL     1       1.808   7.150  28.078  1.00  0.00    -0.000 C 
BRANCH  26  27
ATOM     27  C   UNL     1       0.994   8.213  27.313  1.00  0.00    -0.000 C 
BRANCH  27  28
ATOM     28  C   UNL     1       0.254   7.699  26.062  1.00  0.00    -0.000 C 
BRANCH  28  29
ATOM     29  C   UNL     1       1.091   7.700  24.771  1.00  0.00    -0.003 C 
ATOM     30  C   UNL     1       1.637   6.316  24.419  1.00  0.00     0.004 C 
ENDBRANCH  28  29
ENDBRANCH  27  28
ENDBRANCH  26  27
ENDBRANCH  25  26
ENDBRANCH  24  25
ENDBRANCH  23  24
ENDBRANCH  22  23
ENDBRANCH  21  22
ENDBRANCH  20  21
ENDBRANCH  19  20
ENDBRANCH  18  19
ENDBRANCH  17  18
ENDBRANCH   1  17
TORSDOF 26
ENDMDL
MODEL 8
REMARK VINA RESULT:    -2.739      1.933      5.915
REMARK INTER + INTRA:         -12.300
REMARK INTER:                  -6.918
REMARK INTRA:                  -5.383
REMARK UNBOUND:                -5.398
REMARK SMILES CCCCCCCCCCCCCCCCCCCCCCCCCCCC(=O)[O-]
REMARK SMILES IDX 15 1 16 2 17 3 18 4 19 5 20 6 21 7 22 8 23 9 24 10 25 11
REMARK SMILES IDX 26 12 27 13 28 14 29 15 30 16 14 17 13 18 12 19 11 20 10 21
REMARK SMILES IDX 9 22 8 23 7 24 6 25 5 26 4 27 3 28 2 29 1 30
REMARK H PARENT
REMARK Flexibility Score: inf
ROOT
ATOM      1  C   UNL     1       0.936   3.631  38.686  1.00  0.00     0.000 C 
ENDROOT
BRANCH   1   2
ATOM      2  C   UNL     1       1.341   3.935  37.235  1.00  0.00     0.000 C 
BRANCH   2   3
ATOM      3  C   UNL     1       2.674   4.696  37.138  1.00  0.00     0.000 C 
BRANCH   3   4
ATOM      4  C   UNL     1       3.572   4.182  35.999  1.00  0.00     0.000 C 
BRANCH   4   5
ATOM      5  C   UNL     1       2.858   3.306  34.952  1.00  0.00     0.000 C 
BRANCH   5   6
ATOM      6  C   UNL     1       2.861   3.907  33.531  1.00  0.00     0.000 C 
BRANCH   6   7
ATOM      7  C   UNL     1       2.235   5.311  33.489  1.00  0.00     0.000 C 
BRANCH   7   8
ATOM      8  C   UNL     1       1.379   5.495  32.232  1.00  0.00     0.000 C 
BRANCH   8   9
ATOM      9  C   UNL     1      -0.118   5.493  32.578  1.00  0.00     0.000 C 
BRANCH   9  10
ATOM     10  C   UNL     1      -0.373   5.374  34.090  1.00  0.00     0.000 C 
BRANCH  10  11
ATOM     11  C   UNL     1      -1.063   4.052  34.469  1.00  0.00     0.000 C 
BRANCH  11  12
ATOM     12  C   UNL     1      -1.273   3.123  33.259  1.00  0.00     0.006 C 
BRANCH  12  13
ATOM     13  C   UNL     1      -0.270   1.963  33.166  1.00  0.00     0.053 C 
BRANCH  13  14
ATOM     14  C   UNL     1       0.261   1.788  31.776  1.00  0.00     0.041 C 
ATOM     15  O   UNL     1       1.476   1.517  31.591  1.00  0.00    -0.550 OA
ATOM     16  O   UNL     1      -0.581   1.951  30.685  1.00  0.00    -0.550 OA
ENDBRANCH  13  14
ENDBRANCH  12  13
ENDBRANCH  11  12
ENDBRANCH  10  11
ENDBRANCH   9  10
ENDBRANCH   8   9
ENDBRANCH   7   8
ENDBRANCH   6   7
ENDBRANCH   5   6
ENDBRANCH   4   5
ENDBRANCH   3   4
ENDBRANCH   2   3
ENDBRANCH   1   2
BRANCH   1  17
ATOM     17  C   UNL     1       1.790   4.395  39.711  1.00  0.00     0.000 C 
BRANCH  17  18
ATOM     18  C   UNL     1       1.030   5.557  40.374  1.00  0.00     0.000 C 
BRANCH  18  19
ATOM     19  C   UNL     1       1.253   6.944  39.736  1.00  0.00     0.000 C 
BRANCH  19  20
ATOM     20  C   UNL     1       0.338   8.067  40.259  1.00  0.00     0.000 C 
BRANCH  20  21
ATOM     21  C   UNL     1      -0.156   7.818  41.695  1.00  0.00     0.000 C 
BRANCH  21  22
ATOM     22  C   UNL     1      -1.677   7.984  41.834  1.00  0.00    -0.000 C 
BRANCH  22  23
ATOM     23  C   UNL     1      -2.403   7.989  40.477  1.00  0.00    -0.000 C 
BRANCH  23  24
ATOM     24  C   UNL     1      -3.295   6.751  40.285  1.00  0.00    -0.000 C 
BRANCH  24  25
ATOM     25  C   UNL     1      -2.499   5.513  39.837  1.00  0.00    -0.000 C 
BRANCH  25  26
ATOM     26  C   UNL     1      -2.528   5.309  38.311  1.00  0.00    -0.000 C 
BRANCH  26  27
ATOM     27  C   UNL     1      -1.470   6.114  37.528  1.00  0.00    -0.000 C 
BRANCH  27  28
ATOM     28  C   UNL     1      -2.011   7.336  36.760  1.00  0.00    -0.000 C 
BRANCH  28  29
ATOM     29  C   UNL     1      -1.191   8.625  36.938  1.00  0.00    -0.003 C 
ATOM     30  C   UNL     1       0.225   8.509  36.372  1.00  0.00     0.004 C 
ENDBRANCH  28  29
ENDBRANCH  27  28
ENDBRANCH  26  27
ENDBRANCH  25  26
ENDBRANCH  24  25
ENDBRANCH  23  24
ENDBRANCH  22  23
ENDBRANCH  21  22
ENDBRANCH  20  21
ENDBRANCH  19  20
ENDBRANCH  18  19
ENDBRANCH  17  18
ENDBRANCH   1  17
TORSDOF 26
ENDMDL
MODEL 9
REMARK VINA RESULT:    -2.731      2.308      4.654
REMARK INTER + INTRA:         -12.280
REMARK INTER:                  -7.259
REMARK INTRA:                  -5.020
REMARK UNBOUND:                -5.398
REMARK SMILES CCCCCCCCCCCCCCCCCCCCCCCCCCCC(=O)[O-]
REMARK SMILES IDX 15 1 16 2 17 3 18 4 19 5 20 6 21 7 22 8 23 9 24 10 25 11
REMARK SMILES IDX 26 12 27 13 28 14 29 15 30 16 14 17 13 18 12 19 11 20 10 21
REMARK SMILES IDX 9 22 8 23 7 24 6 25 5 26 4 27 3 28 2 29 1 30
REMARK H PARENT
REMARK Flexibility Score: inf
ROOT
ATOM      1  C   UNL     1       1.206   1.477  36.976  1.00  0.00     0.000 C 
ENDROOT
BRANCH   1   2
ATOM      2  C   UNL     1       0.644   2.867  37.314  1.00  0.00     0.000 C 
BRANCH   2   3
ATOM      3  C   UNL     1       0.745   3.199  38.813  1.00  0.00     0.000 C 
BRANCH   3   4
ATOM      4  C   UNL     1       2.019   3.987  39.163  1.00  0.00     0.000 C 
BRANCH   4   5
ATOM      5  C   UNL     1       2.168   5.340  38.441  1.00  0.00     0.000 C 
BRANCH   5   6
ATOM      6  C   UNL     1       1.993   6.562  39.366  1.00  0.00     0.000 C 
BRANCH   6   7
ATOM      7  C   UNL     1       1.013   7.596  38.787  1.00  0.00     0.000 C 
BRANCH   7   8
ATOM      8  C   UNL     1       0.795   7.369  37.288  1.00  0.00     0.000 C 
BRANCH   8   9
ATOM      9  C   UNL     1      -0.702   7.268  36.957  1.00  0.00     0.000 C 
BRANCH   9  10
ATOM     10  C   UNL     1      -1.204   5.815  36.931  1.00  0.00     0.000 C 
BRANCH  10  11
ATOM     11  C   UNL     1      -2.408   5.589  37.861  1.00  0.00     0.000 C 
BRANCH  11  12
ATOM     12  C   UNL     1      -2.017   5.600  39.351  1.00  0.00     0.006 C 
BRANCH  12  13
ATOM     13  C   UNL     1      -2.892   6.506  40.231  1.00  0.00     0.053 C 
BRANCH  13  14
ATOM     14  C   UNL     1      -2.410   7.925  40.231  1.00  0.00     0.041 C 
ATOM     15  O   UNL     1      -1.605   8.321  41.114  1.00  0.00    -0.550 OA
ATOM     16  O   UNL     1      -2.870   8.815  39.271  1.00  0.00    -0.550 OA
ENDBRANCH  13  14
ENDBRANCH  12  13
ENDBRANCH  11  12
ENDBRANCH  10  11
ENDBRANCH   9  10
ENDBRANCH   8   9
ENDBRANCH   7   8
ENDBRANCH   6   7
ENDBRANCH   5   6
ENDBRANCH   4   5
ENDBRANCH   3   4
ENDBRANCH   2   3
ENDBRANCH   1   2
BRANCH   1  17
ATOM     17  C   UNL     1       2.365   1.536  35.968  1.00  0.00     0.000 C 
BRANCH  17  18
ATOM     18  C   UNL     1       3.716   1.859  36.630  1.00  0.00     0.000 C 
BRANCH  18  19
ATOM     19  C   UNL     1       4.467   3.074  36.048  1.00  0.00     0.000 C 
BRANCH  19  20
ATOM     20  C   UNL     1       3.574   4.198  35.491  1.00  0.00     0.000 C 
BRANCH  20  21
ATOM     21  C   UNL     1       3.679   4.344  33.963  1.00  0.00     0.000 C 
BRANCH  21  22
ATOM     22  C   UNL     1       2.305   4.436  33.281  1.00  0.00    -0.000 C 
BRANCH  22  23
ATOM     23  C   UNL     1       1.208   4.969  34.220  1.00  0.00    -0.000 C 
BRANCH  23  24
ATOM     24  C   UNL     1       0.421   6.134  33.599  1.00  0.00    -0.000 C 
BRANCH  24  25
ATOM     25  C   UNL     1       1.231   6.894  32.534  1.00  0.00    -0.000 C 
BRANCH  25  26
ATOM     26  C   UNL     1       0.512   6.959  31.175  1.00  0.00    -0.000 C 
BRANCH  26  27
ATOM     27  C   UNL     1       1.132   6.081  30.069  1.00  0.00    -0.000 C 
BRANCH  27  28
ATOM     28  C   UNL     1       0.490   4.689  29.899  1.00  0.00    -0.000 C 
BRANCH  28  29
ATOM     29  C   UNL     1      -0.878   4.521  30.582  1.00  0.00    -0.003 C 
ATOM     30  C   UNL     1      -1.944   3.955  29.644  1.00  0.00     0.004 C 
ENDBRANCH  28  29
ENDBRANCH  27  28
ENDBRANCH  26  27
ENDBRANCH  25  26
ENDBRANCH  24  25
ENDBRANCH  23  24
ENDBRANCH  22  23
ENDBRANCH  21  22
ENDBRANCH  20  21
ENDBRANCH  19  20
ENDBRANCH  18  19
ENDBRANCH  17  18
ENDBRANCH   1  17
TORSDOF 26
ENDMDL
