MODEL 1
REMARK VINA RESULT:    -4.045      0.000      0.000
REMARK INTER + INTRA:          -6.067
REMARK INTER:                  -6.173
REMARK INTRA:                   0.105
REMARK UNBOUND:                 0.105
REMARK SMILES CC1=CCC[C@@H](C)C(=O)C[C@H](C(C)C)C(=O)C1
REMARK SMILES IDX 8 1 9 2 6 3 7 4 5 5 4 6 3 7 2 8 1 9 10 11 11 12 15 13 16 14
REMARK SMILES IDX 17 15 12 17 13 18 14 19
REMARK H PARENT
REMARK Flexibility Score: 70.00
ROOT
ATOM      1  C   UNL     1      10.557 117.984  17.546  1.00  0.00     0.136 C 
ATOM      2  O   UNL     1      10.357 118.017  16.340  1.00  0.00    -0.299 OA
ENDROOT
BRANCH   1   3
ATOM      3  C   UNL     1      11.702 117.163  18.094  1.00  0.00     0.053 C 
ATOM      4  C   UNL     1      12.979 117.370  17.272  1.00  0.00     0.016 C 
BRANCH   3   5
ATOM      5  C   UNL     1      11.284 115.673  18.130  1.00  0.00     0.015 C 
BRANCH   5   6
ATOM      6  C   UNL     1      11.227 115.024  19.528  1.00  0.00     0.028 C 
BRANCH   6   7
ATOM      7  C   UNL     1      11.882 115.781  20.663  1.00  0.00    -0.028 C 
ATOM      8  C   UNL     1      11.256 116.456  21.658  1.00  0.00    -0.070 CG0
ATOM      9  C   UNL     1      12.115 117.052  22.746  1.00  0.00     0.039 C 
ATOM     10  G   UNL     1       9.761 116.710  21.708  1.00  0.00     0.000 G0
ENDBRANCH   6   7
ENDBRANCH   5   6
ENDBRANCH   3   5
ENDBRANCH   1   3
BRANCH   1  11
ATOM     11  C   UNL     1       9.605 118.699  18.475  1.00  0.00     0.087 C 
BRANCH  11  12
ATOM     12  C   UNL     1       8.854 117.713  19.422  1.00  0.00     0.066 C 
BRANCH  12  13
ATOM     13  C   UNL     1       9.362 117.899  20.846  1.00  0.00     0.140 C 
ATOM     14  O   UNL     1       9.396 119.028  21.318  1.00  0.00    -0.299 OA
BRANCH  13  15
ATOM     15  C   UNL     1       9.755 116.728  21.725  1.00  0.00     0.106 CG0
ATOM     16  G   UNL     1      11.246 116.459  21.637  1.00  0.00     0.000 G0
ENDBRANCH  13  15
ENDBRANCH  12  13
BRANCH  12  17
ATOM     17  C   UNL     1       7.301 117.897  19.353  1.00  0.00    -0.006 C 
ATOM     18  C   UNL     1       6.746 117.609  17.943  1.00  0.00     0.008 C 
ATOM     19  C   UNL     1       6.878 119.325  19.752  1.00  0.00     0.008 C 
ENDBRANCH  12  17
ENDBRANCH  11  12
ENDBRANCH   1  11
TORSDOF 1
ENDMDL
MODEL 2
REMARK VINA RESULT:    -3.965      9.459     11.320
REMARK INTER + INTRA:          -5.945
REMARK INTER:                  -5.827
REMARK INTRA:                  -0.118
REMARK UNBOUND:                 0.105
REMARK SMILES CC1=CCC[C@@H](C)C(=O)C[C@H](C(C)C)C(=O)C1
REMARK SMILES IDX 8 1 9 2 6 3 7 4 5 5 4 6 3 7 2 8 1 9 10 11 11 12 15 13 16 14
REMARK SMILES IDX 17 15 12 17 13 18 14 19
REMARK H PARENT
REMARK Flexibility Score: 70.00
ROOT
ATOM      1  C   UNL     1      18.584 124.125  14.920  1.00  0.00     0.136 C 
ATOM      2  O   UNL     1      19.025 123.096  15.414  1.00  0.00    -0.299 OA
ENDROOT
BRANCH   1   3
ATOM      3  C   UNL     1      19.538 125.197  14.445  1.00  0.00     0.053 C 
ATOM      4  C   UNL     1      20.989 124.846  14.795  1.00  0.00     0.016 C 
BRANCH   3   5
ATOM      5  C   UNL     1      19.118 126.555  15.058  1.00  0.00     0.015 C 
BRANCH   5   6
ATOM      6  C   UNL     1      19.108 126.624  16.599  1.00  0.00     0.028 C 
BRANCH   6   7
ATOM      7  C   UNL     1      17.883 127.228  17.251  1.00  0.00    -0.028 C 
ATOM      8  C   UNL     1      16.931 126.573  17.957  1.00  0.00    -0.070 CG0
ATOM      9  C   UNL     1      15.849 127.400  18.607  1.00  0.00     0.039 C 
ATOM     10  G   UNL     1      16.843 125.062  18.074  1.00  0.00     0.000 G0
ENDBRANCH   6   7
ENDBRANCH   5   6
ENDBRANCH   3   5
ENDBRANCH   1   3
BRANCH   1  11
ATOM     11  C   UNL     1      17.091 124.341  14.869  1.00  0.00     0.087 C 
BRANCH  11  12
ATOM     12  C   UNL     1      16.338 123.511  15.956  1.00  0.00     0.066 C 
BRANCH  12  13
ATOM     13  C   UNL     1      15.883 124.442  17.072  1.00  0.00     0.140 C 
ATOM     14  O   UNL     1      14.686 124.667  17.202  1.00  0.00    -0.299 OA
BRANCH  13  15
ATOM     15  C   UNL     1      16.851 125.038  18.074  1.00  0.00     0.106 CG0
ATOM     16  G   UNL     1      16.918 126.548  17.933  1.00  0.00     0.000 G0
ENDBRANCH  13  15
ENDBRANCH  12  13
BRANCH  12  17
ATOM     17  C   UNL     1      15.128 122.719  15.358  1.00  0.00    -0.006 C 
ATOM     18  C   UNL     1      15.394 121.200  15.315  1.00  0.00     0.008 C 
ATOM     19  C   UNL     1      14.790 123.186  13.928  1.00  0.00     0.008 C 
ENDBRANCH  12  17
ENDBRANCH  11  12
ENDBRANCH   1  11
TORSDOF 1
ENDMDL
MODEL 3
REMARK VINA RESULT:    -3.915      1.803      3.933
REMARK INTER + INTRA:          -5.870
REMARK INTER:                  -5.719
REMARK INTRA:                  -0.151
REMARK UNBOUND:                 0.105
REMARK SMILES CC1=CCC[C@@H](C)C(=O)C[C@H](C(C)C)C(=O)C1
REMARK SMILES IDX 8 1 9 2 6 3 7 4 5 5 4 6 3 7 2 8 1 9 10 11 11 12 15 13 16 14
REMARK SMILES IDX 17 15 12 17 13 18 14 19
REMARK H PARENT
REMARK Flexibility Score: 70.00
ROOT
ATOM      1  C   UNL     1       8.725 118.746  19.901  1.00  0.00     0.136 C 
ATOM      2  O   UNL     1       9.257 119.753  19.452  1.00  0.00    -0.299 OA
ENDROOT
BRANCH   1   3
ATOM      3  C   UNL     1       7.826 118.850  21.111  1.00  0.00     0.053 C 
ATOM      4  C   UNL     1       8.202 120.052  21.983  1.00  0.00     0.016 C 
BRANCH   3   5
ATOM      5  C   UNL     1       7.895 117.524  21.908  1.00  0.00     0.015 C 
BRANCH   5   6
ATOM      6  C   UNL     1       9.074 117.393  22.893  1.00  0.00     0.028 C 
BRANCH   6   7
ATOM      7  C   UNL     1       9.650 116.008  23.093  1.00  0.00    -0.028 C 
ATOM      8  C   UNL     1      10.775 115.506  22.530  1.00  0.00    -0.070 CG0
ATOM      9  C   UNL     1      11.216 114.128  22.958  1.00  0.00     0.039 C 
ATOM     10  G   UNL     1      11.575 116.209  21.449  1.00  0.00     0.000 G0
ENDBRANCH   6   7
ENDBRANCH   5   6
ENDBRANCH   3   5
ENDBRANCH   1   3
BRANCH   1  11
ATOM     11  C   UNL     1       9.045 117.404  19.287  1.00  0.00     0.087 C 
BRANCH  11  12
ATOM     12  C   UNL     1      10.582 117.164  19.162  1.00  0.00     0.066 C 
BRANCH  12  13
ATOM     13  C   UNL     1      10.984 116.000  20.060  1.00  0.00     0.140 C 
ATOM     14  O   UNL     1      10.874 114.859  19.630  1.00  0.00    -0.299 OA
BRANCH  13  15
ATOM     15  C   UNL     1      11.584 116.209  21.435  1.00  0.00     0.106 CG0
ATOM     16  G   UNL     1      10.763 115.505  22.500  1.00  0.00     0.000 G0
ENDBRANCH  13  15
ENDBRANCH  12  13
BRANCH  12  17
ATOM     17  C   UNL     1      11.020 116.907  17.682  1.00  0.00    -0.006 C 
ATOM     18  C   UNL     1      12.498 117.276  17.442  1.00  0.00     0.008 C 
ATOM     19  C   UNL     1      10.159 117.709  16.685  1.00  0.00     0.008 C 
ENDBRANCH  12  17
ENDBRANCH  11  12
ENDBRANCH   1  11
TORSDOF 1
ENDMDL
MODEL 4
REMARK VINA RESULT:    -3.761      2.043      4.330
REMARK INTER + INTRA:          -5.635
REMARK INTER:                  -5.213
REMARK INTRA:                  -0.422
REMARK UNBOUND:                 0.105
REMARK SMILES CC1=CCC[C@@H](C)C(=O)C[C@H](C(C)C)C(=O)C1
REMARK SMILES IDX 8 1 9 2 6 3 7 4 5 5 4 6 3 7 2 8 1 9 10 11 11 12 15 13 16 14
REMARK SMILES IDX 17 15 12 17 13 18 14 19
REMARK H PARENT
REMARK Flexibility Score: 70.00
ROOT
ATOM      1  C   UNL     1       8.929 117.684  18.915  1.00  0.00     0.136 C 
ATOM      2  O   UNL     1       9.121 117.718  17.707  1.00  0.00    -0.299 OA
ENDROOT
BRANCH   1   3
ATOM      3  C   UNL     1       7.940 118.640  19.544  1.00  0.00     0.053 C 
ATOM      4  C   UNL     1       6.598 118.617  18.804  1.00  0.00     0.016 C 
BRANCH   3   5
ATOM      5  C   UNL     1       8.554 120.061  19.566  1.00  0.00     0.015 C 
BRANCH   5   6
ATOM      6  C   UNL     1       9.016 120.572  20.946  1.00  0.00     0.028 C 
BRANCH   6   7
ATOM      7  C   UNL     1       8.568 119.781  22.156  1.00  0.00    -0.028 C 
ATOM      8  C   UNL     1       9.348 119.030  22.972  1.00  0.00    -0.070 CG0
ATOM      9  C   UNL     1       8.698 118.411  24.184  1.00  0.00     0.039 C 
ATOM     10  G   UNL     1      10.808 118.715  22.704  1.00  0.00     0.000 G0
ENDBRANCH   6   7
ENDBRANCH   5   6
ENDBRANCH   3   5
ENDBRANCH   1   3
BRANCH   1  11
ATOM     11  C   UNL     1       9.746 116.745  19.769  1.00  0.00     0.087 C 
BRANCH  11  12
ATOM     12  C   UNL     1      11.019 117.434  20.353  1.00  0.00     0.066 C 
BRANCH  12  13
ATOM     13  C   UNL     1      10.944 117.421  21.874  1.00  0.00     0.140 C 
ATOM     14  O   UNL     1      11.047 116.351  22.460  1.00  0.00    -0.299 OA
BRANCH  13  15
ATOM     15  C   UNL     1      10.824 118.692  22.690  1.00  0.00     0.106 CG0
ATOM     16  G   UNL     1       9.369 119.033  22.953  1.00  0.00     0.000 G0
ENDBRANCH  13  15
ENDBRANCH  12  13
BRANCH  12  17
ATOM     17  C   UNL     1      12.338 116.759  19.850  1.00  0.00    -0.006 C 
ATOM     18  C   UNL     1      13.224 117.739  19.055  1.00  0.00     0.008 C 
ATOM     19  C   UNL     1      12.048 115.539  18.952  1.00  0.00     0.008 C 
ENDBRANCH  12  17
ENDBRANCH  11  12
ENDBRANCH   1  11
TORSDOF 1
ENDMDL
MODEL 5
REMARK VINA RESULT:    -3.750      1.589      4.035
REMARK INTER + INTRA:          -5.617
REMARK INTER:                  -5.585
REMARK INTRA:                  -0.032
REMARK UNBOUND:                 0.105
REMARK SMILES CC1=CCC[C@@H](C)C(=O)C[C@H](C(C)C)C(=O)C1
REMARK SMILES IDX 8 1 9 2 6 3 7 4 5 5 4 6 3 7 2 8 1 9 10 11 11 12 15 13 16 14
REMARK SMILES IDX 17 15 12 17 13 18 14 19
REMARK H PARENT
REMARK Flexibility Score: 70.00
ROOT
ATOM      1  C   UNL     1       8.932 119.049  18.991  1.00  0.00     0.136 C 
ATOM      2  O   UNL     1       9.160 120.219  19.269  1.00  0.00    -0.299 OA
ENDROOT
BRANCH   1   3
ATOM      3  C   UNL     1       7.716 118.364  19.574  1.00  0.00     0.053 C 
ATOM      4  C   UNL     1       6.438 118.773  18.834  1.00  0.00     0.016 C 
BRANCH   3   5
ATOM      5  C   UNL     1       7.628 118.689  21.085  1.00  0.00     0.015 C 
BRANCH   5   6
ATOM      6  C   UNL     1       8.510 117.827  22.011  1.00  0.00     0.028 C 
BRANCH   6   7
ATOM      7  C   UNL     1       9.844 118.410  22.426  1.00  0.00    -0.028 C 
ATOM      8  C   UNL     1      11.073 117.963  22.073  1.00  0.00    -0.070 CG0
ATOM      9  C   UNL     1      12.267 118.768  22.524  1.00  0.00     0.039 C 
ATOM     10  G   UNL     1      11.326 116.671  21.318  1.00  0.00     0.000 G0
ENDBRANCH   6   7
ENDBRANCH   5   6
ENDBRANCH   3   5
ENDBRANCH   1   3
BRANCH   1  11
ATOM     11  C   UNL     1       9.915 118.285  18.138  1.00  0.00     0.087 C 
BRANCH  11  12
ATOM     12  C   UNL     1      11.185 117.859  18.940  1.00  0.00     0.066 C 
BRANCH  12  13
ATOM     13  C   UNL     1      10.821 116.727  19.891  1.00  0.00     0.140 C 
ATOM     14  O   UNL     1      10.124 115.810  19.478  1.00  0.00    -0.299 OA
BRANCH  13  15
ATOM     15  C   UNL     1      11.355 116.658  21.308  1.00  0.00     0.106 CG0
ATOM     16  G   UNL     1      11.072 117.946  22.059  1.00  0.00     0.000 G0
ENDBRANCH  13  15
ENDBRANCH  12  13
BRANCH  12  17
ATOM     17  C   UNL     1      12.364 117.443  17.998  1.00  0.00    -0.006 C 
ATOM     18  C   UNL     1      13.736 117.848  18.574  1.00  0.00     0.008 C 
ATOM     19  C   UNL     1      12.227 118.077  16.599  1.00  0.00     0.008 C 
ENDBRANCH  12  17
ENDBRANCH  11  12
ENDBRANCH   1  11
TORSDOF 1
ENDMDL
MODEL 6
REMARK VINA RESULT:    -3.720      8.411     10.614
REMARK INTER + INTRA:          -5.572
REMARK INTER:                  -5.270
REMARK INTRA:                  -0.302
REMARK UNBOUND:                 0.105
REMARK SMILES CC1=CCC[C@@H](C)C(=O)C[C@H](C(C)C)C(=O)C1
REMARK SMILES IDX 8 1 9 2 6 3 7 4 5 5 4 6 3 7 2 8 1 9 10 11 11 12 15 13 16 14
REMARK SMILES IDX 17 15 12 17 13 18 14 19
REMARK H PARENT
REMARK Flexibility Score: 70.00
ROOT
ATOM      1  C   UNL     1      18.829 123.508  13.999  1.00  0.00     0.136 C 
ATOM      2  O   UNL     1      19.792 122.769  13.849  1.00  0.00    -0.299 OA
ENDROOT
BRANCH   1   3
ATOM      3  C   UNL     1      18.986 124.796  14.774  1.00  0.00     0.053 C 
ATOM      4  C   UNL     1      19.832 125.813  13.998  1.00  0.00     0.016 C 
BRANCH   3   5
ATOM      5  C   UNL     1      19.603 124.481  16.159  1.00  0.00     0.015 C 
BRANCH   5   6
ATOM      6  C   UNL     1      18.662 123.802  17.175  1.00  0.00     0.028 C 
BRANCH   6   7
ATOM      7  C   UNL     1      17.384 124.535  17.523  1.00  0.00    -0.028 C 
ATOM      8  C   UNL     1      16.120 124.055  17.432  1.00  0.00    -0.070 CG0
ATOM      9  C   UNL     1      15.001 124.933  17.935  1.00  0.00     0.039 C 
ATOM     10  G   UNL     1      15.756 122.728  16.792  1.00  0.00     0.000 G0
ENDBRANCH   6   7
ENDBRANCH   5   6
ENDBRANCH   3   5
ENDBRANCH   1   3
BRANCH   1  11
ATOM     11  C   UNL     1      17.478 123.079  13.477  1.00  0.00     0.087 C 
BRANCH  11  12
ATOM     12  C   UNL     1      16.779 122.056  14.426  1.00  0.00     0.066 C 
BRANCH  12  13
ATOM     13  C   UNL     1      15.746 122.785  15.277  1.00  0.00     0.140 C 
ATOM     14  O   UNL     1      14.849 123.401  14.717  1.00  0.00    -0.299 OA
BRANCH  13  15
ATOM     15  C   UNL     1      15.748 122.710  16.790  1.00  0.00     0.106 CG0
ATOM     16  G   UNL     1      16.102 124.053  17.401  1.00  0.00     0.000 G0
ENDBRANCH  13  15
ENDBRANCH  12  13
BRANCH  12  17
ATOM     17  C   UNL     1      16.121 120.875  13.636  1.00  0.00    -0.006 C 
ATOM     18  C   UNL     1      15.581 119.779  14.576  1.00  0.00     0.008 C 
ATOM     19  C   UNL     1      17.117 120.219  12.658  1.00  0.00     0.008 C 
ENDBRANCH  12  17
ENDBRANCH  11  12
ENDBRANCH   1  11
TORSDOF 1
ENDMDL
MODEL 7
REMARK VINA RESULT:    -3.645      1.999      4.937
REMARK INTER + INTRA:          -5.457
REMARK INTER:                  -5.368
REMARK INTRA:                  -0.089
REMARK UNBOUND:                 0.105
REMARK SMILES CC1=CCC[C@@H](C)C(=O)C[C@H](C(C)C)C(=O)C1
REMARK SMILES IDX 8 1 9 2 6 3 7 4 5 5 4 6 3 7 2 8 1 9 10 11 11 12 15 13 16 14
REMARK SMILES IDX 17 15 12 17 13 18 14 19
REMARK H PARENT
REMARK Flexibility Score: 70.00
ROOT
ATOM      1  C   UNL     1      11.135 115.746  22.105  1.00  0.00     0.136 C 
ATOM      2  O   UNL     1      11.271 114.617  22.557  1.00  0.00    -0.299 OA
ENDROOT
BRANCH   1   3
ATOM      3  C   UNL     1      10.363 116.781  22.891  1.00  0.00     0.053 C 
ATOM      4  C   UNL     1      10.889 116.898  24.325  1.00  0.00     0.016 C 
BRANCH   3   5
ATOM      5  C   UNL     1       8.858 116.417  22.864  1.00  0.00     0.015 C 
BRANCH   5   6
ATOM      6  C   UNL     1       7.918 117.486  22.271  1.00  0.00     0.028 C 
BRANCH   6   7
ATOM      7  C   UNL     1       8.566 118.628  21.517  1.00  0.00    -0.028 C 
ATOM      8  C   UNL     1       8.866 118.663  20.196  1.00  0.00    -0.070 CG0
ATOM      9  C   UNL     1       9.417 119.953  19.639  1.00  0.00     0.039 C 
ATOM     10  G   UNL     1       8.753 117.472  19.263  1.00  0.00     0.000 G0
ENDBRANCH   6   7
ENDBRANCH   5   6
ENDBRANCH   3   5
ENDBRANCH   1   3
BRANCH   1  11
ATOM     11  C   UNL     1      11.670 116.061  20.728  1.00  0.00     0.087 C 
BRANCH  11  12
ATOM     12  C   UNL     1      10.674 115.649  19.600  1.00  0.00     0.066 C 
BRANCH  12  13
ATOM     13  C   UNL     1      10.127 116.904  18.930  1.00  0.00     0.140 C 
ATOM     14  O   UNL     1      10.792 117.442  18.055  1.00  0.00    -0.299 OA
BRANCH  13  15
ATOM     15  C   UNL     1       8.757 117.464  19.256  1.00  0.00     0.106 CG0
ATOM     16  G   UNL     1       8.866 118.664  20.179  1.00  0.00     0.000 G0
ENDBRANCH  13  15
ENDBRANCH  12  13
BRANCH  12  17
ATOM     17  C   UNL     1      11.334 114.695  18.550  1.00  0.00    -0.006 C 
ATOM     18  C   UNL     1      11.185 113.211  18.940  1.00  0.00     0.008 C 
ATOM     19  C   UNL     1      12.836 114.995  18.373  1.00  0.00     0.008 C 
ENDBRANCH  12  17
ENDBRANCH  11  12
ENDBRANCH   1  11
TORSDOF 1
ENDMDL
MODEL 8
REMARK VINA RESULT:    -3.581      9.784     11.403
REMARK INTER + INTRA:          -5.359
REMARK INTER:                  -5.060
REMARK INTRA:                  -0.300
REMARK UNBOUND:                 0.105
REMARK SMILES CC1=CCC[C@@H](C)C(=O)C[C@H](C(C)C)C(=O)C1
REMARK SMILES IDX 8 1 9 2 6 3 7 4 5 5 4 6 3 7 2 8 1 9 10 11 11 12 15 13 16 14
REMARK SMILES IDX 17 15 12 17 13 18 14 19
REMARK H PARENT
REMARK Flexibility Score: 70.00
ROOT
ATOM      1  C   UNL     1      17.115 120.750  13.135  1.00  0.00     0.136 C 
ATOM      2  O   UNL     1      16.239 120.196  13.784  1.00  0.00    -0.299 OA
ENDROOT
BRANCH   1   3
ATOM      3  C   UNL     1      18.157 119.920  12.420  1.00  0.00     0.053 C 
ATOM      4  C   UNL     1      17.509 118.948  11.428  1.00  0.00     0.016 C 
BRANCH   3   5
ATOM      5  C   UNL     1      19.017 119.174  13.469  1.00  0.00     0.015 C 
BRANCH   5   6
ATOM      6  C   UNL     1      19.764 120.066  14.482  1.00  0.00     0.028 C 
BRANCH   6   7
ATOM      7  C   UNL     1      20.681 121.128  13.916  1.00  0.00    -0.028 C 
ATOM      8  C   UNL     1      20.782 122.417  14.323  1.00  0.00    -0.070 CG0
ATOM      9  C   UNL     1      21.844 123.272  13.678  1.00  0.00     0.039 C 
ATOM     10  G   UNL     1      19.850 123.070  15.328  1.00  0.00     0.000 G0
ENDBRANCH   6   7
ENDBRANCH   5   6
ENDBRANCH   3   5
ENDBRANCH   1   3
BRANCH   1  11
ATOM     11  C   UNL     1      17.191 122.258  13.128  1.00  0.00     0.087 C 
BRANCH  11  12
ATOM     12  C   UNL     1      17.313 122.849  14.568  1.00  0.00     0.066 C 
BRANCH  12  13
ATOM     13  C   UNL     1      18.609 123.641  14.677  1.00  0.00     0.140 C 
ATOM     14  O   UNL     1      18.633 124.793  14.265  1.00  0.00    -0.299 OA
BRANCH  13  15
ATOM     15  C   UNL     1      19.847 123.079  15.347  1.00  0.00     0.106 CG0
ATOM     16  G   UNL     1      20.771 122.436  14.329  1.00  0.00     0.000 G0
ENDBRANCH  13  15
ENDBRANCH  12  13
BRANCH  12  17
ATOM     17  C   UNL     1      16.080 123.735  14.948  1.00  0.00    -0.006 C 
ATOM     18  C   UNL     1      15.692 123.582  16.432  1.00  0.00     0.008 C 
ATOM     19  C   UNL     1      14.845 123.391  14.091  1.00  0.00     0.008 C 
ENDBRANCH  12  17
ENDBRANCH  11  12
ENDBRANCH   1  11
TORSDOF 1
ENDMDL
MODEL 9
REMARK VINA RESULT:    -3.352      3.303      4.487
REMARK INTER + INTRA:          -5.010
REMARK INTER:                  -5.435
REMARK INTRA:                   0.424
REMARK UNBOUND:                 0.105
REMARK SMILES CC1=CCC[C@@H](C)C(=O)C[C@H](C(C)C)C(=O)C1
REMARK SMILES IDX 8 1 9 2 6 3 7 4 5 5 4 6 3 7 2 8 1 9 10 11 11 12 15 13 16 14
REMARK SMILES IDX 17 15 12 17 13 18 14 19
REMARK H PARENT
REMARK Flexibility Score: 70.00
ROOT
ATOM      1  C   UNL     1      13.734 113.647  17.820  1.00  0.00     0.136 C 
ATOM      2  O   UNL     1      14.915 113.665  18.142  1.00  0.00    -0.299 OA
ENDROOT
BRANCH   1   3
ATOM      3  C   UNL     1      13.097 112.349  17.380  1.00  0.00     0.053 C 
ATOM      4  C   UNL     1      11.630 112.555  16.985  1.00  0.00     0.016 C 
BRANCH   3   5
ATOM      5  C   UNL     1      13.240 111.306  18.515  1.00  0.00     0.015 C 
BRANCH   5   6
ATOM      6  C   UNL     1      12.442 111.598  19.802  1.00  0.00     0.028 C 
BRANCH   6   7
ATOM      7  C   UNL     1      13.228 112.071  21.005  1.00  0.00    -0.028 C 
ATOM      8  C   UNL     1      12.983 113.172  21.756  1.00  0.00    -0.070 CG0
ATOM      9  C   UNL     1      13.841 113.391  22.977  1.00  0.00     0.039 C 
ATOM     10  G   UNL     1      11.952 114.230  21.408  1.00  0.00     0.000 G0
ENDBRANCH   6   7
ENDBRANCH   5   6
ENDBRANCH   3   5
ENDBRANCH   1   3
BRANCH   1  11
ATOM     11  C   UNL     1      12.956 114.941  17.786  1.00  0.00     0.087 C 
BRANCH  11  12
ATOM     12  C   UNL     1      11.812 114.968  18.848  1.00  0.00     0.066 C 
BRANCH  12  13
ATOM     13  C   UNL     1      12.421 115.083  20.239  1.00  0.00     0.140 C 
ATOM     14  O   UNL     1      13.280 115.932  20.439  1.00  0.00    -0.299 OA
BRANCH  13  15
ATOM     15  C   UNL     1      11.945 114.236  21.403  1.00  0.00     0.106 CG0
ATOM     16  G   UNL     1      12.972 113.178  21.760  1.00  0.00     0.000 G0
ENDBRANCH  13  15
ENDBRANCH  12  13
BRANCH  12  17
ATOM     17  C   UNL     1      10.792 116.125  18.584  1.00  0.00    -0.006 C 
ATOM     18  C   UNL     1      11.439 117.310  17.839  1.00  0.00     0.008 C 
ATOM     19  C   UNL     1      10.184 116.659  19.897  1.00  0.00     0.008 C 
ENDBRANCH  12  17
ENDBRANCH  11  12
ENDBRANCH   1  11
TORSDOF 1
ENDMDL
