MODEL 1
REMARK VINA RESULT:    -5.615      0.000      0.000
REMARK INTER + INTRA:         -13.398
REMARK INTER:                 -12.179
REMARK INTRA:                  -1.219
REMARK UNBOUND:                -1.219
REMARK SMILES CCCCCCCCCCCCCCCCCCCCCC(=O)[O-]
REMARK SMILES IDX 12 1 11 2 10 3 9 4 8 5 7 6 6 7 5 8 4 9 3 10 2 11 1 12 13 13
REMARK SMILES IDX 14 14 15 15 16 16 17 17 18 18 19 19 20 20 21 21 22 22 23 23
REMARK SMILES IDX 24 24
REMARK H PARENT
REMARK Flexibility Score: inf
ROOT
ATOM      1  C   UNL     1      22.322 -15.212  18.186  1.00  0.00     0.000 C 
ENDROOT
BRANCH   1   2
ATOM      2  C   UNL     1      22.926 -15.418  19.582  1.00  0.00     0.000 C 
BRANCH   2   3
ATOM      3  C   UNL     1      22.663 -14.235  20.526  1.00  0.00     0.000 C 
BRANCH   3   4
ATOM      4  C   UNL     1      21.283 -13.597  20.304  1.00  0.00    -0.000 C 
BRANCH   4   5
ATOM      5  C   UNL     1      21.000 -12.519  21.356  1.00  0.00    -0.000 C 
BRANCH   5   6
ATOM      6  C   UNL     1      22.280 -11.763  21.728  1.00  0.00    -0.000 C 
BRANCH   6   7
ATOM      7  C   UNL     1      22.031 -10.800  22.899  1.00  0.00    -0.000 C 
BRANCH   7   8
ATOM      8  C   UNL     1      20.818 -11.199  23.759  1.00  0.00    -0.000 C 
BRANCH   8   9
ATOM      9  C   UNL     1      20.404 -10.168  24.827  1.00  0.00    -0.000 C 
BRANCH   9  10
ATOM     10  C   UNL     1      21.031  -8.782  24.598  1.00  0.00    -0.000 C 
BRANCH  10  11
ATOM     11  C   UNL     1      20.530  -7.737  25.608  1.00  0.00    -0.003 C 
ATOM     12  C   UNL     1      21.619  -7.285  26.582  1.00  0.00     0.004 C 
ENDBRANCH  10  11
ENDBRANCH   9  10
ENDBRANCH   8   9
ENDBRANCH   7   8
ENDBRANCH   6   7
ENDBRANCH   5   6
ENDBRANCH   4   5
ENDBRANCH   3   4
ENDBRANCH   2   3
ENDBRANCH   1   2
BRANCH   1  13
ATOM     13  C   UNL     1      22.968 -16.164  17.168  1.00  0.00     0.000 C 
BRANCH  13  14
ATOM     14  C   UNL     1      23.336 -17.525  17.779  1.00  0.00     0.000 C 
BRANCH  14  15
ATOM     15  C   UNL     1      23.489 -18.627  16.715  1.00  0.00     0.000 C 
BRANCH  15  16
ATOM     16  C   UNL     1      22.177 -19.382  16.453  1.00  0.00     0.000 C 
BRANCH  16  17
ATOM     17  C   UNL     1      21.472 -19.812  17.748  1.00  0.00     0.000 C 
BRANCH  17  18
ATOM     18  C   UNL     1      20.755 -21.158  17.558  1.00  0.00     0.000 C 
BRANCH  18  19
ATOM     19  C   UNL     1      19.304 -20.997  17.079  1.00  0.00     0.000 C 
BRANCH  19  20
ATOM     20  C   UNL     1      18.939 -21.975  15.952  1.00  0.00     0.006 C 
BRANCH  20  21
ATOM     21  C   UNL     1      19.130 -21.323  14.578  1.00  0.00     0.053 C 
BRANCH  21  22
ATOM     22  C   UNL     1      17.836 -21.285  13.828  1.00  0.00     0.041 C 
ATOM     23  O   UNL     1      17.824 -21.014  12.598  1.00  0.00    -0.550 OA
ATOM     24  O   UNL     1      16.644 -21.576  14.481  1.00  0.00    -0.550 OA
ENDBRANCH  21  22
ENDBRANCH  20  21
ENDBRANCH  19  20
ENDBRANCH  18  19
ENDBRANCH  17  18
ENDBRANCH  16  17
ENDBRANCH  15  16
ENDBRANCH  14  15
ENDBRANCH  13  14
ENDBRANCH   1  13
TORSDOF 20
ENDMDL
MODEL 2
REMARK VINA RESULT:    -5.477      4.409     12.051
REMARK INTER + INTRA:         -13.099
REMARK INTER:                 -11.277
REMARK INTRA:                  -1.822
REMARK UNBOUND:                -1.219
REMARK SMILES CCCCCCCCCCCCCCCCCCCCCC(=O)[O-]
REMARK SMILES IDX 12 1 11 2 10 3 9 4 8 5 7 6 6 7 5 8 4 9 3 10 2 11 1 12 13 13
REMARK SMILES IDX 14 14 15 15 16 16 17 17 18 18 19 19 20 20 21 21 22 22 23 23
REMARK SMILES IDX 24 24
REMARK H PARENT
REMARK Flexibility Score: inf
ROOT
ATOM      1  C   UNL     1      18.564 -21.381  16.025  1.00  0.00     0.000 C 
ENDROOT
BRANCH   1   2
ATOM      2  C   UNL     1      19.160 -22.257  14.914  1.00  0.00     0.000 C 
BRANCH   2   3
ATOM      3  C   UNL     1      18.592 -21.928  13.525  1.00  0.00     0.000 C 
BRANCH   3   4
ATOM      4  C   UNL     1      18.897 -20.487  13.088  1.00  0.00    -0.000 C 
BRANCH   4   5
ATOM      5  C   UNL     1      18.881 -20.361  11.561  1.00  0.00    -0.000 C 
BRANCH   5   6
ATOM      6  C   UNL     1      18.499 -21.692  10.903  1.00  0.00    -0.000 C 
BRANCH   6   7
ATOM      7  C   UNL     1      17.148 -21.581  10.179  1.00  0.00    -0.000 C 
BRANCH   7   8
ATOM      8  C   UNL     1      15.985 -22.200  10.975  1.00  0.00    -0.000 C 
BRANCH   8   9
ATOM      9  C   UNL     1      14.654 -21.428  10.898  1.00  0.00    -0.000 C 
BRANCH   9  10
ATOM     10  C   UNL     1      14.500 -20.384  12.019  1.00  0.00    -0.000 C 
BRANCH  10  11
ATOM     11  C   UNL     1      15.140 -20.843  13.339  1.00  0.00    -0.003 C 
ATOM     12  C   UNL     1      14.135 -21.499  14.288  1.00  0.00     0.004 C 
ENDBRANCH  10  11
ENDBRANCH   9  10
ENDBRANCH   8   9
ENDBRANCH   7   8
ENDBRANCH   6   7
ENDBRANCH   5   6
ENDBRANCH   4   5
ENDBRANCH   3   4
ENDBRANCH   2   3
ENDBRANCH   1   2
BRANCH   1  13
ATOM     13  C   UNL     1      19.646 -20.968  17.033  1.00  0.00     0.000 C 
BRANCH  13  14
ATOM     14  C   UNL     1      20.916 -20.430  16.353  1.00  0.00     0.000 C 
BRANCH  14  15
ATOM     15  C   UNL     1      21.757 -19.544  17.291  1.00  0.00     0.000 C 
BRANCH  15  16
ATOM     16  C   UNL     1      22.601 -18.512  16.527  1.00  0.00     0.000 C 
BRANCH  16  17
ATOM     17  C   UNL     1      22.945 -17.280  17.378  1.00  0.00     0.000 C 
BRANCH  17  18
ATOM     18  C   UNL     1      23.486 -17.701  18.752  1.00  0.00     0.000 C 
BRANCH  18  19
ATOM     19  C   UNL     1      23.021 -16.773  19.885  1.00  0.00     0.000 C 
BRANCH  19  20
ATOM     20  C   UNL     1      22.852 -15.316  19.426  1.00  0.00     0.006 C 
BRANCH  20  21
ATOM     21  C   UNL     1      22.622 -14.388  20.625  1.00  0.00     0.053 C 
BRANCH  21  22
ATOM     22  C   UNL     1      21.391 -13.563  20.424  1.00  0.00     0.041 C 
ATOM     23  O   UNL     1      21.050 -12.713  21.289  1.00  0.00    -0.550 OA
ATOM     24  O   UNL     1      20.634 -13.712  19.269  1.00  0.00    -0.550 OA
ENDBRANCH  21  22
ENDBRANCH  20  21
ENDBRANCH  19  20
ENDBRANCH  18  19
ENDBRANCH  17  18
ENDBRANCH  16  17
ENDBRANCH  15  16
ENDBRANCH  14  15
ENDBRANCH  13  14
ENDBRANCH   1  13
TORSDOF 20
ENDMDL
MODEL 3
REMARK VINA RESULT:    -5.450      5.788     12.797
REMARK INTER + INTRA:         -13.040
REMARK INTER:                 -11.935
REMARK INTRA:                  -1.105
REMARK UNBOUND:                -1.219
REMARK SMILES CCCCCCCCCCCCCCCCCCCCCC(=O)[O-]
REMARK SMILES IDX 12 1 11 2 10 3 9 4 8 5 7 6 6 7 5 8 4 9 3 10 2 11 1 12 13 13
REMARK SMILES IDX 14 14 15 15 16 16 17 17 18 18 19 19 20 20 21 21 22 22 23 23
REMARK SMILES IDX 24 24
REMARK H PARENT
REMARK Flexibility Score: inf
ROOT
ATOM      1  C   UNL     1      21.405 -13.769  20.114  1.00  0.00     0.000 C 
ENDROOT
BRANCH   1   2
ATOM      2  C   UNL     1      22.643 -14.644  20.357  1.00  0.00     0.000 C 
BRANCH   2   3
ATOM      3  C   UNL     1      22.963 -15.564  19.169  1.00  0.00     0.000 C 
BRANCH   3   4
ATOM      4  C   UNL     1      23.042 -17.045  19.573  1.00  0.00    -0.000 C 
BRANCH   4   5
ATOM      5  C   UNL     1      23.631 -17.893  18.441  1.00  0.00    -0.000 C 
BRANCH   5   6
ATOM      6  C   UNL     1      22.889 -17.644  17.123  1.00  0.00    -0.000 C 
BRANCH   6   7
ATOM      7  C   UNL     1      22.489 -18.970  16.457  1.00  0.00    -0.000 C 
BRANCH   7   8
ATOM      8  C   UNL     1      22.495 -20.160  17.434  1.00  0.00    -0.000 C 
BRANCH   8   9
ATOM      9  C   UNL     1      21.234 -21.045  17.398  1.00  0.00    -0.000 C 
BRANCH   9  10
ATOM     10  C   UNL     1      20.391 -20.837  16.127  1.00  0.00    -0.000 C 
BRANCH  10  11
ATOM     11  C   UNL     1      18.905 -21.159  16.350  1.00  0.00    -0.003 C 
ATOM     12  C   UNL     1      18.571 -21.429  17.818  1.00  0.00     0.004 C 
ENDBRANCH  10  11
ENDBRANCH   9  10
ENDBRANCH   8   9
ENDBRANCH   7   8
ENDBRANCH   6   7
ENDBRANCH   5   6
ENDBRANCH   4   5
ENDBRANCH   3   4
ENDBRANCH   2   3
ENDBRANCH   1   2
BRANCH   1  13
ATOM     13  C   UNL     1      21.285 -12.685  21.196  1.00  0.00     0.000 C 
BRANCH  13  14
ATOM     14  C   UNL     1      22.651 -12.151  21.655  1.00  0.00     0.000 C 
BRANCH  14  15
ATOM     15  C   UNL     1      22.532 -10.847  22.466  1.00  0.00     0.000 C 
BRANCH  15  16
ATOM     16  C   UNL     1      21.073 -10.466  22.760  1.00  0.00     0.000 C 
BRANCH  16  17
ATOM     17  C   UNL     1      20.701 -10.640  24.240  1.00  0.00     0.000 C 
BRANCH  17  18
ATOM     18  C   UNL     1      20.790  -9.301  24.986  1.00  0.00     0.000 C 
BRANCH  18  19
ATOM     19  C   UNL     1      21.068  -8.115  24.049  1.00  0.00     0.000 C 
BRANCH  19  20
ATOM     20  C   UNL     1      20.924  -6.756  24.753  1.00  0.00     0.006 C 
BRANCH  20  21
ATOM     21  C   UNL     1      19.532  -6.161  24.512  1.00  0.00     0.053 C 
BRANCH  21  22
ATOM     22  C   UNL     1      19.630  -4.893  23.726  1.00  0.00     0.041 C 
ATOM     23  O   UNL     1      20.627  -4.135  23.866  1.00  0.00    -0.550 OA
ATOM     24  O   UNL     1      18.634  -4.560  22.815  1.00  0.00    -0.550 OA
ENDBRANCH  21  22
ENDBRANCH  20  21
ENDBRANCH  19  20
ENDBRANCH  18  19
ENDBRANCH  17  18
ENDBRANCH  16  17
ENDBRANCH  15  16
ENDBRANCH  14  15
ENDBRANCH  13  14
ENDBRANCH   1  13
TORSDOF 20
ENDMDL
MODEL 4
REMARK VINA RESULT:    -5.379      5.729     13.464
REMARK INTER + INTRA:         -12.888
REMARK INTER:                 -11.495
REMARK INTRA:                  -1.393
REMARK UNBOUND:                -1.219
REMARK SMILES CCCCCCCCCCCCCCCCCCCCCC(=O)[O-]
REMARK SMILES IDX 12 1 11 2 10 3 9 4 8 5 7 6 6 7 5 8 4 9 3 10 2 11 1 12 13 13
REMARK SMILES IDX 14 14 15 15 16 16 17 17 18 18 19 19 20 20 21 21 22 22 23 23
REMARK SMILES IDX 24 24
REMARK H PARENT
REMARK Flexibility Score: inf
ROOT
ATOM      1  C   UNL     1      21.371 -11.114  22.720  1.00  0.00     0.000 C 
ENDROOT
BRANCH   1   2
ATOM      2  C   UNL     1      21.879 -12.251  21.822  1.00  0.00     0.000 C 
BRANCH   2   3
ATOM      3  C   UNL     1      20.751 -12.949  21.047  1.00  0.00     0.000 C 
BRANCH   3   4
ATOM      4  C   UNL     1      21.268 -13.752  19.844  1.00  0.00    -0.000 C 
BRANCH   4   5
ATOM      5  C   UNL     1      22.540 -14.528  20.207  1.00  0.00    -0.000 C 
BRANCH   5   6
ATOM      6  C   UNL     1      22.896 -15.543  19.116  1.00  0.00    -0.000 C 
BRANCH   6   7
ATOM      7  C   UNL     1      23.215 -16.917  19.724  1.00  0.00    -0.000 C 
BRANCH   7   8
ATOM      8  C   UNL     1      23.287 -18.040  18.673  1.00  0.00    -0.000 C 
BRANCH   8   9
ATOM      9  C   UNL     1      22.895 -17.625  17.242  1.00  0.00    -0.000 C 
BRANCH   9  10
ATOM     10  C   UNL     1      22.537 -18.824  16.347  1.00  0.00    -0.000 C 
BRANCH  10  11
ATOM     11  C   UNL     1      21.800 -19.932  17.116  1.00  0.00    -0.003 C 
ATOM     12  C   UNL     1      20.627 -20.520  16.330  1.00  0.00     0.004 C 
ENDBRANCH  10  11
ENDBRANCH   9  10
ENDBRANCH   8   9
ENDBRANCH   7   8
ENDBRANCH   6   7
ENDBRANCH   5   6
ENDBRANCH   4   5
ENDBRANCH   3   4
ENDBRANCH   2   3
ENDBRANCH   1   2
BRANCH   1  13
ATOM     13  C   UNL     1      22.072  -9.793  22.374  1.00  0.00     0.000 C 
BRANCH  13  14
ATOM     14  C   UNL     1      21.874  -8.716  23.452  1.00  0.00     0.000 C 
BRANCH  14  15
ATOM     15  C   UNL     1      20.854  -9.137  24.525  1.00  0.00     0.000 C 
BRANCH  15  16
ATOM     16  C   UNL     1      20.786  -8.144  25.697  1.00  0.00     0.000 C 
BRANCH  16  17
ATOM     17  C   UNL     1      22.074  -7.321  25.853  1.00  0.00     0.000 C 
BRANCH  17  18
ATOM     18  C   UNL     1      21.802  -6.024  26.628  1.00  0.00     0.000 C 
BRANCH  18  19
ATOM     19  C   UNL     1      22.227  -4.767  25.854  1.00  0.00     0.000 C 
BRANCH  19  20
ATOM     20  C   UNL     1      21.514  -4.635  24.499  1.00  0.00     0.006 C 
BRANCH  20  21
ATOM     21  C   UNL     1      20.152  -3.951  24.662  1.00  0.00     0.053 C 
BRANCH  21  22
ATOM     22  C   UNL     1      19.068  -4.785  24.057  1.00  0.00     0.041 C 
ATOM     23  O   UNL     1      19.350  -5.867  23.477  1.00  0.00    -0.550 OA
ATOM     24  O   UNL     1      17.741  -4.382  24.158  1.00  0.00    -0.550 OA
ENDBRANCH  21  22
ENDBRANCH  20  21
ENDBRANCH  19  20
ENDBRANCH  18  19
ENDBRANCH  17  18
ENDBRANCH  16  17
ENDBRANCH  15  16
ENDBRANCH  14  15
ENDBRANCH  13  14
ENDBRANCH   1  13
TORSDOF 20
ENDMDL
MODEL 5
REMARK VINA RESULT:    -5.332      4.622     12.169
REMARK INTER + INTRA:         -12.786
REMARK INTER:                 -11.113
REMARK INTRA:                  -1.673
REMARK UNBOUND:                -1.219
REMARK SMILES CCCCCCCCCCCCCCCCCCCCCC(=O)[O-]
REMARK SMILES IDX 12 1 11 2 10 3 9 4 8 5 7 6 6 7 5 8 4 9 3 10 2 11 1 12 13 13
REMARK SMILES IDX 14 14 15 15 16 16 17 17 18 18 19 19 20 20 21 21 22 22 23 23
REMARK SMILES IDX 24 24
REMARK H PARENT
REMARK Flexibility Score: inf
ROOT
ATOM      1  C   UNL     1      20.373 -20.379  17.684  1.00  0.00     0.000 C 
ENDROOT
BRANCH   1   2
ATOM      2  C   UNL     1      20.087 -21.880  17.831  1.00  0.00     0.000 C 
BRANCH   2   3
ATOM      3  C   UNL     1      18.761 -22.300  17.180  1.00  0.00     0.000 C 
BRANCH   3   4
ATOM      4  C   UNL     1      18.959 -22.962  15.808  1.00  0.00    -0.000 C 
BRANCH   4   5
ATOM      5  C   UNL     1      18.145 -22.241  14.727  1.00  0.00    -0.000 C 
BRANCH   5   6
ATOM      6  C   UNL     1      19.051 -21.387  13.833  1.00  0.00    -0.000 C 
BRANCH   6   7
ATOM      7  C   UNL     1      18.225 -20.594  12.809  1.00  0.00    -0.000 C 
BRANCH   7   8
ATOM      8  C   UNL     1      18.630 -20.884  11.353  1.00  0.00    -0.000 C 
BRANCH   8   9
ATOM      9  C   UNL     1      17.586 -21.656  10.523  1.00  0.00    -0.000 C 
BRANCH   9  10
ATOM     10  C   UNL     1      16.138 -21.348  10.944  1.00  0.00    -0.000 C 
BRANCH  10  11
ATOM     11  C   UNL     1      15.352 -22.616  11.312  1.00  0.00    -0.003 C 
ATOM     12  C   UNL     1      15.165 -22.781  12.821  1.00  0.00     0.004 C 
ENDBRANCH  10  11
ENDBRANCH   9  10
ENDBRANCH   8   9
ENDBRANCH   7   8
ENDBRANCH   6   7
ENDBRANCH   5   6
ENDBRANCH   4   5
ENDBRANCH   3   4
ENDBRANCH   2   3
ENDBRANCH   1   2
BRANCH   1  13
ATOM     13  C   UNL     1      21.323 -20.119  16.505  1.00  0.00     0.000 C 
BRANCH  13  14
ATOM     14  C   UNL     1      22.709 -19.631  16.956  1.00  0.00     0.000 C 
BRANCH  14  15
ATOM     15  C   UNL     1      23.019 -18.203  16.471  1.00  0.00     0.000 C 
BRANCH  15  16
ATOM     16  C   UNL     1      22.958 -17.169  17.606  1.00  0.00     0.000 C 
BRANCH  16  17
ATOM     17  C   UNL     1      23.021 -17.812  18.999  1.00  0.00     0.000 C 
BRANCH  17  18
ATOM     18  C   UNL     1      23.281 -16.750  20.078  1.00  0.00     0.000 C 
BRANCH  18  19
ATOM     19  C   UNL     1      22.778 -15.356  19.675  1.00  0.00     0.000 C 
BRANCH  19  20
ATOM     20  C   UNL     1      22.705 -14.385  20.864  1.00  0.00     0.006 C 
BRANCH  20  21
ATOM     21  C   UNL     1      21.562 -13.380  20.680  1.00  0.00     0.053 C 
BRANCH  21  22
ATOM     22  C   UNL     1      21.737 -12.210  21.595  1.00  0.00     0.041 C 
ATOM     23  O   UNL     1      22.821 -11.567  21.603  1.00  0.00    -0.550 OA
ATOM     24  O   UNL     1      20.693 -11.809  22.420  1.00  0.00    -0.550 OA
ENDBRANCH  21  22
ENDBRANCH  20  21
ENDBRANCH  19  20
ENDBRANCH  18  19
ENDBRANCH  17  18
ENDBRANCH  16  17
ENDBRANCH  15  16
ENDBRANCH  14  15
ENDBRANCH  13  14
ENDBRANCH   1  13
TORSDOF 20
ENDMDL
MODEL 6
REMARK VINA RESULT:    -5.304      1.670      3.496
REMARK INTER + INTRA:         -12.726
REMARK INTER:                 -11.678
REMARK INTRA:                  -1.048
REMARK UNBOUND:                -1.219
REMARK SMILES CCCCCCCCCCCCCCCCCCCCCC(=O)[O-]
REMARK SMILES IDX 12 1 11 2 10 3 9 4 8 5 7 6 6 7 5 8 4 9 3 10 2 11 1 12 13 13
REMARK SMILES IDX 14 14 15 15 16 16 17 17 18 18 19 19 20 20 21 21 22 22 23 23
REMARK SMILES IDX 24 24
REMARK H PARENT
REMARK Flexibility Score: inf
ROOT
ATOM      1  C   UNL     1      23.588 -13.287  21.288  1.00  0.00     0.000 C 
ENDROOT
BRANCH   1   2
ATOM      2  C   UNL     1      22.516 -12.272  21.711  1.00  0.00     0.000 C 
BRANCH   2   3
ATOM      3  C   UNL     1      23.039 -10.828  21.731  1.00  0.00     0.000 C 
BRANCH   3   4
ATOM      4  C   UNL     1      22.121  -9.878  22.517  1.00  0.00    -0.000 C 
BRANCH   4   5
ATOM      5  C   UNL     1      20.965 -10.646  23.169  1.00  0.00    -0.000 C 
BRANCH   5   6
ATOM      6  C   UNL     1      20.605 -10.044  24.532  1.00  0.00    -0.000 C 
BRANCH   6   7
ATOM      7  C   UNL     1      21.393  -8.751  24.789  1.00  0.00    -0.000 C 
BRANCH   7   8
ATOM      8  C   UNL     1      20.745  -7.852  25.859  1.00  0.00    -0.000 C 
BRANCH   8   9
ATOM      9  C   UNL     1      20.343  -6.445  25.377  1.00  0.00    -0.000 C 
BRANCH   9  10
ATOM     10  C   UNL     1      20.146  -6.366  23.853  1.00  0.00    -0.000 C 
BRANCH  10  11
ATOM     11  C   UNL     1      19.244  -5.193  23.439  1.00  0.00    -0.003 C 
ATOM     12  C   UNL     1      18.060  -4.993  24.386  1.00  0.00     0.004 C 
ENDBRANCH  10  11
ENDBRANCH   9  10
ENDBRANCH   8   9
ENDBRANCH   7   8
ENDBRANCH   6   7
ENDBRANCH   5   6
ENDBRANCH   4   5
ENDBRANCH   3   4
ENDBRANCH   2   3
ENDBRANCH   1   2
BRANCH   1  13
ATOM     13  C   UNL     1      22.962 -14.667  21.036  1.00  0.00     0.000 C 
BRANCH  13  14
ATOM     14  C   UNL     1      22.693 -14.934  19.547  1.00  0.00     0.000 C 
BRANCH  14  15
ATOM     15  C   UNL     1      22.995 -16.389  19.145  1.00  0.00     0.000 C 
BRANCH  15  16
ATOM     16  C   UNL     1      22.943 -16.604  17.624  1.00  0.00     0.000 C 
BRANCH  16  17
ATOM     17  C   UNL     1      23.622 -17.911  17.186  1.00  0.00     0.000 C 
BRANCH  17  18
ATOM     18  C   UNL     1      22.621 -18.832  16.472  1.00  0.00     0.000 C 
BRANCH  18  19
ATOM     19  C   UNL     1      21.825 -19.714  17.445  1.00  0.00     0.000 C 
BRANCH  19  20
ATOM     20  C   UNL     1      20.497 -20.206  16.849  1.00  0.00     0.006 C 
BRANCH  20  21
ATOM     21  C   UNL     1      19.786 -21.164  17.813  1.00  0.00     0.053 C 
BRANCH  21  22
ATOM     22  C   UNL     1      18.518 -21.676  17.207  1.00  0.00     0.041 C 
ATOM     23  O   UNL     1      18.289 -21.507  15.980  1.00  0.00    -0.550 OA
ATOM     24  O   UNL     1      17.602 -22.367  17.991  1.00  0.00    -0.550 OA
ENDBRANCH  21  22
ENDBRANCH  20  21
ENDBRANCH  19  20
ENDBRANCH  18  19
ENDBRANCH  17  18
ENDBRANCH  16  17
ENDBRANCH  15  16
ENDBRANCH  14  15
ENDBRANCH  13  14
ENDBRANCH   1  13
TORSDOF 20
ENDMDL
MODEL 7
REMARK VINA RESULT:    -5.302      6.765     14.109
REMARK INTER + INTRA:         -12.720
REMARK INTER:                 -11.760
REMARK INTRA:                  -0.960
REMARK UNBOUND:                -1.219
REMARK SMILES CCCCCCCCCCCCCCCCCCCCCC(=O)[O-]
REMARK SMILES IDX 12 1 11 2 10 3 9 4 8 5 7 6 6 7 5 8 4 9 3 10 2 11 1 12 13 13
REMARK SMILES IDX 14 14 15 15 16 16 17 17 18 18 19 19 20 20 21 21 22 22 23 23
REMARK SMILES IDX 24 24
REMARK H PARENT
REMARK Flexibility Score: inf
ROOT
ATOM      1  C   UNL     1      20.663  -9.889  25.001  1.00  0.00     0.000 C 
ENDROOT
BRANCH   1   2
ATOM      2  C   UNL     1      20.765 -10.716  23.711  1.00  0.00     0.000 C 
BRANCH   2   3
ATOM      3  C   UNL     1      21.730 -10.102  22.685  1.00  0.00     0.000 C 
BRANCH   3   4
ATOM      4  C   UNL     1      22.634 -11.153  22.022  1.00  0.00    -0.000 C 
BRANCH   4   5
ATOM      5  C   UNL     1      21.800 -12.257  21.362  1.00  0.00    -0.000 C 
BRANCH   5   6
ATOM      6  C   UNL     1      22.658 -13.491  21.061  1.00  0.00    -0.000 C 
BRANCH   6   7
ATOM      7  C   UNL     1      21.933 -14.446  20.101  1.00  0.00    -0.000 C 
BRANCH   7   8
ATOM      8  C   UNL     1      22.896 -15.349  19.309  1.00  0.00    -0.000 C 
BRANCH   8   9
ATOM      9  C   UNL     1      22.658 -15.387  17.787  1.00  0.00    -0.000 C 
BRANCH   9  10
ATOM     10  C   UNL     1      23.074 -16.724  17.148  1.00  0.00    -0.000 C 
BRANCH  10  11
ATOM     11  C   UNL     1      23.376 -17.806  18.196  1.00  0.00    -0.003 C 
ATOM     12  C   UNL     1      22.328 -18.920  18.218  1.00  0.00     0.004 C 
ENDBRANCH  10  11
ENDBRANCH   9  10
ENDBRANCH   8   9
ENDBRANCH   7   8
ENDBRANCH   6   7
ENDBRANCH   5   6
ENDBRANCH   4   5
ENDBRANCH   3   4
ENDBRANCH   2   3
ENDBRANCH   1   2
BRANCH   1  13
ATOM     13  C   UNL     1      21.197  -8.466  24.779  1.00  0.00     0.000 C 
BRANCH  13  14
ATOM     14  C   UNL     1      20.134  -7.386  25.038  1.00  0.00     0.000 C 
BRANCH  14  15
ATOM     15  C   UNL     1      20.471  -6.051  24.350  1.00  0.00     0.000 C 
BRANCH  15  16
ATOM     16  C   UNL     1      19.308  -5.516  23.500  1.00  0.00     0.000 C 
BRANCH  16  17
ATOM     17  C   UNL     1      18.053  -5.215  24.333  1.00  0.00     0.000 C 
BRANCH  17  18
ATOM     18  C   UNL     1      17.705  -3.720  24.273  1.00  0.00     0.000 C 
BRANCH  18  19
ATOM     19  C   UNL     1      16.254  -3.429  24.686  1.00  0.00     0.000 C 
BRANCH  19  20
ATOM     20  C   UNL     1      15.588  -4.621  25.392  1.00  0.00     0.006 C 
BRANCH  20  21
ATOM     21  C   UNL     1      14.857  -4.167  26.661  1.00  0.00     0.053 C 
BRANCH  21  22
ATOM     22  C   UNL     1      13.792  -5.147  27.035  1.00  0.00     0.041 C 
ATOM     23  O   UNL     1      14.098  -6.332  27.335  1.00  0.00    -0.550 OA
ATOM     24  O   UNL     1      12.462  -4.747  27.081  1.00  0.00    -0.550 OA
ENDBRANCH  21  22
ENDBRANCH  20  21
ENDBRANCH  19  20
ENDBRANCH  18  19
ENDBRANCH  17  18
ENDBRANCH  16  17
ENDBRANCH  15  16
ENDBRANCH  14  15
ENDBRANCH  13  14
ENDBRANCH   1  13
TORSDOF 20
ENDMDL
MODEL 8
REMARK VINA RESULT:    -5.260      1.927      4.334
REMARK INTER + INTRA:         -12.630
REMARK INTER:                 -11.446
REMARK INTRA:                  -1.184
REMARK UNBOUND:                -1.219
REMARK SMILES CCCCCCCCCCCCCCCCCCCCCC(=O)[O-]
REMARK SMILES IDX 12 1 11 2 10 3 9 4 8 5 7 6 6 7 5 8 4 9 3 10 2 11 1 12 13 13
REMARK SMILES IDX 14 14 15 15 16 16 17 17 18 18 19 19 20 20 21 21 22 22 23 23
REMARK SMILES IDX 24 24
REMARK H PARENT
REMARK Flexibility Score: inf
ROOT
ATOM      1  C   UNL     1      21.794 -12.657  21.259  1.00  0.00     0.000 C 
ENDROOT
BRANCH   1   2
ATOM      2  C   UNL     1      21.877 -11.423  22.169  1.00  0.00     0.000 C 
BRANCH   2   3
ATOM      3  C   UNL     1      20.698 -11.325  23.149  1.00  0.00     0.000 C 
BRANCH   3   4
ATOM      4  C   UNL     1      20.854 -10.167  24.147  1.00  0.00    -0.000 C 
BRANCH   4   5
ATOM      5  C   UNL     1      21.606  -8.992  23.513  1.00  0.00    -0.000 C 
BRANCH   5   6
ATOM      6  C   UNL     1      21.200  -7.664  24.163  1.00  0.00    -0.000 C 
BRANCH   6   7
ATOM      7  C   UNL     1      20.391  -7.903  25.446  1.00  0.00    -0.000 C 
BRANCH   7   8
ATOM      8  C   UNL     1      21.125  -7.439  26.717  1.00  0.00    -0.000 C 
BRANCH   8   9
ATOM      9  C   UNL     1      22.419  -6.639  26.472  1.00  0.00    -0.000 C 
BRANCH   9  10
ATOM     10  C   UNL     1      22.300  -5.163  26.892  1.00  0.00    -0.000 C 
BRANCH  10  11
ATOM     11  C   UNL     1      22.654  -4.198  25.750  1.00  0.00    -0.003 C 
ATOM     12  C   UNL     1      21.508  -4.011  24.754  1.00  0.00     0.004 C 
ENDBRANCH  10  11
ENDBRANCH   9  10
ENDBRANCH   8   9
ENDBRANCH   7   8
ENDBRANCH   6   7
ENDBRANCH   5   6
ENDBRANCH   4   5
ENDBRANCH   3   4
ENDBRANCH   2   3
ENDBRANCH   1   2
BRANCH   1  13
ATOM     13  C   UNL     1      23.143 -13.389  21.211  1.00  0.00     0.000 C 
BRANCH  13  14
ATOM     14  C   UNL     1      23.001 -14.871  20.832  1.00  0.00     0.000 C 
BRANCH  14  15
ATOM     15  C   UNL     1      22.745 -15.074  19.327  1.00  0.00     0.000 C 
BRANCH  15  16
ATOM     16  C   UNL     1      23.101 -16.492  18.854  1.00  0.00     0.000 C 
BRANCH  16  17
ATOM     17  C   UNL     1      23.028 -16.644  17.328  1.00  0.00     0.000 C 
BRANCH  17  18
ATOM     18  C   UNL     1      23.482 -18.047  16.897  1.00  0.00     0.000 C 
BRANCH  18  19
ATOM     19  C   UNL     1      22.330 -18.903  16.348  1.00  0.00     0.000 C 
BRANCH  19  20
ATOM     20  C   UNL     1      22.144 -20.216  17.124  1.00  0.00     0.006 C 
BRANCH  20  21
ATOM     21  C   UNL     1      20.661 -20.477  17.411  1.00  0.00     0.053 C 
BRANCH  21  22
ATOM     22  C   UNL     1      20.335 -21.925  17.227  1.00  0.00     0.041 C 
ATOM     23  O   UNL     1      20.135 -22.388  16.072  1.00  0.00    -0.550 OA
ATOM     24  O   UNL     1      20.281 -22.772  18.327  1.00  0.00    -0.550 OA
ENDBRANCH  21  22
ENDBRANCH  20  21
ENDBRANCH  19  20
ENDBRANCH  18  19
ENDBRANCH  17  18
ENDBRANCH  16  17
ENDBRANCH  15  16
ENDBRANCH  14  15
ENDBRANCH  13  14
ENDBRANCH   1  13
TORSDOF 20
ENDMDL
MODEL 9
REMARK VINA RESULT:    -5.228      2.988      6.257
REMARK INTER + INTRA:         -12.559
REMARK INTER:                 -11.350
REMARK INTRA:                  -1.209
REMARK UNBOUND:                -1.219
REMARK SMILES CCCCCCCCCCCCCCCCCCCCCC(=O)[O-]
REMARK SMILES IDX 12 1 11 2 10 3 9 4 8 5 7 6 6 7 5 8 4 9 3 10 2 11 1 12 13 13
REMARK SMILES IDX 14 14 15 15 16 16 17 17 18 18 19 19 20 20 21 21 22 22 23 23
REMARK SMILES IDX 24 24
REMARK H PARENT
REMARK Flexibility Score: inf
ROOT
ATOM      1  C   UNL     1      20.610 -11.344  23.140  1.00  0.00     0.000 C 
ENDROOT
BRANCH   1   2
ATOM      2  C   UNL     1      20.732 -10.231  24.190  1.00  0.00     0.000 C 
BRANCH   2   3
ATOM      3  C   UNL     1      21.446  -8.981  23.653  1.00  0.00     0.000 C 
BRANCH   3   4
ATOM      4  C   UNL     1      21.594  -7.882  24.716  1.00  0.00    -0.000 C 
BRANCH   4   5
ATOM      5  C   UNL     1      20.247  -7.579  25.384  1.00  0.00    -0.000 C 
BRANCH   5   6
ATOM      6  C   UNL     1      19.507  -6.458  24.646  1.00  0.00    -0.000 C 
BRANCH   6   7
ATOM      7  C   UNL     1      20.270  -5.128  24.757  1.00  0.00    -0.000 C 
BRANCH   7   8
ATOM      8  C   UNL     1      20.198  -4.283  23.472  1.00  0.00    -0.000 C 
BRANCH   8   9
ATOM      9  C   UNL     1      18.794  -3.767  23.103  1.00  0.00    -0.000 C 
BRANCH   9  10
ATOM     10  C   UNL     1      18.080  -3.078  24.280  1.00  0.00    -0.000 C 
BRANCH  10  11
ATOM     11  C   UNL     1      16.578  -3.403  24.325  1.00  0.00    -0.003 C 
ATOM     12  C   UNL     1      16.278  -4.716  25.050  1.00  0.00     0.004 C 
ENDBRANCH  10  11
ENDBRANCH   9  10
ENDBRANCH   8   9
ENDBRANCH   7   8
ENDBRANCH   6   7
ENDBRANCH   5   6
ENDBRANCH   4   5
ENDBRANCH   3   4
ENDBRANCH   2   3
ENDBRANCH   1   2
BRANCH   1  13
ATOM     13  C   UNL     1      21.870 -11.406  22.264  1.00  0.00     0.000 C 
BRANCH  13  14
ATOM     14  C   UNL     1      21.852 -12.588  21.281  1.00  0.00     0.000 C 
BRANCH  14  15
ATOM     15  C   UNL     1      23.178 -13.370  21.275  1.00  0.00     0.000 C 
BRANCH  15  16
ATOM     16  C   UNL     1      22.995 -14.838  20.859  1.00  0.00     0.000 C 
BRANCH  16  17
ATOM     17  C   UNL     1      22.651 -14.994  19.369  1.00  0.00     0.000 C 
BRANCH  17  18
ATOM     18  C   UNL     1      22.949 -16.422  18.888  1.00  0.00     0.000 C 
BRANCH  18  19
ATOM     19  C   UNL     1      23.001 -16.535  17.356  1.00  0.00     0.000 C 
BRANCH  19  20
ATOM     20  C   UNL     1      23.374 -17.947  16.878  1.00  0.00     0.006 C 
BRANCH  20  21
ATOM     21  C   UNL     1      22.809 -19.012  17.825  1.00  0.00     0.053 C 
BRANCH  21  22
ATOM     22  C   UNL     1      21.642 -19.708  17.200  1.00  0.00     0.041 C 
ATOM     23  O   UNL     1      21.507 -19.718  15.948  1.00  0.00    -0.550 OA
ATOM     24  O   UNL     1      20.718 -20.372  17.998  1.00  0.00    -0.550 OA
ENDBRANCH  21  22
ENDBRANCH  20  21
ENDBRANCH  19  20
ENDBRANCH  18  19
ENDBRANCH  17  18
ENDBRANCH  16  17
ENDBRANCH  15  16
ENDBRANCH  14  15
ENDBRANCH  13  14
ENDBRANCH   1  13
TORSDOF 20
ENDMDL
