MODEL 1
REMARK VINA RESULT:    -3.890      0.000      0.000
REMARK INTER + INTRA:          -4.631
REMARK INTER:                  -4.572
REMARK INTRA:                  -0.058
REMARK UNBOUND:                -0.058
REMARK SMILES CCCCC(=O)[O-]
REMARK SMILES IDX 4 1 5 2 6 3 7 4 3 5 2 6 1 7
REMARK H PARENT
REMARK Flexibility Score: inf
ROOT
ATOM      1  C   UNL     1      25.551 -11.575  33.278  1.00  0.00     0.053 C 
ENDROOT
BRANCH   1   2
ATOM      2  C   UNL     1      25.856 -12.357  32.040  1.00  0.00     0.041 C 
ATOM      3  O   UNL     1      26.617 -13.358  32.094  1.00  0.00    -0.550 OA
ATOM      4  O   UNL     1      25.258 -12.010  30.835  1.00  0.00    -0.550 OA
ENDBRANCH   1   2
BRANCH   1   5
ATOM      5  C   UNL     1      26.702 -11.696  34.285  1.00  0.00     0.006 C 
BRANCH   5   6
ATOM      6  C   UNL     1      27.746 -10.580  34.125  1.00  0.00    -0.003 C 
ATOM      7  C   UNL     1      28.934 -11.003  33.261  1.00  0.00     0.004 C 
ENDBRANCH   5   6
ENDBRANCH   1   5
TORSDOF 3
ENDMDL
MODEL 2
REMARK VINA RESULT:    -3.749     10.781     11.476
REMARK INTER + INTRA:          -4.464
REMARK INTER:                  -4.424
REMARK INTRA:                  -0.040
REMARK UNBOUND:                -0.058
REMARK SMILES CCCCC(=O)[O-]
REMARK SMILES IDX 4 1 5 2 6 3 7 4 3 5 2 6 1 7
REMARK H PARENT
REMARK Flexibility Score: inf
ROOT
ATOM      1  C   UNL     1      22.072 -21.364  32.690  1.00  0.00     0.053 C 
ENDROOT
BRANCH   1   2
ATOM      2  C   UNL     1      22.720 -22.575  33.282  1.00  0.00     0.041 C 
ATOM      3  O   UNL     1      22.233 -23.718  33.078  1.00  0.00    -0.550 OA
ATOM      4  O   UNL     1      23.892 -22.447  34.018  1.00  0.00    -0.550 OA
ENDBRANCH   1   2
BRANCH   1   5
ATOM      5  C   UNL     1      20.620 -21.245  33.168  1.00  0.00     0.006 C 
BRANCH   5   6
ATOM      6  C   UNL     1      19.728 -20.497  32.166  1.00  0.00    -0.003 C 
ATOM      7  C   UNL     1      20.528 -19.829  31.047  1.00  0.00     0.004 C 
ENDBRANCH   5   6
ENDBRANCH   1   5
TORSDOF 3
ENDMDL
MODEL 3
REMARK VINA RESULT:    -3.652     10.535     11.075
REMARK INTER + INTRA:          -4.351
REMARK INTER:                  -4.318
REMARK INTRA:                  -0.033
REMARK UNBOUND:                -0.058
REMARK SMILES CCCCC(=O)[O-]
REMARK SMILES IDX 4 1 5 2 6 3 7 4 3 5 2 6 1 7
REMARK H PARENT
REMARK Flexibility Score: inf
ROOT
ATOM      1  C   UNL     1      22.679 -21.124  32.338  1.00  0.00     0.053 C 
ENDROOT
BRANCH   1   2
ATOM      2  C   UNL     1      23.803 -22.047  32.688  1.00  0.00     0.041 C 
ATOM      3  O   UNL     1      24.575 -22.474  31.790  1.00  0.00    -0.550 OA
ATOM      4  O   UNL     1      24.029 -22.396  34.014  1.00  0.00    -0.550 OA
ENDBRANCH   1   2
BRANCH   1   5
ATOM      5  C   UNL     1      21.415 -21.497  33.122  1.00  0.00     0.006 C 
BRANCH   5   6
ATOM      6  C   UNL     1      20.131 -20.980  32.454  1.00  0.00    -0.003 C 
ATOM      7  C   UNL     1      20.414 -20.057  31.269  1.00  0.00     0.004 C 
ENDBRANCH   5   6
ENDBRANCH   1   5
TORSDOF 3
ENDMDL
MODEL 4
REMARK VINA RESULT:    -3.445     10.017     10.925
REMARK INTER + INTRA:          -4.107
REMARK INTER:                  -4.042
REMARK INTRA:                  -0.065
REMARK UNBOUND:                -0.058
REMARK SMILES CCCCC(=O)[O-]
REMARK SMILES IDX 4 1 5 2 6 3 7 4 3 5 2 6 1 7
REMARK H PARENT
REMARK Flexibility Score: inf
ROOT
ATOM      1  C   UNL     1      16.623 -15.445  37.371  1.00  0.00     0.053 C 
ENDROOT
BRANCH   1   2
ATOM      2  C   UNL     1      16.770 -16.808  36.773  1.00  0.00     0.041 C 
ATOM      3  O   UNL     1      16.262 -17.065  35.650  1.00  0.00    -0.550 OA
ATOM      4  O   UNL     1      17.510 -17.781  37.433  1.00  0.00    -0.550 OA
ENDBRANCH   1   2
BRANCH   1   5
ATOM      5  C   UNL     1      17.809 -14.556  36.977  1.00  0.00     0.006 C 
BRANCH   5   6
ATOM      6  C   UNL     1      17.464 -13.581  35.841  1.00  0.00    -0.003 C 
ATOM      7  C   UNL     1      18.543 -13.530  34.758  1.00  0.00     0.004 C 
ENDBRANCH   5   6
ENDBRANCH   1   5
TORSDOF 3
ENDMDL
MODEL 5
REMARK VINA RESULT:    -3.402      9.988     11.065
REMARK INTER + INTRA:          -4.057
REMARK INTER:                  -3.954
REMARK INTRA:                  -0.103
REMARK UNBOUND:                -0.058
REMARK SMILES CCCCC(=O)[O-]
REMARK SMILES IDX 4 1 5 2 6 3 7 4 3 5 2 6 1 7
REMARK H PARENT
REMARK Flexibility Score: inf
ROOT
ATOM      1  C   UNL     1      17.873 -14.314  37.042  1.00  0.00     0.053 C 
ENDROOT
BRANCH   1   2
ATOM      2  C   UNL     1      17.537 -13.897  35.645  1.00  0.00     0.041 C 
ATOM      3  O   UNL     1      18.429 -13.420  34.895  1.00  0.00    -0.550 OA
ATOM      4  O   UNL     1      16.251 -14.082  35.155  1.00  0.00    -0.550 OA
ENDBRANCH   1   2
BRANCH   1   5
ATOM      5  C   UNL     1      16.618 -14.815  37.768  1.00  0.00     0.006 C 
BRANCH   5   6
ATOM      6  C   UNL     1      16.217 -13.912  38.945  1.00  0.00    -0.003 C 
ATOM      7  C   UNL     1      15.137 -12.897  38.568  1.00  0.00     0.004 C 
ENDBRANCH   5   6
ENDBRANCH   1   5
TORSDOF 3
ENDMDL
MODEL 6
REMARK VINA RESULT:    -3.392     10.030     11.129
REMARK INTER + INTRA:          -4.046
REMARK INTER:                  -3.945
REMARK INTRA:                  -0.101
REMARK UNBOUND:                -0.058
REMARK SMILES CCCCC(=O)[O-]
REMARK SMILES IDX 4 1 5 2 6 3 7 4 3 5 2 6 1 7
REMARK H PARENT
REMARK Flexibility Score: inf
ROOT
ATOM      1  C   UNL     1      17.784 -14.276  37.065  1.00  0.00     0.053 C 
ENDROOT
BRANCH   1   2
ATOM      2  C   UNL     1      17.470 -13.915  35.647  1.00  0.00     0.041 C 
ATOM      3  O   UNL     1      16.309 -14.093  35.191  1.00  0.00    -0.550 OA
ATOM      4  O   UNL     1      18.444 -13.336  34.845  1.00  0.00    -0.550 OA
ENDBRANCH   1   2
BRANCH   1   5
ATOM      5  C   UNL     1      16.535 -14.820  37.769  1.00  0.00     0.006 C 
BRANCH   5   6
ATOM      6  C   UNL     1      16.117 -13.963  38.974  1.00  0.00    -0.003 C 
ATOM      7  C   UNL     1      15.111 -12.874  38.604  1.00  0.00     0.004 C 
ENDBRANCH   5   6
ENDBRANCH   1   5
TORSDOF 3
ENDMDL
MODEL 7
REMARK VINA RESULT:    -3.304      9.889     11.086
REMARK INTER + INTRA:          -3.942
REMARK INTER:                  -3.831
REMARK INTRA:                  -0.111
REMARK UNBOUND:                -0.058
REMARK SMILES CCCCC(=O)[O-]
REMARK SMILES IDX 4 1 5 2 6 3 7 4 3 5 2 6 1 7
REMARK H PARENT
REMARK Flexibility Score: inf
ROOT
ATOM      1  C   UNL     1      17.974 -14.600  36.975  1.00  0.00     0.053 C 
ENDROOT
BRANCH   1   2
ATOM      2  C   UNL     1      17.617 -13.692  35.841  1.00  0.00     0.041 C 
ATOM      3  O   UNL     1      16.511 -13.089  35.836  1.00  0.00    -0.550 OA
ATOM      4  O   UNL     1      18.527 -13.471  34.815  1.00  0.00    -0.550 OA
ENDBRANCH   1   2
BRANCH   1   5
ATOM      5  C   UNL     1      16.803 -15.536  37.300  1.00  0.00     0.006 C 
BRANCH   5   6
ATOM      6  C   UNL     1      16.642 -16.661  36.266  1.00  0.00    -0.003 C 
ATOM      7  C   UNL     1      15.190 -16.858  35.830  1.00  0.00     0.004 C 
ENDBRANCH   5   6
ENDBRANCH   1   5
TORSDOF 3
ENDMDL
MODEL 8
REMARK VINA RESULT:    -3.299     10.629     11.150
REMARK INTER + INTRA:          -3.936
REMARK INTER:                  -3.829
REMARK INTRA:                  -0.108
REMARK UNBOUND:                -0.058
REMARK SMILES CCCCC(=O)[O-]
REMARK SMILES IDX 4 1 5 2 6 3 7 4 3 5 2 6 1 7
REMARK H PARENT
REMARK Flexibility Score: inf
ROOT
ATOM      1  C   UNL     1      22.560 -22.714  33.337  1.00  0.00     0.053 C 
ENDROOT
BRANCH   1   2
ATOM      2  C   UNL     1      21.960 -21.418  32.891  1.00  0.00     0.041 C 
ATOM      3  O   UNL     1      22.561 -20.698  32.050  1.00  0.00    -0.550 OA
ATOM      4  O   UNL     1      20.713 -21.029  33.364  1.00  0.00    -0.550 OA
ENDBRANCH   1   2
BRANCH   1   5
ATOM      5  C   UNL     1      24.037 -22.524  33.701  1.00  0.00     0.006 C 
BRANCH   5   6
ATOM      6  C   UNL     1      24.964 -23.465  32.916  1.00  0.00    -0.003 C 
ATOM      7  C   UNL     1      25.216 -22.987  31.485  1.00  0.00     0.004 C 
ENDBRANCH   5   6
ENDBRANCH   1   5
TORSDOF 3
ENDMDL
MODEL 9
REMARK VINA RESULT:    -3.253     11.072     12.020
REMARK INTER + INTRA:          -3.882
REMARK INTER:                  -3.790
REMARK INTRA:                  -0.092
REMARK UNBOUND:                -0.058
REMARK SMILES CCCCC(=O)[O-]
REMARK SMILES IDX 4 1 5 2 6 3 7 4 3 5 2 6 1 7
REMARK H PARENT
REMARK Flexibility Score: inf
ROOT
ATOM      1  C   UNL     1      17.270 -14.264  37.517  1.00  0.00     0.053 C 
ENDROOT
BRANCH   1   2
ATOM      2  C   UNL     1      16.966 -15.498  36.727  1.00  0.00     0.041 C 
ATOM      3  O   UNL     1      17.284 -16.631  37.175  1.00  0.00    -0.550 OA
ATOM      4  O   UNL     1      16.285 -15.400  35.520  1.00  0.00    -0.550 OA
ENDBRANCH   1   2
BRANCH   1   5
ATOM      5  C   UNL     1      15.987 -13.691  38.131  1.00  0.00     0.006 C 
BRANCH   5   6
ATOM      6  C   UNL     1      15.916 -13.898  39.651  1.00  0.00    -0.003 C 
ATOM      7  C   UNL     1      15.112 -15.139  40.041  1.00  0.00     0.004 C 
ENDBRANCH   5   6
ENDBRANCH   1   5
TORSDOF 3
ENDMDL
