MODEL 1
REMARK VINA RESULT:    -2.544      0.000      0.000
REMARK INTER + INTRA:          -3.356
REMARK INTER:                  -3.213
REMARK INTRA:                  -0.143
REMARK UNBOUND:                -0.143
REMARK SMILES CCCCCCO
REMARK SMILES IDX 4 1 3 2 2 3 1 4 5 5 6 6 7 7
REMARK H PARENT 7 8
REMARK Flexibility Score: inf
ROOT
ATOM      1  C   UNL     1     117.975 115.087 120.604  1.00  0.00     0.002 C 
ENDROOT
BRANCH   1   2
ATOM      2  C   UNL     1     118.782 115.947 119.619  1.00  0.00    -0.000 C 
BRANCH   2   3
ATOM      3  C   UNL     1     118.873 117.417 120.055  1.00  0.00    -0.003 C 
ATOM      4  C   UNL     1     120.140 118.073 119.512  1.00  0.00     0.004 C 
ENDBRANCH   2   3
ENDBRANCH   1   2
BRANCH   1   5
ATOM      5  C   UNL     1     117.380 115.911 121.759  1.00  0.00     0.028 C 
BRANCH   5   6
ATOM      6  C   UNL     1     117.793 115.352 123.124  1.00  0.00     0.156 C 
BRANCH   6   7
ATOM      7  O   UNL     1     118.822 114.407 122.989  1.00  0.00    -0.396 OA
ATOM      8  H   UNL     1     119.552 114.693 123.597  1.00  0.00     0.210 HD
ENDBRANCH   6   7
ENDBRANCH   5   6
ENDBRANCH   1   5
TORSDOF 5
ENDMDL
MODEL 2
REMARK VINA RESULT:    -2.504      3.113      3.549
REMARK INTER + INTRA:          -3.305
REMARK INTER:                  -3.168
REMARK INTRA:                  -0.138
REMARK UNBOUND:                -0.143
REMARK SMILES CCCCCCO
REMARK SMILES IDX 4 1 3 2 2 3 1 4 5 5 6 6 7 7
REMARK H PARENT 7 8
REMARK Flexibility Score: inf
ROOT
ATOM      1  C   UNL     1     115.028 115.074 120.577  1.00  0.00     0.002 C 
ENDROOT
BRANCH   1   2
ATOM      2  C   UNL     1     115.964 114.409 119.556  1.00  0.00    -0.000 C 
BRANCH   2   3
ATOM      3  C   UNL     1     117.409 114.299 120.064  1.00  0.00    -0.003 C 
ATOM      4  C   UNL     1     118.093 113.053 119.508  1.00  0.00     0.004 C 
ENDBRANCH   2   3
ENDBRANCH   1   2
BRANCH   1   5
ATOM      5  C   UNL     1     115.793 115.836 121.673  1.00  0.00     0.028 C 
BRANCH   5   6
ATOM      6  C   UNL     1     115.357 115.396 123.076  1.00  0.00     0.156 C 
BRANCH   6   7
ATOM      7  O   UNL     1     114.412 114.362 123.006  1.00  0.00    -0.396 OA
ATOM      8  H   UNL     1     114.853 113.606 122.537  1.00  0.00     0.210 HD
ENDBRANCH   6   7
ENDBRANCH   5   6
ENDBRANCH   1   5
TORSDOF 5
ENDMDL
MODEL 3
REMARK VINA RESULT:    -2.490      4.716      5.175
REMARK INTER + INTRA:          -3.287
REMARK INTER:                  -3.201
REMARK INTRA:                  -0.087
REMARK UNBOUND:                -0.143
REMARK SMILES CCCCCCO
REMARK SMILES IDX 4 1 3 2 2 3 1 4 5 5 6 6 7 7
REMARK H PARENT 7 8
REMARK Flexibility Score: inf
ROOT
ATOM      1  C   UNL     1     114.893 117.122 120.593  1.00  0.00     0.002 C 
ENDROOT
BRANCH   1   2
ATOM      2  C   UNL     1     114.904 118.650 120.757  1.00  0.00    -0.000 C 
BRANCH   2   3
ATOM      3  C   UNL     1     115.629 119.362 119.606  1.00  0.00    -0.003 C 
ATOM      4  C   UNL     1     114.823 120.558 119.104  1.00  0.00     0.004 C 
ENDBRANCH   2   3
ENDBRANCH   1   2
BRANCH   1   5
ATOM      5  C   UNL     1     114.052 116.662 119.390  1.00  0.00     0.028 C 
BRANCH   5   6
ATOM      6  C   UNL     1     113.531 115.233 119.578  1.00  0.00     0.156 C 
BRANCH   6   7
ATOM      7  O   UNL     1     112.210 115.239 120.050  1.00  0.00    -0.396 OA
ATOM      8  H   UNL     1     111.661 115.678 119.348  1.00  0.00     0.210 HD
ENDBRANCH   6   7
ENDBRANCH   5   6
ENDBRANCH   1   5
TORSDOF 5
ENDMDL
MODEL 4
REMARK VINA RESULT:    -2.487      2.005      2.436
REMARK INTER + INTRA:          -3.284
REMARK INTER:                  -3.225
REMARK INTRA:                  -0.059
REMARK UNBOUND:                -0.143
REMARK SMILES CCCCCCO
REMARK SMILES IDX 4 1 3 2 2 3 1 4 5 5 6 6 7 7
REMARK H PARENT 7 8
REMARK Flexibility Score: inf
ROOT
ATOM      1  C   UNL     1     118.721 115.736 119.585  1.00  0.00     0.002 C 
ENDROOT
BRANCH   1   2
ATOM      2  C   UNL     1     118.257 117.091 120.142  1.00  0.00    -0.000 C 
BRANCH   2   3
ATOM      3  C   UNL     1     118.934 118.279 119.444  1.00  0.00    -0.003 C 
ATOM      4  C   UNL     1     120.453 118.198 119.569  1.00  0.00     0.004 C 
ENDBRANCH   2   3
ENDBRANCH   1   2
BRANCH   1   5
ATOM      5  C   UNL     1     118.105 114.544 120.338  1.00  0.00     0.028 C 
BRANCH   5   6
ATOM      6  C   UNL     1     117.860 113.352 119.406  1.00  0.00     0.156 C 
BRANCH   6   7
ATOM      7  O   UNL     1     118.077 112.139 120.077  1.00  0.00    -0.396 OA
ATOM      8  H   UNL     1     117.256 111.956 120.605  1.00  0.00     0.210 HD
ENDBRANCH   6   7
ENDBRANCH   5   6
ENDBRANCH   1   5
TORSDOF 5
ENDMDL
MODEL 5
REMARK VINA RESULT:    -2.470      3.063      4.310
REMARK INTER + INTRA:          -3.262
REMARK INTER:                  -3.180
REMARK INTRA:                  -0.083
REMARK UNBOUND:                -0.143
REMARK SMILES CCCCCCO
REMARK SMILES IDX 4 1 3 2 2 3 1 4 5 5 6 6 7 7
REMARK H PARENT 7 8
REMARK Flexibility Score: inf
ROOT
ATOM      1  C   UNL     1     117.730 118.496 120.474  1.00  0.00     0.002 C 
ENDROOT
BRANCH   1   2
ATOM      2  C   UNL     1     116.819 118.934 119.316  1.00  0.00    -0.000 C 
BRANCH   2   3
ATOM      3  C   UNL     1     115.422 119.358 119.790  1.00  0.00    -0.003 C 
ATOM      4  C   UNL     1     114.922 118.447 120.909  1.00  0.00     0.004 C 
ENDBRANCH   2   3
ENDBRANCH   1   2
BRANCH   1   5
ATOM      5  C   UNL     1     118.743 117.417 120.055  1.00  0.00     0.028 C 
BRANCH   5   6
ATOM      6  C   UNL     1     119.914 118.016 119.269  1.00  0.00     0.156 C 
BRANCH   6   7
ATOM      7  O   UNL     1     121.084 118.026 120.043  1.00  0.00    -0.396 OA
ATOM      8  H   UNL     1     121.636 117.261 119.733  1.00  0.00     0.210 HD
ENDBRANCH   6   7
ENDBRANCH   5   6
ENDBRANCH   1   5
TORSDOF 5
ENDMDL
MODEL 6
REMARK VINA RESULT:    -2.458      5.007      6.041
REMARK INTER + INTRA:          -3.248
REMARK INTER:                  -3.175
REMARK INTRA:                  -0.072
REMARK UNBOUND:                -0.143
REMARK SMILES CCCCCCO
REMARK SMILES IDX 4 1 3 2 2 3 1 4 5 5 6 6 7 7
REMARK H PARENT 7 8
REMARK Flexibility Score: inf
ROOT
ATOM      1  C   UNL     1     113.722 115.785 119.773  1.00  0.00     0.002 C 
ENDROOT
BRANCH   1   2
ATOM      2  C   UNL     1     112.505 114.884 119.514  1.00  0.00    -0.000 C 
BRANCH   2   3
ATOM      3  C   UNL     1     112.470 114.337 118.080  1.00  0.00    -0.003 C 
ATOM      4  C   UNL     1     111.146 113.632 117.793  1.00  0.00     0.004 C 
ENDBRANCH   2   3
ENDBRANCH   1   2
BRANCH   1   5
ATOM      5  C   UNL     1     114.931 115.005 120.319  1.00  0.00     0.028 C 
BRANCH   5   6
ATOM      6  C   UNL     1     115.128 115.243 121.819  1.00  0.00     0.156 C 
BRANCH   6   7
ATOM      7  O   UNL     1     114.373 114.333 122.575  1.00  0.00    -0.396 OA
ATOM      8  H   UNL     1     113.685 113.960 121.964  1.00  0.00     0.210 HD
ENDBRANCH   6   7
ENDBRANCH   5   6
ENDBRANCH   1   5
TORSDOF 5
ENDMDL
MODEL 7
REMARK VINA RESULT:    -2.452      3.506      4.756
REMARK INTER + INTRA:          -3.240
REMARK INTER:                  -3.178
REMARK INTRA:                  -0.062
REMARK UNBOUND:                -0.143
REMARK SMILES CCCCCCO
REMARK SMILES IDX 4 1 3 2 2 3 1 4 5 5 6 6 7 7
REMARK H PARENT 7 8
REMARK Flexibility Score: inf
ROOT
ATOM      1  C   UNL     1     115.722 114.466 119.410  1.00  0.00     0.002 C 
ENDROOT
BRANCH   1   2
ATOM      2  C   UNL     1     114.688 115.105 120.350  1.00  0.00    -0.000 C 
BRANCH   2   3
ATOM      3  C   UNL     1     113.447 115.614 119.603  1.00  0.00    -0.003 C 
ATOM      4  C   UNL     1     113.057 114.664 118.473  1.00  0.00     0.004 C 
ENDBRANCH   2   3
ENDBRANCH   1   2
BRANCH   1   5
ATOM      5  C   UNL     1     117.141 114.461 120.005  1.00  0.00     0.028 C 
BRANCH   5   6
ATOM      6  C   UNL     1     118.029 113.404 119.342  1.00  0.00     0.156 C 
BRANCH   6   7
ATOM      7  O   UNL     1     117.973 112.190 120.045  1.00  0.00    -0.396 OA
ATOM      8  H   UNL     1     117.112 112.188 120.538  1.00  0.00     0.210 HD
ENDBRANCH   6   7
ENDBRANCH   5   6
ENDBRANCH   1   5
TORSDOF 5
ENDMDL
MODEL 8
REMARK VINA RESULT:    -2.447      1.508      2.744
REMARK INTER + INTRA:          -3.233
REMARK INTER:                  -3.068
REMARK INTRA:                  -0.165
REMARK UNBOUND:                -0.143
REMARK SMILES CCCCCCO
REMARK SMILES IDX 4 1 3 2 2 3 1 4 5 5 6 6 7 7
REMARK H PARENT 7 8
REMARK Flexibility Score: inf
ROOT
ATOM      1  C   UNL     1     118.388 115.897 120.472  1.00  0.00     0.002 C 
ENDROOT
BRANCH   1   2
ATOM      2  C   UNL     1     118.393 114.979 119.239  1.00  0.00    -0.000 C 
BRANCH   2   3
ATOM      3  C   UNL     1     117.726 113.623 119.511  1.00  0.00    -0.003 C 
ATOM      4  C   UNL     1     118.499 112.488 118.844  1.00  0.00     0.004 C 
ENDBRANCH   2   3
ENDBRANCH   1   2
BRANCH   1   5
ATOM      5  C   UNL     1     117.285 115.530 121.479  1.00  0.00     0.028 C 
BRANCH   5   6
ATOM      6  C   UNL     1     117.849 115.344 122.892  1.00  0.00     0.156 C 
BRANCH   6   7
ATOM      7  O   UNL     1     118.842 114.353 122.909  1.00  0.00    -0.396 OA
ATOM      8  H   UNL     1     118.530 113.628 122.307  1.00  0.00     0.210 HD
ENDBRANCH   6   7
ENDBRANCH   5   6
ENDBRANCH   1   5
TORSDOF 5
ENDMDL
MODEL 9
REMARK VINA RESULT:    -2.440      2.083      3.476
REMARK INTER + INTRA:          -3.224
REMARK INTER:                  -3.125
REMARK INTRA:                  -0.099
REMARK UNBOUND:                -0.143
REMARK SMILES CCCCCCO
REMARK SMILES IDX 4 1 3 2 2 3 1 4 5 5 6 6 7 7
REMARK H PARENT 7 8
REMARK Flexibility Score: inf
ROOT
ATOM      1  C   UNL     1     118.939 116.378 119.708  1.00  0.00     0.002 C 
ENDROOT
BRANCH   1   2
ATOM      2  C   UNL     1     118.166 115.530 120.729  1.00  0.00    -0.000 C 
BRANCH   2   3
ATOM      3  C   UNL     1     117.260 114.484 120.063  1.00  0.00    -0.003 C 
ATOM      4  C   UNL     1     118.059 113.255 119.638  1.00  0.00     0.004 C 
ENDBRANCH   2   3
ENDBRANCH   1   2
BRANCH   1   5
ATOM      5  C   UNL     1     118.969 117.871 120.080  1.00  0.00     0.028 C 
BRANCH   5   6
ATOM      6  C   UNL     1     118.125 118.160 121.326  1.00  0.00     0.156 C 
BRANCH   6   7
ATOM      7  O   UNL     1     118.875 118.850 122.290  1.00  0.00    -0.396 OA
ATOM      8  H   UNL     1     119.729 118.353 122.394  1.00  0.00     0.210 HD
ENDBRANCH   6   7
ENDBRANCH   5   6
ENDBRANCH   1   5
TORSDOF 5
ENDMDL
