MODEL 1
REMARK VINA RESULT:    -5.018      0.000      0.000
REMARK INTER + INTRA:          -6.031
REMARK INTER:                  -5.752
REMARK INTRA:                  -0.279
REMARK UNBOUND:                -0.279
REMARK SMILES O=C([O-])C=Cc1ccc(O)cc1
REMARK SMILES IDX 6 1 7 2 12 3 8 4 11 5 9 6 5 7 4 8 2 9 1 10 3 11 10 12
REMARK H PARENT 10 13
REMARK Flexibility Score: inf
ROOT
ATOM      1  C   UNL     1       3.919 -14.697   7.130  1.00  0.00    -0.025 A 
ATOM      2  C   UNL     1       3.266 -14.174   8.261  1.00  0.00     0.012 A 
ATOM      3  C   UNL     1       3.434 -15.875   6.541  1.00  0.00     0.012 A 
ATOM      4  C   UNL     1       2.178 -14.850   8.821  1.00  0.00     0.047 A 
ATOM      5  C   UNL     1       2.346 -16.549   7.104  1.00  0.00     0.047 A 
ATOM      6  C   UNL     1       1.718 -16.039   8.249  1.00  0.00     0.115 A 
ENDROOT
BRANCH   1   7
ATOM      7  C   UNL     1       5.036 -13.973   6.487  1.00  0.00     0.010 C 
ATOM      8  C   UNL     1       6.312 -13.985   6.903  1.00  0.00     0.025 C 
BRANCH   8   9
ATOM      9  C   UNL     1       6.867 -14.853   7.959  1.00  0.00     0.064 C 
ATOM     10  O   UNL     1       7.407 -15.958   7.687  1.00  0.00    -0.545 OA
ATOM     11  O   UNL     1       6.855 -14.411   9.275  1.00  0.00    -0.545 OA
ENDBRANCH   8   9
ENDBRANCH   1   7
BRANCH   6  12
ATOM     12  O   UNL     1       0.634 -16.703   8.819  1.00  0.00    -0.508 OA
ATOM     13  H   UNL     1       0.764 -17.498   9.434  1.00  0.00     0.293 HD
ENDBRANCH   6  12
TORSDOF 3
ENDMDL
MODEL 2
REMARK VINA RESULT:    -4.654      2.012      4.961
REMARK INTER + INTRA:          -5.613
REMARK INTER:                  -5.348
REMARK INTRA:                  -0.265
REMARK UNBOUND:                -0.279
REMARK SMILES O=C([O-])C=Cc1ccc(O)cc1
REMARK SMILES IDX 6 1 7 2 12 3 8 4 11 5 9 6 5 7 4 8 2 9 1 10 3 11 10 12
REMARK H PARENT 10 13
REMARK Flexibility Score: inf
ROOT
ATOM      1  C   UNL     1       5.084 -14.507   7.241  1.00  0.00    -0.025 A 
ATOM      2  C   UNL     1       5.269 -13.814   6.031  1.00  0.00     0.012 A 
ATOM      3  C   UNL     1       6.149 -15.246   7.778  1.00  0.00     0.012 A 
ATOM      4  C   UNL     1       6.484 -13.906   5.346  1.00  0.00     0.047 A 
ATOM      5  C   UNL     1       7.364 -15.335   7.091  1.00  0.00     0.047 A 
ATOM      6  C   UNL     1       7.532 -14.668   5.870  1.00  0.00     0.115 A 
ENDROOT
BRANCH   1   7
ATOM      7  C   UNL     1       3.829 -14.383   8.011  1.00  0.00     0.010 C 
ATOM      8  C   UNL     1       2.786 -15.225   7.939  1.00  0.00     0.025 C 
BRANCH   8   9
ATOM      9  C   UNL     1       2.767 -16.515   7.223  1.00  0.00     0.064 C 
ATOM     10  O   UNL     1       2.182 -16.646   6.116  1.00  0.00    -0.545 OA
ATOM     11  O   UNL     1       3.469 -17.591   7.750  1.00  0.00    -0.545 OA
ENDBRANCH   8   9
ENDBRANCH   1   7
BRANCH   6  12
ATOM     12  O   UNL     1       8.737 -14.751   5.175  1.00  0.00    -0.508 OA
ATOM     13  H   UNL     1       9.341 -15.561   5.258  1.00  0.00     0.293 HD
ENDBRANCH   6  12
TORSDOF 3
ENDMDL
MODEL 3
REMARK VINA RESULT:    -4.628      4.209      5.968
REMARK INTER + INTRA:          -5.583
REMARK INTER:                  -5.322
REMARK INTRA:                  -0.261
REMARK UNBOUND:                -0.279
REMARK SMILES O=C([O-])C=Cc1ccc(O)cc1
REMARK SMILES IDX 6 1 7 2 12 3 8 4 11 5 9 6 5 7 4 8 2 9 1 10 3 11 10 12
REMARK H PARENT 10 13
REMARK Flexibility Score: inf
ROOT
ATOM      1  C   UNL     1       9.162 -16.315   6.806  1.00  0.00    -0.025 A 
ATOM      2  C   UNL     1       9.328 -15.583   5.616  1.00  0.00     0.012 A 
ATOM      3  C   UNL     1       8.038 -16.071   7.610  1.00  0.00     0.012 A 
ATOM      4  C   UNL     1       8.411 -14.587   5.268  1.00  0.00     0.047 A 
ATOM      5  C   UNL     1       7.122 -15.074   7.259  1.00  0.00     0.047 A 
ATOM      6  C   UNL     1       7.309 -14.327   6.088  1.00  0.00     0.115 A 
ENDROOT
BRANCH   1   7
ATOM      7  C   UNL     1      10.087 -17.409   7.169  1.00  0.00     0.010 C 
ATOM      8  C   UNL     1      11.307 -17.250   7.705  1.00  0.00     0.025 C 
BRANCH   8   9
ATOM      9  C   UNL     1      11.875 -15.979   8.193  1.00  0.00     0.064 C 
ATOM     10  O   UNL     1      11.898 -15.696   9.420  1.00  0.00    -0.545 OA
ATOM     11  O   UNL     1      12.460 -15.106   7.285  1.00  0.00    -0.545 OA
ENDBRANCH   8   9
ENDBRANCH   1   7
BRANCH   6  12
ATOM     12  O   UNL     1       6.404 -13.331   5.729  1.00  0.00    -0.508 OA
ATOM     13  H   UNL     1       6.623 -12.650   5.011  1.00  0.00     0.293 HD
ENDBRANCH   6  12
TORSDOF 3
ENDMDL
MODEL 4
REMARK VINA RESULT:    -4.350     12.796     14.445
REMARK INTER + INTRA:          -5.265
REMARK INTER:                  -5.126
REMARK INTRA:                  -0.139
REMARK UNBOUND:                -0.279
REMARK SMILES O=C([O-])C=Cc1ccc(O)cc1
REMARK SMILES IDX 6 1 7 2 12 3 8 4 11 5 9 6 5 7 4 8 2 9 1 10 3 11 10 12
REMARK H PARENT 10 13
REMARK Flexibility Score: inf
ROOT
ATOM      1  C   UNL     1      13.647 -24.621  14.153  1.00  0.00    -0.025 A 
ATOM      2  C   UNL     1      14.037 -25.901  13.718  1.00  0.00     0.012 A 
ATOM      3  C   UNL     1      12.370 -24.444  14.706  1.00  0.00     0.012 A 
ATOM      4  C   UNL     1      13.141 -26.971  13.787  1.00  0.00     0.047 A 
ATOM      5  C   UNL     1      11.475 -25.517  14.774  1.00  0.00     0.047 A 
ATOM      6  C   UNL     1      11.858 -26.783  14.311  1.00  0.00     0.115 A 
ENDROOT
BRANCH   1   7
ATOM      7  C   UNL     1      14.594 -23.486  14.141  1.00  0.00     0.010 C 
ATOM      8  C   UNL     1      14.498 -22.402  13.355  1.00  0.00     0.025 C 
BRANCH   8   9
ATOM      9  C   UNL     1      13.348 -22.059  12.496  1.00  0.00     0.064 C 
ATOM     10  O   UNL     1      12.423 -21.307  12.903  1.00  0.00    -0.545 OA
ATOM     11  O   UNL     1      13.320 -22.520  11.187  1.00  0.00    -0.545 OA
ENDBRANCH   8   9
ENDBRANCH   1   7
BRANCH   6  12
ATOM     12  O   UNL     1      10.976 -27.859  14.372  1.00  0.00    -0.508 OA
ATOM     13  H   UNL     1      11.287 -28.810  14.210  1.00  0.00     0.293 HD
ENDBRANCH   6  12
TORSDOF 3
ENDMDL
MODEL 5
REMARK VINA RESULT:    -4.320      6.830      8.917
REMARK INTER + INTRA:          -5.231
REMARK INTER:                  -4.940
REMARK INTRA:                  -0.291
REMARK UNBOUND:                -0.279
REMARK SMILES O=C([O-])C=Cc1ccc(O)cc1
REMARK SMILES IDX 6 1 7 2 12 3 8 4 11 5 9 6 5 7 4 8 2 9 1 10 3 11 10 12
REMARK H PARENT 10 13
REMARK Flexibility Score: inf
ROOT
ATOM      1  C   UNL     1       9.095 -13.575  12.855  1.00  0.00    -0.025 A 
ATOM      2  C   UNL     1       8.744 -14.365  13.964  1.00  0.00     0.012 A 
ATOM      3  C   UNL     1      10.431 -13.180  12.690  1.00  0.00     0.012 A 
ATOM      4  C   UNL     1       9.706 -14.706  14.919  1.00  0.00     0.047 A 
ATOM      5  C   UNL     1      11.392 -13.523  13.647  1.00  0.00     0.047 A 
ATOM      6  C   UNL     1      11.030 -14.284  14.767  1.00  0.00     0.115 A 
ENDROOT
BRANCH   1   7
ATOM      7  C   UNL     1       8.109 -13.247  11.804  1.00  0.00     0.010 C 
ATOM      8  C   UNL     1       7.264 -12.204  11.828  1.00  0.00     0.025 C 
BRANCH   8   9
ATOM      9  C   UNL     1       7.285 -11.101  12.809  1.00  0.00     0.064 C 
ATOM     10  O   UNL     1       7.860 -10.009  12.560  1.00  0.00    -0.545 OA
ATOM     11  O   UNL     1       6.594 -11.246  14.005  1.00  0.00    -0.545 OA
ENDBRANCH   8   9
ENDBRANCH   1   7
BRANCH   6  12
ATOM     12  O   UNL     1      11.977 -14.630  15.727  1.00  0.00    -0.508 OA
ATOM     13  H   UNL     1      12.468 -15.516  15.692  1.00  0.00     0.293 HD
ENDBRANCH   6  12
TORSDOF 3
ENDMDL
MODEL 6
REMARK VINA RESULT:    -4.310      3.018      4.504
REMARK INTER + INTRA:          -5.219
REMARK INTER:                  -4.991
REMARK INTRA:                  -0.227
REMARK UNBOUND:                -0.279
REMARK SMILES O=C([O-])C=Cc1ccc(O)cc1
REMARK SMILES IDX 6 1 7 2 12 3 8 4 11 5 9 6 5 7 4 8 2 9 1 10 3 11 10 12
REMARK H PARENT 10 13
REMARK Flexibility Score: inf
ROOT
ATOM      1  C   UNL     1       5.722 -15.178   8.142  1.00  0.00    -0.025 A 
ATOM      2  C   UNL     1       7.007 -15.448   7.638  1.00  0.00     0.012 A 
ATOM      3  C   UNL     1       4.846 -14.378   7.393  1.00  0.00     0.012 A 
ATOM      4  C   UNL     1       7.423 -14.880   6.429  1.00  0.00     0.047 A 
ATOM      5  C   UNL     1       5.264 -13.812   6.185  1.00  0.00     0.047 A 
ATOM      6  C   UNL     1       6.557 -14.059   5.702  1.00  0.00     0.115 A 
ENDROOT
BRANCH   1   7
ATOM      7  C   UNL     1       5.240 -15.809   9.389  1.00  0.00     0.010 C 
ATOM      8  C   UNL     1       5.648 -15.493  10.628  1.00  0.00     0.025 C 
BRANCH   8   9
ATOM      9  C   UNL     1       6.508 -14.348  10.987  1.00  0.00     0.064 C 
ATOM     10  O   UNL     1       6.022 -13.265  11.407  1.00  0.00    -0.545 OA
ATOM     11  O   UNL     1       7.887 -14.494  10.927  1.00  0.00    -0.545 OA
ENDBRANCH   8   9
ENDBRANCH   1   7
BRANCH   6  12
ATOM     12  O   UNL     1       6.985 -13.500   4.501  1.00  0.00    -0.508 OA
ATOM     13  H   UNL     1       7.372 -14.071   3.758  1.00  0.00     0.293 HD
ENDBRANCH   6  12
TORSDOF 3
ENDMDL
MODEL 7
REMARK VINA RESULT:    -4.300      8.346      9.629
REMARK INTER + INTRA:          -5.207
REMARK INTER:                  -4.967
REMARK INTRA:                  -0.240
REMARK UNBOUND:                -0.279
REMARK SMILES O=C([O-])C=Cc1ccc(O)cc1
REMARK SMILES IDX 6 1 7 2 12 3 8 4 11 5 9 6 5 7 4 8 2 9 1 10 3 11 10 12
REMARK H PARENT 10 13
REMARK Flexibility Score: inf
ROOT
ATOM      1  C   UNL     1       9.534 -13.663  13.771  1.00  0.00    -0.025 A 
ATOM      2  C   UNL     1      10.907 -13.894  13.964  1.00  0.00     0.012 A 
ATOM      3  C   UNL     1       8.616 -14.151  14.714  1.00  0.00     0.012 A 
ATOM      4  C   UNL     1      11.347 -14.649  15.056  1.00  0.00     0.047 A 
ATOM      5  C   UNL     1       9.059 -14.905  15.805  1.00  0.00     0.047 A 
ATOM      6  C   UNL     1      10.427 -15.159  15.976  1.00  0.00     0.115 A 
ENDROOT
BRANCH   1   7
ATOM      7  C   UNL     1       9.047 -12.823  12.656  1.00  0.00     0.010 C 
ATOM      8  C   UNL     1       8.974 -11.483  12.666  1.00  0.00     0.025 C 
BRANCH   8   9
ATOM      9  C   UNL     1       9.526 -10.597  13.709  1.00  0.00     0.064 C 
ATOM     10  O   UNL     1      10.551  -9.896  13.503  1.00  0.00    -0.545 OA
ATOM     11  O   UNL     1       8.860 -10.483  14.922  1.00  0.00    -0.545 OA
ENDBRANCH   8   9
ENDBRANCH   1   7
BRANCH   6  12
ATOM     12  O   UNL     1      10.880 -15.910  17.058  1.00  0.00    -0.508 OA
ATOM     13  H   UNL     1      10.249 -16.226  17.785  1.00  0.00     0.293 HD
ENDBRANCH   6  12
TORSDOF 3
ENDMDL
MODEL 8
REMARK VINA RESULT:    -4.282      7.263      8.521
REMARK INTER + INTRA:          -5.186
REMARK INTER:                  -4.891
REMARK INTRA:                  -0.295
REMARK UNBOUND:                -0.279
REMARK SMILES O=C([O-])C=Cc1ccc(O)cc1
REMARK SMILES IDX 6 1 7 2 12 3 8 4 11 5 9 6 5 7 4 8 2 9 1 10 3 11 10 12
REMARK H PARENT 10 13
REMARK Flexibility Score: inf
ROOT
ATOM      1  C   UNL     1       9.457 -11.721  13.270  1.00  0.00    -0.025 A 
ATOM      2  C   UNL     1       9.177 -10.932  14.400  1.00  0.00     0.012 A 
ATOM      3  C   UNL     1       8.464 -11.900  12.294  1.00  0.00     0.012 A 
ATOM      4  C   UNL     1       7.906 -10.376  14.573  1.00  0.00     0.047 A 
ATOM      5  C   UNL     1       7.194 -11.342  12.470  1.00  0.00     0.047 A 
ATOM      6  C   UNL     1       6.911 -10.581  13.613  1.00  0.00     0.115 A 
ENDROOT
BRANCH   1   7
ATOM      7  C   UNL     1      10.808 -12.275  13.037  1.00  0.00     0.010 C 
ATOM      8  C   UNL     1      11.246 -13.466  13.473  1.00  0.00     0.025 C 
BRANCH   8   9
ATOM      9  C   UNL     1      10.417 -14.511  14.104  1.00  0.00     0.064 C 
ATOM     10  O   UNL     1      10.387 -14.662  15.354  1.00  0.00    -0.545 OA
ATOM     11  O   UNL     1       9.600 -15.300  13.306  1.00  0.00    -0.545 OA
ENDBRANCH   8   9
ENDBRANCH   1   7
BRANCH   6  12
ATOM     12  O   UNL     1       5.649 -10.023  13.800  1.00  0.00    -0.508 OA
ATOM     13  H   UNL     1       5.509  -9.217  14.399  1.00  0.00     0.293 HD
ENDBRANCH   6  12
TORSDOF 3
ENDMDL
MODEL 9
REMARK VINA RESULT:    -4.281      1.843      4.618
REMARK INTER + INTRA:          -5.185
REMARK INTER:                  -4.892
REMARK INTRA:                  -0.293
REMARK UNBOUND:                -0.279
REMARK SMILES O=C([O-])C=Cc1ccc(O)cc1
REMARK SMILES IDX 6 1 7 2 12 3 8 4 11 5 9 6 5 7 4 8 2 9 1 10 3 11 10 12
REMARK H PARENT 10 13
REMARK Flexibility Score: inf
ROOT
ATOM      1  C   UNL     1       4.426 -16.231   7.519  1.00  0.00    -0.025 A 
ATOM      2  C   UNL     1       5.743 -16.180   8.011  1.00  0.00     0.012 A 
ATOM      3  C   UNL     1       3.941 -15.166   6.746  1.00  0.00     0.012 A 
ATOM      4  C   UNL     1       6.540 -15.056   7.777  1.00  0.00     0.047 A 
ATOM      5  C   UNL     1       4.740 -14.042   6.512  1.00  0.00     0.047 A 
ATOM      6  C   UNL     1       6.041 -13.983   7.031  1.00  0.00     0.115 A 
ENDROOT
BRANCH   1   7
ATOM      7  C   UNL     1       3.584 -17.431   7.708  1.00  0.00     0.010 C 
ATOM      8  C   UNL     1       2.867 -17.713   8.807  1.00  0.00     0.025 C 
BRANCH   8   9
ATOM      9  C   UNL     1       2.646 -16.804   9.949  1.00  0.00     0.064 C 
ATOM     10  O   UNL     1       3.398 -16.819  10.958  1.00  0.00    -0.545 OA
ATOM     11  O   UNL     1       1.626 -15.865   9.878  1.00  0.00    -0.545 OA
ENDBRANCH   8   9
ENDBRANCH   1   7
BRANCH   6  12
ATOM     12  O   UNL     1       6.846 -12.869   6.807  1.00  0.00    -0.508 OA
ATOM     13  H   UNL     1       6.983 -12.161   7.519  1.00  0.00     0.293 HD
ENDBRANCH   6  12
TORSDOF 3
ENDMDL
