MODEL 1
REMARK VINA RESULT:    -3.794      0.000      0.000
REMARK INTER + INTRA:          -5.892
REMARK INTER:                  -5.790
REMARK INTRA:                  -0.103
REMARK UNBOUND:                -0.103
REMARK SMILES CC1=CCC[C@H](C)C(=O)C[C@H](C(C)C)C(=O)C1
REMARK SMILES IDX 8 1 9 2 6 3 7 4 5 5 4 6 3 7 2 8 1 9 10 11 11 12 15 13 16 14
REMARK SMILES IDX 17 15 12 17 13 18 14 19
REMARK H PARENT
REMARK Flexibility Score: 70.00
ROOT
ATOM      1  C   UNL     1      54.826  17.017  -2.335  1.00  0.00     0.136 C 
ATOM      2  O   UNL     1      54.790  16.763  -1.141  1.00  0.00    -0.299 OA
ENDROOT
BRANCH   1   3
ATOM      3  C   UNL     1      54.763  18.471  -2.776  1.00  0.00     0.053 C 
ATOM      4  C   UNL     1      55.273  19.365  -1.639  1.00  0.00     0.016 C 
BRANCH   3   5
ATOM      5  C   UNL     1      55.551  18.751  -4.083  1.00  0.00     0.015 C 
BRANCH   5   6
ATOM      6  C   UNL     1      54.700  19.004  -5.348  1.00  0.00     0.028 C 
BRANCH   6   7
ATOM      7  C   UNL     1      53.214  18.765  -5.224  1.00  0.00    -0.028 C 
ATOM      8  C   UNL     1      52.571  17.604  -5.483  1.00  0.00    -0.070 CG0
ATOM      9  C   UNL     1      51.062  17.649  -5.543  1.00  0.00     0.039 C 
ATOM     10  G   UNL     1      53.288  16.293  -5.769  1.00  0.00     0.000 G0
ENDBRANCH   6   7
ENDBRANCH   5   6
ENDBRANCH   3   5
ENDBRANCH   1   3
BRANCH   1  11
ATOM     11  C   UNL     1      55.079  15.896  -3.324  1.00  0.00     0.087 C 
BRANCH  11  12
ATOM     12  C   UNL     1      53.875  14.940  -3.532  1.00  0.00     0.066 C 
BRANCH  12  13
ATOM     13  C   UNL     1      52.996  15.235  -4.746  1.00  0.00     0.140 C 
ATOM     14  O   UNL     1      51.989  14.558  -4.897  1.00  0.00    -0.299 OA
BRANCH  13  15
ATOM     15  C   UNL     1      53.295  16.300  -5.780  1.00  0.00     0.106 CG0
ATOM     16  G   UNL     1      52.556  17.593  -5.469  1.00  0.00     0.000 G0
ENDBRANCH  13  15
ENDBRANCH  12  13
BRANCH  12  17
ATOM     17  C   UNL     1      54.347  13.451  -3.500  1.00  0.00    -0.006 C 
ATOM     18  C   UNL     1      53.669  12.623  -2.394  1.00  0.00     0.008 C 
ATOM     19  C   UNL     1      55.875  13.331  -3.382  1.00  0.00     0.008 C 
ENDBRANCH  12  17
ENDBRANCH  11  12
ENDBRANCH   1  11
TORSDOF 1
ENDMDL
MODEL 2
REMARK VINA RESULT:    -3.766      2.450      4.387
REMARK INTER + INTRA:          -5.850
REMARK INTER:                  -5.322
REMARK INTRA:                  -0.528
REMARK UNBOUND:                -0.103
REMARK SMILES CC1=CCC[C@H](C)C(=O)C[C@H](C(C)C)C(=O)C1
REMARK SMILES IDX 8 1 9 2 6 3 7 4 5 5 4 6 3 7 2 8 1 9 10 11 11 12 15 13 16 14
REMARK SMILES IDX 17 15 12 17 13 18 14 19
REMARK H PARENT
REMARK Flexibility Score: 70.00
ROOT
ATOM      1  C   UNL     1      52.506  20.578  -5.480  1.00  0.00     0.136 C 
ATOM      2  O   UNL     1      52.320  21.488  -6.274  1.00  0.00    -0.299 OA
ENDROOT
BRANCH   1   3
ATOM      3  C   UNL     1      51.411  20.242  -4.481  1.00  0.00     0.053 C 
ATOM      4  C   UNL     1      51.313  21.367  -3.444  1.00  0.00     0.016 C 
BRANCH   3   5
ATOM      5  C   UNL     1      50.030  19.993  -5.145  1.00  0.00     0.015 C 
BRANCH   5   6
ATOM      6  C   UNL     1      49.907  18.707  -5.992  1.00  0.00     0.028 C 
BRANCH   6   7
ATOM      7  C   UNL     1      50.056  17.395  -5.259  1.00  0.00    -0.028 C 
ATOM      8  C   UNL     1      51.108  16.549  -5.350  1.00  0.00    -0.070 CG0
ATOM      9  C   UNL     1      50.946  15.178  -4.736  1.00  0.00     0.039 C 
ATOM     10  G   UNL     1      52.398  16.889  -6.081  1.00  0.00     0.000 G0
ENDBRANCH   6   7
ENDBRANCH   5   6
ENDBRANCH   3   5
ENDBRANCH   1   3
BRANCH   1  11
ATOM     11  C   UNL     1      53.751  19.723  -5.613  1.00  0.00     0.087 C 
BRANCH  11  12
ATOM     12  C   UNL     1      53.842  18.558  -4.593  1.00  0.00     0.066 C 
BRANCH  12  13
ATOM     13  C   UNL     1      53.545  17.165  -5.148  1.00  0.00     0.140 C 
ATOM     14  O   UNL     1      54.277  16.248  -4.803  1.00  0.00    -0.299 OA
BRANCH  13  15
ATOM     15  C   UNL     1      52.414  16.848  -6.103  1.00  0.00     0.106 CG0
ATOM     16  G   UNL     1      51.122  16.562  -5.353  1.00  0.00     0.000 G0
ENDBRANCH  13  15
ENDBRANCH  12  13
BRANCH  12  17
ATOM     17  C   UNL     1      55.204  18.604  -3.829  1.00  0.00    -0.006 C 
ATOM     18  C   UNL     1      55.082  19.176  -2.405  1.00  0.00     0.008 C 
ATOM     19  C   UNL     1      56.280  19.372  -4.612  1.00  0.00     0.008 C 
ENDBRANCH  12  17
ENDBRANCH  11  12
ENDBRANCH   1  11
TORSDOF 1
ENDMDL
MODEL 3
REMARK VINA RESULT:    -3.745      2.070      4.451
REMARK INTER + INTRA:          -5.818
REMARK INTER:                  -5.343
REMARK INTRA:                  -0.475
REMARK UNBOUND:                -0.103
REMARK SMILES CC1=CCC[C@H](C)C(=O)C[C@H](C(C)C)C(=O)C1
REMARK SMILES IDX 8 1 9 2 6 3 7 4 5 5 4 6 3 7 2 8 1 9 10 11 11 12 15 13 16 14
REMARK SMILES IDX 17 15 12 17 13 18 14 19
REMARK H PARENT
REMARK Flexibility Score: 70.00
ROOT
ATOM      1  C   UNL     1      54.311  18.997  -2.859  1.00  0.00     0.136 C 
ATOM      2  O   UNL     1      54.941  19.031  -1.812  1.00  0.00    -0.299 OA
ENDROOT
BRANCH   1   3
ATOM      3  C   UNL     1      54.960  18.372  -4.083  1.00  0.00     0.053 C 
ATOM      4  C   UNL     1      56.105  19.273  -4.562  1.00  0.00     0.016 C 
BRANCH   3   5
ATOM      5  C   UNL     1      55.471  16.928  -3.838  1.00  0.00     0.015 C 
BRANCH   5   6
ATOM      6  C   UNL     1      54.385  15.841  -3.679  1.00  0.00     0.028 C 
BRANCH   6   7
ATOM      7  C   UNL     1      53.460  15.631  -4.854  1.00  0.00    -0.028 C 
ATOM      8  C   UNL     1      52.130  15.875  -4.872  1.00  0.00    -0.070 CG0
ATOM      9  C   UNL     1      51.349  15.358  -6.058  1.00  0.00     0.039 C 
ATOM     10  G   UNL     1      51.391  16.580  -3.745  1.00  0.00     0.000 G0
ENDBRANCH   6   7
ENDBRANCH   5   6
ENDBRANCH   3   5
ENDBRANCH   1   3
BRANCH   1  11
ATOM     11  C   UNL     1      52.861  19.438  -2.864  1.00  0.00     0.087 C 
BRANCH  11  12
ATOM     12  C   UNL     1      52.100  19.126  -4.180  1.00  0.00     0.066 C 
BRANCH  12  13
ATOM     13  C   UNL     1      51.066  18.005  -4.099  1.00  0.00     0.140 C 
ATOM     14  O   UNL     1      49.899  18.291  -4.327  1.00  0.00    -0.299 OA
BRANCH  13  15
ATOM     15  C   UNL     1      51.387  16.568  -3.746  1.00  0.00     0.106 CG0
ATOM     16  G   UNL     1      52.133  15.876  -4.876  1.00  0.00     0.000 G0
ENDBRANCH  13  15
ENDBRANCH  12  13
BRANCH  12  17
ATOM     17  C   UNL     1      51.498  20.434  -4.787  1.00  0.00    -0.006 C 
ATOM     18  C   UNL     1      52.342  21.015  -5.936  1.00  0.00     0.008 C 
ATOM     19  C   UNL     1      51.258  21.511  -3.716  1.00  0.00     0.008 C 
ENDBRANCH  12  17
ENDBRANCH  11  12
ENDBRANCH   1  11
TORSDOF 1
ENDMDL
MODEL 4
REMARK VINA RESULT:    -3.594      2.366      5.221
REMARK INTER + INTRA:          -5.588
REMARK INTER:                  -5.181
REMARK INTRA:                  -0.407
REMARK UNBOUND:                -0.103
REMARK SMILES CC1=CCC[C@H](C)C(=O)C[C@H](C(C)C)C(=O)C1
REMARK SMILES IDX 8 1 9 2 6 3 7 4 5 5 4 6 3 7 2 8 1 9 10 11 11 12 15 13 16 14
REMARK SMILES IDX 17 15 12 17 13 18 14 19
REMARK H PARENT
REMARK Flexibility Score: 70.00
ROOT
ATOM      1  C   UNL     1      54.375  15.424  -4.199  1.00  0.00     0.136 C 
ATOM      2  O   UNL     1      54.911  14.344  -4.001  1.00  0.00    -0.299 OA
ENDROOT
BRANCH   1   3
ATOM      3  C   UNL     1      52.919  15.448  -4.637  1.00  0.00     0.053 C 
ATOM      4  C   UNL     1      52.812  14.902  -6.066  1.00  0.00     0.016 C 
BRANCH   3   5
ATOM      5  C   UNL     1      51.978  14.664  -3.683  1.00  0.00     0.015 C 
BRANCH   5   6
ATOM      6  C   UNL     1      51.628  15.361  -2.350  1.00  0.00     0.028 C 
BRANCH   6   7
ATOM      7  C   UNL     1      52.590  15.155  -1.204  1.00  0.00    -0.028 C 
ATOM      8  C   UNL     1      53.337  16.114  -0.611  1.00  0.00    -0.070 CG0
ATOM      9  C   UNL     1      54.418  15.657   0.340  1.00  0.00     0.039 C 
ATOM     10  G   UNL     1      53.178  17.599  -0.899  1.00  0.00     0.000 G0
ENDBRANCH   6   7
ENDBRANCH   5   6
ENDBRANCH   3   5
ENDBRANCH   1   3
BRANCH   1  11
ATOM     11  C   UNL     1      55.126  16.696  -3.863  1.00  0.00     0.087 C 
BRANCH  11  12
ATOM     12  C   UNL     1      54.227  17.861  -3.371  1.00  0.00     0.066 C 
BRANCH  12  13
ATOM     13  C   UNL     1      54.230  18.111  -1.864  1.00  0.00     0.140 C 
ATOM     14  O   UNL     1      55.157  18.758  -1.396  1.00  0.00    -0.299 OA
BRANCH  13  15
ATOM     15  C   UNL     1      53.170  17.602  -0.910  1.00  0.00     0.106 CG0
ATOM     16  G   UNL     1      53.359  16.122  -0.613  1.00  0.00     0.000 G0
ENDBRANCH  13  15
ENDBRANCH  12  13
BRANCH  12  17
ATOM     17  C   UNL     1      54.529  19.164  -4.179  1.00  0.00    -0.006 C 
ATOM     18  C   UNL     1      53.574  19.376  -5.368  1.00  0.00     0.008 C 
ATOM     19  C   UNL     1      55.987  19.220  -4.662  1.00  0.00     0.008 C 
ENDBRANCH  12  17
ENDBRANCH  11  12
ENDBRANCH   1  11
TORSDOF 1
ENDMDL
MODEL 5
REMARK VINA RESULT:    -3.421      2.935      5.128
REMARK INTER + INTRA:          -5.323
REMARK INTER:                  -4.985
REMARK INTRA:                  -0.338
REMARK UNBOUND:                -0.103
REMARK SMILES CC1=CCC[C@H](C)C(=O)C[C@H](C(C)C)C(=O)C1
REMARK SMILES IDX 8 1 9 2 6 3 7 4 5 5 4 6 3 7 2 8 1 9 10 11 11 12 15 13 16 14
REMARK SMILES IDX 17 15 12 17 13 18 14 19
REMARK H PARENT
REMARK Flexibility Score: 70.00
ROOT
ATOM      1  C   UNL     1      53.545  19.437  -4.786  1.00  0.00     0.136 C 
ATOM      2  O   UNL     1      53.062  20.034  -5.737  1.00  0.00    -0.299 OA
ENDROOT
BRANCH   1   3
ATOM      3  C   UNL     1      54.777  18.575  -5.012  1.00  0.00     0.053 C 
ATOM      4  C   UNL     1      55.921  19.090  -4.131  1.00  0.00     0.016 C 
BRANCH   3   5
ATOM      5  C   UNL     1      54.526  17.066  -4.753  1.00  0.00     0.015 C 
BRANCH   5   6
ATOM      6  C   UNL     1      55.044  16.513  -3.406  1.00  0.00     0.028 C 
BRANCH   6   7
ATOM      7  C   UNL     1      54.100  15.626  -2.630  1.00  0.00    -0.028 C 
ATOM      8  C   UNL     1      53.330  16.006  -1.585  1.00  0.00    -0.070 CG0
ATOM      9  C   UNL     1      52.655  14.913  -0.791  1.00  0.00     0.039 C 
ATOM     10  G   UNL     1      53.167  17.454  -1.147  1.00  0.00     0.000 G0
ENDBRANCH   6   7
ENDBRANCH   5   6
ENDBRANCH   3   5
ENDBRANCH   1   3
BRANCH   1  11
ATOM     11  C   UNL     1      52.995  19.690  -3.396  1.00  0.00     0.087 C 
BRANCH  11  12
ATOM     12  C   UNL     1      51.774  18.810  -3.019  1.00  0.00     0.066 C 
BRANCH  12  13
ATOM     13  C   UNL     1      51.885  18.054  -1.696  1.00  0.00     0.140 C 
ATOM     14  O   UNL     1      50.869  17.929  -1.026  1.00  0.00    -0.299 OA
BRANCH  13  15
ATOM     15  C   UNL     1      53.168  17.460  -1.155  1.00  0.00     0.106 CG0
ATOM     16  G   UNL     1      53.332  16.011  -1.589  1.00  0.00     0.000 G0
ENDBRANCH  13  15
ENDBRANCH  12  13
BRANCH  12  17
ATOM     17  C   UNL     1      50.453  19.639  -3.110  1.00  0.00    -0.006 C 
ATOM     18  C   UNL     1      49.739  19.497  -4.466  1.00  0.00     0.008 C 
ATOM     19  C   UNL     1      50.680  21.125  -2.790  1.00  0.00     0.008 C 
ENDBRANCH  12  17
ENDBRANCH  11  12
ENDBRANCH   1  11
TORSDOF 1
ENDMDL
MODEL 6
REMARK VINA RESULT:    -3.415      2.784      5.164
REMARK INTER + INTRA:          -5.315
REMARK INTER:                  -5.175
REMARK INTRA:                  -0.139
REMARK UNBOUND:                -0.103
REMARK SMILES CC1=CCC[C@H](C)C(=O)C[C@H](C(C)C)C(=O)C1
REMARK SMILES IDX 8 1 9 2 6 3 7 4 5 5 4 6 3 7 2 8 1 9 10 11 11 12 15 13 16 14
REMARK SMILES IDX 17 15 12 17 13 18 14 19
REMARK H PARENT
REMARK Flexibility Score: 70.00
ROOT
ATOM      1  C   UNL     1      53.975  18.099  -5.284  1.00  0.00     0.136 C 
ATOM      2  O   UNL     1      53.535  17.241  -6.034  1.00  0.00    -0.299 OA
ENDROOT
BRANCH   1   3
ATOM      3  C   UNL     1      55.271  17.824  -4.538  1.00  0.00     0.053 C 
ATOM      4  C   UNL     1      55.925  19.157  -4.155  1.00  0.00     0.016 C 
BRANCH   3   5
ATOM      5  C   UNL     1      55.081  16.930  -3.284  1.00  0.00     0.015 C 
BRANCH   5   6
ATOM      6  C   UNL     1      54.252  17.543  -2.133  1.00  0.00     0.028 C 
BRANCH   6   7
ATOM      7  C   UNL     1      52.836  17.042  -1.976  1.00  0.00    -0.028 C 
ATOM      8  C   UNL     1      51.712  17.782  -2.108  1.00  0.00    -0.070 CG0
ATOM      9  C   UNL     1      50.414  17.152  -1.661  1.00  0.00     0.039 C 
ATOM     10  G   UNL     1      51.706  19.215  -2.620  1.00  0.00     0.000 G0
ENDBRANCH   6   7
ENDBRANCH   5   6
ENDBRANCH   3   5
ENDBRANCH   1   3
BRANCH   1  11
ATOM     11  C   UNL     1      53.301  19.456  -5.234  1.00  0.00     0.087 C 
BRANCH  11  12
ATOM     12  C   UNL     1      51.752  19.407  -5.321  1.00  0.00     0.066 C 
BRANCH  12  13
ATOM     13  C   UNL     1      51.014  19.327  -3.986  1.00  0.00     0.140 C 
ATOM     14  O   UNL     1      49.792  19.370  -4.008  1.00  0.00    -0.299 OA
BRANCH  13  15
ATOM     15  C   UNL     1      51.694  19.210  -2.638  1.00  0.00     0.106 CG0
ATOM     16  G   UNL     1      51.704  17.769  -2.148  1.00  0.00     0.000 G0
ENDBRANCH  13  15
ENDBRANCH  12  13
BRANCH  12  17
ATOM     17  C   UNL     1      51.217  20.571  -6.216  1.00  0.00    -0.006 C 
ATOM     18  C   UNL     1      50.579  20.083  -7.529  1.00  0.00     0.008 C 
ATOM     19  C   UNL     1      52.305  21.614  -6.518  1.00  0.00     0.008 C 
ENDBRANCH  12  17
ENDBRANCH  11  12
ENDBRANCH   1  11
TORSDOF 1
ENDMDL
MODEL 7
REMARK VINA RESULT:    -3.201      1.987      2.871
REMARK INTER + INTRA:          -4.989
REMARK INTER:                  -4.818
REMARK INTRA:                  -0.170
REMARK UNBOUND:                -0.103
REMARK SMILES CC1=CCC[C@H](C)C(=O)C[C@H](C(C)C)C(=O)C1
REMARK SMILES IDX 8 1 9 2 6 3 7 4 5 5 4 6 3 7 2 8 1 9 10 11 11 12 15 13 16 14
REMARK SMILES IDX 17 15 12 17 13 18 14 19
REMARK H PARENT
REMARK Flexibility Score: 70.00
ROOT
ATOM      1  C   UNL     1      54.759  17.941  -3.505  1.00  0.00     0.136 C 
ATOM      2  O   UNL     1      55.182  18.789  -2.734  1.00  0.00    -0.299 OA
ENDROOT
BRANCH   1   3
ATOM      3  C   UNL     1      53.917  18.386  -4.690  1.00  0.00     0.053 C 
ATOM      4  C   UNL     1      54.593  19.583  -5.369  1.00  0.00     0.016 C 
BRANCH   3   5
ATOM      5  C   UNL     1      53.657  17.253  -5.718  1.00  0.00     0.015 C 
BRANCH   5   6
ATOM      6  C   UNL     1      52.423  16.362  -5.451  1.00  0.00     0.028 C 
BRANCH   6   7
ATOM      7  C   UNL     1      51.395  16.901  -4.485  1.00  0.00    -0.028 C 
ATOM      8  C   UNL     1      51.153  16.436  -3.239  1.00  0.00    -0.070 CG0
ATOM      9  C   UNL     1      49.916  16.946  -2.539  1.00  0.00     0.039 C 
ATOM     10  G   UNL     1      52.024  15.396  -2.548  1.00  0.00     0.000 G0
ENDBRANCH   6   7
ENDBRANCH   5   6
ENDBRANCH   3   5
ENDBRANCH   1   3
BRANCH   1  11
ATOM     11  C   UNL     1      55.206  16.502  -3.341  1.00  0.00     0.087 C 
BRANCH  11  12
ATOM     12  C   UNL     1      54.646  15.796  -2.078  1.00  0.00     0.066 C 
BRANCH  12  13
ATOM     13  C   UNL     1      53.165  16.031  -1.788  1.00  0.00     0.140 C 
ATOM     14  O   UNL     1      52.878  16.791  -0.874  1.00  0.00    -0.299 OA
BRANCH  13  15
ATOM     15  C   UNL     1      52.030  15.379  -2.549  1.00  0.00     0.106 CG0
ATOM     16  G   UNL     1      51.165  16.418  -3.248  1.00  0.00     0.000 G0
ENDBRANCH  13  15
ENDBRANCH  12  13
BRANCH  12  17
ATOM     17  C   UNL     1      55.004  14.276  -2.097  1.00  0.00    -0.006 C 
ATOM     18  C   UNL     1      55.992  13.870  -0.988  1.00  0.00     0.008 C 
ATOM     19  C   UNL     1      55.539  13.825  -3.466  1.00  0.00     0.008 C 
ENDBRANCH  12  17
ENDBRANCH  11  12
ENDBRANCH   1  11
TORSDOF 1
ENDMDL
MODEL 8
REMARK VINA RESULT:    -3.150      2.619      4.698
REMARK INTER + INTRA:          -4.910
REMARK INTER:                  -4.982
REMARK INTRA:                   0.072
REMARK UNBOUND:                -0.103
REMARK SMILES CC1=CCC[C@H](C)C(=O)C[C@H](C(C)C)C(=O)C1
REMARK SMILES IDX 8 1 9 2 6 3 7 4 5 5 4 6 3 7 2 8 1 9 10 11 11 12 15 13 16 14
REMARK SMILES IDX 17 15 12 17 13 18 14 19
REMARK H PARENT
REMARK Flexibility Score: 70.00
ROOT
ATOM      1  C   UNL     1      53.091  18.424  -2.437  1.00  0.00     0.136 C 
ATOM      2  O   UNL     1      52.888  17.225  -2.317  1.00  0.00    -0.299 OA
ENDROOT
BRANCH   1   3
ATOM      3  C   UNL     1      54.475  18.894  -2.853  1.00  0.00     0.053 C 
ATOM      4  C   UNL     1      55.366  19.003  -1.611  1.00  0.00     0.016 C 
BRANCH   3   5
ATOM      5  C   UNL     1      55.138  17.981  -3.920  1.00  0.00     0.015 C 
BRANCH   5   6
ATOM      6  C   UNL     1      54.628  18.149  -5.369  1.00  0.00     0.028 C 
BRANCH   6   7
ATOM      7  C   UNL     1      53.500  17.242  -5.799  1.00  0.00    -0.028 C 
ATOM      8  C   UNL     1      52.217  17.614  -6.009  1.00  0.00    -0.070 CG0
ATOM      9  C   UNL     1      51.198  16.512  -6.185  1.00  0.00     0.039 C 
ATOM     10  G   UNL     1      51.754  19.063  -6.017  1.00  0.00     0.000 G0
ENDBRANCH   6   7
ENDBRANCH   5   6
ENDBRANCH   3   5
ENDBRANCH   1   3
BRANCH   1  11
ATOM     11  C   UNL     1      51.927  19.387  -2.312  1.00  0.00     0.087 C 
BRANCH  11  12
ATOM     12  C   UNL     1      51.643  20.220  -3.590  1.00  0.00     0.066 C 
BRANCH  12  13
ATOM     13  C   UNL     1      51.025  19.453  -4.758  1.00  0.00     0.140 C 
ATOM     14  O   UNL     1      49.854  19.114  -4.659  1.00  0.00    -0.299 OA
BRANCH  13  15
ATOM     15  C   UNL     1      51.766  19.075  -6.023  1.00  0.00     0.106 CG0
ATOM     16  G   UNL     1      52.216  17.622  -5.986  1.00  0.00     0.000 G0
ENDBRANCH  13  15
ENDBRANCH  12  13
BRANCH  12  17
ATOM     17  C   UNL     1      50.826  21.504  -3.237  1.00  0.00    -0.006 C 
ATOM     18  C   UNL     1      49.729  21.255  -2.186  1.00  0.00     0.008 C 
ATOM     19  C   UNL     1      50.218  22.164  -4.484  1.00  0.00     0.008 C 
ENDBRANCH  12  17
ENDBRANCH  11  12
ENDBRANCH   1  11
TORSDOF 1
ENDMDL
MODEL 9
REMARK VINA RESULT:    -3.078      2.587      4.623
REMARK INTER + INTRA:          -4.800
REMARK INTER:                  -4.843
REMARK INTRA:                   0.043
REMARK UNBOUND:                -0.103
REMARK SMILES CC1=CCC[C@H](C)C(=O)C[C@H](C(C)C)C(=O)C1
REMARK SMILES IDX 8 1 9 2 6 3 7 4 5 5 4 6 3 7 2 8 1 9 10 11 11 12 15 13 16 14
REMARK SMILES IDX 17 15 12 17 13 18 14 19
REMARK H PARENT
REMARK Flexibility Score: 70.00
ROOT
ATOM      1  C   UNL     1      52.251  19.307  -5.736  1.00  0.00     0.136 C 
ATOM      2  O   UNL     1      51.649  18.587  -6.518  1.00  0.00    -0.299 OA
ENDROOT
BRANCH   1   3
ATOM      3  C   UNL     1      51.487  20.410  -5.021  1.00  0.00     0.053 C 
ATOM      4  C   UNL     1      50.097  20.552  -5.652  1.00  0.00     0.016 C 
BRANCH   3   5
ATOM      5  C   UNL     1      51.369  20.181  -3.490  1.00  0.00     0.015 C 
BRANCH   5   6
ATOM      6  C   UNL     1      50.340  19.120  -3.039  1.00  0.00     0.028 C 
BRANCH   6   7
ATOM      7  C   UNL     1      50.796  18.141  -1.984  1.00  0.00    -0.028 C 
ATOM      8  C   UNL     1      51.444  16.975  -2.208  1.00  0.00    -0.070 CG0
ATOM      9  C   UNL     1      51.581  16.026  -1.041  1.00  0.00     0.039 C 
ATOM     10  G   UNL     1      51.977  16.560  -3.572  1.00  0.00     0.000 G0
ENDBRANCH   6   7
ENDBRANCH   5   6
ENDBRANCH   3   5
ENDBRANCH   1   3
BRANCH   1  11
ATOM     11  C   UNL     1      53.693  18.988  -5.396  1.00  0.00     0.087 C 
BRANCH  11  12
ATOM     12  C   UNL     1      53.902  18.404  -3.973  1.00  0.00     0.066 C 
BRANCH  12  13
ATOM     13  C   UNL     1      53.435  16.963  -3.773  1.00  0.00     0.140 C 
ATOM     14  O   UNL     1      54.285  16.084  -3.774  1.00  0.00    -0.299 OA
BRANCH  13  15
ATOM     15  C   UNL     1      51.990  16.551  -3.583  1.00  0.00     0.106 CG0
ATOM     16  G   UNL     1      51.471  16.973  -2.217  1.00  0.00     0.000 G0
ENDBRANCH  13  15
ENDBRANCH  12  13
BRANCH  12  17
ATOM     17  C   UNL     1      55.380  18.609  -3.510  1.00  0.00    -0.006 C 
ATOM     18  C   UNL     1      55.498  19.368  -2.176  1.00  0.00     0.008 C 
ATOM     19  C   UNL     1      56.232  19.302  -4.585  1.00  0.00     0.008 C 
ENDBRANCH  12  17
ENDBRANCH  11  12
ENDBRANCH   1  11
TORSDOF 1
ENDMDL
