MODEL 1
REMARK VINA RESULT:    28.783      0.000      0.000
REMARK INTER + INTRA:          34.274
REMARK INTER:                  34.673
REMARK INTRA:                  -0.398
REMARK UNBOUND:                -0.398
REMARK SMILES O=c1ccn([C@@H]2O[C@@H](CO)[C@H](O)[C@H]2O)c(=O)[nH]1
REMARK SMILES IDX 6 1 13 2 11 3 8 4 7 5 5 6 3 7 4 8 2 9 17 10 1 11 15 12 16 14
REMARK SMILES IDX 14 15 12 17 9 19 10 20
REMARK H PARENT 17 13 14 16 12 18 10 21
REMARK Flexibility Score: inf
ROOT
ATOM      1  C   UNL     1       4.771  32.401  19.035  1.00  0.00     0.255 C 
ATOM      2  C   UNL     1       5.578  33.592  19.568  1.00  0.00     0.196 C 
ATOM      3  C   UNL     1       6.972  33.026  19.626  1.00  0.00     0.179 C 
ATOM      4  C   UNL     1       6.714  31.549  19.921  1.00  0.00     0.178 C 
ATOM      5  O   UNL     1       5.412  31.220  19.486  1.00  0.00    -0.347 OA
ENDROOT
BRANCH   1   6
ATOM      6  N   UNL     1       3.335  32.402  19.433  1.00  0.00    -0.271 N 
ATOM      7  C   UNL     1       1.625  32.530  21.125  1.00  0.00     0.090 A 
ATOM      8  C   UNL     1       2.965  32.496  20.753  1.00  0.00     0.099 A 
ATOM      9  C   UNL     1       0.656  32.511  20.131  1.00  0.00     0.253 A 
ATOM     10  N   UNL     1       1.032  32.481  18.828  1.00  0.00    -0.274 N 
ATOM     11  O   UNL     1      -0.565  32.537  20.438  1.00  0.00    -0.269 OA
ATOM     12  C   UNL     1       2.347  32.452  18.472  1.00  0.00     0.330 A 
ATOM     13  H   UNL     1       0.298  32.496  18.084  1.00  0.00     0.175 HD
ATOM     14  O   UNL     1       2.640  32.488  17.244  1.00  0.00    -0.248 OA
ENDBRANCH   1   6
BRANCH   2  15
ATOM     15  O   UNL     1       5.513  34.683  18.686  1.00  0.00    -0.386 OA
ATOM     16  H   UNL     1       4.713  35.207  18.947  1.00  0.00     0.211 HD
ENDBRANCH   2  15
BRANCH   3  17
ATOM     17  O   UNL     1       7.770  33.649  20.606  1.00  0.00    -0.387 OA
ATOM     18  H   UNL     1       8.493  34.152  20.148  1.00  0.00     0.211 HD
ENDBRANCH   3  17
BRANCH   4  19
ATOM     19  C   UNL     1       7.734  30.630  19.235  1.00  0.00     0.191 C 
BRANCH  19  20
ATOM     20  O   UNL     1       7.539  30.616  17.847  1.00  0.00    -0.394 OA
ATOM     21  H   UNL     1       8.440  30.560  17.434  1.00  0.00     0.210 HD
ENDBRANCH  19  20
ENDBRANCH   4  19
TORSDOF 5
ENDMDL
MODEL 2
REMARK VINA RESULT:    29.893      1.208      2.367
REMARK INTER + INTRA:          35.611
REMARK INTER:                  35.434
REMARK INTRA:                   0.177
REMARK UNBOUND:                -0.398
REMARK SMILES O=c1ccn([C@@H]2O[C@@H](CO)[C@H](O)[C@H]2O)c(=O)[nH]1
REMARK SMILES IDX 6 1 13 2 11 3 8 4 7 5 5 6 3 7 4 8 2 9 17 10 1 11 15 12 16 14
REMARK SMILES IDX 14 15 12 17 9 19 10 20
REMARK H PARENT 17 13 14 16 12 18 10 21
REMARK Flexibility Score: inf
ROOT
ATOM      1  C   UNL     1       4.753  32.115  19.996  1.00  0.00     0.255 C 
ATOM      2  C   UNL     1       5.496  30.890  19.446  1.00  0.00     0.196 C 
ATOM      3  C   UNL     1       6.919  31.384  19.395  1.00  0.00     0.179 C 
ATOM      4  C   UNL     1       6.739  32.876  19.121  1.00  0.00     0.178 C 
ATOM      5  O   UNL     1       5.456  33.266  19.562  1.00  0.00    -0.347 OA
ENDROOT
BRANCH   1   6
ATOM      6  N   UNL     1       3.319  32.195  19.600  1.00  0.00    -0.271 N 
ATOM      7  C   UNL     1       1.000  32.519  20.165  1.00  0.00     0.090 A 
ATOM      8  C   UNL     1       2.337  32.411  20.536  1.00  0.00     0.099 A 
ATOM      9  C   UNL     1       0.673  32.447  18.818  1.00  0.00     0.253 A 
ATOM     10  N   UNL     1       1.657  32.296  17.897  1.00  0.00    -0.274 N 
ATOM     11  O   UNL     1      -0.528  32.538  18.454  1.00  0.00    -0.269 OA
ATOM     12  C   UNL     1       2.964  32.196  18.267  1.00  0.00     0.330 A 
ATOM     13  H   UNL     1       1.407  32.272  16.882  1.00  0.00     0.175 HD
ATOM     14  O   UNL     1       3.843  32.119  17.364  1.00  0.00    -0.248 OA
ENDBRANCH   1   6
BRANCH   2  15
ATOM     15  O   UNL     1       5.374  29.793  20.313  1.00  0.00    -0.386 OA
ATOM     16  H   UNL     1       6.282  29.616  20.670  1.00  0.00     0.211 HD
ENDBRANCH   2  15
BRANCH   3  17
ATOM     17  O   UNL     1       7.682  30.734  18.405  1.00  0.00    -0.387 OA
ATOM     18  H   UNL     1       7.110  30.051  17.967  1.00  0.00     0.211 HD
ENDBRANCH   3  17
BRANCH   4  19
ATOM     19  C   UNL     1       7.806  33.730  19.820  1.00  0.00     0.191 C 
BRANCH  19  20
ATOM     20  O   UNL     1       8.564  34.445  18.882  1.00  0.00    -0.394 OA
ATOM     21  H   UNL     1       8.776  33.813  18.147  1.00  0.00     0.210 HD
ENDBRANCH  19  20
ENDBRANCH   4  19
TORSDOF 5
ENDMDL
