MODEL 1
REMARK VINA RESULT:    -4.289      0.000      0.000
REMARK INTER + INTRA:          -6.286
REMARK INTER:                  -5.793
REMARK INTRA:                  -0.492
REMARK UNBOUND:                -0.492
REMARK SMILES CCCCCCCC(=O)[O-]
REMARK SMILES IDX 5 1 6 2 7 3 8 4 9 5 10 6 4 7 3 8 2 9 1 10
REMARK H PARENT
REMARK Flexibility Score: inf
ROOT
ATOM      1  C   UNL     1      44.273 -49.403 164.542  1.00  0.00     0.000 C 
ENDROOT
BRANCH   1   2
ATOM      2  C   UNL     1      45.657 -48.848 164.162  1.00  0.00     0.006 C 
BRANCH   2   3
ATOM      3  C   UNL     1      45.827 -48.708 162.644  1.00  0.00     0.053 C 
BRANCH   3   4
ATOM      4  C   UNL     1      44.959 -47.623 162.082  1.00  0.00     0.041 C 
ATOM      5  O   UNL     1      44.312 -47.818 161.019  1.00  0.00    -0.550 OA
ATOM      6  O   UNL     1      44.841 -46.410 162.748  1.00  0.00    -0.550 OA
ENDBRANCH   3   4
ENDBRANCH   2   3
ENDBRANCH   1   2
BRANCH   1   7
ATOM      7  C   UNL     1      43.489 -48.455 165.464  1.00  0.00     0.000 C 
BRANCH   7   8
ATOM      8  C   UNL     1      41.998 -48.377 165.105  1.00  0.00    -0.000 C 
BRANCH   8   9
ATOM      9  C   UNL     1      41.767 -48.753 163.637  1.00  0.00    -0.003 C 
ATOM     10  C   UNL     1      40.680 -49.815 163.502  1.00  0.00     0.004 C 
ENDBRANCH   8   9
ENDBRANCH   7   8
ENDBRANCH   1   7
TORSDOF 6
ENDMDL
MODEL 2
REMARK VINA RESULT:    -4.262      2.901      4.660
REMARK INTER + INTRA:          -6.250
REMARK INTER:                  -5.771
REMARK INTRA:                  -0.479
REMARK UNBOUND:                -0.492
REMARK SMILES CCCCCCCC(=O)[O-]
REMARK SMILES IDX 5 1 6 2 7 3 8 4 9 5 10 6 4 7 3 8 2 9 1 10
REMARK H PARENT
REMARK Flexibility Score: inf
ROOT
ATOM      1  C   UNL     1      45.368 -46.140 163.459  1.00  0.00     0.000 C 
ENDROOT
BRANCH   1   2
ATOM      2  C   UNL     1      44.343 -47.142 162.898  1.00  0.00     0.006 C 
BRANCH   2   3
ATOM      3  C   UNL     1      45.013 -48.271 162.104  1.00  0.00     0.053 C 
BRANCH   3   4
ATOM      4  C   UNL     1      45.831 -49.164 162.985  1.00  0.00     0.041 C 
ATOM      5  O   UNL     1      47.006 -49.476 162.653  1.00  0.00    -0.550 OA
ATOM      6  O   UNL     1      45.309 -49.628 164.185  1.00  0.00    -0.550 OA
ENDBRANCH   3   4
ENDBRANCH   2   3
ENDBRANCH   1   2
BRANCH   1   7
ATOM      7  C   UNL     1      45.341 -46.065 164.994  1.00  0.00     0.000 C 
BRANCH   7   8
ATOM      8  C   UNL     1      46.724 -45.780 165.598  1.00  0.00    -0.000 C 
BRANCH   8   9
ATOM      9  C   UNL     1      47.801 -46.645 164.934  1.00  0.00    -0.003 C 
ATOM     10  C   UNL     1      48.996 -45.802 164.500  1.00  0.00     0.004 C 
ENDBRANCH   8   9
ENDBRANCH   7   8
ENDBRANCH   1   7
TORSDOF 6
ENDMDL
MODEL 3
REMARK VINA RESULT:    -4.228      2.011      3.882
REMARK INTER + INTRA:          -6.203
REMARK INTER:                  -5.755
REMARK INTRA:                  -0.448
REMARK UNBOUND:                -0.492
REMARK SMILES CCCCCCCC(=O)[O-]
REMARK SMILES IDX 5 1 6 2 7 3 8 4 9 5 10 6 4 7 3 8 2 9 1 10
REMARK H PARENT
REMARK Flexibility Score: inf
ROOT
ATOM      1  C   UNL     1      44.241 -49.089 164.770  1.00  0.00     0.000 C 
ENDROOT
BRANCH   1   2
ATOM      2  C   UNL     1      43.306 -48.006 165.337  1.00  0.00     0.006 C 
BRANCH   2   3
ATOM      3  C   UNL     1      41.835 -48.438 165.304  1.00  0.00     0.053 C 
BRANCH   3   4
ATOM      4  C   UNL     1      41.390 -48.804 163.921  1.00  0.00     0.041 C 
ATOM      5  O   UNL     1      41.409 -47.943 163.002  1.00  0.00    -0.550 OA
ATOM      6  O   UNL     1      40.982 -50.102 163.640  1.00  0.00    -0.550 OA
ENDBRANCH   3   4
ENDBRANCH   2   3
ENDBRANCH   1   2
BRANCH   1   7
ATOM      7  C   UNL     1      45.434 -48.497 164.002  1.00  0.00     0.000 C 
BRANCH   7   8
ATOM      8  C   UNL     1      45.360 -48.764 162.492  1.00  0.00    -0.000 C 
BRANCH   8   9
ATOM      9  C   UNL     1      44.740 -47.571 161.755  1.00  0.00    -0.003 C 
ATOM     10  C   UNL     1      43.942 -48.028 160.538  1.00  0.00     0.004 C 
ENDBRANCH   8   9
ENDBRANCH   7   8
ENDBRANCH   1   7
TORSDOF 6
ENDMDL
MODEL 4
REMARK VINA RESULT:    -4.184      8.655     10.129
REMARK INTER + INTRA:          -6.144
REMARK INTER:                  -5.803
REMARK INTRA:                  -0.341
REMARK UNBOUND:                -0.492
REMARK SMILES CCCCCCCC(=O)[O-]
REMARK SMILES IDX 5 1 6 2 7 3 8 4 9 5 10 6 4 7 3 8 2 9 1 10
REMARK H PARENT
REMARK Flexibility Score: inf
ROOT
ATOM      1  C   UNL     1      53.280 -45.675 166.637  1.00  0.00     0.000 C 
ENDROOT
BRANCH   1   2
ATOM      2  C   UNL     1      54.397 -44.767 166.090  1.00  0.00     0.006 C 
BRANCH   2   3
ATOM      3  C   UNL     1      54.013 -44.118 164.755  1.00  0.00     0.053 C 
BRANCH   3   4
ATOM      4  C   UNL     1      53.974 -42.624 164.850  1.00  0.00     0.041 C 
ATOM      5  O   UNL     1      54.097 -41.920 163.812  1.00  0.00    -0.550 OA
ATOM      6  O   UNL     1      53.770 -42.009 166.079  1.00  0.00    -0.550 OA
ENDBRANCH   3   4
ENDBRANCH   2   3
ENDBRANCH   1   2
BRANCH   1   7
ATOM      7  C   UNL     1      53.177 -47.008 165.878  1.00  0.00     0.000 C 
BRANCH   7   8
ATOM      8  C   UNL     1      51.729 -47.387 165.537  1.00  0.00    -0.000 C 
BRANCH   8   9
ATOM      9  C   UNL     1      50.924 -46.152 165.114  1.00  0.00    -0.003 C 
ATOM     10  C   UNL     1      49.495 -46.527 164.735  1.00  0.00     0.004 C 
ENDBRANCH   8   9
ENDBRANCH   7   8
ENDBRANCH   1   7
TORSDOF 6
ENDMDL
MODEL 5
REMARK VINA RESULT:    -4.177      2.350      3.563
REMARK INTER + INTRA:          -6.135
REMARK INTER:                  -5.644
REMARK INTRA:                  -0.491
REMARK UNBOUND:                -0.492
REMARK SMILES CCCCCCCC(=O)[O-]
REMARK SMILES IDX 5 1 6 2 7 3 8 4 9 5 10 6 4 7 3 8 2 9 1 10
REMARK H PARENT
REMARK Flexibility Score: inf
ROOT
ATOM      1  C   UNL     1      44.627 -46.594 162.609  1.00  0.00     0.000 C 
ENDROOT
BRANCH   1   2
ATOM      2  C   UNL     1      45.467 -46.968 163.843  1.00  0.00     0.006 C 
BRANCH   2   3
ATOM      3  C   UNL     1      44.623 -47.024 165.122  1.00  0.00     0.053 C 
BRANCH   3   4
ATOM      4  C   UNL     1      43.891 -48.325 165.253  1.00  0.00     0.041 C 
ATOM      5  O   UNL     1      42.795 -48.376 165.871  1.00  0.00    -0.550 OA
ATOM      6  O   UNL     1      44.405 -49.475 164.667  1.00  0.00    -0.550 OA
ENDBRANCH   3   4
ENDBRANCH   2   3
ENDBRANCH   1   2
BRANCH   1   7
ATOM      7  C   UNL     1      44.609 -47.705 161.547  1.00  0.00     0.000 C 
BRANCH   7   8
ATOM      8  C   UNL     1      43.201 -47.979 160.999  1.00  0.00    -0.000 C 
BRANCH   8   9
ATOM      9  C   UNL     1      42.153 -47.899 162.114  1.00  0.00    -0.003 C 
ATOM     10  C   UNL     1      40.981 -47.010 161.709  1.00  0.00     0.004 C 
ENDBRANCH   8   9
ENDBRANCH   7   8
ENDBRANCH   1   7
TORSDOF 6
ENDMDL
MODEL 6
REMARK VINA RESULT:    -4.133      0.719      1.264
REMARK INTER + INTRA:          -6.075
REMARK INTER:                  -5.647
REMARK INTRA:                  -0.428
REMARK UNBOUND:                -0.492
REMARK SMILES CCCCCCCC(=O)[O-]
REMARK SMILES IDX 5 1 6 2 7 3 8 4 9 5 10 6 4 7 3 8 2 9 1 10
REMARK H PARENT
REMARK Flexibility Score: inf
ROOT
ATOM      1  C   UNL     1      43.592 -48.405 165.407  1.00  0.00     0.000 C 
ENDROOT
BRANCH   1   2
ATOM      2  C   UNL     1      44.398 -49.332 164.479  1.00  0.00     0.006 C 
BRANCH   2   3
ATOM      3  C   UNL     1      45.684 -48.666 163.972  1.00  0.00     0.053 C 
BRANCH   3   4
ATOM      4  C   UNL     1      45.400 -47.607 162.952  1.00  0.00     0.041 C 
ATOM      5  O   UNL     1      45.002 -47.927 161.800  1.00  0.00    -0.550 OA
ATOM      6  O   UNL     1      45.547 -46.265 163.281  1.00  0.00    -0.550 OA
ENDBRANCH   3   4
ENDBRANCH   2   3
ENDBRANCH   1   2
BRANCH   1   7
ATOM      7  C   UNL     1      42.103 -48.342 165.031  1.00  0.00     0.000 C 
BRANCH   7   8
ATOM      8  C   UNL     1      41.866 -48.483 163.520  1.00  0.00    -0.000 C 
BRANCH   8   9
ATOM      9  C   UNL     1      40.464 -49.034 163.234  1.00  0.00    -0.003 C 
ATOM     10  C   UNL     1      40.396 -50.534 163.501  1.00  0.00     0.004 C 
ENDBRANCH   8   9
ENDBRANCH   7   8
ENDBRANCH   1   7
TORSDOF 6
ENDMDL
MODEL 7
REMARK VINA RESULT:    -4.127      3.253      5.451
REMARK INTER + INTRA:          -6.067
REMARK INTER:                  -5.777
REMARK INTRA:                  -0.290
REMARK UNBOUND:                -0.492
REMARK SMILES CCCCCCCC(=O)[O-]
REMARK SMILES IDX 5 1 6 2 7 3 8 4 9 5 10 6 4 7 3 8 2 9 1 10
REMARK H PARENT
REMARK Flexibility Score: inf
ROOT
ATOM      1  C   UNL     1      46.805 -46.143 165.170  1.00  0.00     0.000 C 
ENDROOT
BRANCH   1   2
ATOM      2  C   UNL     1      45.498 -46.710 164.587  1.00  0.00     0.006 C 
BRANCH   2   3
ATOM      3  C   UNL     1      45.374 -46.444 163.081  1.00  0.00     0.053 C 
BRANCH   3   4
ATOM      4  C   UNL     1      45.176 -47.709 162.304  1.00  0.00     0.041 C 
ATOM      5  O   UNL     1      44.435 -47.717 161.285  1.00  0.00    -0.550 OA
ATOM      6  O   UNL     1      45.833 -48.872 162.687  1.00  0.00    -0.550 OA
ENDBRANCH   3   4
ENDBRANCH   2   3
ENDBRANCH   1   2
BRANCH   1   7
ATOM      7  C   UNL     1      48.043 -46.941 164.730  1.00  0.00     0.000 C 
BRANCH   7   8
ATOM      8  C   UNL     1      49.309 -46.074 164.648  1.00  0.00    -0.000 C 
BRANCH   8   9
ATOM      9  C   UNL     1      50.524 -46.824 165.206  1.00  0.00    -0.003 C 
ATOM     10  C   UNL     1      50.186 -48.283 165.497  1.00  0.00     0.004 C 
ENDBRANCH   8   9
ENDBRANCH   7   8
ENDBRANCH   1   7
TORSDOF 6
ENDMDL
MODEL 8
REMARK VINA RESULT:    -4.120      2.134      4.731
REMARK INTER + INTRA:          -6.058
REMARK INTER:                  -5.579
REMARK INTRA:                  -0.478
REMARK UNBOUND:                -0.492
REMARK SMILES CCCCCCCC(=O)[O-]
REMARK SMILES IDX 5 1 6 2 7 3 8 4 9 5 10 6 4 7 3 8 2 9 1 10
REMARK H PARENT
REMARK Flexibility Score: inf
ROOT
ATOM      1  C   UNL     1      45.552 -49.498 164.269  1.00  0.00     0.000 C 
ENDROOT
BRANCH   1   2
ATOM      2  C   UNL     1      44.210 -48.755 164.157  1.00  0.00     0.006 C 
BRANCH   2   3
ATOM      3  C   UNL     1      44.105 -47.596 165.157  1.00  0.00     0.053 C 
BRANCH   3   4
ATOM      4  C   UNL     1      45.037 -46.474 164.812  1.00  0.00     0.041 C 
ATOM      5  O   UNL     1      45.699 -45.900 165.717  1.00  0.00    -0.550 OA
ATOM      6  O   UNL     1      45.197 -46.083 163.488  1.00  0.00    -0.550 OA
ENDBRANCH   3   4
ENDBRANCH   2   3
ENDBRANCH   1   2
BRANCH   1   7
ATOM      7  C   UNL     1      46.372 -49.436 162.969  1.00  0.00     0.000 C 
BRANCH   7   8
ATOM      8  C   UNL     1      47.884 -49.360 163.225  1.00  0.00    -0.000 C 
BRANCH   8   9
ATOM      9  C   UNL     1      48.196 -48.416 164.392  1.00  0.00    -0.003 C 
ATOM     10  C   UNL     1      49.131 -49.076 165.401  1.00  0.00     0.004 C 
ENDBRANCH   8   9
ENDBRANCH   7   8
ENDBRANCH   1   7
TORSDOF 6
ENDMDL
MODEL 9
REMARK VINA RESULT:    -4.080      4.747      7.126
REMARK INTER + INTRA:          -6.004
REMARK INTER:                  -5.769
REMARK INTRA:                  -0.235
REMARK UNBOUND:                -0.492
REMARK SMILES CCCCCCCC(=O)[O-]
REMARK SMILES IDX 5 1 6 2 7 3 8 4 9 5 10 6 4 7 3 8 2 9 1 10
REMARK H PARENT
REMARK Flexibility Score: inf
ROOT
ATOM      1  C   UNL     1      49.316 -48.420 165.114  1.00  0.00     0.000 C 
ENDROOT
BRANCH   1   2
ATOM      2  C   UNL     1      48.405 -47.221 164.795  1.00  0.00     0.006 C 
BRANCH   2   3
ATOM      3  C   UNL     1      47.006 -47.661 164.348  1.00  0.00     0.053 C 
BRANCH   3   4
ATOM      4  C   UNL     1      46.028 -46.526 164.374  1.00  0.00     0.041 C 
ATOM      5  O   UNL     1      45.811 -45.901 165.447  1.00  0.00    -0.550 OA
ATOM      6  O   UNL     1      45.379 -46.138 163.209  1.00  0.00    -0.550 OA
ENDBRANCH   3   4
ENDBRANCH   2   3
ENDBRANCH   1   2
BRANCH   1   7
ATOM      7  C   UNL     1      50.739 -47.993 165.509  1.00  0.00     0.000 C 
BRANCH   7   8
ATOM      8  C   UNL     1      50.981 -46.488 165.322  1.00  0.00    -0.000 C 
BRANCH   8   9
ATOM      9  C   UNL     1      52.376 -46.090 165.817  1.00  0.00    -0.003 C 
ATOM     10  C   UNL     1      53.175 -47.314 166.254  1.00  0.00     0.004 C 
ENDBRANCH   8   9
ENDBRANCH   7   8
ENDBRANCH   1   7
TORSDOF 6
ENDMDL
