MODEL 1
REMARK VINA RESULT:    -5.469      0.000      0.000
REMARK INTER + INTRA:          -6.091
REMARK INTER:                  -7.388
REMARK INTRA:                   1.296
REMARK UNBOUND:                 1.296
REMARK SMILES C=C1C(=O)O[C@H]2[C@H]3O[C@]3(C)CCC=C(C)CC[C@@H]12
REMARK SMILES IDX 6 1 18 2 2 3 1 4 3 5 4 6 5 7 17 8 16 9 14 10 15 11 13 12
REMARK SMILES IDX 7 14 9 15 8 16 10 17 11 18 12 19
REMARK H PARENT
REMARK Flexibility Score: 70.00
ROOT
ATOM      1  C   UNL     1      12.288  -3.591  40.551  1.00  0.00     0.216 C 
ATOM      2  C   UNL     1      11.026  -3.389  39.628  1.00  0.00     0.070 C 
ATOM      3  C   UNL     1       9.897  -3.844  40.506  1.00  0.00     0.037 C 
ATOM      4  C   UNL     1       8.597  -3.694  40.255  1.00  0.00     0.021 C 
ATOM      5  C   UNL     1      10.468  -4.464  41.677  1.00  0.00     0.334 C 
ATOM      6  O   UNL     1       9.822  -5.032  42.595  1.00  0.00    -0.247 OA
ATOM      7  O   UNL     1      11.844  -4.370  41.657  1.00  0.00    -0.455 OA
ENDROOT
BRANCH   2   8
ATOM      8  C   UNL     1      11.036  -4.154  38.265  1.00  0.00     0.017 C 
BRANCH   8   9
ATOM      9  C   UNL     1      11.399  -5.646  38.400  1.00  0.00     0.031 C 
BRANCH   9  10
ATOM     10  C   UNL     1      12.243  -6.225  37.277  1.00  0.00    -0.077 C 
ATOM     11  C   UNL     1      11.800  -5.956  35.857  1.00  0.00     0.039 C 
ATOM     12  C   UNL     1      13.282  -7.089  37.443  1.00  0.00    -0.028 CG0
ATOM     13  G   UNL     1      14.083  -7.370  38.701  1.00  0.00     0.000 G0
ENDBRANCH   9  10
ENDBRANCH   8   9
ENDBRANCH   2   8
BRANCH   1  14
ATOM     14  C   UNL     1      13.502  -4.169  39.800  1.00  0.00     0.192 C 
ATOM     15  C   UNL     1      14.268  -5.344  40.345  1.00  0.00     0.096 C 
ATOM     16  O   UNL     1      14.754  -4.011  40.410  1.00  0.00    -0.362 OA
ATOM     17  C   UNL     1      14.269  -5.887  41.790  1.00  0.00     0.045 C 
BRANCH  15  18
ATOM     18  C   UNL     1      14.955  -6.220  39.274  1.00  0.00     0.042 C 
BRANCH  18  19
ATOM     19  C   UNL     1      14.087  -7.374  38.709  1.00  0.00     0.030 CG0
ATOM     20  G   UNL     1      13.299  -7.082  37.446  1.00  0.00     0.000 G0
ENDBRANCH  18  19
ENDBRANCH  15  18
ENDBRANCH   1  14
TORSDOF 0
ENDMDL
MODEL 2
REMARK VINA RESULT:    -5.072      2.813      5.472
REMARK INTER + INTRA:          -5.555
REMARK INTER:                  -6.731
REMARK INTRA:                   1.175
REMARK UNBOUND:                 1.296
REMARK SMILES C=C1C(=O)O[C@H]2[C@H]3O[C@]3(C)CCC=C(C)CC[C@@H]12
REMARK SMILES IDX 6 1 18 2 2 3 1 4 3 5 4 6 5 7 17 8 16 9 14 10 15 11 13 12
REMARK SMILES IDX 7 14 9 15 8 16 10 17 11 18 12 19
REMARK H PARENT
REMARK Flexibility Score: 70.00
ROOT
ATOM      1  C   UNL     1      13.978  -5.978  38.429  1.00  0.00     0.216 C 
ATOM      2  C   UNL     1      14.391  -6.237  39.928  1.00  0.00     0.070 C 
ATOM      3  C   UNL     1      14.959  -7.626  39.880  1.00  0.00     0.037 C 
ATOM      4  C   UNL     1      15.623  -8.237  40.860  1.00  0.00     0.021 C 
ATOM      5  C   UNL     1      14.669  -8.178  38.578  1.00  0.00     0.334 C 
ATOM      6  O   UNL     1      14.925  -9.353  38.207  1.00  0.00    -0.247 OA
ATOM      7  O   UNL     1      14.047  -7.243  37.778  1.00  0.00    -0.455 OA
ENDROOT
BRANCH   2   8
ATOM      8  C   UNL     1      13.252  -6.120  40.990  1.00  0.00     0.017 C 
BRANCH   8   9
ATOM      9  C   UNL     1      13.178  -4.735  41.663  1.00  0.00     0.031 C 
BRANCH   9  10
ATOM     10  C   UNL     1      11.813  -4.329  42.191  1.00  0.00    -0.077 C 
ATOM     11  C   UNL     1      11.619  -4.308  43.690  1.00  0.00     0.039 C 
ATOM     12  C   UNL     1      10.706  -4.124  41.426  1.00  0.00    -0.028 CG0
ATOM     13  G   UNL     1      10.626  -3.863  39.933  1.00  0.00     0.000 G0
ENDBRANCH   9  10
ENDBRANCH   8   9
ENDBRANCH   2   8
BRANCH   1  14
ATOM     14  C   UNL     1      12.627  -5.253  38.290  1.00  0.00     0.192 C 
ATOM     15  C   UNL     1      11.328  -5.969  38.545  1.00  0.00     0.096 C 
ATOM     16  O   UNL     1      11.795  -5.664  37.239  1.00  0.00    -0.362 OA
ATOM     17  C   UNL     1      11.077  -7.491  38.582  1.00  0.00     0.045 C 
BRANCH  15  18
ATOM     18  C   UNL     1      10.176  -5.064  39.037  1.00  0.00     0.042 C 
BRANCH  18  19
ATOM     19  C   UNL     1      10.608  -3.868  39.922  1.00  0.00     0.030 CG0
ATOM     20  G   UNL     1      10.704  -4.121  41.416  1.00  0.00     0.000 G0
ENDBRANCH  18  19
ENDBRANCH  15  18
ENDBRANCH   1  14
TORSDOF 0
ENDMDL
MODEL 3
REMARK VINA RESULT:    -5.008      2.850      5.613
REMARK INTER + INTRA:          -5.468
REMARK INTER:                  -6.833
REMARK INTRA:                   1.365
REMARK UNBOUND:                 1.296
REMARK SMILES C=C1C(=O)O[C@H]2[C@H]3O[C@]3(C)CCC=C(C)CC[C@@H]12
REMARK SMILES IDX 6 1 18 2 2 3 1 4 3 5 4 6 5 7 17 8 16 9 14 10 15 11 13 12
REMARK SMILES IDX 7 14 9 15 8 16 10 17 11 18 12 19
REMARK H PARENT
REMARK Flexibility Score: 70.00
ROOT
ATOM      1  C   UNL     1      13.012  -4.040  40.319  1.00  0.00     0.216 C 
ATOM      2  C   UNL     1      13.147  -5.303  41.251  1.00  0.00     0.070 C 
ATOM      3  C   UNL     1      13.911  -6.269  40.393  1.00  0.00     0.037 C 
ATOM      4  C   UNL     1      14.445  -7.423  40.791  1.00  0.00     0.021 C 
ATOM      5  C   UNL     1      13.976  -5.720  39.059  1.00  0.00     0.334 C 
ATOM      6  O   UNL     1      14.472  -6.293  38.054  1.00  0.00    -0.247 OA
ATOM      7  O   UNL     1      13.397  -4.469  39.017  1.00  0.00    -0.455 OA
ENDROOT
BRANCH   2   8
ATOM      8  C   UNL     1      11.811  -5.928  41.767  1.00  0.00     0.017 C 
BRANCH   8   9
ATOM      9  C   UNL     1      11.512  -5.605  43.245  1.00  0.00     0.031 C 
BRANCH   9  10
ATOM     10  C   UNL     1      10.940  -4.224  43.516  1.00  0.00    -0.077 C 
ATOM     11  C   UNL     1      11.678  -3.339  44.494  1.00  0.00     0.039 C 
ATOM     12  C   UNL     1       9.738  -3.772  43.065  1.00  0.00    -0.028 CG0
ATOM     13  G   UNL     1       8.892  -4.314  41.928  1.00  0.00     0.000 G0
ENDBRANCH   9  10
ENDBRANCH   8   9
ENDBRANCH   2   8
BRANCH   1  14
ATOM     14  C   UNL     1      11.626  -3.375  40.396  1.00  0.00     0.192 C 
ATOM     15  C   UNL     1      10.409  -4.040  39.812  1.00  0.00     0.096 C 
ATOM     16  O   UNL     1      11.063  -2.947  39.186  1.00  0.00    -0.362 OA
ATOM     17  C   UNL     1      10.359  -5.181  38.774  1.00  0.00     0.045 C 
BRANCH  15  18
ATOM     18  C   UNL     1       9.077  -3.674  40.504  1.00  0.00     0.042 C 
BRANCH  18  19
ATOM     19  C   UNL     1       8.868  -4.299  41.907  1.00  0.00     0.030 CG0
ATOM     20  G   UNL     1       9.739  -3.768  43.030  1.00  0.00     0.000 G0
ENDBRANCH  18  19
ENDBRANCH  15  18
ENDBRANCH   1  14
TORSDOF 0
ENDMDL
MODEL 4
REMARK VINA RESULT:    -4.965      2.722      4.644
REMARK INTER + INTRA:          -5.410
REMARK INTER:                  -6.985
REMARK INTRA:                   1.575
REMARK UNBOUND:                 1.296
REMARK SMILES C=C1C(=O)O[C@H]2[C@H]3O[C@]3(C)CCC=C(C)CC[C@@H]12
REMARK SMILES IDX 6 1 18 2 2 3 1 4 3 5 4 6 5 7 17 8 16 9 14 10 15 11 13 12
REMARK SMILES IDX 7 14 9 15 8 16 10 17 11 18 12 19
REMARK H PARENT
REMARK Flexibility Score: 70.00
ROOT
ATOM      1  C   UNL     1      11.431  -7.062  38.983  1.00  0.00     0.216 C 
ATOM      2  C   UNL     1      11.200  -5.927  37.914  1.00  0.00     0.070 C 
ATOM      3  C   UNL     1      11.864  -6.484  36.689  1.00  0.00     0.037 C 
ATOM      4  C   UNL     1      11.783  -5.986  35.456  1.00  0.00     0.021 C 
ATOM      5  C   UNL     1      12.598  -7.663  37.081  1.00  0.00     0.334 C 
ATOM      6  O   UNL     1      13.342  -8.347  36.331  1.00  0.00    -0.247 OA
ATOM      7  O   UNL     1      12.393  -7.946  38.415  1.00  0.00    -0.455 OA
ENDROOT
BRANCH   2   8
ATOM      8  C   UNL     1      11.757  -4.513  38.276  1.00  0.00     0.017 C 
BRANCH   8   9
ATOM      9  C   UNL     1      10.658  -3.488  38.621  1.00  0.00     0.031 C 
BRANCH   9  10
ATOM     10  C   UNL     1      10.074  -3.592  40.020  1.00  0.00    -0.077 C 
ATOM     11  C   UNL     1       8.583  -3.804  40.144  1.00  0.00     0.039 C 
ATOM     12  C   UNL     1      10.760  -3.363  41.173  1.00  0.00    -0.028 CG0
ATOM     13  G   UNL     1      12.262  -3.346  41.391  1.00  0.00     0.000 G0
ENDBRANCH   9  10
ENDBRANCH   8   9
ENDBRANCH   2   8
BRANCH   1  14
ATOM     14  C   UNL     1      11.796  -6.519  40.376  1.00  0.00     0.192 C 
ATOM     15  C   UNL     1      13.039  -5.698  40.591  1.00  0.00     0.096 C 
ATOM     16  O   UNL     1      12.937  -7.058  40.985  1.00  0.00    -0.362 OA
ATOM     17  C   UNL     1      14.275  -5.592  39.673  1.00  0.00     0.045 C 
BRANCH  15  18
ATOM     18  C   UNL     1      12.954  -4.689  41.758  1.00  0.00     0.042 C 
BRANCH  18  19
ATOM     19  C   UNL     1      12.273  -3.339  41.416  1.00  0.00     0.030 CG0
ATOM     20  G   UNL     1      10.773  -3.369  41.183  1.00  0.00     0.000 G0
ENDBRANCH  18  19
ENDBRANCH  15  18
ENDBRANCH   1  14
TORSDOF 0
ENDMDL
MODEL 5
REMARK VINA RESULT:    -4.895      1.796      3.523
REMARK INTER + INTRA:          -5.316
REMARK INTER:                  -6.495
REMARK INTRA:                   1.179
REMARK UNBOUND:                 1.296
REMARK SMILES C=C1C(=O)O[C@H]2[C@H]3O[C@]3(C)CCC=C(C)CC[C@@H]12
REMARK SMILES IDX 6 1 18 2 2 3 1 4 3 5 4 6 5 7 17 8 16 9 14 10 15 11 13 12
REMARK SMILES IDX 7 14 9 15 8 16 10 17 11 18 12 19
REMARK H PARENT
REMARK Flexibility Score: 70.00
ROOT
ATOM      1  C   UNL     1      10.750  -6.189  41.103  1.00  0.00     0.216 C 
ATOM      2  C   UNL     1      11.904  -5.726  42.073  1.00  0.00     0.070 C 
ATOM      3  C   UNL     1      11.245  -4.644  42.879  1.00  0.00     0.037 C 
ATOM      4  C   UNL     1      11.745  -4.061  43.968  1.00  0.00     0.021 C 
ATOM      5  C   UNL     1       9.968  -4.355  42.272  1.00  0.00     0.334 C 
ATOM      6  O   UNL     1       9.175  -3.447  42.631  1.00  0.00    -0.247 OA
ATOM      7  O   UNL     1       9.727  -5.205  41.213  1.00  0.00    -0.455 OA
ENDROOT
BRANCH   2   8
ATOM      8  C   UNL     1      13.216  -5.218  41.395  1.00  0.00     0.017 C 
BRANCH   8   9
ATOM      9  C   UNL     1      14.288  -6.314  41.231  1.00  0.00     0.031 C 
BRANCH   9  10
ATOM     10  C   UNL     1      15.270  -6.112  40.090  1.00  0.00    -0.077 C 
ATOM     11  C   UNL     1      16.686  -5.721  40.444  1.00  0.00     0.039 C 
ATOM     12  C   UNL     1      14.945  -6.110  38.768  1.00  0.00    -0.028 CG0
ATOM     13  G   UNL     1      13.700  -6.668  38.102  1.00  0.00     0.000 G0
ENDBRANCH   9  10
ENDBRANCH   8   9
ENDBRANCH   2   8
BRANCH   1  14
ATOM     14  C   UNL     1      11.237  -6.457  39.667  1.00  0.00     0.192 C 
ATOM     15  C   UNL     1      11.554  -5.325  38.727  1.00  0.00     0.096 C 
ATOM     16  O   UNL     1      10.367  -6.098  38.629  1.00  0.00    -0.362 OA
ATOM     17  C   UNL     1      11.114  -3.849  38.839  1.00  0.00     0.045 C 
BRANCH  15  18
ATOM     18  C   UNL     1      12.618  -5.651  37.656  1.00  0.00     0.042 C 
BRANCH  18  19
ATOM     19  C   UNL     1      13.703  -6.669  38.092  1.00  0.00     0.030 CG0
ATOM     20  G   UNL     1      14.939  -6.104  38.768  1.00  0.00     0.000 G0
ENDBRANCH  18  19
ENDBRANCH  15  18
ENDBRANCH   1  14
TORSDOF 0
ENDMDL
MODEL 6
REMARK VINA RESULT:    -4.707      1.941      3.694
REMARK INTER + INTRA:          -5.062
REMARK INTER:                  -6.357
REMARK INTRA:                   1.296
REMARK UNBOUND:                 1.296
REMARK SMILES C=C1C(=O)O[C@H]2[C@H]3O[C@]3(C)CCC=C(C)CC[C@@H]12
REMARK SMILES IDX 6 1 18 2 2 3 1 4 3 5 4 6 5 7 17 8 16 9 14 10 15 11 13 12
REMARK SMILES IDX 7 14 9 15 8 16 10 17 11 18 12 19
REMARK H PARENT
REMARK Flexibility Score: 70.00
ROOT
ATOM      1  C   UNL     1      10.735  -6.484  39.925  1.00  0.00     0.216 C 
ATOM      2  C   UNL     1      11.375  -6.060  41.302  1.00  0.00     0.070 C 
ATOM      3  C   UNL     1      11.109  -4.583  41.351  1.00  0.00     0.037 C 
ATOM      4  C   UNL     1      11.287  -3.787  42.404  1.00  0.00     0.021 C 
ATOM      5  C   UNL     1      10.613  -4.180  40.057  1.00  0.00     0.334 C 
ATOM      6  O   UNL     1      10.358  -2.999  39.706  1.00  0.00    -0.247 OA
ATOM      7  O   UNL     1      10.466  -5.271  39.227  1.00  0.00    -0.455 OA
ENDROOT
BRANCH   2   8
ATOM      8  C   UNL     1      12.895  -6.375  41.484  1.00  0.00     0.017 C 
BRANCH   8   9
ATOM      9  C   UNL     1      13.774  -5.849  40.332  1.00  0.00     0.031 C 
BRANCH   9  10
ATOM     10  C   UNL     1      15.055  -6.624  40.073  1.00  0.00    -0.077 C 
ATOM     11  C   UNL     1      15.964  -6.890  41.251  1.00  0.00     0.039 C 
ATOM     12  C   UNL     1      15.525  -6.971  38.843  1.00  0.00    -0.028 CG0
ATOM     13  G   UNL     1      14.770  -7.040  37.529  1.00  0.00     0.000 G0
ENDBRANCH   9  10
ENDBRANCH   8   9
ENDBRANCH   2   8
BRANCH   1  14
ATOM     14  C   UNL     1      11.590  -7.501  39.147  1.00  0.00     0.192 C 
ATOM     15  C   UNL     1      12.184  -7.156  37.808  1.00  0.00     0.096 C 
ATOM     16  O   UNL     1      11.049  -7.997  37.953  1.00  0.00    -0.362 OA
ATOM     17  C   UNL     1      11.772  -6.015  36.853  1.00  0.00     0.045 C 
BRANCH  15  18
ATOM     18  C   UNL     1      13.492  -7.905  37.468  1.00  0.00     0.042 C 
BRANCH  18  19
ATOM     19  C   UNL     1      14.779  -7.042  37.517  1.00  0.00     0.030 CG0
ATOM     20  G   UNL     1      15.513  -6.982  38.844  1.00  0.00     0.000 G0
ENDBRANCH  18  19
ENDBRANCH  15  18
ENDBRANCH   1  14
TORSDOF 0
ENDMDL
MODEL 7
REMARK VINA RESULT:    -4.414      2.619      4.996
REMARK INTER + INTRA:          -4.666
REMARK INTER:                  -6.077
REMARK INTRA:                   1.410
REMARK UNBOUND:                 1.296
REMARK SMILES C=C1C(=O)O[C@H]2[C@H]3O[C@]3(C)CCC=C(C)CC[C@@H]12
REMARK SMILES IDX 6 1 18 2 2 3 1 4 3 5 4 6 5 7 17 8 16 9 14 10 15 11 13 12
REMARK SMILES IDX 7 14 9 15 8 16 10 17 11 18 12 19
REMARK H PARENT
REMARK Flexibility Score: 70.00
ROOT
ATOM      1  C   UNL     1      12.284  -6.014  37.257  1.00  0.00     0.216 C 
ATOM      2  C   UNL     1      13.707  -6.601  36.919  1.00  0.00     0.070 C 
ATOM      3  C   UNL     1      13.417  -8.053  36.674  1.00  0.00     0.037 C 
ATOM      4  C   UNL     1      14.263  -8.949  36.168  1.00  0.00     0.021 C 
ATOM      5  C   UNL     1      12.054  -8.306  37.074  1.00  0.00     0.334 C 
ATOM      6  O   UNL     1      11.489  -9.431  37.085  1.00  0.00    -0.247 OA
ATOM      7  O   UNL     1      11.436  -7.138  37.469  1.00  0.00    -0.455 OA
ENDROOT
BRANCH   2   8
ATOM      8  C   UNL     1      14.811  -6.412  38.008  1.00  0.00     0.017 C 
BRANCH   8   9
ATOM      9  C   UNL     1      14.553  -7.227  39.292  1.00  0.00     0.031 C 
BRANCH   9  10
ATOM     10  C   UNL     1      15.259  -6.730  40.542  1.00  0.00    -0.077 C 
ATOM     11  C   UNL     1      16.328  -7.614  41.141  1.00  0.00     0.039 C 
ATOM     12  C   UNL     1      14.908  -5.623  41.252  1.00  0.00    -0.028 CG0
ATOM     13  G   UNL     1      14.054  -4.450  40.810  1.00  0.00     0.000 G0
ENDBRANCH   9  10
ENDBRANCH   8   9
ENDBRANCH   2   8
BRANCH   1  14
ATOM     14  C   UNL     1      12.308  -4.996  38.412  1.00  0.00     0.192 C 
ATOM     15  C   UNL     1      11.849  -5.375  39.795  1.00  0.00     0.096 C 
ATOM     16  O   UNL     1      11.066  -4.582  38.914  1.00  0.00    -0.362 OA
ATOM     17  C   UNL     1      10.974  -6.578  40.206  1.00  0.00     0.045 C 
BRANCH  15  18
ATOM     18  C   UNL     1      12.520  -4.583  40.939  1.00  0.00     0.042 C 
BRANCH  18  19
ATOM     19  C   UNL     1      14.058  -4.434  40.825  1.00  0.00     0.030 CG0
ATOM     20  G   UNL     1      14.895  -5.624  41.256  1.00  0.00     0.000 G0
ENDBRANCH  18  19
ENDBRANCH  15  18
ENDBRANCH   1  14
TORSDOF 0
ENDMDL
MODEL 8
REMARK VINA RESULT:    -4.391      1.779      2.473
REMARK INTER + INTRA:          -4.635
REMARK INTER:                  -5.882
REMARK INTRA:                   1.247
REMARK UNBOUND:                 1.296
REMARK SMILES C=C1C(=O)O[C@H]2[C@H]3O[C@]3(C)CCC=C(C)CC[C@@H]12
REMARK SMILES IDX 6 1 18 2 2 3 1 4 3 5 4 6 5 7 17 8 16 9 14 10 15 11 13 12
REMARK SMILES IDX 7 14 9 15 8 16 10 17 11 18 12 19
REMARK H PARENT
REMARK Flexibility Score: 70.00
ROOT
ATOM      1  C   UNL     1      13.496  -4.952  38.672  1.00  0.00     0.216 C 
ATOM      2  C   UNL     1      12.037  -5.452  38.348  1.00  0.00     0.070 C 
ATOM      3  C   UNL     1      11.227  -4.856  39.462  1.00  0.00     0.037 C 
ATOM      4  C   UNL     1       9.897  -4.828  39.539  1.00  0.00     0.021 C 
ATOM      5  C   UNL     1      12.144  -4.306  40.431  1.00  0.00     0.334 C 
ATOM      6  O   UNL     1      11.824  -3.795  41.536  1.00  0.00    -0.247 OA
ATOM      7  O   UNL     1      13.447  -4.427  39.995  1.00  0.00    -0.455 OA
ENDROOT
BRANCH   2   8
ATOM      8  C   UNL     1      11.840  -7.000  38.261  1.00  0.00     0.017 C 
BRANCH   8   9
ATOM      9  C   UNL     1      12.108  -7.575  36.856  1.00  0.00     0.031 C 
BRANCH   9  10
ATOM     10  C   UNL     1      12.555  -9.027  36.811  1.00  0.00    -0.077 C 
ATOM     11  C   UNL     1      11.528 -10.065  36.418  1.00  0.00     0.039 C 
ATOM     12  C   UNL     1      13.762  -9.488  37.237  1.00  0.00    -0.028 CG0
ATOM     13  G   UNL     1      15.042  -8.707  37.472  1.00  0.00     0.000 G0
ENDBRANCH   9  10
ENDBRANCH   8   9
ENDBRANCH   2   8
BRANCH   1  14
ATOM     14  C   UNL     1      14.571  -6.030  38.445  1.00  0.00     0.192 C 
ATOM     15  C   UNL     1      14.883  -7.055  39.502  1.00  0.00     0.096 C 
ATOM     16  O   UNL     1      15.727  -5.945  39.233  1.00  0.00    -0.362 OA
ATOM     17  C   UNL     1      14.542  -6.998  41.007  1.00  0.00     0.045 C 
BRANCH  15  18
ATOM     18  C   UNL     1      15.411  -8.402  38.962  1.00  0.00     0.042 C 
BRANCH  18  19
ATOM     19  C   UNL     1      15.050  -8.709  37.486  1.00  0.00     0.030 CG0
ATOM     20  G   UNL     1      13.767  -9.481  37.241  1.00  0.00     0.000 G0
ENDBRANCH  18  19
ENDBRANCH  15  18
ENDBRANCH   1  14
TORSDOF 0
ENDMDL
MODEL 9
REMARK VINA RESULT:    -4.285     10.561     12.283
REMARK INTER + INTRA:          -4.491
REMARK INTER:                  -5.701
REMARK INTRA:                   1.210
REMARK UNBOUND:                 1.296
REMARK SMILES C=C1C(=O)O[C@H]2[C@H]3O[C@]3(C)CCC=C(C)CC[C@@H]12
REMARK SMILES IDX 6 1 18 2 2 3 1 4 3 5 4 6 5 7 17 8 16 9 14 10 15 11 13 12
REMARK SMILES IDX 7 14 9 15 8 16 10 17 11 18 12 19
REMARK H PARENT
REMARK Flexibility Score: 70.00
ROOT
ATOM      1  C   UNL     1       4.486  -5.534  32.717  1.00  0.00     0.216 C 
ATOM      2  C   UNL     1       3.301  -4.666  32.145  1.00  0.00     0.070 C 
ATOM      3  C   UNL     1       2.968  -3.761  33.295  1.00  0.00     0.037 C 
ATOM      4  C   UNL     1       2.155  -2.706  33.255  1.00  0.00     0.021 C 
ATOM      5  C   UNL     1       3.694  -4.228  34.451  1.00  0.00     0.334 C 
ATOM      6  O   UNL     1       3.599  -3.760  35.615  1.00  0.00    -0.247 OA
ATOM      7  O   UNL     1       4.512  -5.288  34.119  1.00  0.00    -0.455 OA
ENDROOT
BRANCH   2   8
ATOM      8  C   UNL     1       2.044  -5.452  31.651  1.00  0.00     0.017 C 
BRANCH   8   9
ATOM      9  C   UNL     1       2.113  -5.851  30.164  1.00  0.00     0.031 C 
BRANCH   9  10
ATOM     10  C   UNL     1       1.314  -7.082  29.772  1.00  0.00    -0.077 C 
ATOM     11  C   UNL     1       0.009  -6.868  29.039  1.00  0.00     0.039 C 
ATOM     12  C   UNL     1       1.601  -8.357  30.154  1.00  0.00    -0.028 CG0
ATOM     13  G   UNL     1       2.911  -8.910  30.687  1.00  0.00     0.000 G0
ENDBRANCH   9  10
ENDBRANCH   8   9
ENDBRANCH   2   8
BRANCH   1  14
ATOM     14  C   UNL     1       4.395  -7.020  32.323  1.00  0.00     0.192 C 
ATOM     15  C   UNL     1       3.497  -7.970  33.069  1.00  0.00     0.096 C 
ATOM     16  O   UNL     1       4.906  -7.948  33.240  1.00  0.00    -0.362 OA
ATOM     17  C   UNL     1       2.877  -7.784  34.470  1.00  0.00     0.045 C 
BRANCH  15  18
ATOM     18  C   UNL     1       2.975  -9.158  32.232  1.00  0.00     0.042 C 
BRANCH  18  19
ATOM     19  C   UNL     1       2.908  -8.910  30.703  1.00  0.00     0.030 CG0
ATOM     20  G   UNL     1       1.606  -8.353  30.157  1.00  0.00     0.000 G0
ENDBRANCH  18  19
ENDBRANCH  15  18
ENDBRANCH   1  14
TORSDOF 0
ENDMDL
