MODEL 1
REMARK VINA RESULT:    -3.929      0.000      0.000
REMARK INTER + INTRA:          -5.163
REMARK INTER:                  -5.078
REMARK INTRA:                  -0.085
REMARK UNBOUND:                -0.085
REMARK SMILES CCCCCCC(C)=O
REMARK SMILES IDX 4 1 3 2 2 3 1 4 5 5 6 6 7 7 9 8 8 9
REMARK H PARENT
REMARK Flexibility Score: inf
ROOT
ATOM      1  C   UNL     1      25.767  57.267  -8.431  1.00  0.00     0.000 C 
ENDROOT
BRANCH   1   2
ATOM      2  C   UNL     1      24.688  56.981  -7.377  1.00  0.00    -0.000 C 
BRANCH   2   3
ATOM      3  C   UNL     1      24.058  55.589  -7.540  1.00  0.00    -0.003 C 
ATOM      4  C   UNL     1      22.886  55.355  -6.586  1.00  0.00     0.004 C 
ENDBRANCH   2   3
ENDBRANCH   1   2
BRANCH   1   5
ATOM      5  C   UNL     1      26.110  58.761  -8.474  1.00  0.00     0.008 C 
BRANCH   5   6
ATOM      6  C   UNL     1      27.093  59.069  -9.608  1.00  0.00     0.075 C 
BRANCH   6   7
ATOM      7  C   UNL     1      27.997  60.212  -9.237  1.00  0.00     0.129 C 
ATOM      8  O   UNL     1      27.565  61.130  -8.555  1.00  0.00    -0.300 OA
ATOM      9  C   UNL     1      29.429  60.223  -9.678  1.00  0.00     0.087 C 
ENDBRANCH   6   7
ENDBRANCH   5   6
ENDBRANCH   1   5
TORSDOF 5
ENDMDL
MODEL 2
REMARK VINA RESULT:    -3.873      2.175      5.661
REMARK INTER + INTRA:          -5.090
REMARK INTER:                  -4.974
REMARK INTRA:                  -0.115
REMARK UNBOUND:                -0.085
REMARK SMILES CCCCCCC(C)=O
REMARK SMILES IDX 4 1 3 2 2 3 1 4 5 5 6 6 7 7 9 8 8 9
REMARK H PARENT
REMARK Flexibility Score: inf
ROOT
ATOM      1  C   UNL     1      26.625  58.773  -9.116  1.00  0.00     0.000 C 
ENDROOT
BRANCH   1   2
ATOM      2  C   UNL     1      27.168  60.172  -8.793  1.00  0.00    -0.000 C 
BRANCH   2   3
ATOM      3  C   UNL     1      28.369  60.557  -9.670  1.00  0.00    -0.003 C 
ATOM      4  C   UNL     1      29.710  60.318  -8.977  1.00  0.00     0.004 C 
ENDBRANCH   2   3
ENDBRANCH   1   2
BRANCH   1   5
ATOM      5  C   UNL     1      25.583  58.336  -8.079  1.00  0.00     0.008 C 
BRANCH   5   6
ATOM      6  C   UNL     1      24.804  57.108  -8.564  1.00  0.00     0.075 C 
BRANCH   6   7
ATOM      7  C   UNL     1      24.815  56.022  -7.524  1.00  0.00     0.129 C 
ATOM      8  O   UNL     1      25.853  55.425  -7.281  1.00  0.00    -0.300 OA
ATOM      9  C   UNL     1      23.567  55.682  -6.768  1.00  0.00     0.087 C 
ENDBRANCH   6   7
ENDBRANCH   5   6
ENDBRANCH   1   5
TORSDOF 5
ENDMDL
MODEL 3
REMARK VINA RESULT:    -3.665     17.774     19.107
REMARK INTER + INTRA:          -4.822
REMARK INTER:                  -4.302
REMARK INTRA:                  -0.520
REMARK UNBOUND:                -0.085
REMARK SMILES CCCCCCC(C)=O
REMARK SMILES IDX 4 1 3 2 2 3 1 4 5 5 6 6 7 7 9 8 8 9
REMARK H PARENT
REMARK Flexibility Score: inf
ROOT
ATOM      1  C   UNL     1      20.007  45.160   0.789  1.00  0.00     0.000 C 
ENDROOT
BRANCH   1   2
ATOM      2  C   UNL     1      20.167  44.386   2.106  1.00  0.00    -0.000 C 
BRANCH   2   3
ATOM      3  C   UNL     1      21.203  43.257   2.005  1.00  0.00    -0.003 C 
ATOM      4  C   UNL     1      21.544  42.894   0.559  1.00  0.00     0.004 C 
ENDBRANCH   2   3
ENDBRANCH   1   2
BRANCH   1   5
ATOM      5  C   UNL     1      18.532  45.241   0.376  1.00  0.00     0.008 C 
BRANCH   5   6
ATOM      6  C   UNL     1      17.718  44.110   1.013  1.00  0.00     0.075 C 
BRANCH   6   7
ATOM      7  C   UNL     1      17.234  43.144  -0.033  1.00  0.00     0.129 C 
ATOM      8  O   UNL     1      16.131  43.299  -0.537  1.00  0.00    -0.300 OA
ATOM      9  C   UNL     1      18.101  42.007  -0.478  1.00  0.00     0.087 C 
ENDBRANCH   6   7
ENDBRANCH   5   6
ENDBRANCH   1   5
TORSDOF 5
ENDMDL
MODEL 4
REMARK VINA RESULT:    -3.606     18.705     19.145
REMARK INTER + INTRA:          -4.745
REMARK INTER:                  -4.472
REMARK INTRA:                  -0.273
REMARK UNBOUND:                -0.085
REMARK SMILES CCCCCCC(C)=O
REMARK SMILES IDX 4 1 3 2 2 3 1 4 5 5 6 6 7 7 9 8 8 9
REMARK H PARENT
REMARK Flexibility Score: inf
ROOT
ATOM      1  C   UNL     1      17.420  44.591   0.708  1.00  0.00     0.000 C 
ENDROOT
BRANCH   1   2
ATOM      2  C   UNL     1      16.758  44.541   2.092  1.00  0.00    -0.000 C 
BRANCH   2   3
ATOM      3  C   UNL     1      15.424  45.303   2.136  1.00  0.00    -0.003 C 
ATOM      4  C   UNL     1      15.210  46.193   0.912  1.00  0.00     0.004 C 
ENDBRANCH   2   3
ENDBRANCH   1   2
BRANCH   1   5
ATOM      5  C   UNL     1      18.244  43.324   0.447  1.00  0.00     0.008 C 
BRANCH   5   6
ATOM      6  C   UNL     1      19.043  42.921   1.690  1.00  0.00     0.075 C 
BRANCH   6   7
ATOM      7  C   UNL     1      20.427  43.510   1.651  1.00  0.00     0.129 C 
ATOM      8  O   UNL     1      20.657  44.558   2.235  1.00  0.00    -0.300 OA
ATOM      9  C   UNL     1      21.530  42.809   0.918  1.00  0.00     0.087 C 
ENDBRANCH   6   7
ENDBRANCH   5   6
ENDBRANCH   1   5
TORSDOF 5
ENDMDL
MODEL 5
REMARK VINA RESULT:    -3.557      2.094      3.056
REMARK INTER + INTRA:          -4.682
REMARK INTER:                  -4.435
REMARK INTRA:                  -0.247
REMARK UNBOUND:                -0.085
REMARK SMILES CCCCCCC(C)=O
REMARK SMILES IDX 4 1 3 2 2 3 1 4 5 5 6 6 7 7 9 8 8 9
REMARK H PARENT
REMARK Flexibility Score: inf
ROOT
ATOM      1  C   UNL     1      26.765  60.364  -8.743  1.00  0.00     0.000 C 
ENDROOT
BRANCH   1   2
ATOM      2  C   UNL     1      26.683  58.850  -8.979  1.00  0.00    -0.000 C 
BRANCH   2   3
ATOM      3  C   UNL     1      25.525  58.194  -8.209  1.00  0.00    -0.003 C 
ATOM      4  C   UNL     1      25.531  56.670  -8.318  1.00  0.00     0.004 C 
ENDBRANCH   2   3
ENDBRANCH   1   2
BRANCH   1   5
ATOM      5  C   UNL     1      28.119  60.919  -9.203  1.00  0.00     0.008 C 
BRANCH   5   6
ATOM      6  C   UNL     1      28.885  59.884 -10.033  1.00  0.00     0.075 C 
BRANCH   6   7
ATOM      7  C   UNL     1      30.351  59.910  -9.701  1.00  0.00     0.129 C 
ATOM      8  O   UNL     1      31.168  59.538 -10.531  1.00  0.00    -0.300 OA
ATOM      9  C   UNL     1      30.820  60.410  -8.369  1.00  0.00     0.087 C 
ENDBRANCH   6   7
ENDBRANCH   5   6
ENDBRANCH   1   5
TORSDOF 5
ENDMDL
MODEL 6
REMARK VINA RESULT:    -3.554     17.570     19.331
REMARK INTER + INTRA:          -4.678
REMARK INTER:                  -4.109
REMARK INTRA:                  -0.569
REMARK UNBOUND:                -0.085
REMARK SMILES CCCCCCC(C)=O
REMARK SMILES IDX 4 1 3 2 2 3 1 4 5 5 6 6 7 7 9 8 8 9
REMARK H PARENT
REMARK Flexibility Score: inf
ROOT
ATOM      1  C   UNL     1      19.263  42.666   0.649  1.00  0.00     0.000 C 
ENDROOT
BRANCH   1   2
ATOM      2  C   UNL     1      20.076  43.079   1.884  1.00  0.00    -0.000 C 
BRANCH   2   3
ATOM      3  C   UNL     1      20.169  44.604   2.046  1.00  0.00    -0.003 C 
ATOM      4  C   UNL     1      20.113  45.346   0.711  1.00  0.00     0.004 C 
ENDBRANCH   2   3
ENDBRANCH   1   2
BRANCH   1   5
ATOM      5  C   UNL     1      17.795  42.414   1.016  1.00  0.00     0.008 C 
BRANCH   5   6
ATOM      6  C   UNL     1      16.860  43.304   0.192  1.00  0.00     0.075 C 
BRANCH   6   7
ATOM      7  C   UNL     1      16.574  44.593   0.913  1.00  0.00     0.129 C 
ATOM      8  O   UNL     1      16.592  44.621   2.135  1.00  0.00    -0.300 OA
ATOM      9  C   UNL     1      16.289  45.847   0.145  1.00  0.00     0.087 C 
ENDBRANCH   6   7
ENDBRANCH   5   6
ENDBRANCH   1   5
TORSDOF 5
ENDMDL
MODEL 7
REMARK VINA RESULT:    -3.503     18.170     19.387
REMARK INTER + INTRA:          -4.612
REMARK INTER:                  -4.360
REMARK INTRA:                  -0.252
REMARK UNBOUND:                -0.085
REMARK SMILES CCCCCCC(C)=O
REMARK SMILES IDX 4 1 3 2 2 3 1 4 5 5 6 6 7 7 9 8 8 9
REMARK H PARENT
REMARK Flexibility Score: inf
ROOT
ATOM      1  C   UNL     1      18.937  44.877   0.657  1.00  0.00     0.000 C 
ENDROOT
BRANCH   1   2
ATOM      2  C   UNL     1      20.250  44.774   1.445  1.00  0.00    -0.000 C 
BRANCH   2   3
ATOM      3  C   UNL     1      20.617  43.324   1.794  1.00  0.00    -0.003 C 
ATOM      4  C   UNL     1      21.500  42.664   0.735  1.00  0.00     0.004 C 
ENDBRANCH   2   3
ENDBRANCH   1   2
BRANCH   1   5
ATOM      5  C   UNL     1      17.928  43.824   1.132  1.00  0.00     0.008 C 
BRANCH   5   6
ATOM      6  C   UNL     1      16.935  44.424   2.133  1.00  0.00     0.075 C 
BRANCH   6   7
ATOM      7  C   UNL     1      15.728  44.975   1.426  1.00  0.00     0.129 C 
ATOM      8  O   UNL     1      15.458  44.589   0.297  1.00  0.00    -0.300 OA
ATOM      9  C   UNL     1      14.841  45.975   2.101  1.00  0.00     0.087 C 
ENDBRANCH   6   7
ENDBRANCH   5   6
ENDBRANCH   1   5
TORSDOF 5
ENDMDL
MODEL 8
REMARK VINA RESULT:    -3.460      4.432      6.358
REMARK INTER + INTRA:          -4.557
REMARK INTER:                  -4.372
REMARK INTRA:                  -0.185
REMARK UNBOUND:                -0.085
REMARK SMILES CCCCCCC(C)=O
REMARK SMILES IDX 4 1 3 2 2 3 1 4 5 5 6 6 7 7 9 8 8 9
REMARK H PARENT
REMARK Flexibility Score: inf
ROOT
ATOM      1  C   UNL     1      31.103  59.886  -9.767  1.00  0.00     0.000 C 
ENDROOT
BRANCH   1   2
ATOM      2  C   UNL     1      29.647  59.915 -10.255  1.00  0.00    -0.000 C 
BRANCH   2   3
ATOM      3  C   UNL     1      28.757  60.832  -9.403  1.00  0.00    -0.003 C 
ATOM      4  C   UNL     1      27.395  60.212  -9.092  1.00  0.00     0.004 C 
ENDBRANCH   2   3
ENDBRANCH   1   2
BRANCH   1   5
ATOM      5  C   UNL     1      31.997  59.123 -10.752  1.00  0.00     0.008 C 
BRANCH   5   6
ATOM      6  C   UNL     1      31.215  58.715 -12.004  1.00  0.00     0.075 C 
BRANCH   6   7
ATOM      7  C   UNL     1      31.806  57.480 -12.627  1.00  0.00     0.129 C 
ATOM      8  O   UNL     1      31.075  56.557 -12.953  1.00  0.00    -0.300 OA
ATOM      9  C   UNL     1      33.281  57.383 -12.870  1.00  0.00     0.087 C 
ENDBRANCH   6   7
ENDBRANCH   5   6
ENDBRANCH   1   5
TORSDOF 5
ENDMDL
MODEL 9
REMARK VINA RESULT:    -3.394     16.843     17.753
REMARK INTER + INTRA:          -4.471
REMARK INTER:                  -4.236
REMARK INTRA:                  -0.235
REMARK UNBOUND:                -0.085
REMARK SMILES CCCCCCC(C)=O
REMARK SMILES IDX 4 1 3 2 2 3 1 4 5 5 6 6 7 7 9 8 8 9
REMARK H PARENT
REMARK Flexibility Score: inf
ROOT
ATOM      1  C   UNL     1      33.094  47.358   3.247  1.00  0.00     0.000 C 
ENDROOT
BRANCH   1   2
ATOM      2  C   UNL     1      34.033  47.884   4.342  1.00  0.00    -0.000 C 
BRANCH   2   3
ATOM      3  C   UNL     1      33.670  49.305   4.799  1.00  0.00    -0.003 C 
ATOM      4  C   UNL     1      32.239  49.697   4.431  1.00  0.00     0.004 C 
ENDBRANCH   2   3
ENDBRANCH   1   2
BRANCH   1   5
ATOM      5  C   UNL     1      33.889  46.721   2.101  1.00  0.00     0.008 C 
BRANCH   5   6
ATOM      6  C   UNL     1      32.983  46.415   0.905  1.00  0.00     0.075 C 
BRANCH   6   7
ATOM      7  C   UNL     1      32.009  45.318   1.237  1.00  0.00     0.129 C 
ATOM      8  O   UNL     1      32.423  44.246   1.652  1.00  0.00    -0.300 OA
ATOM      9  C   UNL     1      30.535  45.536   1.083  1.00  0.00     0.087 C 
ENDBRANCH   6   7
ENDBRANCH   5   6
ENDBRANCH   1   5
TORSDOF 5
ENDMDL
