MODEL 1
REMARK VINA RESULT:    -4.816      0.000      0.000
REMARK INTER + INTRA:          -9.676
REMARK INTER:                  -8.476
REMARK INTRA:                  -1.200
REMARK UNBOUND:                -1.200
REMARK SMILES CCCCCCCCCCCCCCC(=O)[O-]
REMARK SMILES IDX 9 1 10 2 11 3 12 4 13 5 14 6 15 7 16 8 17 9 8 10 7 11 6 12
REMARK SMILES IDX 5 13 4 14 3 15 2 16 1 17
REMARK H PARENT
REMARK Flexibility Score: inf
ROOT
ATOM      1  C   UNL     1       4.844 -36.228  21.487  1.00  0.00     0.000 C 
ENDROOT
BRANCH   1   2
ATOM      2  C   UNL     1       5.187 -36.490  20.013  1.00  0.00     0.000 C 
BRANCH   2   3
ATOM      3  C   UNL     1       4.661 -37.847  19.519  1.00  0.00     0.000 C 
BRANCH   3   4
ATOM      4  C   UNL     1       3.128 -37.876  19.390  1.00  0.00     0.000 C 
BRANCH   4   5
ATOM      5  C   UNL     1       2.648 -38.077  17.941  1.00  0.00     0.006 C 
BRANCH   5   6
ATOM      6  C   UNL     1       3.186 -37.026  16.955  1.00  0.00     0.053 C 
BRANCH   6   7
ATOM      7  C   UNL     1       2.539 -37.119  15.606  1.00  0.00     0.041 C 
ATOM      8  O   UNL     1       1.318 -36.842  15.469  1.00  0.00    -0.550 OA
ATOM      9  O   UNL     1       3.290 -37.478  14.493  1.00  0.00    -0.550 OA
ENDBRANCH   6   7
ENDBRANCH   5   6
ENDBRANCH   4   5
ENDBRANCH   3   4
ENDBRANCH   2   3
ENDBRANCH   1   2
BRANCH   1  10
ATOM     10  C   UNL     1       6.110 -36.228  22.353  1.00  0.00     0.000 C 
BRANCH  10  11
ATOM     11  C   UNL     1       5.779 -35.904  23.814  1.00  0.00    -0.000 C 
BRANCH  11  12
ATOM     12  C   UNL     1       6.075 -37.103  24.727  1.00  0.00    -0.000 C 
BRANCH  12  13
ATOM     13  C   UNL     1       4.834 -37.973  24.981  1.00  0.00    -0.000 C 
BRANCH  13  14
ATOM     14  C   UNL     1       4.984 -39.396  24.415  1.00  0.00    -0.000 C 
BRANCH  14  15
ATOM     15  C   UNL     1       4.590 -39.492  22.930  1.00  0.00    -0.000 C 
BRANCH  15  16
ATOM     16  C   UNL     1       5.373 -40.544  22.123  1.00  0.00    -0.003 C 
ATOM     17  C   UNL     1       5.752 -41.771  22.950  1.00  0.00     0.004 C 
ENDBRANCH  15  16
ENDBRANCH  14  15
ENDBRANCH  13  14
ENDBRANCH  12  13
ENDBRANCH  11  12
ENDBRANCH  10  11
ENDBRANCH   1  10
TORSDOF 13
ENDMDL
MODEL 2
REMARK VINA RESULT:    -4.520      3.139      6.383
REMARK INTER + INTRA:          -9.155
REMARK INTER:                  -7.702
REMARK INTRA:                  -1.453
REMARK UNBOUND:                -1.200
REMARK SMILES CCCCCCCCCCCCCCC(=O)[O-]
REMARK SMILES IDX 9 1 10 2 11 3 12 4 13 5 14 6 15 7 16 8 17 9 8 10 7 11 6 12
REMARK SMILES IDX 5 13 4 14 3 15 2 16 1 17
REMARK H PARENT
REMARK Flexibility Score: inf
ROOT
ATOM      1  C   UNL     1       4.626 -35.638  22.776  1.00  0.00     0.000 C 
ENDROOT
BRANCH   1   2
ATOM      2  C   UNL     1       6.045 -35.960  23.268  1.00  0.00     0.000 C 
BRANCH   2   3
ATOM      3  C   UNL     1       6.045 -36.837  24.530  1.00  0.00     0.000 C 
BRANCH   3   4
ATOM      4  C   UNL     1       4.821 -37.765  24.606  1.00  0.00     0.000 C 
BRANCH   4   5
ATOM      5  C   UNL     1       5.165 -39.241  24.331  1.00  0.00     0.006 C 
BRANCH   5   6
ATOM      6  C   UNL     1       4.634 -39.765  22.986  1.00  0.00     0.053 C 
BRANCH   6   7
ATOM      7  C   UNL     1       5.507 -40.833  22.400  1.00  0.00     0.041 C 
ATOM      8  O   UNL     1       5.694 -41.911  23.024  1.00  0.00    -0.550 OA
ATOM      9  O   UNL     1       6.086 -40.655  21.149  1.00  0.00    -0.550 OA
ENDBRANCH   6   7
ENDBRANCH   5   6
ENDBRANCH   4   5
ENDBRANCH   3   4
ENDBRANCH   2   3
ENDBRANCH   1   2
BRANCH   1  10
ATOM     10  C   UNL     1       4.495 -35.897  21.270  1.00  0.00     0.000 C 
BRANCH  10  11
ATOM     11  C   UNL     1       5.369 -37.080  20.836  1.00  0.00    -0.000 C 
BRANCH  11  12
ATOM     12  C   UNL     1       4.800 -37.753  19.578  1.00  0.00    -0.000 C 
BRANCH  12  13
ATOM     13  C   UNL     1       3.350 -38.229  19.767  1.00  0.00    -0.000 C 
BRANCH  13  14
ATOM     14  C   UNL     1       2.515 -38.106  18.481  1.00  0.00    -0.000 C 
BRANCH  14  15
ATOM     15  C   UNL     1       3.183 -37.214  17.419  1.00  0.00    -0.000 C 
BRANCH  15  16
ATOM     16  C   UNL     1       2.483 -37.212  16.047  1.00  0.00    -0.003 C 
ATOM     17  C   UNL     1       3.261 -37.977  14.977  1.00  0.00     0.004 C 
ENDBRANCH  15  16
ENDBRANCH  14  15
ENDBRANCH  13  14
ENDBRANCH  12  13
ENDBRANCH  11  12
ENDBRANCH  10  11
ENDBRANCH   1  10
TORSDOF 13
ENDMDL
MODEL 3
REMARK VINA RESULT:    -4.324      1.220      3.057
REMARK INTER + INTRA:          -8.810
REMARK INTER:                  -7.962
REMARK INTRA:                  -0.848
REMARK UNBOUND:                -1.200
REMARK SMILES CCCCCCCCCCCCCCC(=O)[O-]
REMARK SMILES IDX 9 1 10 2 11 3 12 4 13 5 14 6 15 7 16 8 17 9 8 10 7 11 6 12
REMARK SMILES IDX 5 13 4 14 3 15 2 16 1 17
REMARK H PARENT
REMARK Flexibility Score: inf
ROOT
ATOM      1  C   UNL     1       4.262 -38.465  21.172  1.00  0.00     0.000 C 
ENDROOT
BRANCH   1   2
ATOM      2  C   UNL     1       4.979 -38.109  19.861  1.00  0.00     0.000 C 
BRANCH   2   3
ATOM      3  C   UNL     1       4.108 -37.257  18.926  1.00  0.00     0.000 C 
BRANCH   3   4
ATOM      4  C   UNL     1       2.698 -37.842  18.734  1.00  0.00     0.000 C 
BRANCH   4   5
ATOM      5  C   UNL     1       2.275 -37.923  17.256  1.00  0.00     0.006 C 
BRANCH   5   6
ATOM      6  C   UNL     1       3.266 -37.257  16.286  1.00  0.00     0.053 C 
BRANCH   6   7
ATOM      7  C   UNL     1       3.024 -37.645  14.859  1.00  0.00     0.041 C 
ATOM      8  O   UNL     1       2.121 -37.075  14.192  1.00  0.00    -0.550 OA
ATOM      9  O   UNL     1       3.818 -38.612  14.253  1.00  0.00    -0.550 OA
ENDBRANCH   6   7
ENDBRANCH   5   6
ENDBRANCH   4   5
ENDBRANCH   3   4
ENDBRANCH   2   3
ENDBRANCH   1   2
BRANCH   1  10
ATOM     10  C   UNL     1       5.116 -39.410  22.026  1.00  0.00     0.000 C 
BRANCH  10  11
ATOM     11  C   UNL     1       4.359 -39.854  23.283  1.00  0.00    -0.000 C 
BRANCH  11  12
ATOM     12  C   UNL     1       5.188 -39.590  24.549  1.00  0.00    -0.000 C 
BRANCH  12  13
ATOM     13  C   UNL     1       4.816 -38.266  25.233  1.00  0.00    -0.000 C 
BRANCH  13  14
ATOM     14  C   UNL     1       5.938 -37.217  25.141  1.00  0.00    -0.000 C 
BRANCH  14  15
ATOM     15  C   UNL     1       6.090 -36.629  23.727  1.00  0.00    -0.000 C 
BRANCH  15  16
ATOM     16  C   UNL     1       5.323 -35.315  23.490  1.00  0.00    -0.003 C 
ATOM     17  C   UNL     1       6.125 -34.075  23.881  1.00  0.00     0.004 C 
ENDBRANCH  15  16
ENDBRANCH  14  15
ENDBRANCH  13  14
ENDBRANCH  12  13
ENDBRANCH  11  12
ENDBRANCH  10  11
ENDBRANCH   1  10
TORSDOF 13
ENDMDL
MODEL 4
REMARK VINA RESULT:    -3.877      1.325      3.032
REMARK INTER + INTRA:          -8.024
REMARK INTER:                  -6.909
REMARK INTRA:                  -1.114
REMARK UNBOUND:                -1.200
REMARK SMILES CCCCCCCCCCCCCCC(=O)[O-]
REMARK SMILES IDX 9 1 10 2 11 3 12 4 13 5 14 6 15 7 16 8 17 9 8 10 7 11 6 12
REMARK SMILES IDX 5 13 4 14 3 15 2 16 1 17
REMARK H PARENT
REMARK Flexibility Score: inf
ROOT
ATOM      1  C   UNL     1       5.199 -36.857  20.899  1.00  0.00     0.000 C 
ENDROOT
BRANCH   1   2
ATOM      2  C   UNL     1       4.260 -36.018  20.021  1.00  0.00     0.000 C 
BRANCH   2   3
ATOM      3  C   UNL     1       4.822 -35.789  18.609  1.00  0.00     0.000 C 
BRANCH   3   4
ATOM      4  C   UNL     1       3.793 -36.091  17.506  1.00  0.00     0.000 C 
BRANCH   4   5
ATOM      5  C   UNL     1       3.291 -37.547  17.531  1.00  0.00     0.006 C 
BRANCH   5   6
ATOM      6  C   UNL     1       2.375 -37.910  16.350  1.00  0.00     0.053 C 
BRANCH   6   7
ATOM      7  C   UNL     1       3.108 -37.945  15.043  1.00  0.00     0.041 C 
ATOM      8  O   UNL     1       3.731 -38.983  14.694  1.00  0.00    -0.550 OA
ATOM      9  O   UNL     1       3.076 -36.845  14.194  1.00  0.00    -0.550 OA
ENDBRANCH   6   7
ENDBRANCH   5   6
ENDBRANCH   4   5
ENDBRANCH   3   4
ENDBRANCH   2   3
ENDBRANCH   1   2
BRANCH   1  10
ATOM     10  C   UNL     1       5.356 -38.275  20.337  1.00  0.00     0.000 C 
BRANCH  10  11
ATOM     11  C   UNL     1       5.225 -39.326  21.446  1.00  0.00    -0.000 C 
BRANCH  11  12
ATOM     12  C   UNL     1       4.365 -38.801  22.605  1.00  0.00    -0.000 C 
BRANCH  12  13
ATOM     13  C   UNL     1       4.714 -39.464  23.947  1.00  0.00    -0.000 C 
BRANCH  13  14
ATOM     14  C   UNL     1       5.337 -38.477  24.950  1.00  0.00    -0.000 C 
BRANCH  14  15
ATOM     15  C   UNL     1       6.125 -37.347  24.264  1.00  0.00    -0.000 C 
BRANCH  15  16
ATOM     16  C   UNL     1       5.715 -35.925  24.690  1.00  0.00    -0.003 C 
ATOM     17  C   UNL     1       6.116 -34.858  23.672  1.00  0.00     0.004 C 
ENDBRANCH  15  16
ENDBRANCH  14  15
ENDBRANCH  13  14
ENDBRANCH  12  13
ENDBRANCH  11  12
ENDBRANCH  10  11
ENDBRANCH   1  10
TORSDOF 13
ENDMDL
MODEL 5
REMARK VINA RESULT:    -3.685      3.843      7.230
REMARK INTER + INTRA:          -7.685
REMARK INTER:                  -6.891
REMARK INTRA:                  -0.793
REMARK UNBOUND:                -1.200
REMARK SMILES CCCCCCCCCCCCCCC(=O)[O-]
REMARK SMILES IDX 9 1 10 2 11 3 12 4 13 5 14 6 15 7 16 8 17 9 8 10 7 11 6 12
REMARK SMILES IDX 5 13 4 14 3 15 2 16 1 17
REMARK H PARENT
REMARK Flexibility Score: inf
ROOT
ATOM      1  C   UNL     1       5.202 -35.829  20.971  1.00  0.00     0.000 C 
ENDROOT
BRANCH   1   2
ATOM      2  C   UNL     1       5.472 -37.135  21.731  1.00  0.00     0.000 C 
BRANCH   2   3
ATOM      3  C   UNL     1       4.885 -38.364  21.019  1.00  0.00     0.000 C 
BRANCH   3   4
ATOM      4  C   UNL     1       5.067 -39.660  21.827  1.00  0.00     0.000 C 
BRANCH   4   5
ATOM      5  C   UNL     1       4.287 -39.657  23.155  1.00  0.00     0.006 C 
BRANCH   5   6
ATOM      6  C   UNL     1       5.182 -39.570  24.404  1.00  0.00     0.053 C 
BRANCH   6   7
ATOM      7  C   UNL     1       4.956 -38.312  25.186  1.00  0.00     0.041 C 
ATOM      8  O   UNL     1       4.120 -38.293  26.128  1.00  0.00    -0.550 OA
ATOM      9  O   UNL     1       5.693 -37.169  24.899  1.00  0.00    -0.550 OA
ENDBRANCH   6   7
ENDBRANCH   5   6
ENDBRANCH   4   5
ENDBRANCH   3   4
ENDBRANCH   2   3
ENDBRANCH   1   2
BRANCH   1  10
ATOM     10  C   UNL     1       5.705 -35.921  19.525  1.00  0.00     0.000 C 
BRANCH  10  11
ATOM     11  C   UNL     1       4.710 -35.278  18.552  1.00  0.00    -0.000 C 
BRANCH  11  12
ATOM     12  C   UNL     1       4.213 -36.298  17.517  1.00  0.00    -0.000 C 
BRANCH  12  13
ATOM     13  C   UNL     1       3.218 -37.307  18.113  1.00  0.00    -0.000 C 
BRANCH  13  14
ATOM     14  C   UNL     1       2.321 -37.955  17.044  1.00  0.00    -0.000 C 
BRANCH  14  15
ATOM     15  C   UNL     1       1.857 -36.955  15.969  1.00  0.00    -0.000 C 
BRANCH  15  16
ATOM     16  C   UNL     1       2.464 -37.183  14.573  1.00  0.00    -0.003 C 
ATOM     17  C   UNL     1       3.510 -38.298  14.550  1.00  0.00     0.004 C 
ENDBRANCH  15  16
ENDBRANCH  14  15
ENDBRANCH  13  14
ENDBRANCH  12  13
ENDBRANCH  11  12
ENDBRANCH  10  11
ENDBRANCH   1  10
TORSDOF 13
ENDMDL
MODEL 6
REMARK VINA RESULT:    -3.671      3.107      6.424
REMARK INTER + INTRA:          -7.660
REMARK INTER:                  -6.633
REMARK INTRA:                  -1.027
REMARK UNBOUND:                -1.200
REMARK SMILES CCCCCCCCCCCCCCC(=O)[O-]
REMARK SMILES IDX 9 1 10 2 11 3 12 4 13 5 14 6 15 7 16 8 17 9 8 10 7 11 6 12
REMARK SMILES IDX 5 13 4 14 3 15 2 16 1 17
REMARK H PARENT
REMARK Flexibility Score: inf
ROOT
ATOM      1  C   UNL     1       4.711 -35.687  22.118  1.00  0.00     0.000 C 
ENDROOT
BRANCH   1   2
ATOM      2  C   UNL     1       5.164 -35.582  23.582  1.00  0.00     0.000 C 
BRANCH   2   3
ATOM      3  C   UNL     1       5.964 -36.811  24.041  1.00  0.00     0.000 C 
BRANCH   3   4
ATOM      4  C   UNL     1       5.197 -37.669  25.061  1.00  0.00     0.000 C 
BRANCH   4   5
ATOM      5  C   UNL     1       5.203 -39.170  24.713  1.00  0.00     0.006 C 
BRANCH   5   6
ATOM      6  C   UNL     1       4.409 -39.518  23.442  1.00  0.00     0.053 C 
BRANCH   6   7
ATOM      7  C   UNL     1       5.225 -40.287  22.448  1.00  0.00     0.041 C 
ATOM      8  O   UNL     1       5.592 -39.742  21.373  1.00  0.00    -0.550 OA
ATOM      9  O   UNL     1       5.612 -41.593  22.722  1.00  0.00    -0.550 OA
ENDBRANCH   6   7
ENDBRANCH   5   6
ENDBRANCH   4   5
ENDBRANCH   3   4
ENDBRANCH   2   3
ENDBRANCH   1   2
BRANCH   1  10
ATOM     10  C   UNL     1       5.735 -36.464  21.282  1.00  0.00     0.000 C 
BRANCH  10  11
ATOM     11  C   UNL     1       5.744 -35.977  19.828  1.00  0.00    -0.000 C 
BRANCH  11  12
ATOM     12  C   UNL     1       4.705 -36.733  18.986  1.00  0.00    -0.000 C 
BRANCH  12  13
ATOM     13  C   UNL     1       4.020 -35.833  17.946  1.00  0.00    -0.000 C 
BRANCH  13  14
ATOM     14  C   UNL     1       3.337 -36.638  16.826  1.00  0.00    -0.000 C 
BRANCH  14  15
ATOM     15  C   UNL     1       2.672 -37.927  17.339  1.00  0.00    -0.000 C 
BRANCH  15  16
ATOM     16  C   UNL     1       1.175 -37.790  17.675  1.00  0.00    -0.003 C 
ATOM     17  C   UNL     1       0.779 -38.529  18.953  1.00  0.00     0.004 C 
ENDBRANCH  15  16
ENDBRANCH  14  15
ENDBRANCH  13  14
ENDBRANCH  12  13
ENDBRANCH  11  12
ENDBRANCH  10  11
ENDBRANCH   1  10
TORSDOF 13
ENDMDL
MODEL 7
REMARK VINA RESULT:    -3.596      1.233      2.592
REMARK INTER + INTRA:          -7.528
REMARK INTER:                  -7.332
REMARK INTRA:                  -0.196
REMARK UNBOUND:                -1.200
REMARK SMILES CCCCCCCCCCCCCCC(=O)[O-]
REMARK SMILES IDX 9 1 10 2 11 3 12 4 13 5 14 6 15 7 16 8 17 9 8 10 7 11 6 12
REMARK SMILES IDX 5 13 4 14 3 15 2 16 1 17
REMARK H PARENT
REMARK Flexibility Score: inf
ROOT
ATOM      1  C   UNL     1       4.719 -38.054  20.083  1.00  0.00     0.000 C 
ENDROOT
BRANCH   1   2
ATOM      2  C   UNL     1       3.786 -38.228  18.876  1.00  0.00     0.000 C 
BRANCH   2   3
ATOM      3  C   UNL     1       2.301 -38.223  19.274  1.00  0.00     0.000 C 
BRANCH   3   4
ATOM      4  C   UNL     1       1.362 -38.236  18.056  1.00  0.00     0.000 C 
BRANCH   4   5
ATOM      5  C   UNL     1       1.902 -37.416  16.869  1.00  0.00     0.006 C 
BRANCH   5   6
ATOM      6  C   UNL     1       3.169 -38.007  16.229  1.00  0.00     0.053 C 
BRANCH   6   7
ATOM      7  C   UNL     1       3.140 -37.944  14.732  1.00  0.00     0.041 C 
ATOM      8  O   UNL     1       3.915 -38.668  14.052  1.00  0.00    -0.550 OA
ATOM      9  O   UNL     1       2.233 -37.113  14.084  1.00  0.00    -0.550 OA
ENDBRANCH   6   7
ENDBRANCH   5   6
ENDBRANCH   4   5
ENDBRANCH   3   4
ENDBRANCH   2   3
ENDBRANCH   1   2
BRANCH   1  10
ATOM     10  C   UNL     1       5.395 -36.678  20.061  1.00  0.00     0.000 C 
BRANCH  10  11
ATOM     11  C   UNL     1       4.558 -35.640  20.816  1.00  0.00    -0.000 C 
BRANCH  11  12
ATOM     12  C   UNL     1       4.390 -36.034  22.291  1.00  0.00    -0.000 C 
BRANCH  12  13
ATOM     13  C   UNL     1       5.318 -35.240  23.225  1.00  0.00    -0.000 C 
BRANCH  13  14
ATOM     14  C   UNL     1       5.775 -36.061  24.442  1.00  0.00    -0.000 C 
BRANCH  14  15
ATOM     15  C   UNL     1       6.099 -37.524  24.088  1.00  0.00    -0.000 C 
BRANCH  15  16
ATOM     16  C   UNL     1       5.085 -38.554  24.618  1.00  0.00    -0.003 C 
ATOM     17  C   UNL     1       4.709 -39.611  23.580  1.00  0.00     0.004 C 
ENDBRANCH  15  16
ENDBRANCH  14  15
ENDBRANCH  13  14
ENDBRANCH  12  13
ENDBRANCH  11  12
ENDBRANCH  10  11
ENDBRANCH   1  10
TORSDOF 13
ENDMDL
