MODEL 1
REMARK VINA RESULT:    -5.771      0.000      0.000
REMARK INTER + INTRA:          -7.448
REMARK INTER:                  -7.120
REMARK INTRA:                  -0.328
REMARK UNBOUND:                -0.328
REMARK SMILES COc1cc(-c2oc3cc(O)cc(O)c3c(=O)c2O)ccc1O
REMARK SMILES IDX 6 1 18 2 16 3 17 4 15 5 13 6 12 7 10 8 9 9 8 10 7 11 5 12
REMARK SMILES IDX 3 13 22 14 4 15 21 16 20 17 2 18 1 19 23 20 19 22 14 24
REMARK SMILES IDX 11 26
REMARK H PARENT 23 21 19 23 14 25 11 27
REMARK Flexibility Score: inf
ROOT
ATOM      1  C   UNL     1      75.566 -55.627 198.094  1.00  0.00     0.180 A 
ATOM      2  C   UNL     1      74.742 -55.573 196.957  1.00  0.00     0.208 A 
ATOM      3  C   UNL     1      75.288 -55.130 195.741  1.00  0.00     0.238 A 
ATOM      4  O   UNL     1      74.532 -55.033 194.740  1.00  0.00    -0.285 OA
ATOM      5  C   UNL     1      76.653 -54.763 195.674  1.00  0.00     0.111 A 
ATOM      6  C   UNL     1      77.320 -54.338 194.486  1.00  0.00     0.134 A 
ATOM      7  C   UNL     1      78.639 -53.875 194.563  1.00  0.00     0.093 A 
ATOM      8  C   UNL     1      79.336 -53.881 195.771  1.00  0.00     0.123 A 
ATOM      9  C   UNL     1      78.712 -54.350 196.928  1.00  0.00     0.094 A 
ATOM     10  C   UNL     1      77.385 -54.785 196.890  1.00  0.00     0.146 A 
ATOM     11  O   UNL     1      76.825 -55.213 198.015  1.00  0.00    -0.452 OA
ENDROOT
BRANCH   1  12
ATOM     12  C   UNL     1      75.070 -56.106 199.405  1.00  0.00     0.025 A 
ATOM     13  C   UNL     1      73.743 -55.793 201.436  1.00  0.00     0.161 A 
ATOM     14  C   UNL     1      74.105 -57.078 201.862  1.00  0.00     0.157 A 
ATOM     15  C   UNL     1      74.222 -55.313 200.200  1.00  0.00     0.062 A 
ATOM     16  C   UNL     1      74.930 -57.877 201.060  1.00  0.00     0.051 A 
ATOM     17  C   UNL     1      75.403 -57.398 199.838  1.00  0.00     0.016 A 
BRANCH  13  18
ATOM     18  O   UNL     1      72.906 -55.026 202.261  1.00  0.00    -0.493 OA
ATOM     19  C   UNL     1      73.352 -53.971 203.106  1.00  0.00     0.278 C 
ENDBRANCH  13  18
BRANCH  14  20
ATOM     20  O   UNL     1      73.636 -57.557 203.083  1.00  0.00    -0.504 OA
ATOM     21  H   UNL     1      74.257 -57.699 203.871  1.00  0.00     0.293 HD
ENDBRANCH  14  20
ENDBRANCH   1  12
BRANCH   2  22
ATOM     22  O   UNL     1      73.391 -55.919 197.051  1.00  0.00    -0.502 OA
ATOM     23  H   UNL     1      72.664 -55.412 196.560  1.00  0.00     0.293 HD
ENDBRANCH   2  22
BRANCH   6  24
ATOM     24  O   UNL     1      76.746 -54.379 193.212  1.00  0.00    -0.507 OA
ATOM     25  H   UNL     1      76.996 -55.038 192.489  1.00  0.00     0.293 HD
ENDBRANCH   6  24
BRANCH   8  26
ATOM     26  O   UNL     1      80.652 -53.427 195.807  1.00  0.00    -0.508 OA
ATOM     27  H   UNL     1      81.410 -53.966 195.406  1.00  0.00     0.293 HD
ENDBRANCH   8  26
TORSDOF 6
ENDMDL
MODEL 2
REMARK VINA RESULT:    -5.273      1.527      7.260
REMARK INTER + INTRA:          -6.833
REMARK INTER:                  -6.439
REMARK INTRA:                  -0.394
REMARK UNBOUND:                -0.328
REMARK SMILES COc1cc(-c2oc3cc(O)cc(O)c3c(=O)c2O)ccc1O
REMARK SMILES IDX 6 1 18 2 16 3 17 4 15 5 13 6 12 7 10 8 9 9 8 10 7 11 5 12
REMARK SMILES IDX 3 13 22 14 4 15 21 16 20 17 2 18 1 19 23 20 19 22 14 24
REMARK SMILES IDX 11 26
REMARK H PARENT 23 21 19 23 14 25 11 27
REMARK Flexibility Score: inf
ROOT
ATOM      1  C   UNL     1      75.704 -54.884 198.742  1.00  0.00     0.180 A 
ATOM      2  C   UNL     1      75.011 -53.752 199.202  1.00  0.00     0.208 A 
ATOM      3  C   UNL     1      74.026 -53.912 200.191  1.00  0.00     0.238 A 
ATOM      4  O   UNL     1      73.371 -52.903 200.560  1.00  0.00    -0.285 OA
ATOM      5  C   UNL     1      73.759 -55.199 200.716  1.00  0.00     0.111 A 
ATOM      6  C   UNL     1      72.811 -55.471 201.749  1.00  0.00     0.134 A 
ATOM      7  C   UNL     1      72.535 -56.799 202.100  1.00  0.00     0.093 A 
ATOM      8  C   UNL     1      73.218 -57.858 201.504  1.00  0.00     0.123 A 
ATOM      9  C   UNL     1      74.189 -57.600 200.536  1.00  0.00     0.094 A 
ATOM     10  C   UNL     1      74.461 -56.288 200.138  1.00  0.00     0.146 A 
ATOM     11  O   UNL     1      75.385 -56.086 199.207  1.00  0.00    -0.452 OA
ENDROOT
BRANCH   1  12
ATOM     12  C   UNL     1      76.773 -54.792 197.720  1.00  0.00     0.025 A 
ATOM     13  C   UNL     1      77.513 -54.813 195.389  1.00  0.00     0.161 A 
ATOM     14  C   UNL     1      78.824 -54.553 195.811  1.00  0.00     0.157 A 
ATOM     15  C   UNL     1      76.487 -54.923 196.348  1.00  0.00     0.062 A 
ATOM     16  C   UNL     1      79.106 -54.400 197.174  1.00  0.00     0.051 A 
ATOM     17  C   UNL     1      78.087 -54.511 198.121  1.00  0.00     0.016 A 
BRANCH  13  18
ATOM     18  O   UNL     1      77.268 -54.950 194.014  1.00  0.00    -0.493 OA
ATOM     19  C   UNL     1      76.611 -53.974 193.210  1.00  0.00     0.278 C 
ENDBRANCH  13  18
BRANCH  14  20
ATOM     20  O   UNL     1      79.843 -54.445 194.866  1.00  0.00    -0.504 OA
ATOM     21  H   UNL     1      80.108 -55.228 194.280  1.00  0.00     0.293 HD
ENDBRANCH  14  20
ENDBRANCH   1  12
BRANCH   2  22
ATOM     22  O   UNL     1      75.275 -52.494 198.653  1.00  0.00    -0.502 OA
ATOM     23  H   UNL     1      74.584 -51.974 198.127  1.00  0.00     0.293 HD
ENDBRANCH   2  22
BRANCH   6  24
ATOM     24  O   UNL     1      72.140 -54.482 202.473  1.00  0.00    -0.507 OA
ATOM     25  H   UNL     1      71.191 -54.558 202.809  1.00  0.00     0.293 HD
ENDBRANCH   6  24
BRANCH   8  26
ATOM     26  O   UNL     1      72.929 -59.165 201.889  1.00  0.00    -0.508 OA
ATOM     27  H   UNL     1      73.663 -59.845 202.049  1.00  0.00     0.293 HD
ENDBRANCH   8  26
TORSDOF 6
ENDMDL
MODEL 3
REMARK VINA RESULT:    -5.221      1.973      3.843
REMARK INTER + INTRA:          -6.769
REMARK INTER:                  -6.436
REMARK INTRA:                  -0.333
REMARK UNBOUND:                -0.328
REMARK SMILES COc1cc(-c2oc3cc(O)cc(O)c3c(=O)c2O)ccc1O
REMARK SMILES IDX 6 1 18 2 16 3 17 4 15 5 13 6 12 7 10 8 9 9 8 10 7 11 5 12
REMARK SMILES IDX 3 13 22 14 4 15 21 16 20 17 2 18 1 19 23 20 19 22 14 24
REMARK SMILES IDX 11 26
REMARK H PARENT 23 21 19 23 14 25 11 27
REMARK Flexibility Score: inf
ROOT
ATOM      1  C   UNL     1      74.240 -55.561 198.248  1.00  0.00     0.180 A 
ATOM      2  C   UNL     1      75.425 -55.086 197.659  1.00  0.00     0.208 A 
ATOM      3  C   UNL     1      75.380 -54.587 196.347  1.00  0.00     0.238 A 
ATOM      4  O   UNL     1      76.454 -54.214 195.806  1.00  0.00    -0.285 OA
ATOM      5  C   UNL     1      74.151 -54.554 195.648  1.00  0.00     0.111 A 
ATOM      6  C   UNL     1      73.982 -54.033 194.329  1.00  0.00     0.134 A 
ATOM      7  C   UNL     1      72.746 -54.171 193.686  1.00  0.00     0.093 A 
ATOM      8  C   UNL     1      71.656 -54.750 194.334  1.00  0.00     0.123 A 
ATOM      9  C   UNL     1      71.794 -55.209 195.644  1.00  0.00     0.094 A 
ATOM     10  C   UNL     1      73.024 -55.119 196.300  1.00  0.00     0.146 A 
ATOM     11  O   UNL     1      73.115 -55.577 197.543  1.00  0.00    -0.452 OA
ENDROOT
BRANCH   1  12
ATOM     12  C   UNL     1      74.203 -56.078 199.635  1.00  0.00     0.025 A 
ATOM     13  C   UNL     1      73.601 -55.838 201.994  1.00  0.00     0.161 A 
ATOM     14  C   UNL     1      74.104 -57.123 202.245  1.00  0.00     0.157 A 
ATOM     15  C   UNL     1      73.646 -55.323 200.683  1.00  0.00     0.062 A 
ATOM     16  C   UNL     1      74.638 -57.885 201.199  1.00  0.00     0.051 A 
ATOM     17  C   UNL     1      74.681 -57.369 199.902  1.00  0.00     0.016 A 
BRANCH  13  18
ATOM     18  O   UNL     1      73.063 -55.110 203.066  1.00  0.00    -0.493 OA
ATOM     19  C   UNL     1      73.348 -53.740 203.335  1.00  0.00     0.278 C 
ENDBRANCH  13  18
BRANCH  14  20
ATOM     20  O   UNL     1      74.064 -57.637 203.540  1.00  0.00    -0.504 OA
ATOM     21  H   UNL     1      74.874 -58.076 203.961  1.00  0.00     0.293 HD
ENDBRANCH  14  20
ENDBRANCH   1  12
BRANCH   2  22
ATOM     22  O   UNL     1      76.633 -55.149 198.360  1.00  0.00    -0.502 OA
ATOM     23  H   UNL     1      77.531 -55.188 197.894  1.00  0.00     0.293 HD
ENDBRANCH   2  22
BRANCH   6  24
ATOM     24  O   UNL     1      74.980 -53.353 193.626  1.00  0.00    -0.507 OA
ATOM     25  H   UNL     1      75.473 -52.541 193.967  1.00  0.00     0.293 HD
ENDBRANCH   6  24
BRANCH   8  26
ATOM     26  O   UNL     1      70.438 -54.857 193.668  1.00  0.00    -0.508 OA
ATOM     27  H   UNL     1      70.354 -54.650 192.680  1.00  0.00     0.293 HD
ENDBRANCH   8  26
TORSDOF 6
ENDMDL
MODEL 4
REMARK VINA RESULT:    -5.194      3.586      6.102
REMARK INTER + INTRA:          -6.737
REMARK INTER:                  -6.350
REMARK INTRA:                  -0.387
REMARK UNBOUND:                -0.328
REMARK SMILES COc1cc(-c2oc3cc(O)cc(O)c3c(=O)c2O)ccc1O
REMARK SMILES IDX 6 1 18 2 16 3 17 4 15 5 13 6 12 7 10 8 9 9 8 10 7 11 5 12
REMARK SMILES IDX 3 13 22 14 4 15 21 16 20 17 2 18 1 19 23 20 19 22 14 24
REMARK SMILES IDX 11 26
REMARK H PARENT 23 21 19 23 14 25 11 27
REMARK Flexibility Score: inf
ROOT
ATOM      1  C   UNL     1      73.563 -54.601 194.929  1.00  0.00     0.180 A 
ATOM      2  C   UNL     1      74.098 -55.132 196.116  1.00  0.00     0.208 A 
ATOM      3  C   UNL     1      75.487 -55.087 196.314  1.00  0.00     0.238 A 
ATOM      4  O   UNL     1      75.966 -55.613 197.353  1.00  0.00    -0.285 OA
ATOM      5  C   UNL     1      76.321 -54.499 195.333  1.00  0.00     0.111 A 
ATOM      6  C   UNL     1      77.738 -54.364 195.449  1.00  0.00     0.134 A 
ATOM      7  C   UNL     1      78.476 -53.884 194.360  1.00  0.00     0.093 A 
ATOM      8  C   UNL     1      77.846 -53.473 193.187  1.00  0.00     0.123 A 
ATOM      9  C   UNL     1      76.456 -53.546 193.085  1.00  0.00     0.094 A 
ATOM     10  C   UNL     1      75.695 -54.054 194.140  1.00  0.00     0.146 A 
ATOM     11  O   UNL     1      74.376 -54.116 193.999  1.00  0.00    -0.452 OA
ENDROOT
BRANCH   1  12
ATOM     12  C   UNL     1      72.106 -54.589 194.659  1.00  0.00     0.025 A 
ATOM     13  C   UNL     1      70.088 -55.635 193.754  1.00  0.00     0.161 A 
ATOM     14  C   UNL     1      69.329 -54.551 194.217  1.00  0.00     0.157 A 
ATOM     15  C   UNL     1      71.478 -55.653 193.986  1.00  0.00     0.062 A 
ATOM     16  C   UNL     1      69.949 -53.502 194.906  1.00  0.00     0.051 A 
ATOM     17  C   UNL     1      71.326 -53.524 195.132  1.00  0.00     0.016 A 
BRANCH  13  18
ATOM     18  O   UNL     1      69.429 -56.672 193.077  1.00  0.00    -0.493 OA
ATOM     19  C   UNL     1      70.014 -57.933 192.768  1.00  0.00     0.278 C 
ENDBRANCH  13  18
BRANCH  14  20
ATOM     20  O   UNL     1      67.954 -54.526 193.989  1.00  0.00    -0.504 OA
ATOM     21  H   UNL     1      67.534 -55.039 193.223  1.00  0.00     0.293 HD
ENDBRANCH  14  20
ENDBRANCH   1  12
BRANCH   2  22
ATOM     22  O   UNL     1      73.258 -55.728 197.061  1.00  0.00    -0.502 OA
ATOM     23  H   UNL     1      73.306 -55.505 198.047  1.00  0.00     0.293 HD
ENDBRANCH   2  22
BRANCH   6  24
ATOM     24  O   UNL     1      78.457 -54.658 196.610  1.00  0.00    -0.507 OA
ATOM     25  H   UNL     1      79.330 -54.225 196.872  1.00  0.00     0.293 HD
ENDBRANCH   6  24
BRANCH   8  26
ATOM     26  O   UNL     1      78.611 -52.987 192.130  1.00  0.00    -0.508 OA
ATOM     27  H   UNL     1      79.318 -53.558 191.680  1.00  0.00     0.293 HD
ENDBRANCH   8  26
TORSDOF 6
ENDMDL
MODEL 5
REMARK VINA RESULT:    -5.150      3.620      7.773
REMARK INTER + INTRA:          -6.682
REMARK INTER:                  -6.296
REMARK INTRA:                  -0.386
REMARK UNBOUND:                -0.328
REMARK SMILES COc1cc(-c2oc3cc(O)cc(O)c3c(=O)c2O)ccc1O
REMARK SMILES IDX 6 1 18 2 16 3 17 4 15 5 13 6 12 7 10 8 9 9 8 10 7 11 5 12
REMARK SMILES IDX 3 13 22 14 4 15 21 16 20 17 2 18 1 19 23 20 19 22 14 24
REMARK SMILES IDX 11 26
REMARK H PARENT 23 21 19 23 14 25 11 27
REMARK Flexibility Score: inf
ROOT
ATOM      1  C   UNL     1      72.415 -57.077 199.307  1.00  0.00     0.180 A 
ATOM      2  C   UNL     1      71.586 -57.523 198.263  1.00  0.00     0.208 A 
ATOM      3  C   UNL     1      70.778 -58.652 198.471  1.00  0.00     0.238 A 
ATOM      4  O   UNL     1      70.079 -59.078 197.515  1.00  0.00    -0.285 OA
ATOM      5  C   UNL     1      70.797 -59.311 199.723  1.00  0.00     0.111 A 
ATOM      6  C   UNL     1      69.990 -60.440 200.057  1.00  0.00     0.134 A 
ATOM      7  C   UNL     1      70.186 -61.091 201.281  1.00  0.00     0.093 A 
ATOM      8  C   UNL     1      71.112 -60.617 202.210  1.00  0.00     0.123 A 
ATOM      9  C   UNL     1      71.865 -59.479 201.917  1.00  0.00     0.094 A 
ATOM     10  C   UNL     1      71.718 -58.829 200.690  1.00  0.00     0.146 A 
ATOM     11  O   UNL     1      72.460 -57.755 200.447  1.00  0.00    -0.452 OA
ENDROOT
BRANCH   1  12
ATOM     12  C   UNL     1      73.277 -55.880 199.171  1.00  0.00     0.025 A 
ATOM     13  C   UNL     1      75.396 -54.826 198.553  1.00  0.00     0.161 A 
ATOM     14  C   UNL     1      74.858 -53.572 198.878  1.00  0.00     0.157 A 
ATOM     15  C   UNL     1      74.597 -55.978 198.694  1.00  0.00     0.062 A 
ATOM     16  C   UNL     1      73.538 -53.471 199.331  1.00  0.00     0.051 A 
ATOM     17  C   UNL     1      72.750 -54.615 199.470  1.00  0.00     0.016 A 
BRANCH  13  18
ATOM     18  O   UNL     1      76.720 -54.886 198.091  1.00  0.00    -0.493 OA
ATOM     19  C   UNL     1      77.095 -54.893 196.717  1.00  0.00     0.278 C 
ENDBRANCH  13  18
BRANCH  14  20
ATOM     20  O   UNL     1      75.645 -52.430 198.742  1.00  0.00    -0.504 OA
ATOM     21  H   UNL     1      75.353 -51.537 199.122  1.00  0.00     0.293 HD
ENDBRANCH  14  20
ENDBRANCH   1  12
BRANCH   2  22
ATOM     22  O   UNL     1      71.600 -56.870 197.027  1.00  0.00    -0.502 OA
ATOM     23  H   UNL     1      72.421 -56.844 196.435  1.00  0.00     0.293 HD
ENDBRANCH   2  22
BRANCH   6  24
ATOM     24  O   UNL     1      68.971 -60.940 199.241  1.00  0.00    -0.507 OA
ATOM     25  H   UNL     1      69.090 -61.668 198.552  1.00  0.00     0.293 HD
ENDBRANCH   6  24
BRANCH   8  26
ATOM     26  O   UNL     1      71.270 -61.281 203.424  1.00  0.00    -0.508 OA
ATOM     27  H   UNL     1      70.630 -61.133 204.195  1.00  0.00     0.293 HD
ENDBRANCH   8  26
TORSDOF 6
ENDMDL
MODEL 6
REMARK VINA RESULT:    -5.128      1.432      2.375
REMARK INTER + INTRA:          -6.655
REMARK INTER:                  -6.267
REMARK INTRA:                  -0.388
REMARK UNBOUND:                -0.328
REMARK SMILES COc1cc(-c2oc3cc(O)cc(O)c3c(=O)c2O)ccc1O
REMARK SMILES IDX 6 1 18 2 16 3 17 4 15 5 13 6 12 7 10 8 9 9 8 10 7 11 5 12
REMARK SMILES IDX 3 13 22 14 4 15 21 16 20 17 2 18 1 19 23 20 19 22 14 24
REMARK SMILES IDX 11 26
REMARK H PARENT 23 21 19 23 14 25 11 27
REMARK Flexibility Score: inf
ROOT
ATOM      1  C   UNL     1      75.944 -54.287 197.087  1.00  0.00     0.180 A 
ATOM      2  C   UNL     1      75.299 -54.227 195.839  1.00  0.00     0.208 A 
ATOM      3  C   UNL     1      76.046 -53.874 194.704  1.00  0.00     0.238 A 
ATOM      4  O   UNL     1      75.452 -53.769 193.600  1.00  0.00    -0.285 OA
ATOM      5  C   UNL     1      77.429 -53.599 194.828  1.00  0.00     0.111 A 
ATOM      6  C   UNL     1      78.291 -53.270 193.738  1.00  0.00     0.134 A 
ATOM      7  C   UNL     1      79.614 -52.891 193.994  1.00  0.00     0.093 A 
ATOM      8  C   UNL     1      80.125 -52.892 195.291  1.00  0.00     0.123 A 
ATOM      9  C   UNL     1      79.308 -53.269 196.358  1.00  0.00     0.094 A 
ATOM     10  C   UNL     1      77.974 -53.617 196.138  1.00  0.00     0.146 A 
ATOM     11  O   UNL     1      77.228 -53.960 197.182  1.00  0.00    -0.452 OA
ENDROOT
BRANCH   1  12
ATOM     12  C   UNL     1      75.230 -54.677 198.325  1.00  0.00     0.025 A 
ATOM     13  C   UNL     1      74.631 -56.337 200.018  1.00  0.00     0.161 A 
ATOM     14  C   UNL     1      73.902 -55.359 200.709  1.00  0.00     0.157 A 
ATOM     15  C   UNL     1      75.301 -55.989 198.829  1.00  0.00     0.062 A 
ATOM     16  C   UNL     1      73.849 -54.048 200.221  1.00  0.00     0.051 A 
ATOM     17  C   UNL     1      74.513 -53.707 199.041  1.00  0.00     0.016 A 
BRANCH  13  18
ATOM     18  O   UNL     1      74.671 -57.638 200.544  1.00  0.00    -0.493 OA
ATOM     19  C   UNL     1      75.818 -58.231 201.145  1.00  0.00     0.278 C 
ENDBRANCH  13  18
BRANCH  14  20
ATOM     20  O   UNL     1      73.236 -55.699 201.885  1.00  0.00    -0.504 OA
ATOM     21  H   UNL     1      72.429 -56.312 201.879  1.00  0.00     0.293 HD
ENDBRANCH  14  20
ENDBRANCH   1  12
BRANCH   2  22
ATOM     22  O   UNL     1      73.928 -54.481 195.744  1.00  0.00    -0.502 OA
ATOM     23  H   UNL     1      73.479 -54.721 194.869  1.00  0.00     0.293 HD
ENDBRANCH   2  22
BRANCH   6  24
ATOM     24  O   UNL     1      77.906 -53.327 192.395  1.00  0.00    -0.507 OA
ATOM     25  H   UNL     1      77.990 -54.143 191.806  1.00  0.00     0.293 HD
ENDBRANCH   6  24
BRANCH   8  26
ATOM     26  O   UNL     1      81.451 -52.523 195.507  1.00  0.00    -0.508 OA
ATOM     27  H   UNL     1      81.793 -51.604 195.254  1.00  0.00     0.293 HD
ENDBRANCH   8  26
TORSDOF 6
ENDMDL
MODEL 7
REMARK VINA RESULT:    -5.002      3.421      4.467
REMARK INTER + INTRA:          -6.500
REMARK INTER:                  -6.179
REMARK INTRA:                  -0.321
REMARK UNBOUND:                -0.328
REMARK SMILES COc1cc(-c2oc3cc(O)cc(O)c3c(=O)c2O)ccc1O
REMARK SMILES IDX 6 1 18 2 16 3 17 4 15 5 13 6 12 7 10 8 9 9 8 10 7 11 5 12
REMARK SMILES IDX 3 13 22 14 4 15 21 16 20 17 2 18 1 19 23 20 19 22 14 24
REMARK SMILES IDX 11 26
REMARK H PARENT 23 21 19 23 14 25 11 27
REMARK Flexibility Score: inf
ROOT
ATOM      1  C   UNL     1      72.447 -56.419 198.387  1.00  0.00     0.180 A 
ATOM      2  C   UNL     1      71.458 -57.156 197.713  1.00  0.00     0.208 A 
ATOM      3  C   UNL     1      71.168 -56.842 196.376  1.00  0.00     0.238 A 
ATOM      4  O   UNL     1      70.245 -57.468 195.794  1.00  0.00    -0.285 OA
ATOM      5  C   UNL     1      71.881 -55.806 195.726  1.00  0.00     0.111 A 
ATOM      6  C   UNL     1      71.697 -55.429 194.360  1.00  0.00     0.134 A 
ATOM      7  C   UNL     1      72.364 -54.305 193.859  1.00  0.00     0.093 A 
ATOM      8  C   UNL     1      73.257 -53.583 194.651  1.00  0.00     0.123 A 
ATOM      9  C   UNL     1      73.488 -53.979 195.969  1.00  0.00     0.094 A 
ATOM     10  C   UNL     1      72.810 -55.074 196.509  1.00  0.00     0.146 A 
ATOM     11  O   UNL     1      73.052 -55.411 197.771  1.00  0.00    -0.452 OA
ENDROOT
BRANCH   1  12
ATOM     12  C   UNL     1      72.826 -56.709 199.790  1.00  0.00     0.025 A 
ATOM     13  C   UNL     1      74.395 -57.593 201.444  1.00  0.00     0.161 A 
ATOM     14  C   UNL     1      73.529 -57.189 202.470  1.00  0.00     0.157 A 
ATOM     15  C   UNL     1      74.042 -57.343 200.103  1.00  0.00     0.062 A 
ATOM     16  C   UNL     1      72.329 -56.538 202.161  1.00  0.00     0.051 A 
ATOM     17  C   UNL     1      71.983 -56.293 200.831  1.00  0.00     0.016 A 
BRANCH  13  18
ATOM     18  O   UNL     1      75.594 -58.233 201.794  1.00  0.00    -0.493 OA
ATOM     19  C   UNL     1      76.796 -58.168 201.033  1.00  0.00     0.278 C 
ENDBRANCH  13  18
BRANCH  14  20
ATOM     20  O   UNL     1      73.873 -57.436 203.798  1.00  0.00    -0.504 OA
ATOM     21  H   UNL     1      74.785 -57.798 204.052  1.00  0.00     0.293 HD
ENDBRANCH  14  20
ENDBRANCH   1  12
BRANCH   2  22
ATOM     22  O   UNL     1      70.751 -58.160 198.381  1.00  0.00    -0.502 OA
ATOM     23  H   UNL     1      71.079 -59.117 198.428  1.00  0.00     0.293 HD
ENDBRANCH   2  22
BRANCH   6  24
ATOM     24  O   UNL     1      70.900 -56.137 193.456  1.00  0.00    -0.507 OA
ATOM     25  H   UNL     1      71.249 -56.789 192.769  1.00  0.00     0.293 HD
ENDBRANCH   6  24
BRANCH   8  26
ATOM     26  O   UNL     1      73.914 -52.479 194.115  1.00  0.00    -0.508 OA
ATOM     27  H   UNL     1      74.662 -52.584 193.439  1.00  0.00     0.293 HD
ENDBRANCH   8  26
TORSDOF 6
ENDMDL
MODEL 8
REMARK VINA RESULT:    -4.996      4.403      8.627
REMARK INTER + INTRA:          -6.493
REMARK INTER:                  -6.081
REMARK INTRA:                  -0.411
REMARK UNBOUND:                -0.328
REMARK SMILES COc1cc(-c2oc3cc(O)cc(O)c3c(=O)c2O)ccc1O
REMARK SMILES IDX 6 1 18 2 16 3 17 4 15 5 13 6 12 7 10 8 9 9 8 10 7 11 5 12
REMARK SMILES IDX 3 13 22 14 4 15 21 16 20 17 2 18 1 19 23 20 19 22 14 24
REMARK SMILES IDX 11 26
REMARK H PARENT 23 21 19 23 14 25 11 27
REMARK Flexibility Score: inf
ROOT
ATOM      1  C   UNL     1      71.846 -58.032 200.554  1.00  0.00     0.180 A 
ATOM      2  C   UNL     1      72.087 -58.894 201.638  1.00  0.00     0.208 A 
ATOM      3  C   UNL     1      71.384 -60.106 201.713  1.00  0.00     0.238 A 
ATOM      4  O   UNL     1      71.563 -60.848 202.713  1.00  0.00    -0.285 OA
ATOM      5  C   UNL     1      70.461 -60.449 200.696  1.00  0.00     0.111 A 
ATOM      6  C   UNL     1      69.722 -61.671 200.650  1.00  0.00     0.134 A 
ATOM      7  C   UNL     1      68.741 -61.847 199.667  1.00  0.00     0.093 A 
ATOM      8  C   UNL     1      68.517 -60.877 198.690  1.00  0.00     0.123 A 
ATOM      9  C   UNL     1      69.274 -59.705 198.691  1.00  0.00     0.094 A 
ATOM     10  C   UNL     1      70.235 -59.484 199.680  1.00  0.00     0.146 A 
ATOM     11  O   UNL     1      70.927 -58.351 199.651  1.00  0.00    -0.452 OA
ENDROOT
BRANCH   1  12
ATOM     12  C   UNL     1      72.568 -56.748 200.393  1.00  0.00     0.025 A 
ATOM     13  C   UNL     1      74.449 -55.443 199.532  1.00  0.00     0.161 A 
ATOM     14  C   UNL     1      73.875 -54.280 200.064  1.00  0.00     0.157 A 
ATOM     15  C   UNL     1      73.786 -56.676 199.692  1.00  0.00     0.062 A 
ATOM     16  C   UNL     1      72.652 -54.347 200.743  1.00  0.00     0.051 A 
ATOM     17  C   UNL     1      71.999 -55.571 200.900  1.00  0.00     0.016 A 
BRANCH  13  18
ATOM     18  O   UNL     1      75.670 -55.335 198.849  1.00  0.00    -0.493 OA
ATOM     19  C   UNL     1      75.800 -55.285 197.432  1.00  0.00     0.278 C 
ENDBRANCH  13  18
BRANCH  14  20
ATOM     20  O   UNL     1      74.528 -53.058 199.911  1.00  0.00    -0.504 OA
ATOM     21  H   UNL     1      75.476 -52.918 200.240  1.00  0.00     0.293 HD
ENDBRANCH  14  20
ENDBRANCH   1  12
BRANCH   2  22
ATOM     22  O   UNL     1      72.987 -58.525 202.643  1.00  0.00    -0.502 OA
ATOM     23  H   UNL     1      73.176 -59.113 203.445  1.00  0.00     0.293 HD
ENDBRANCH   2  22
BRANCH   6  24
ATOM     24  O   UNL     1      69.933 -62.743 201.521  1.00  0.00    -0.507 OA
ATOM     25  H   UNL     1      69.612 -63.686 201.362  1.00  0.00     0.293 HD
ENDBRANCH   6  24
BRANCH   8  26
ATOM     26  O   UNL     1      67.543 -61.093 197.718  1.00  0.00    -0.508 OA
ATOM     27  H   UNL     1      67.752 -61.590 196.860  1.00  0.00     0.293 HD
ENDBRANCH   8  26
TORSDOF 6
ENDMDL
MODEL 9
REMARK VINA RESULT:    -4.825      3.253      5.241
REMARK INTER + INTRA:          -6.281
REMARK INTER:                  -5.869
REMARK INTRA:                  -0.412
REMARK UNBOUND:                -0.328
REMARK SMILES COc1cc(-c2oc3cc(O)cc(O)c3c(=O)c2O)ccc1O
REMARK SMILES IDX 6 1 18 2 16 3 17 4 15 5 13 6 12 7 10 8 9 9 8 10 7 11 5 12
REMARK SMILES IDX 3 13 22 14 4 15 21 16 20 17 2 18 1 19 23 20 19 22 14 24
REMARK SMILES IDX 11 26
REMARK H PARENT 23 21 19 23 14 25 11 27
REMARK Flexibility Score: inf
ROOT
ATOM      1  C   UNL     1      74.065 -54.971 195.408  1.00  0.00     0.180 A 
ATOM      2  C   UNL     1      74.752 -55.243 196.604  1.00  0.00     0.208 A 
ATOM      3  C   UNL     1      76.125 -54.962 196.678  1.00  0.00     0.238 A 
ATOM      4  O   UNL     1      76.746 -55.258 197.732  1.00  0.00    -0.285 OA
ATOM      5  C   UNL     1      76.790 -54.397 195.564  1.00  0.00     0.111 A 
ATOM      6  C   UNL     1      78.171 -54.035 195.542  1.00  0.00     0.134 A 
ATOM      7  C   UNL     1      78.753 -53.605 194.343  1.00  0.00     0.093 A 
ATOM      8  C   UNL     1      77.993 -53.463 193.183  1.00  0.00     0.123 A 
ATOM      9  C   UNL     1      76.629 -53.758 193.208  1.00  0.00     0.094 A 
ATOM     10  C   UNL     1      76.027 -54.223 194.380  1.00  0.00     0.146 A 
ATOM     11  O   UNL     1      74.729 -54.502 194.359  1.00  0.00    -0.452 OA
ENDROOT
BRANCH   1  12
ATOM     12  C   UNL     1      72.611 -55.217 195.262  1.00  0.00     0.025 A 
ATOM     13  C   UNL     1      70.287 -54.473 195.428  1.00  0.00     0.161 A 
ATOM     14  C   UNL     1      69.864 -55.707 194.915  1.00  0.00     0.157 A 
ATOM     15  C   UNL     1      71.665 -54.229 195.592  1.00  0.00     0.062 A 
ATOM     16  C   UNL     1      70.805 -56.682 194.565  1.00  0.00     0.051 A 
ATOM     17  C   UNL     1      72.169 -56.437 194.730  1.00  0.00     0.016 A 
BRANCH  13  18
ATOM     18  O   UNL     1      69.314 -53.517 195.757  1.00  0.00    -0.493 OA
ATOM     19  C   UNL     1      68.970 -52.402 194.940  1.00  0.00     0.278 C 
ENDBRANCH  13  18
BRANCH  14  20
ATOM     20  O   UNL     1      68.502 -55.955 194.753  1.00  0.00    -0.504 OA
ATOM     21  H   UNL     1      67.812 -55.223 194.873  1.00  0.00     0.293 HD
ENDBRANCH  14  20
ENDBRANCH   1  12
BRANCH   2  22
ATOM     22  O   UNL     1      74.080 -55.821 197.685  1.00  0.00    -0.502 OA
ATOM     23  H   UNL     1      73.094 -56.051 197.652  1.00  0.00     0.293 HD
ENDBRANCH   2  22
BRANCH   6  24
ATOM     24  O   UNL     1      79.000 -54.051 196.668  1.00  0.00    -0.507 OA
ATOM     25  H   UNL     1      80.005 -54.139 196.641  1.00  0.00     0.293 HD
ENDBRANCH   6  24
BRANCH   8  26
ATOM     26  O   UNL     1      78.602 -53.019 192.012  1.00  0.00    -0.508 OA
ATOM     27  H   UNL     1      78.567 -53.562 191.158  1.00  0.00     0.293 HD
ENDBRANCH   8  26
TORSDOF 6
ENDMDL
