MODEL 1
REMARK VINA RESULT:    -2.618      0.000      0.000
REMARK INTER + INTRA:          -3.396
REMARK INTER:                  -3.078
REMARK INTRA:                  -0.318
REMARK UNBOUND:                -0.318
REMARK SMILES O=c1cc(-c2ccc(O)c(O)c2)oc2cc(O)cc(O)c12
REMARK SMILES IDX 4 1 3 2 2 3 1 4 21 5 19 6 18 7 16 8 15 9 14 10 13 11 5 12
REMARK SMILES IDX 6 13 7 14 8 15 12 16 10 17 9 18 11 20 20 22 17 24
REMARK H PARENT 9 19 11 21 20 23 17 25
REMARK Flexibility Score: inf
ROOT
ATOM      1  C   UNL     1     -19.080  10.112  26.676  1.00  0.00     0.138 A 
ATOM      2  C   UNL     1     -17.686  10.108  26.845  1.00  0.00     0.100 A 
ATOM      3  C   UNL     1     -16.857  10.102  25.723  1.00  0.00     0.197 A 
ATOM      4  O   UNL     1     -15.607  10.099  25.886  1.00  0.00    -0.289 OA
ATOM      5  C   UNL     1     -17.430  10.102  24.435  1.00  0.00     0.107 A 
ATOM      6  C   UNL     1     -16.664  10.094  23.246  1.00  0.00     0.134 A 
ATOM      7  C   UNL     1     -17.311  10.101  22.002  1.00  0.00     0.093 A 
ATOM      8  C   UNL     1     -18.708  10.116  21.926  1.00  0.00     0.123 A 
ATOM      9  C   UNL     1     -19.469  10.124  23.097  1.00  0.00     0.094 A 
ATOM     10  C   UNL     1     -18.843  10.116  24.346  1.00  0.00     0.146 A 
ATOM     11  O   UNL     1     -19.590  10.122  25.445  1.00  0.00    -0.456 OA
ENDROOT
BRANCH   1  12
ATOM     12  C   UNL     1     -20.010  10.120  27.833  1.00  0.00     0.021 A 
ATOM     13  C   UNL     1     -19.540  10.124  29.160  1.00  0.00     0.016 A 
ATOM     14  C   UNL     1     -20.439  10.123  30.230  1.00  0.00     0.051 A 
ATOM     15  C   UNL     1     -21.819  10.109  29.995  1.00  0.00     0.157 A 
ATOM     16  C   UNL     1     -21.398  10.093  27.606  1.00  0.00     0.062 A 
ATOM     17  C   UNL     1     -22.300  10.093  28.676  1.00  0.00     0.158 A 
BRANCH  15  18
ATOM     18  O   UNL     1     -22.712  10.108  31.065  1.00  0.00    -0.504 OA
ATOM     19  H   UNL     1     -22.417   9.865  32.003  1.00  0.00     0.293 HD
ENDBRANCH  15  18
BRANCH  17  20
ATOM     20  O   UNL     1     -23.668  10.074  28.408  1.00  0.00    -0.504 OA
ATOM     21  H   UNL     1     -24.229  10.918  28.410  1.00  0.00     0.293 HD
ENDBRANCH  17  20
ENDBRANCH   1  12
BRANCH   6  22
ATOM     22  O   UNL     1     -15.269  10.079  23.291  1.00  0.00    -0.507 OA
ATOM     23  H   UNL     1     -14.762  10.217  24.157  1.00  0.00     0.293 HD
ENDBRANCH   6  22
BRANCH   8  24
ATOM     24  O   UNL     1     -19.352  10.123  20.690  1.00  0.00    -0.508 OA
ATOM     25  H   UNL     1     -19.148   9.426  19.983  1.00  0.00     0.293 HD
ENDBRANCH   8  24
TORSDOF 5
ENDMDL
MODEL 2
REMARK VINA RESULT:    -0.378      1.196      2.724
REMARK INTER + INTRA:          -0.763
REMARK INTER:                  -0.468
REMARK INTRA:                  -0.295
REMARK UNBOUND:                -0.318
REMARK SMILES O=c1cc(-c2ccc(O)c(O)c2)oc2cc(O)cc(O)c12
REMARK SMILES IDX 4 1 3 2 2 3 1 4 21 5 19 6 18 7 16 8 15 9 14 10 13 11 5 12
REMARK SMILES IDX 6 13 7 14 8 15 12 16 10 17 9 18 11 20 20 22 17 24
REMARK H PARENT 9 19 11 21 20 23 17 25
REMARK Flexibility Score: inf
ROOT
ATOM      1  C   UNL     1     -19.523  10.122  26.541  1.00  0.00     0.138 A 
ATOM      2  C   UNL     1     -20.075  10.113  25.249  1.00  0.00     0.100 A 
ATOM      3  C   UNL     1     -19.227  10.114  24.141  1.00  0.00     0.197 A 
ATOM      4  O   UNL     1     -19.732  10.105  22.985  1.00  0.00    -0.289 OA
ATOM      5  C   UNL     1     -17.831  10.120  24.332  1.00  0.00     0.107 A 
ATOM      6  C   UNL     1     -16.903  10.123  23.265  1.00  0.00     0.134 A 
ATOM      7  C   UNL     1     -15.528  10.123  23.540  1.00  0.00     0.093 A 
ATOM      8  C   UNL     1     -15.065  10.121  24.860  1.00  0.00     0.123 A 
ATOM      9  C   UNL     1     -15.978  10.118  25.917  1.00  0.00     0.094 A 
ATOM     10  C   UNL     1     -17.352  10.119  25.664  1.00  0.00     0.146 A 
ATOM     11  O   UNL     1     -18.200  10.118  26.688  1.00  0.00    -0.456 OA
ENDROOT
BRANCH   1  12
ATOM     12  C   UNL     1     -20.376  10.120  27.757  1.00  0.00     0.021 A 
ATOM     13  C   UNL     1     -19.819  10.100  29.050  1.00  0.00     0.016 A 
ATOM     14  C   UNL     1     -20.645  10.090  30.176  1.00  0.00     0.051 A 
ATOM     15  C   UNL     1     -22.038  10.090  30.033  1.00  0.00     0.157 A 
ATOM     16  C   UNL     1     -21.775  10.107  27.622  1.00  0.00     0.062 A 
ATOM     17  C   UNL     1     -22.605  10.098  28.749  1.00  0.00     0.158 A 
BRANCH  15  18
ATOM     18  O   UNL     1     -22.859  10.081  31.159  1.00  0.00    -0.504 OA
ATOM     19  H   UNL     1     -23.862   9.958  31.084  1.00  0.00     0.293 HD
ENDBRANCH  15  18
BRANCH  17  20
ATOM     20  O   UNL     1     -23.988  10.094  28.571  1.00  0.00    -0.504 OA
ATOM     21  H   UNL     1     -24.632  10.090  29.353  1.00  0.00     0.293 HD
ENDBRANCH  17  20
ENDBRANCH   1  12
BRANCH   6  22
ATOM     22  O   UNL     1     -17.335  10.125  21.937  1.00  0.00    -0.507 OA
ATOM     23  H   UNL     1     -18.155   9.608  21.643  1.00  0.00     0.293 HD
ENDBRANCH   6  22
BRANCH   8  24
ATOM     24  O   UNL     1     -13.699  10.122  25.135  1.00  0.00    -0.508 OA
ATOM     25  H   UNL     1     -13.330   9.707  25.983  1.00  0.00     0.293 HD
ENDBRANCH   8  24
TORSDOF 5
ENDMDL
MODEL 3
REMARK VINA RESULT:    -0.223      1.379      6.989
REMARK INTER + INTRA:          -0.581
REMARK INTER:                  -0.286
REMARK INTRA:                  -0.295
REMARK UNBOUND:                -0.318
REMARK SMILES O=c1cc(-c2ccc(O)c(O)c2)oc2cc(O)cc(O)c12
REMARK SMILES IDX 4 1 3 2 2 3 1 4 21 5 19 6 18 7 16 8 15 9 14 10 13 11 5 12
REMARK SMILES IDX 6 13 7 14 8 15 12 16 10 17 9 18 11 20 20 22 17 24
REMARK H PARENT 9 19 11 21 20 23 17 25
REMARK Flexibility Score: inf
ROOT
ATOM      1  C   UNL     1     -19.160  10.068  27.011  1.00  0.00     0.138 A 
ATOM      2  C   UNL     1     -18.628  10.073  28.311  1.00  0.00     0.100 A 
ATOM      3  C   UNL     1     -19.493  10.087  29.406  1.00  0.00     0.197 A 
ATOM      4  O   UNL     1     -19.006  10.091  30.569  1.00  0.00    -0.289 OA
ATOM      5  C   UNL     1     -20.886  10.091  29.193  1.00  0.00     0.107 A 
ATOM      6  C   UNL     1     -21.831  10.105  30.246  1.00  0.00     0.134 A 
ATOM      7  C   UNL     1     -23.201  10.102  29.950  1.00  0.00     0.093 A 
ATOM      8  C   UNL     1     -23.643  10.085  28.622  1.00  0.00     0.123 A 
ATOM      9  C   UNL     1     -22.715  10.070  27.579  1.00  0.00     0.094 A 
ATOM     10  C   UNL     1     -21.345  10.074  27.854  1.00  0.00     0.146 A 
ATOM     11  O   UNL     1     -20.481  10.062  26.843  1.00  0.00    -0.456 OA
ENDROOT
BRANCH   1  12
ATOM     12  C   UNL     1     -18.289  10.052  25.808  1.00  0.00     0.021 A 
ATOM     13  C   UNL     1     -18.823  10.120  24.507  1.00  0.00     0.016 A 
ATOM     14  C   UNL     1     -17.980  10.095  23.393  1.00  0.00     0.051 A 
ATOM     15  C   UNL     1     -16.593   9.993  23.557  1.00  0.00     0.157 A 
ATOM     16  C   UNL     1     -16.896   9.937  25.963  1.00  0.00     0.062 A 
ATOM     17  C   UNL     1     -16.050   9.912  24.849  1.00  0.00     0.158 A 
BRANCH  15  18
ATOM     18  O   UNL     1     -15.756   9.968  22.443  1.00  0.00    -0.504 OA
ATOM     19  H   UNL     1     -14.748  10.008  22.536  1.00  0.00     0.293 HD
ENDBRANCH  15  18
BRANCH  17  20
ATOM     20  O   UNL     1     -14.674   9.805  25.046  1.00  0.00    -0.504 OA
ATOM     21  H   UNL     1     -14.231   8.925  25.284  1.00  0.00     0.293 HD
ENDBRANCH  17  20
ENDBRANCH   1  12
BRANCH   6  22
ATOM     22  O   UNL     1     -21.419  10.122  31.579  1.00  0.00    -0.507 OA
ATOM     23  H   UNL     1     -20.529   9.735  31.868  1.00  0.00     0.293 HD
ENDBRANCH   6  22
BRANCH   8  24
ATOM     24  O   UNL     1     -25.005  10.082  28.327  1.00  0.00    -0.508 OA
ATOM     25  H   UNL     1     -25.551   9.228  28.356  1.00  0.00     0.293 HD
ENDBRANCH   8  24
TORSDOF 5
ENDMDL
MODEL 4
REMARK VINA RESULT:    -0.071      1.439      6.831
REMARK INTER + INTRA:          -0.402
REMARK INTER:                  -0.086
REMARK INTRA:                  -0.316
REMARK UNBOUND:                -0.318
REMARK SMILES O=c1cc(-c2ccc(O)c(O)c2)oc2cc(O)cc(O)c12
REMARK SMILES IDX 4 1 3 2 2 3 1 4 21 5 19 6 18 7 16 8 15 9 14 10 13 11 5 12
REMARK SMILES IDX 6 13 7 14 8 15 12 16 10 17 9 18 11 20 20 22 17 24
REMARK H PARENT 9 19 11 21 20 23 17 25
REMARK Flexibility Score: inf
ROOT
ATOM      1  C   UNL     1     -18.964   9.771  27.381  1.00  0.00     0.138 A 
ATOM      2  C   UNL     1     -18.556   9.804  28.724  1.00  0.00     0.100 A 
ATOM      3  C   UNL     1     -19.516   9.905  29.731  1.00  0.00     0.197 A 
ATOM      4  O   UNL     1     -19.140   9.933  30.934  1.00  0.00    -0.289 OA
ATOM      5  C   UNL     1     -20.881   9.968  29.387  1.00  0.00     0.107 A 
ATOM      6  C   UNL     1     -21.918  10.072  30.344  1.00  0.00     0.134 A 
ATOM      7  C   UNL     1     -23.253  10.124  29.920  1.00  0.00     0.093 A 
ATOM      8  C   UNL     1     -23.571  10.073  28.558  1.00  0.00     0.123 A 
ATOM      9  C   UNL     1     -22.551   9.970  27.609  1.00  0.00     0.094 A 
ATOM     10  C   UNL     1     -21.214   9.919  28.012  1.00  0.00     0.146 A 
ATOM     11  O   UNL     1     -20.262   9.822  27.089  1.00  0.00    -0.456 OA
ENDROOT
BRANCH   1  12
ATOM     12  C   UNL     1     -17.987   9.663  26.267  1.00  0.00     0.021 A 
ATOM     13  C   UNL     1     -16.635   9.341  26.497  1.00  0.00     0.016 A 
ATOM     14  C   UNL     1     -15.736   9.256  25.432  1.00  0.00     0.051 A 
ATOM     15  C   UNL     1     -16.166   9.498  24.121  1.00  0.00     0.157 A 
ATOM     16  C   UNL     1     -18.407   9.918  24.950  1.00  0.00     0.062 A 
ATOM     17  C   UNL     1     -17.509   9.832  23.881  1.00  0.00     0.158 A 
BRANCH  15  18
ATOM     18  O   UNL     1     -15.266   9.411  23.060  1.00  0.00    -0.504 OA
ATOM     19  H   UNL     1     -14.850   8.529  22.788  1.00  0.00     0.293 HD
ENDBRANCH  15  18
BRANCH  17  20
ATOM     20  O   UNL     1     -17.969  10.083  22.588  1.00  0.00    -0.504 OA
ATOM     21  H   UNL     1     -17.752   9.471  21.811  1.00  0.00     0.293 HD
ENDBRANCH  17  20
ENDBRANCH   1  12
BRANCH   6  22
ATOM     22  O   UNL     1     -21.632  10.125  31.709  1.00  0.00    -0.507 OA
ATOM     23  H   UNL     1     -22.110  10.766  32.330  1.00  0.00     0.293 HD
ENDBRANCH   6  22
BRANCH   8  24
ATOM     24  O   UNL     1     -24.897  10.125  28.134  1.00  0.00    -0.508 OA
ATOM     25  H   UNL     1     -25.560  10.770  28.550  1.00  0.00     0.293 HD
ENDBRANCH   8  24
TORSDOF 5
ENDMDL
