MODEL 1
REMARK VINA RESULT:    -4.914      0.000      0.000
REMARK INTER + INTRA:          -5.975
REMARK INTER:                  -5.920
REMARK INTRA:                  -0.056
REMARK UNBOUND:                -0.056
REMARK SMILES COC(=O)c1cc(O)c(O)c(O)c1
REMARK SMILES IDX 5 1 13 2 11 3 9 4 7 5 6 6 3 7 4 8 2 9 1 10 12 11 8 13 10 15
REMARK H PARENT 12 12 8 14 10 16
REMARK Flexibility Score: inf
ROOT
ATOM      1  C   UNL     1     113.411   9.432 -24.686  1.00  0.00     0.067 A 
ATOM      2  C   UNL     1     113.339   8.993 -26.016  1.00  0.00     0.066 A 
ATOM      3  C   UNL     1     112.382   8.052 -26.408  1.00  0.00     0.162 A 
ATOM      4  C   UNL     1     111.475   7.530 -25.466  1.00  0.00     0.200 A 
ATOM      5  C   UNL     1     111.543   7.968 -24.122  1.00  0.00     0.162 A 
ATOM      6  C   UNL     1     112.506   8.910 -23.747  1.00  0.00     0.066 A 
ENDROOT
BRANCH   1   7
ATOM      7  C   UNL     1     114.425  10.428 -24.273  1.00  0.00     0.338 C 
ATOM      8  O   UNL     1     114.640  10.641 -23.048  1.00  0.00    -0.246 OA
BRANCH   7   9
ATOM      9  O   UNL     1     115.144  11.135 -25.243  1.00  0.00    -0.465 OA
ATOM     10  C   UNL     1     116.426  10.723 -25.701  1.00  0.00     0.282 C 
ENDBRANCH   7   9
ENDBRANCH   1   7
BRANCH   3  11
ATOM     11  O   UNL     1     112.348   7.646 -27.742  1.00  0.00    -0.504 OA
ATOM     12  H   UNL     1     112.375   6.670 -28.011  1.00  0.00     0.293 HD
ENDBRANCH   3  11
BRANCH   5  13
ATOM     13  O   UNL     1     110.678   7.496 -23.131  1.00  0.00    -0.504 OA
ATOM     14  H   UNL     1     110.467   7.993 -22.278  1.00  0.00     0.293 HD
ENDBRANCH   5  13
BRANCH   4  15
ATOM     15  O   UNL     1     110.535   6.591 -25.900  1.00  0.00    -0.502 OA
ATOM     16  H   UNL     1     109.944   6.713 -26.708  1.00  0.00     0.293 HD
ENDBRANCH   4  15
TORSDOF 5
ENDMDL
MODEL 2
REMARK VINA RESULT:    -4.910      0.056      2.349
REMARK INTER + INTRA:          -5.970
REMARK INTER:                  -5.906
REMARK INTRA:                  -0.064
REMARK UNBOUND:                -0.056
REMARK SMILES COC(=O)c1cc(O)c(O)c(O)c1
REMARK SMILES IDX 5 1 13 2 11 3 9 4 7 5 6 6 3 7 4 8 2 9 1 10 12 11 8 13 10 15
REMARK H PARENT 12 12 8 14 10 16
REMARK Flexibility Score: inf
ROOT
ATOM      1  C   UNL     1     113.411   9.407 -24.642  1.00  0.00     0.067 A 
ATOM      2  C   UNL     1     112.507   8.875 -23.711  1.00  0.00     0.066 A 
ATOM      3  C   UNL     1     111.549   7.935 -24.101  1.00  0.00     0.162 A 
ATOM      4  C   UNL     1     111.478   7.510 -25.440  1.00  0.00     0.200 A 
ATOM      5  C   UNL     1     112.387   8.042 -26.386  1.00  0.00     0.162 A 
ATOM      6  C   UNL     1     113.340   8.982 -25.979  1.00  0.00     0.066 A 
ENDROOT
BRANCH   1   7
ATOM      7  C   UNL     1     114.426  10.402 -24.228  1.00  0.00     0.338 C 
ATOM      8  O   UNL     1     114.646  10.610 -23.003  1.00  0.00    -0.246 OA
BRANCH   7   9
ATOM      9  O   UNL     1     115.143  11.112 -25.198  1.00  0.00    -0.465 OA
ATOM     10  C   UNL     1     116.437  10.720 -25.638  1.00  0.00     0.282 C 
ENDBRANCH   7   9
ENDBRANCH   1   7
BRANCH   3  11
ATOM     11  O   UNL     1     110.671   7.435 -23.138  1.00  0.00    -0.504 OA
ATOM     12  H   UNL     1     110.367   6.468 -23.134  1.00  0.00     0.293 HD
ENDBRANCH   3  11
BRANCH   5  13
ATOM     13  O   UNL     1     112.378   7.669 -27.733  1.00  0.00    -0.504 OA
ATOM     14  H   UNL     1     111.933   6.837 -28.088  1.00  0.00     0.293 HD
ENDBRANCH   5  13
BRANCH   4  15
ATOM     15  O   UNL     1     110.504   6.569 -25.788  1.00  0.00    -0.502 OA
ATOM     16  H   UNL     1     110.665   5.791 -26.410  1.00  0.00     0.293 HD
ENDBRANCH   4  15
TORSDOF 5
ENDMDL
MODEL 3
REMARK VINA RESULT:    -4.598     15.058     17.181
REMARK INTER + INTRA:          -5.594
REMARK INTER:                  -5.477
REMARK INTRA:                  -0.117
REMARK UNBOUND:                -0.056
REMARK SMILES COC(=O)c1cc(O)c(O)c(O)c1
REMARK SMILES IDX 5 1 13 2 11 3 9 4 7 5 6 6 3 7 4 8 2 9 1 10 12 11 8 13 10 15
REMARK H PARENT 12 12 8 14 10 16
REMARK Flexibility Score: inf
ROOT
ATOM      1  C   UNL     1     110.130   6.847 -41.556  1.00  0.00     0.067 A 
ATOM      2  C   UNL     1     109.751   7.535 -40.394  1.00  0.00     0.066 A 
ATOM      3  C   UNL     1     110.371   8.738 -40.042  1.00  0.00     0.162 A 
ATOM      4  C   UNL     1     111.389   9.275 -40.852  1.00  0.00     0.200 A 
ATOM      5  C   UNL     1     111.777   8.585 -42.026  1.00  0.00     0.162 A 
ATOM      6  C   UNL     1     111.146   7.383 -42.364  1.00  0.00     0.066 A 
ENDROOT
BRANCH   1   7
ATOM      7  C   UNL     1     109.473   5.574 -41.929  1.00  0.00     0.338 C 
ATOM      8  O   UNL     1     109.502   5.173 -43.125  1.00  0.00    -0.246 OA
BRANCH   7   9
ATOM      9  O   UNL     1     108.819   4.814 -40.952  1.00  0.00    -0.465 OA
ATOM     10  C   UNL     1     109.470   3.787 -40.214  1.00  0.00     0.282 C 
ENDBRANCH   7   9
ENDBRANCH   1   7
BRANCH   3  11
ATOM     11  O   UNL     1     109.960   9.387 -38.877  1.00  0.00    -0.504 OA
ATOM     12  H   UNL     1     109.117   9.124 -38.380  1.00  0.00     0.293 HD
ENDBRANCH   3  11
BRANCH   5  13
ATOM     13  O   UNL     1     112.778   9.054 -42.880  1.00  0.00    -0.504 OA
ATOM     14  H   UNL     1     112.980   8.661 -43.787  1.00  0.00     0.293 HD
ENDBRANCH   5  13
BRANCH   4  15
ATOM     15  O   UNL     1     111.982  10.479 -40.463  1.00  0.00    -0.502 OA
ATOM     16  H   UNL     1     112.829  10.850 -40.866  1.00  0.00     0.293 HD
ENDBRANCH   4  15
TORSDOF 5
ENDMDL
MODEL 4
REMARK VINA RESULT:    -4.519     14.993     16.981
REMARK INTER + INTRA:          -5.500
REMARK INTER:                  -5.381
REMARK INTRA:                  -0.119
REMARK UNBOUND:                -0.056
REMARK SMILES COC(=O)c1cc(O)c(O)c(O)c1
REMARK SMILES IDX 5 1 13 2 11 3 9 4 7 5 6 6 3 7 4 8 2 9 1 10 12 11 8 13 10 15
REMARK H PARENT 12 12 8 14 10 16
REMARK Flexibility Score: inf
ROOT
ATOM      1  C   UNL     1     110.107   6.841 -41.518  1.00  0.00     0.067 A 
ATOM      2  C   UNL     1     111.145   7.377 -42.294  1.00  0.00     0.066 A 
ATOM      3  C   UNL     1     111.777   8.566 -41.920  1.00  0.00     0.162 A 
ATOM      4  C   UNL     1     111.377   9.245 -40.754  1.00  0.00     0.200 A 
ATOM      5  C   UNL     1     110.329   8.711 -39.966  1.00  0.00     0.162 A 
ATOM      6  C   UNL     1     109.708   7.519 -40.355  1.00  0.00     0.066 A 
ENDROOT
BRANCH   1   7
ATOM      7  C   UNL     1     109.439   5.582 -41.914  1.00  0.00     0.338 C 
ATOM      8  O   UNL     1     109.426   5.225 -43.125  1.00  0.00    -0.246 OA
BRANCH   7   9
ATOM      9  O   UNL     1     108.819   4.785 -40.944  1.00  0.00    -0.465 OA
ATOM     10  C   UNL     1     109.499   3.738 -40.262  1.00  0.00     0.282 C 
ENDBRANCH   7   9
ENDBRANCH   1   7
BRANCH   3  11
ATOM     11  O   UNL     1     112.806   9.060 -42.723  1.00  0.00    -0.504 OA
ATOM     12  H   UNL     1     113.355   9.870 -42.462  1.00  0.00     0.293 HD
ENDBRANCH   3  11
BRANCH   5  13
ATOM     13  O   UNL     1     109.875   9.327 -38.797  1.00  0.00    -0.504 OA
ATOM     14  H   UNL     1     109.839  10.326 -38.660  1.00  0.00     0.293 HD
ENDBRANCH   5  13
BRANCH   4  15
ATOM     15  O   UNL     1     112.035  10.431 -40.417  1.00  0.00    -0.502 OA
ATOM     16  H   UNL     1     112.406  10.632 -39.501  1.00  0.00     0.293 HD
ENDBRANCH   4  15
TORSDOF 5
ENDMDL
MODEL 5
REMARK VINA RESULT:    -4.253      2.120      3.599
REMARK INTER + INTRA:          -5.179
REMARK INTER:                  -5.048
REMARK INTRA:                  -0.130
REMARK UNBOUND:                -0.056
REMARK SMILES COC(=O)c1cc(O)c(O)c(O)c1
REMARK SMILES IDX 5 1 13 2 11 3 9 4 7 5 6 6 3 7 4 8 2 9 1 10 12 11 8 13 10 15
REMARK H PARENT 12 12 8 14 10 16
REMARK Flexibility Score: inf
ROOT
ATOM      1  C   UNL     1     112.245   9.810 -26.525  1.00  0.00     0.067 A 
ATOM      2  C   UNL     1     112.715  10.053 -25.226  1.00  0.00     0.066 A 
ATOM      3  C   UNL     1     112.272   9.279 -24.149  1.00  0.00     0.162 A 
ATOM      4  C   UNL     1     111.344   8.241 -24.357  1.00  0.00     0.200 A 
ATOM      5  C   UNL     1     110.866   7.990 -25.666  1.00  0.00     0.162 A 
ATOM      6  C   UNL     1     111.320   8.774 -26.732  1.00  0.00     0.066 A 
ENDROOT
BRANCH   1   7
ATOM      7  C   UNL     1     112.715  10.630 -27.664  1.00  0.00     0.338 C 
ATOM      8  O   UNL     1     113.343  10.090 -28.617  1.00  0.00    -0.246 OA
BRANCH   7   9
ATOM      9  O   UNL     1     112.462  12.007 -27.684  1.00  0.00    -0.465 OA
ATOM     10  C   UNL     1     111.165  12.552 -27.473  1.00  0.00     0.282 C 
ENDBRANCH   7   9
ENDBRANCH   1   7
BRANCH   3  11
ATOM     11  O   UNL     1     112.767   9.558 -22.875  1.00  0.00    -0.504 OA
ATOM     12  H   UNL     1     113.375   8.917 -22.379  1.00  0.00     0.293 HD
ENDBRANCH   3  11
BRANCH   5  13
ATOM     13  O   UNL     1     109.945   6.979 -25.951  1.00  0.00    -0.504 OA
ATOM     14  H   UNL     1     108.945   7.109 -25.960  1.00  0.00     0.293 HD
ENDBRANCH   5  13
BRANCH   4  15
ATOM     15  O   UNL     1     110.928   7.491 -23.253  1.00  0.00    -0.502 OA
ATOM     16  H   UNL     1     111.504   7.303 -22.447  1.00  0.00     0.293 HD
ENDBRANCH   4  15
TORSDOF 5
ENDMDL
MODEL 6
REMARK VINA RESULT:    -4.239      1.172      1.597
REMARK INTER + INTRA:          -5.162
REMARK INTER:                  -5.227
REMARK INTRA:                   0.065
REMARK UNBOUND:                -0.056
REMARK SMILES COC(=O)c1cc(O)c(O)c(O)c1
REMARK SMILES IDX 5 1 13 2 11 3 9 4 7 5 6 6 3 7 4 8 2 9 1 10 12 11 8 13 10 15
REMARK H PARENT 12 12 8 14 10 16
REMARK Flexibility Score: inf
ROOT
ATOM      1  C   UNL     1     112.978   8.891 -25.514  1.00  0.00     0.067 A 
ATOM      2  C   UNL     1     112.534   8.379 -26.742  1.00  0.00     0.066 A 
ATOM      3  C   UNL     1     111.410   7.551 -26.807  1.00  0.00     0.162 A 
ATOM      4  C   UNL     1     110.707   7.218 -25.634  1.00  0.00     0.200 A 
ATOM      5  C   UNL     1     111.149   7.730 -24.391  1.00  0.00     0.162 A 
ATOM      6  C   UNL     1     112.276   8.558 -24.344  1.00  0.00     0.066 A 
ENDROOT
BRANCH   1   7
ATOM      7  C   UNL     1     114.169   9.768 -25.447  1.00  0.00     0.338 C 
ATOM      8  O   UNL     1     115.154   9.557 -26.206  1.00  0.00    -0.246 OA
BRANCH   7   9
ATOM      9  O   UNL     1     114.200  10.833 -24.539  1.00  0.00    -0.465 OA
ATOM     10  C   UNL     1     114.624  10.680 -23.190  1.00  0.00     0.282 C 
ENDBRANCH   7   9
ENDBRANCH   1   7
BRANCH   3  11
ATOM     11  O   UNL     1     111.005   7.066 -28.051  1.00  0.00    -0.504 OA
ATOM     12  H   UNL     1     110.038   7.088 -28.352  1.00  0.00     0.293 HD
ENDBRANCH   3  11
BRANCH   5  13
ATOM     13  O   UNL     1     110.505   7.445 -23.185  1.00  0.00    -0.504 OA
ATOM     14  H   UNL     1     110.756   7.853 -22.297  1.00  0.00     0.293 HD
ENDBRANCH   5  13
BRANCH   4  15
ATOM     15  O   UNL     1     109.588   6.387 -25.743  1.00  0.00    -0.502 OA
ATOM     16  H   UNL     1     108.904   6.452 -26.482  1.00  0.00     0.293 HD
ENDBRANCH   4  15
TORSDOF 5
ENDMDL
MODEL 7
REMARK VINA RESULT:    -4.200      2.070      3.245
REMARK INTER + INTRA:          -5.116
REMARK INTER:                  -4.993
REMARK INTRA:                  -0.123
REMARK UNBOUND:                -0.056
REMARK SMILES COC(=O)c1cc(O)c(O)c(O)c1
REMARK SMILES IDX 5 1 13 2 11 3 9 4 7 5 6 6 3 7 4 8 2 9 1 10 12 11 8 13 10 15
REMARK H PARENT 12 12 8 14 10 16
REMARK Flexibility Score: inf
ROOT
ATOM      1  C   UNL     1     112.312   9.867 -26.494  1.00  0.00     0.067 A 
ATOM      2  C   UNL     1     111.357   8.857 -26.682  1.00  0.00     0.066 A 
ATOM      3  C   UNL     1     110.928   8.071 -25.608  1.00  0.00     0.162 A 
ATOM      4  C   UNL     1     111.452   8.284 -24.320  1.00  0.00     0.200 A 
ATOM      5  C   UNL     1     112.417   9.301 -24.123  1.00  0.00     0.162 A 
ATOM      6  C   UNL     1     112.835  10.079 -25.208  1.00  0.00     0.066 A 
ENDROOT
BRANCH   1   7
ATOM      7  C   UNL     1     112.766  10.699 -27.631  1.00  0.00     0.338 C 
ATOM      8  O   UNL     1     113.002  10.167 -28.751  1.00  0.00    -0.246 OA
BRANCH   7   9
ATOM      9  O   UNL     1     112.932  12.079 -27.463  1.00  0.00    -0.465 OA
ATOM     10  C   UNL     1     111.865  13.006 -27.617  1.00  0.00     0.282 C 
ENDBRANCH   7   9
ENDBRANCH   1   7
BRANCH   3  11
ATOM     11  O   UNL     1     109.975   7.079 -25.843  1.00  0.00    -0.504 OA
ATOM     12  H   UNL     1     110.228   6.106 -25.972  1.00  0.00     0.293 HD
ENDBRANCH   3  11
BRANCH   5  13
ATOM     13  O   UNL     1     112.983   9.572 -22.875  1.00  0.00    -0.504 OA
ATOM     14  H   UNL     1     112.904   8.966 -22.072  1.00  0.00     0.293 HD
ENDBRANCH   5  13
BRANCH   4  15
ATOM     15  O   UNL     1     110.996   7.476 -23.275  1.00  0.00    -0.502 OA
ATOM     16  H   UNL     1     111.594   7.061 -22.576  1.00  0.00     0.293 HD
ENDBRANCH   4  15
TORSDOF 5
ENDMDL
MODEL 8
REMARK VINA RESULT:    -3.846      1.825      3.258
REMARK INTER + INTRA:          -4.689
REMARK INTER:                  -4.593
REMARK INTRA:                  -0.096
REMARK UNBOUND:                -0.056
REMARK SMILES COC(=O)c1cc(O)c(O)c(O)c1
REMARK SMILES IDX 5 1 13 2 11 3 9 4 7 5 6 6 3 7 4 8 2 9 1 10 12 11 8 13 10 15
REMARK H PARENT 12 12 8 14 10 16
REMARK Flexibility Score: inf
ROOT
ATOM      1  C   UNL     1     112.734   8.664 -26.553  1.00  0.00     0.067 A 
ATOM      2  C   UNL     1     113.086   9.033 -25.246  1.00  0.00     0.066 A 
ATOM      3  C   UNL     1     112.302   8.641 -24.156  1.00  0.00     0.162 A 
ATOM      4  C   UNL     1     111.144   7.868 -24.359  1.00  0.00     0.200 A 
ATOM      5  C   UNL     1     110.782   7.492 -25.675  1.00  0.00     0.162 A 
ATOM      6  C   UNL     1     111.579   7.893 -26.754  1.00  0.00     0.066 A 
ENDROOT
BRANCH   1   7
ATOM      7  C   UNL     1     113.565   9.079 -27.705  1.00  0.00     0.338 C 
ATOM      8  O   UNL     1     113.235  10.083 -28.395  1.00  0.00    -0.246 OA
BRANCH   7   9
ATOM      9  O   UNL     1     114.720   8.356 -28.029  1.00  0.00    -0.465 OA
ATOM     10  C   UNL     1     115.992   8.647 -27.464  1.00  0.00     0.282 C 
ENDBRANCH   7   9
ENDBRANCH   1   7
BRANCH   3  11
ATOM     11  O   UNL     1     112.693   9.031 -22.875  1.00  0.00    -0.504 OA
ATOM     12  H   UNL     1     112.059   9.007 -22.086  1.00  0.00     0.293 HD
ENDBRANCH   3  11
BRANCH   5  13
ATOM     13  O   UNL     1     109.648   6.727 -25.956  1.00  0.00    -0.504 OA
ATOM     14  H   UNL     1     109.366   6.450 -26.885  1.00  0.00     0.293 HD
ENDBRANCH   5  13
BRANCH   4  15
ATOM     15  O   UNL     1     110.389   7.498 -23.243  1.00  0.00    -0.502 OA
ATOM     16  H   UNL     1     110.783   7.152 -22.381  1.00  0.00     0.293 HD
ENDBRANCH   4  15
TORSDOF 5
ENDMDL
