MODEL 1
REMARK VINA RESULT:    -4.520      0.000      0.000
REMARK INTER + INTRA:          -4.520
REMARK INTER:                  -4.520
REMARK INTRA:                   0.000
REMARK UNBOUND:                 0.000
REMARK SMILES c1ccc2ccccc2c1
REMARK SMILES IDX 2 1 1 2 10 3 9 4 8 5 7 6 6 7 5 8 4 9 3 10
REMARK H PARENT
REMARK Flexibility Score: inf
ROOT
ATOM      1  C   UNL     1      -4.111  -8.281   5.849  1.00  0.00     0.001 A 
ATOM      2  C   UNL     1      -4.864  -7.873   4.744  1.00  0.00     0.001 A 
ATOM      3  C   UNL     1      -5.472  -6.614   4.732  1.00  0.00     0.009 A 
ATOM      4  C   UNL     1      -5.330  -5.753   5.832  1.00  0.00    -0.018 A 
ATOM      5  C   UNL     1      -5.935  -4.487   5.835  1.00  0.00     0.009 A 
ATOM      6  C   UNL     1      -5.785  -3.640   6.936  1.00  0.00     0.001 A 
ATOM      7  C   UNL     1      -5.033  -4.049   8.041  1.00  0.00     0.001 A 
ATOM      8  C   UNL     1      -4.425  -5.308   8.053  1.00  0.00     0.009 A 
ATOM      9  C   UNL     1      -4.567  -6.169   6.953  1.00  0.00    -0.018 A 
ATOM     10  C   UNL     1      -3.962  -7.434   6.950  1.00  0.00     0.009 A 
ENDROOT
TORSDOF 0
ENDMDL
MODEL 2
REMARK VINA RESULT:    -4.487      0.901      2.400
REMARK INTER + INTRA:          -4.487
REMARK INTER:                  -4.487
REMARK INTRA:                   0.000
REMARK UNBOUND:                 0.000
REMARK SMILES c1ccc2ccccc2c1
REMARK SMILES IDX 2 1 1 2 10 3 9 4 8 5 7 6 6 7 5 8 4 9 3 10
REMARK H PARENT
REMARK Flexibility Score: inf
ROOT
ATOM      1  C   UNL     1      -5.255  -6.447   4.822  1.00  0.00     0.001 A 
ATOM      2  C   UNL     1      -4.389  -7.057   5.733  1.00  0.00     0.001 A 
ATOM      3  C   UNL     1      -4.123  -6.451   6.965  1.00  0.00     0.009 A 
ATOM      4  C   UNL     1      -4.725  -5.226   7.293  1.00  0.00    -0.018 A 
ATOM      5  C   UNL     1      -4.467  -4.607   8.525  1.00  0.00     0.009 A 
ATOM      6  C   UNL     1      -5.073  -3.387   8.838  1.00  0.00     0.001 A 
ATOM      7  C   UNL     1      -5.940  -2.777   7.926  1.00  0.00     0.001 A 
ATOM      8  C   UNL     1      -6.206  -3.383   6.694  1.00  0.00     0.009 A 
ATOM      9  C   UNL     1      -5.603  -4.608   6.367  1.00  0.00    -0.018 A 
ATOM     10  C   UNL     1      -5.861  -5.227   5.135  1.00  0.00     0.009 A 
ENDROOT
TORSDOF 0
ENDMDL
MODEL 3
REMARK VINA RESULT:    -4.479      0.898      3.610
REMARK INTER + INTRA:          -4.479
REMARK INTER:                  -4.479
REMARK INTRA:                   0.000
REMARK UNBOUND:                 0.000
REMARK SMILES c1ccc2ccccc2c1
REMARK SMILES IDX 2 1 1 2 10 3 9 4 8 5 7 6 6 7 5 8 4 9 3 10
REMARK H PARENT
REMARK Flexibility Score: inf
ROOT
ATOM      1  C   UNL     1      -5.089  -3.379   8.811  1.00  0.00     0.001 A 
ATOM      2  C   UNL     1      -5.958  -2.773   7.899  1.00  0.00     0.001 A 
ATOM      3  C   UNL     1      -6.227  -3.384   6.671  1.00  0.00     0.009 A 
ATOM      4  C   UNL     1      -5.625  -4.610   6.347  1.00  0.00    -0.018 A 
ATOM      5  C   UNL     1      -5.886  -5.234   5.118  1.00  0.00     0.009 A 
ATOM      6  C   UNL     1      -5.280  -6.455   4.808  1.00  0.00     0.001 A 
ATOM      7  C   UNL     1      -4.412  -7.061   5.720  1.00  0.00     0.001 A 
ATOM      8  C   UNL     1      -4.142  -6.450   6.949  1.00  0.00     0.009 A 
ATOM      9  C   UNL     1      -4.744  -5.224   7.273  1.00  0.00    -0.018 A 
ATOM     10  C   UNL     1      -4.483  -4.600   8.502  1.00  0.00     0.009 A 
ENDROOT
TORSDOF 0
ENDMDL
MODEL 4
REMARK VINA RESULT:    -4.472      0.899      1.211
REMARK INTER + INTRA:          -4.472
REMARK INTER:                  -4.472
REMARK INTRA:                   0.000
REMARK UNBOUND:                 0.000
REMARK SMILES c1ccc2ccccc2c1
REMARK SMILES IDX 2 1 1 2 10 3 9 4 8 5 7 6 6 7 5 8 4 9 3 10
REMARK H PARENT
REMARK Flexibility Score: inf
ROOT
ATOM      1  C   UNL     1      -4.395  -7.047   5.662  1.00  0.00     0.001 A 
ATOM      2  C   UNL     1      -5.287  -6.478   4.748  1.00  0.00     0.001 A 
ATOM      3  C   UNL     1      -5.920  -5.267   5.042  1.00  0.00     0.009 A 
ATOM      4  C   UNL     1      -5.662  -4.615   6.259  1.00  0.00    -0.018 A 
ATOM      5  C   UNL     1      -6.290  -3.399   6.567  1.00  0.00     0.009 A 
ATOM      6  C   UNL     1      -6.025  -2.760   7.782  1.00  0.00     0.001 A 
ATOM      7  C   UNL     1      -5.133  -3.329   8.696  1.00  0.00     0.001 A 
ATOM      8  C   UNL     1      -4.501  -4.540   8.402  1.00  0.00     0.009 A 
ATOM      9  C   UNL     1      -4.758  -5.192   7.185  1.00  0.00    -0.018 A 
ATOM     10  C   UNL     1      -4.130  -6.408   6.877  1.00  0.00     0.009 A 
ENDROOT
TORSDOF 0
ENDMDL
MODEL 5
REMARK VINA RESULT:    -4.470      0.903      4.157
REMARK INTER + INTRA:          -4.470
REMARK INTER:                  -4.470
REMARK INTRA:                   0.000
REMARK UNBOUND:                 0.000
REMARK SMILES c1ccc2ccccc2c1
REMARK SMILES IDX 2 1 1 2 10 3 9 4 8 5 7 6 6 7 5 8 4 9 3 10
REMARK H PARENT
REMARK Flexibility Score: inf
ROOT
ATOM      1  C   UNL     1      -5.995  -2.776   7.885  1.00  0.00     0.001 A 
ATOM      2  C   UNL     1      -5.122  -3.367   8.802  1.00  0.00     0.001 A 
ATOM      3  C   UNL     1      -4.498  -4.581   8.499  1.00  0.00     0.009 A 
ATOM      4  C   UNL     1      -4.746  -5.213   7.270  1.00  0.00    -0.018 A 
ATOM      5  C   UNL     1      -4.127  -6.431   6.953  1.00  0.00     0.009 A 
ATOM      6  C   UNL     1      -4.383  -7.050   5.726  1.00  0.00     0.001 A 
ATOM      7  C   UNL     1      -5.256  -6.459   4.808  1.00  0.00     0.001 A 
ATOM      8  C   UNL     1      -5.880  -5.245   5.112  1.00  0.00     0.009 A 
ATOM      9  C   UNL     1      -5.632  -4.613   6.341  1.00  0.00    -0.018 A 
ATOM     10  C   UNL     1      -6.251  -3.394   6.658  1.00  0.00     0.009 A 
ENDROOT
TORSDOF 0
ENDMDL
MODEL 6
REMARK VINA RESULT:    -4.343      1.376      3.120
REMARK INTER + INTRA:          -4.343
REMARK INTER:                  -4.343
REMARK INTRA:                   0.000
REMARK UNBOUND:                 0.000
REMARK SMILES c1ccc2ccccc2c1
REMARK SMILES IDX 2 1 1 2 10 3 9 4 8 5 7 6 6 7 5 8 4 9 3 10
REMARK H PARENT
REMARK Flexibility Score: inf
ROOT
ATOM      1  C   UNL     1      -4.344  -5.014   7.834  1.00  0.00     0.001 A 
ATOM      2  C   UNL     1      -4.139  -6.194   7.112  1.00  0.00     0.001 A 
ATOM      3  C   UNL     1      -4.926  -6.479   5.992  1.00  0.00     0.009 A 
ATOM      4  C   UNL     1      -5.927  -5.582   5.588  1.00  0.00    -0.018 A 
ATOM      5  C   UNL     1      -6.724  -5.856   4.466  1.00  0.00     0.009 A 
ATOM      6  C   UNL     1      -7.717  -4.954   4.074  1.00  0.00     0.001 A 
ATOM      7  C   UNL     1      -7.922  -3.774   4.796  1.00  0.00     0.001 A 
ATOM      8  C   UNL     1      -7.135  -3.489   5.916  1.00  0.00     0.009 A 
ATOM      9  C   UNL     1      -6.134  -4.386   6.321  1.00  0.00    -0.018 A 
ATOM     10  C   UNL     1      -5.337  -4.113   7.442  1.00  0.00     0.009 A 
ENDROOT
TORSDOF 0
ENDMDL
MODEL 7
REMARK VINA RESULT:    -4.331      1.400      3.328
REMARK INTER + INTRA:          -4.331
REMARK INTER:                  -4.331
REMARK INTRA:                   0.000
REMARK UNBOUND:                 0.000
REMARK SMILES c1ccc2ccccc2c1
REMARK SMILES IDX 2 1 1 2 10 3 9 4 8 5 7 6 6 7 5 8 4 9 3 10
REMARK H PARENT
REMARK Flexibility Score: inf
ROOT
ATOM      1  C   UNL     1      -7.959  -3.619   4.981  1.00  0.00     0.001 A 
ATOM      2  C   UNL     1      -7.812  -4.741   4.161  1.00  0.00     0.001 A 
ATOM      3  C   UNL     1      -6.809  -5.679   4.425  1.00  0.00     0.009 A 
ATOM      4  C   UNL     1      -5.943  -5.498   5.515  1.00  0.00    -0.018 A 
ATOM      5  C   UNL     1      -4.933  -6.431   5.792  1.00  0.00     0.009 A 
ATOM      6  C   UNL     1      -4.078  -6.237   6.880  1.00  0.00     0.001 A 
ATOM      7  C   UNL     1      -4.225  -5.115   7.700  1.00  0.00     0.001 A 
ATOM      8  C   UNL     1      -5.228  -4.177   7.437  1.00  0.00     0.009 A 
ATOM      9  C   UNL     1      -6.093  -4.359   6.346  1.00  0.00    -0.018 A 
ATOM     10  C   UNL     1      -7.104  -3.426   6.070  1.00  0.00     0.009 A 
ENDROOT
TORSDOF 0
ENDMDL
MODEL 8
REMARK VINA RESULT:    -4.325      1.322      3.507
REMARK INTER + INTRA:          -4.325
REMARK INTER:                  -4.325
REMARK INTRA:                   0.000
REMARK UNBOUND:                 0.000
REMARK SMILES c1ccc2ccccc2c1
REMARK SMILES IDX 2 1 1 2 10 3 9 4 8 5 7 6 6 7 5 8 4 9 3 10
REMARK H PARENT
REMARK Flexibility Score: inf
ROOT
ATOM      1  C   UNL     1      -5.292  -5.595   8.751  1.00  0.00     0.001 A 
ATOM      2  C   UNL     1      -6.511  -5.444   8.085  1.00  0.00     0.001 A 
ATOM      3  C   UNL     1      -6.708  -6.038   6.834  1.00  0.00     0.009 A 
ATOM      4  C   UNL     1      -5.681  -6.789   6.242  1.00  0.00    -0.018 A 
ATOM      5  C   UNL     1      -5.864  -7.391   4.988  1.00  0.00     0.009 A 
ATOM      6  C   UNL     1      -4.833  -8.136   4.409  1.00  0.00     0.001 A 
ATOM      7  C   UNL     1      -3.614  -8.287   5.076  1.00  0.00     0.001 A 
ATOM      8  C   UNL     1      -3.417  -7.693   6.326  1.00  0.00     0.009 A 
ATOM      9  C   UNL     1      -4.445  -6.942   6.919  1.00  0.00    -0.018 A 
ATOM     10  C   UNL     1      -4.261  -6.340   8.173  1.00  0.00     0.009 A 
ENDROOT
TORSDOF 0
ENDMDL
MODEL 9
REMARK VINA RESULT:    -4.316      1.590      4.231
REMARK INTER + INTRA:          -4.316
REMARK INTER:                  -4.316
REMARK INTRA:                   0.000
REMARK UNBOUND:                 0.000
REMARK SMILES c1ccc2ccccc2c1
REMARK SMILES IDX 2 1 1 2 10 3 9 4 8 5 7 6 6 7 5 8 4 9 3 10
REMARK H PARENT
REMARK Flexibility Score: inf
ROOT
ATOM      1  C   UNL     1      -6.474  -6.330   6.980  1.00  0.00     0.001 A 
ATOM      2  C   UNL     1      -5.402  -6.075   7.840  1.00  0.00     0.001 A 
ATOM      3  C   UNL     1      -4.142  -6.622   7.577  1.00  0.00     0.009 A 
ATOM      4  C   UNL     1      -3.948  -7.431   6.446  1.00  0.00    -0.018 A 
ATOM      5  C   UNL     1      -2.690  -7.987   6.169  1.00  0.00     0.009 A 
ATOM      6  C   UNL     1      -2.510  -8.790   5.040  1.00  0.00     0.001 A 
ATOM      7  C   UNL     1      -3.582  -9.045   4.180  1.00  0.00     0.001 A 
ATOM      8  C   UNL     1      -4.841  -8.498   4.443  1.00  0.00     0.009 A 
ATOM      9  C   UNL     1      -5.036  -7.689   5.574  1.00  0.00    -0.018 A 
ATOM     10  C   UNL     1      -6.294  -7.133   5.850  1.00  0.00     0.009 A 
ENDROOT
TORSDOF 0
ENDMDL
