MODEL 1
REMARK VINA RESULT:    -5.016      0.000      0.000
REMARK INTER + INTRA:          -6.048
REMARK INTER:                  -5.749
REMARK INTRA:                  -0.298
REMARK UNBOUND:                -0.298
REMARK SMILES COc1ccc(C(C)=O)c(O)c1
REMARK SMILES IDX 6 1 10 2 12 3 3 4 4 5 5 6 7 7 8 8 9 9 11 10 2 12 1 13
REMARK H PARENT 11 11
REMARK Flexibility Score: inf
ROOT
ATOM      1  C   UNL     1      -8.695  23.330  35.054  1.00  0.00     0.059 A 
ATOM      2  C   UNL     1      -8.209  23.820  33.816  1.00  0.00     0.130 A 
ATOM      3  C   UNL     1      -7.684  25.114  33.738  1.00  0.00     0.093 A 
ATOM      4  C   UNL     1      -7.659  25.951  34.856  1.00  0.00     0.122 A 
ATOM      5  C   UNL     1      -8.167  25.478  36.078  1.00  0.00     0.047 A 
ATOM      6  C   UNL     1      -8.678  24.182  36.172  1.00  0.00     0.019 A 
ENDROOT
BRANCH   1   7
ATOM      7  C   UNL     1      -9.182  21.940  35.212  1.00  0.00     0.163 C 
ATOM      8  C   UNL     1      -9.147  21.255  36.544  1.00  0.00     0.093 C 
ATOM      9  O   UNL     1      -9.558  21.286  34.203  1.00  0.00    -0.294 OA
ENDBRANCH   1   7
BRANCH   2  10
ATOM     10  O   UNL     1      -8.261  23.065  32.641  1.00  0.00    -0.507 OA
ATOM     11  H   UNL     1      -7.677  23.247  31.836  1.00  0.00     0.293 HD
ENDBRANCH   2  10
BRANCH   4  12
ATOM     12  O   UNL     1      -7.127  27.241  34.713  1.00  0.00    -0.497 OA
ATOM     13  C   UNL     1      -6.036  27.751  35.473  1.00  0.00     0.278 C 
ENDBRANCH   4  12
TORSDOF 3
ENDMDL
MODEL 2
REMARK VINA RESULT:    -4.857      1.778      5.244
REMARK INTER + INTRA:          -5.865
REMARK INTER:                  -5.525
REMARK INTRA:                  -0.340
REMARK UNBOUND:                -0.298
REMARK SMILES COc1ccc(C(C)=O)c(O)c1
REMARK SMILES IDX 6 1 10 2 12 3 3 4 4 5 5 6 7 7 8 8 9 9 11 10 2 12 1 13
REMARK H PARENT 11 11
REMARK Flexibility Score: inf
ROOT
ATOM      1  C   UNL     1      -6.670  26.011  33.497  1.00  0.00     0.059 A 
ATOM      2  C   UNL     1      -6.916  25.873  34.885  1.00  0.00     0.130 A 
ATOM      3  C   UNL     1      -7.703  24.813  35.349  1.00  0.00     0.093 A 
ATOM      4  C   UNL     1      -8.281  23.901  34.462  1.00  0.00     0.122 A 
ATOM      5  C   UNL     1      -8.062  24.055  33.083  1.00  0.00     0.047 A 
ATOM      6  C   UNL     1      -7.265  25.098  32.609  1.00  0.00     0.019 A 
ENDROOT
BRANCH   1   7
ATOM      7  C   UNL     1      -5.776  27.064  32.959  1.00  0.00     0.163 C 
ATOM      8  C   UNL     1      -4.549  26.710  32.174  1.00  0.00     0.093 C 
ATOM      9  O   UNL     1      -5.995  28.274  33.229  1.00  0.00    -0.294 OA
ENDBRANCH   1   7
BRANCH   2  10
ATOM     10  O   UNL     1      -6.425  26.781  35.826  1.00  0.00    -0.507 OA
ATOM     11  H   UNL     1      -6.993  27.187  36.557  1.00  0.00     0.293 HD
ENDBRANCH   2  10
BRANCH   4  12
ATOM     12  O   UNL     1      -9.066  22.864  34.988  1.00  0.00    -0.497 OA
ATOM     13  C   UNL     1      -9.334  21.637  34.316  1.00  0.00     0.278 C 
ENDBRANCH   4  12
TORSDOF 3
ENDMDL
MODEL 3
REMARK VINA RESULT:    -4.817      2.002      2.323
REMARK INTER + INTRA:          -5.820
REMARK INTER:                  -5.502
REMARK INTRA:                  -0.318
REMARK UNBOUND:                -0.298
REMARK SMILES COc1ccc(C(C)=O)c(O)c1
REMARK SMILES IDX 6 1 10 2 12 3 3 4 4 5 5 6 7 7 8 8 9 9 11 10 2 12 1 13
REMARK H PARENT 11 11
REMARK Flexibility Score: inf
ROOT
ATOM      1  C   UNL     1      -7.958  23.788  37.380  1.00  0.00     0.059 A 
ATOM      2  C   UNL     1      -7.916  23.959  35.974  1.00  0.00     0.130 A 
ATOM      3  C   UNL     1      -7.484  25.175  35.434  1.00  0.00     0.093 A 
ATOM      4  C   UNL     1      -7.122  26.243  36.260  1.00  0.00     0.122 A 
ATOM      5  C   UNL     1      -7.191  26.085  37.654  1.00  0.00     0.047 A 
ATOM      6  C   UNL     1      -7.605  24.871  38.205  1.00  0.00     0.019 A 
ENDROOT
BRANCH   1   7
ATOM      7  C   UNL     1      -8.326  22.495  38.003  1.00  0.00     0.163 C 
ATOM      8  C   UNL     1      -7.313  21.681  38.750  1.00  0.00     0.093 C 
ATOM      9  O   UNL     1      -9.482  22.024  37.840  1.00  0.00    -0.294 OA
ENDBRANCH   1   7
BRANCH   2  10
ATOM     10  O   UNL     1      -8.324  22.960  35.087  1.00  0.00    -0.507 OA
ATOM     11  H   UNL     1      -9.118  22.357  35.254  1.00  0.00     0.293 HD
ENDBRANCH   2  10
BRANCH   4  12
ATOM     12  O   UNL     1      -6.705  27.440  35.658  1.00  0.00    -0.497 OA
ATOM     13  C   UNL     1      -5.647  28.260  36.146  1.00  0.00     0.278 C 
ENDBRANCH   4  12
TORSDOF 3
ENDMDL
MODEL 4
REMARK VINA RESULT:    -4.798      1.381      5.177
REMARK INTER + INTRA:          -5.797
REMARK INTER:                  -5.565
REMARK INTRA:                  -0.232
REMARK UNBOUND:                -0.298
REMARK SMILES COc1ccc(C(C)=O)c(O)c1
REMARK SMILES IDX 6 1 10 2 12 3 3 4 4 5 5 6 7 7 8 8 9 9 11 10 2 12 1 13
REMARK H PARENT 11 11
REMARK Flexibility Score: inf
ROOT
ATOM      1  C   UNL     1      -7.175  26.049  35.095  1.00  0.00     0.059 A 
ATOM      2  C   UNL     1      -7.554  25.497  36.344  1.00  0.00     0.130 A 
ATOM      3  C   UNL     1      -8.223  24.269  36.387  1.00  0.00     0.093 A 
ATOM      4  C   UNL     1      -8.556  23.587  35.214  1.00  0.00     0.122 A 
ATOM      5  C   UNL     1      -8.206  24.147  33.974  1.00  0.00     0.047 A 
ATOM      6  C   UNL     1      -7.524  25.364  33.918  1.00  0.00     0.019 A 
ENDROOT
BRANCH   1   7
ATOM      7  C   UNL     1      -6.392  27.302  34.996  1.00  0.00     0.163 C 
ATOM      8  C   UNL     1      -5.923  27.818  33.669  1.00  0.00     0.093 C 
ATOM      9  O   UNL     1      -6.038  27.908  36.041  1.00  0.00    -0.294 OA
ENDBRANCH   1   7
BRANCH   2  10
ATOM     10  O   UNL     1      -7.313  26.152  37.554  1.00  0.00    -0.507 OA
ATOM     11  H   UNL     1      -7.253  25.674  38.444  1.00  0.00     0.293 HD
ENDBRANCH   2  10
BRANCH   4  12
ATOM     12  O   UNL     1      -9.234  22.363  35.322  1.00  0.00    -0.497 OA
ATOM     13  C   UNL     1      -9.342  21.407  34.272  1.00  0.00     0.278 C 
ENDBRANCH   4  12
TORSDOF 3
ENDMDL
MODEL 5
REMARK VINA RESULT:    -4.758      2.046      2.545
REMARK INTER + INTRA:          -5.751
REMARK INTER:                  -5.423
REMARK INTRA:                  -0.328
REMARK UNBOUND:                -0.298
REMARK SMILES COc1ccc(C(C)=O)c(O)c1
REMARK SMILES IDX 6 1 10 2 12 3 3 4 4 5 5 6 7 7 8 8 9 9 11 10 2 12 1 13
REMARK H PARENT 11 11
REMARK Flexibility Score: inf
ROOT
ATOM      1  C   UNL     1      -8.076  23.757  34.649  1.00  0.00     0.059 A 
ATOM      2  C   UNL     1      -7.129  24.592  35.293  1.00  0.00     0.130 A 
ATOM      3  C   UNL     1      -6.470  25.588  34.563  1.00  0.00     0.093 A 
ATOM      4  C   UNL     1      -6.705  25.755  33.196  1.00  0.00     0.122 A 
ATOM      5  C   UNL     1      -7.622  24.909  32.550  1.00  0.00     0.047 A 
ATOM      6  C   UNL     1      -8.299  23.923  33.271  1.00  0.00     0.019 A 
ENDROOT
BRANCH   1   7
ATOM      7  C   UNL     1      -8.863  22.745  35.392  1.00  0.00     0.163 C 
ATOM      8  C   UNL     1      -9.412  21.534  34.701  1.00  0.00     0.093 C 
ATOM      9  O   UNL     1      -9.151  22.936  36.602  1.00  0.00    -0.294 OA
ENDBRANCH   1   7
BRANCH   2  10
ATOM     10  O   UNL     1      -6.794  24.442  36.641  1.00  0.00    -0.507 OA
ATOM     11  H   UNL     1      -5.974  24.858  37.061  1.00  0.00     0.293 HD
ENDBRANCH   2  10
BRANCH   4  12
ATOM     12  O   UNL     1      -6.008  26.766  32.517  1.00  0.00    -0.497 OA
ATOM     13  C   UNL     1      -5.689  28.037  33.075  1.00  0.00     0.278 C 
ENDBRANCH   4  12
TORSDOF 3
ENDMDL
MODEL 6
REMARK VINA RESULT:    -4.744      1.558      4.816
REMARK INTER + INTRA:          -5.735
REMARK INTER:                  -5.420
REMARK INTRA:                  -0.315
REMARK UNBOUND:                -0.298
REMARK SMILES COc1ccc(C(C)=O)c(O)c1
REMARK SMILES IDX 6 1 10 2 12 3 3 4 4 5 5 6 7 7 8 8 9 9 11 10 2 12 1 13
REMARK H PARENT 11 11
REMARK Flexibility Score: inf
ROOT
ATOM      1  C   UNL     1      -6.706  26.510  34.553  1.00  0.00     0.059 A 
ATOM      2  C   UNL     1      -7.079  25.493  33.640  1.00  0.00     0.130 A 
ATOM      3  C   UNL     1      -7.898  24.442  34.066  1.00  0.00     0.093 A 
ATOM      4  C   UNL     1      -8.331  24.357  35.392  1.00  0.00     0.122 A 
ATOM      5  C   UNL     1      -7.938  25.348  36.306  1.00  0.00     0.047 A 
ATOM      6  C   UNL     1      -7.135  26.412  35.889  1.00  0.00     0.019 A 
ENDROOT
BRANCH   1   7
ATOM      7  C   UNL     1      -5.912  27.689  34.135  1.00  0.00     0.163 C 
ATOM      8  C   UNL     1      -5.198  28.538  35.142  1.00  0.00     0.093 C 
ATOM      9  O   UNL     1      -5.898  28.041  32.926  1.00  0.00    -0.294 OA
ENDBRANCH   1   7
BRANCH   2  10
ATOM     10  O   UNL     1      -6.633  25.477  32.316  1.00  0.00    -0.507 OA
ATOM     11  H   UNL     1      -6.781  24.699  31.688  1.00  0.00     0.293 HD
ENDBRANCH   2  10
BRANCH   4  12
ATOM     12  O   UNL     1      -9.143  23.274  35.761  1.00  0.00    -0.497 OA
ATOM     13  C   UNL     1      -9.148  22.010  35.103  1.00  0.00     0.278 C 
ENDBRANCH   4  12
TORSDOF 3
ENDMDL
MODEL 7
REMARK VINA RESULT:    -4.725      1.921      2.574
REMARK INTER + INTRA:          -5.714
REMARK INTER:                  -5.406
REMARK INTRA:                  -0.307
REMARK UNBOUND:                -0.298
REMARK SMILES COc1ccc(C(C)=O)c(O)c1
REMARK SMILES IDX 6 1 10 2 12 3 3 4 4 5 5 6 7 7 8 8 9 9 11 10 2 12 1 13
REMARK H PARENT 11 11
REMARK Flexibility Score: inf
ROOT
ATOM      1  C   UNL     1      -8.417  23.483  36.188  1.00  0.00     0.059 A 
ATOM      2  C   UNL     1      -7.915  24.404  37.139  1.00  0.00     0.130 A 
ATOM      3  C   UNL     1      -7.442  25.652  36.717  1.00  0.00     0.093 A 
ATOM      4  C   UNL     1      -7.425  25.996  35.363  1.00  0.00     0.122 A 
ATOM      5  C   UNL     1      -7.896  25.072  34.415  1.00  0.00     0.047 A 
ATOM      6  C   UNL     1      -8.386  23.831  34.826  1.00  0.00     0.019 A 
ENDROOT
BRANCH   1   7
ATOM      7  C   UNL     1      -9.008  22.184  36.588  1.00  0.00     0.163 C 
ATOM      8  C   UNL     1      -9.241  21.098  35.582  1.00  0.00     0.093 C 
ATOM      9  O   UNL     1      -9.400  22.009  37.772  1.00  0.00    -0.294 OA
ENDBRANCH   1   7
BRANCH   2  10
ATOM     10  O   UNL     1      -7.840  24.106  38.502  1.00  0.00    -0.507 OA
ATOM     11  H   UNL     1      -7.907  23.166  38.871  1.00  0.00     0.293 HD
ENDBRANCH   2  10
BRANCH   4  12
ATOM     12  O   UNL     1      -6.931  27.258  35.001  1.00  0.00    -0.497 OA
ATOM     13  C   UNL     1      -5.939  27.974  35.731  1.00  0.00     0.278 C 
ENDBRANCH   4  12
TORSDOF 3
ENDMDL
MODEL 8
REMARK VINA RESULT:    -4.700      2.318      3.723
REMARK INTER + INTRA:          -5.685
REMARK INTER:                  -5.385
REMARK INTRA:                  -0.301
REMARK UNBOUND:                -0.298
REMARK SMILES COc1ccc(C(C)=O)c(O)c1
REMARK SMILES IDX 6 1 10 2 12 3 3 4 4 5 5 6 7 7 8 8 9 9 11 10 2 12 1 13
REMARK H PARENT 11 11
REMARK Flexibility Score: inf
ROOT
ATOM      1  C   UNL     1      -7.009  25.706  34.099  1.00  0.00     0.059 A 
ATOM      2  C   UNL     1      -7.162  26.379  35.336  1.00  0.00     0.130 A 
ATOM      3  C   UNL     1      -6.368  27.495  35.622  1.00  0.00     0.093 A 
ATOM      4  C   UNL     1      -5.400  27.943  34.720  1.00  0.00     0.122 A 
ATOM      5  C   UNL     1      -5.228  27.259  33.505  1.00  0.00     0.047 A 
ATOM      6  C   UNL     1      -6.025  26.153  33.200  1.00  0.00     0.019 A 
ENDROOT
BRANCH   1   7
ATOM      7  C   UNL     1      -7.880  24.572  33.709  1.00  0.00     0.163 C 
ATOM      8  C   UNL     1      -8.157  24.269  32.268  1.00  0.00     0.093 C 
ATOM      9  O   UNL     1      -8.468  23.896  34.595  1.00  0.00    -0.294 OA
ENDBRANCH   1   7
BRANCH   2  10
ATOM     10  O   UNL     1      -8.063  25.951  36.314  1.00  0.00    -0.507 OA
ATOM     11  H   UNL     1      -8.718  26.568  36.776  1.00  0.00     0.293 HD
ENDBRANCH   2  10
BRANCH   4  12
ATOM     12  O   UNL     1      -4.631  29.063  35.067  1.00  0.00    -0.497 OA
ATOM     13  C   UNL     1      -3.209  29.067  35.158  1.00  0.00     0.278 C 
ENDBRANCH   4  12
TORSDOF 3
ENDMDL
MODEL 9
REMARK VINA RESULT:    -4.570      2.500      3.464
REMARK INTER + INTRA:          -5.536
REMARK INTER:                  -5.213
REMARK INTRA:                  -0.323
REMARK UNBOUND:                -0.298
REMARK SMILES COc1ccc(C(C)=O)c(O)c1
REMARK SMILES IDX 6 1 10 2 12 3 3 4 4 5 5 6 7 7 8 8 9 9 11 10 2 12 1 13
REMARK H PARENT 11 11
REMARK Flexibility Score: inf
ROOT
ATOM      1  C   UNL     1      -7.132  25.899  35.425  1.00  0.00     0.059 A 
ATOM      2  C   UNL     1      -6.929  25.125  34.255  1.00  0.00     0.130 A 
ATOM      3  C   UNL     1      -6.117  25.618  33.228  1.00  0.00     0.093 A 
ATOM      4  C   UNL     1      -5.524  26.880  33.319  1.00  0.00     0.122 A 
ATOM      5  C   UNL     1      -5.748  27.661  34.465  1.00  0.00     0.047 A 
ATOM      6  C   UNL     1      -6.543  27.173  35.505  1.00  0.00     0.019 A 
ENDROOT
BRANCH   1   7
ATOM      7  C   UNL     1      -7.913  25.391  36.577  1.00  0.00     0.163 C 
ATOM      8  C   UNL     1      -7.519  25.723  37.984  1.00  0.00     0.093 C 
ATOM      9  O   UNL     1      -8.874  24.601  36.387  1.00  0.00    -0.294 OA
ENDBRANCH   1   7
BRANCH   2  10
ATOM     10  O   UNL     1      -7.541  23.884  34.065  1.00  0.00    -0.507 OA
ATOM     11  H   UNL     1      -8.340  23.569  34.598  1.00  0.00     0.293 HD
ENDBRANCH   2  10
BRANCH   4  12
ATOM     12  O   UNL     1      -4.727  27.322  32.253  1.00  0.00    -0.497 OA
ATOM     13  C   UNL     1      -3.814  26.497  31.535  1.00  0.00     0.278 C 
ENDBRANCH   4  12
TORSDOF 3
ENDMDL
