MODEL 1
REMARK VINA RESULT:    -5.560      0.000      0.000
REMARK INTER + INTRA:          -8.663
REMARK INTER:                  -8.486
REMARK INTRA:                  -0.177
REMARK UNBOUND:                -0.177
REMARK SMILES CC1=CCC[C@H](C)C(=O)C[C@H](C(C)C)C(=O)C1
REMARK SMILES IDX 8 1 9 2 6 3 7 4 5 5 4 6 3 7 2 8 1 9 10 11 11 12 15 13 16 14
REMARK SMILES IDX 17 15 12 17 13 18 14 19
REMARK H PARENT
REMARK Flexibility Score: 70.00
ROOT
ATOM      1  C   UNL     1       0.675  10.235  21.707  1.00  0.00     0.136 C 
ATOM      2  O   UNL     1       0.376   9.050  21.662  1.00  0.00    -0.299 OA
ENDROOT
BRANCH   1   3
ATOM      3  C   UNL     1       1.980  10.624  22.380  1.00  0.00     0.053 C 
ATOM      4  C   UNL     1       2.379   9.638  23.489  1.00  0.00     0.016 C 
BRANCH   3   5
ATOM      5  C   UNL     1       3.101  10.930  21.357  1.00  0.00     0.015 C 
BRANCH   5   6
ATOM      6  C   UNL     1       3.081  12.344  20.747  1.00  0.00     0.028 C 
BRANCH   6   7
ATOM      7  C   UNL     1       3.005  13.390  21.826  1.00  0.00    -0.028 C 
ATOM      8  C   UNL     1       1.903  14.124  22.107  1.00  0.00    -0.070 CG0
ATOM      9  C   UNL     1       1.968  15.082  23.268  1.00  0.00     0.039 C 
ATOM     10  G   UNL     1       0.619  14.036  21.294  1.00  0.00     0.000 G0
ENDBRANCH   6   7
ENDBRANCH   5   6
ENDBRANCH   3   5
ENDBRANCH   1   3
BRANCH   1  11
ATOM     11  C   UNL     1      -0.264  11.235  21.070  1.00  0.00     0.087 C 
BRANCH  11  12
ATOM     12  C   UNL     1      -1.005  12.096  22.124  1.00  0.00     0.066 C 
BRANCH  12  13
ATOM     13  C   UNL     1      -0.576  13.560  22.095  1.00  0.00     0.140 C 
ATOM     14  O   UNL     1      -1.267  14.379  22.686  1.00  0.00    -0.299 OA
BRANCH  13  15
ATOM     15  C   UNL     1       0.601  14.055  21.287  1.00  0.00     0.106 CG0
ATOM     16  G   UNL     1       1.887  14.107  22.099  1.00  0.00     0.000 G0
ENDBRANCH  13  15
ENDBRANCH  12  13
BRANCH  12  17
ATOM     17  C   UNL     1      -2.551  11.884  22.094  1.00  0.00    -0.006 C 
ATOM     18  C   UNL     1      -3.145  12.235  20.720  1.00  0.00     0.008 C 
ATOM     19  C   UNL     1      -3.027  10.491  22.538  1.00  0.00     0.008 C 
ENDBRANCH  12  17
ENDBRANCH  11  12
ENDBRANCH   1  11
TORSDOF 1
ENDMDL
MODEL 2
REMARK VINA RESULT:    -5.552      1.943      5.314
REMARK INTER + INTRA:          -8.651
REMARK INTER:                  -8.412
REMARK INTRA:                  -0.239
REMARK UNBOUND:                -0.177
REMARK SMILES CC1=CCC[C@H](C)C(=O)C[C@H](C(C)C)C(=O)C1
REMARK SMILES IDX 8 1 9 2 6 3 7 4 5 5 4 6 3 7 2 8 1 9 10 11 11 12 15 13 16 14
REMARK SMILES IDX 17 15 12 17 13 18 14 19
REMARK H PARENT
REMARK Flexibility Score: 70.00
ROOT
ATOM      1  C   UNL     1      -0.698  14.436  21.549  1.00  0.00     0.136 C 
ATOM      2  O   UNL     1      -0.853  15.512  20.988  1.00  0.00    -0.299 OA
ENDROOT
BRANCH   1   3
ATOM      3  C   UNL     1      -1.601  14.099  22.722  1.00  0.00     0.053 C 
ATOM      4  C   UNL     1      -1.850  15.312  23.631  1.00  0.00     0.016 C 
BRANCH   3   5
ATOM      5  C   UNL     1      -2.883  13.350  22.283  1.00  0.00     0.015 C 
BRANCH   5   6
ATOM      6  C   UNL     1      -2.658  12.068  21.457  1.00  0.00     0.028 C 
BRANCH   6   7
ATOM      7  C   UNL     1      -2.357  10.900  22.357  1.00  0.00    -0.028 C 
ATOM      8  C   UNL     1      -1.174  10.246  22.394  1.00  0.00    -0.070 CG0
ATOM      9  C   UNL     1      -1.009   9.138  23.403  1.00  0.00     0.039 C 
ATOM     10  G   UNL     1      -0.019  10.566  21.456  1.00  0.00     0.000 G0
ENDBRANCH   6   7
ENDBRANCH   5   6
ENDBRANCH   3   5
ENDBRANCH   1   3
BRANCH   1  11
ATOM     11  C   UNL     1       0.368  13.500  21.022  1.00  0.00     0.087 C 
BRANCH  11  12
ATOM     12  C   UNL     1       1.179  12.837  22.163  1.00  0.00     0.066 C 
BRANCH  12  13
ATOM     13  C   UNL     1       1.122  11.312  22.118  1.00  0.00     0.140 C 
ATOM     14  O   UNL     1       2.068  10.682  22.569  1.00  0.00    -0.299 OA
BRANCH  13  15
ATOM     15  C   UNL     1      -0.001  10.553  21.450  1.00  0.00     0.106 CG0
ATOM     16  G   UNL     1      -1.157  10.265  22.398  1.00  0.00     0.000 G0
ENDBRANCH  13  15
ENDBRANCH  12  13
BRANCH  12  17
ATOM     17  C   UNL     1       2.624  13.416  22.287  1.00  0.00    -0.006 C 
ATOM     18  C   UNL     1       3.403  13.287  20.969  1.00  0.00     0.008 C 
ATOM     19  C   UNL     1       2.703  14.860  22.812  1.00  0.00     0.008 C 
ENDBRANCH  12  17
ENDBRANCH  11  12
ENDBRANCH   1  11
TORSDOF 1
ENDMDL
MODEL 3
REMARK VINA RESULT:    -5.528      2.036      5.250
REMARK INTER + INTRA:          -8.614
REMARK INTER:                  -8.364
REMARK INTRA:                  -0.249
REMARK UNBOUND:                -0.177
REMARK SMILES CC1=CCC[C@H](C)C(=O)C[C@H](C(C)C)C(=O)C1
REMARK SMILES IDX 8 1 9 2 6 3 7 4 5 5 4 6 3 7 2 8 1 9 10 11 11 12 15 13 16 14
REMARK SMILES IDX 17 15 12 17 13 18 14 19
REMARK H PARENT
REMARK Flexibility Score: 70.00
ROOT
ATOM      1  C   UNL     1       0.110  14.709  22.977  1.00  0.00     0.136 C 
ATOM      2  O   UNL     1       0.267  14.121  24.038  1.00  0.00    -0.299 OA
ENDROOT
BRANCH   1   3
ATOM      3  C   UNL     1      -0.762  15.952  22.965  1.00  0.00     0.053 C 
ATOM      4  C   UNL     1      -0.401  16.904  21.814  1.00  0.00     0.016 C 
BRANCH   3   5
ATOM      5  C   UNL     1      -2.269  15.616  23.074  1.00  0.00     0.015 C 
BRANCH   5   6
ATOM      6  C   UNL     1      -2.890  14.924  21.846  1.00  0.00     0.028 C 
BRANCH   6   7
ATOM      7  C   UNL     1      -3.126  13.463  22.119  1.00  0.00    -0.028 C 
ATOM      8  C   UNL     1      -2.497  12.451  21.477  1.00  0.00    -0.070 CG0
ATOM      9  C   UNL     1      -2.794  11.041  21.917  1.00  0.00     0.039 C 
ATOM     10  G   UNL     1      -1.525  12.676  20.327  1.00  0.00     0.000 G0
ENDBRANCH   6   7
ENDBRANCH   5   6
ENDBRANCH   3   5
ENDBRANCH   1   3
BRANCH   1  11
ATOM     11  C   UNL     1       0.814  14.172  21.751  1.00  0.00     0.087 C 
BRANCH  11  12
ATOM     12  C   UNL     1       0.787  12.624  21.692  1.00  0.00     0.066 C 
BRANCH  12  13
ATOM     13  C   UNL     1      -0.137  12.092  20.599  1.00  0.00     0.140 C 
ATOM     14  O   UNL     1       0.286  11.217  19.856  1.00  0.00    -0.299 OA
BRANCH  13  15
ATOM     15  C   UNL     1      -1.508  12.668  20.331  1.00  0.00     0.106 CG0
ATOM     16  G   UNL     1      -2.479  12.424  21.478  1.00  0.00     0.000 G0
ENDBRANCH  13  15
ENDBRANCH  12  13
BRANCH  12  17
ATOM     17  C   UNL     1       2.216  11.998  21.677  1.00  0.00    -0.006 C 
ATOM     18  C   UNL     1       3.308  13.073  21.802  1.00  0.00     0.008 C 
ATOM     19  C   UNL     1       2.450  10.882  22.709  1.00  0.00     0.008 C 
ENDBRANCH  12  17
ENDBRANCH  11  12
ENDBRANCH   1  11
TORSDOF 1
ENDMDL
MODEL 4
REMARK VINA RESULT:    -5.513      2.555      3.907
REMARK INTER + INTRA:          -8.591
REMARK INTER:                  -8.337
REMARK INTRA:                  -0.253
REMARK UNBOUND:                -0.177
REMARK SMILES CC1=CCC[C@H](C)C(=O)C[C@H](C(C)C)C(=O)C1
REMARK SMILES IDX 8 1 9 2 6 3 7 4 5 5 4 6 3 7 2 8 1 9 10 11 11 12 15 13 16 14
REMARK SMILES IDX 17 15 12 17 13 18 14 19
REMARK H PARENT
REMARK Flexibility Score: 70.00
ROOT
ATOM      1  C   UNL     1       2.257  13.459  22.145  1.00  0.00     0.136 C 
ATOM      2  O   UNL     1       2.740  14.550  22.417  1.00  0.00    -0.299 OA
ENDROOT
BRANCH   1   3
ATOM      3  C   UNL     1       3.197  12.334  21.747  1.00  0.00     0.053 C 
ATOM      4  C   UNL     1       3.003  11.080  22.613  1.00  0.00     0.016 C 
BRANCH   3   5
ATOM      5  C   UNL     1       3.187  12.071  20.221  1.00  0.00     0.015 C 
BRANCH   5   6
ATOM      6  C   UNL     1       2.117  11.083  19.720  1.00  0.00     0.028 C 
BRANCH   6   7
ATOM      7  C   UNL     1       1.390  11.643  18.527  1.00  0.00    -0.028 C 
ATOM      8  C   UNL     1       0.160  12.205  18.573  1.00  0.00    -0.070 CG0
ATOM      9  C   UNL     1      -0.401  12.784  17.299  1.00  0.00     0.039 C 
ATOM     10  G   UNL     1      -0.681  12.260  19.840  1.00  0.00     0.000 G0
ENDBRANCH   6   7
ENDBRANCH   5   6
ENDBRANCH   3   5
ENDBRANCH   1   3
BRANCH   1  11
ATOM     11  C   UNL     1       0.757  13.294  22.248  1.00  0.00     0.087 C 
BRANCH  11  12
ATOM     12  C   UNL     1      -0.004  14.323  21.375  1.00  0.00     0.066 C 
BRANCH  12  13
ATOM     13  C   UNL     1      -0.915  13.662  20.343  1.00  0.00     0.140 C 
ATOM     14  O   UNL     1      -1.909  14.269  19.971  1.00  0.00    -0.299 OA
BRANCH  13  15
ATOM     15  C   UNL     1      -0.699  12.252  19.842  1.00  0.00     0.106 CG0
ATOM     16  G   UNL     1       0.175  12.202  18.597  1.00  0.00     0.000 G0
ENDBRANCH  13  15
ENDBRANCH  12  13
BRANCH  12  17
ATOM     17  C   UNL     1      -0.704  15.431  22.223  1.00  0.00    -0.006 C 
ATOM     18  C   UNL     1      -0.834  15.019  23.698  1.00  0.00     0.008 C 
ATOM     19  C   UNL     1      -0.071  16.829  22.116  1.00  0.00     0.008 C 
ENDBRANCH  12  17
ENDBRANCH  11  12
ENDBRANCH   1  11
TORSDOF 1
ENDMDL
MODEL 5
REMARK VINA RESULT:    -5.440      1.931      4.403
REMARK INTER + INTRA:          -8.480
REMARK INTER:                  -8.417
REMARK INTRA:                  -0.063
REMARK UNBOUND:                -0.177
REMARK SMILES CC1=CCC[C@H](C)C(=O)C[C@H](C(C)C)C(=O)C1
REMARK SMILES IDX 8 1 9 2 6 3 7 4 5 5 4 6 3 7 2 8 1 9 10 11 11 12 15 13 16 14
REMARK SMILES IDX 17 15 12 17 13 18 14 19
REMARK H PARENT
REMARK Flexibility Score: 70.00
ROOT
ATOM      1  C   UNL     1      -1.219  12.029  20.990  1.00  0.00     0.136 C 
ATOM      2  O   UNL     1      -0.850  12.293  19.853  1.00  0.00    -0.299 OA
ENDROOT
BRANCH   1   3
ATOM      3  C   UNL     1      -2.709  11.889  21.249  1.00  0.00     0.053 C 
ATOM      4  C   UNL     1      -3.008  10.940  22.419  1.00  0.00     0.016 C 
BRANCH   3   5
ATOM      5  C   UNL     1      -3.424  13.260  21.332  1.00  0.00     0.015 C 
BRANCH   5   6
ATOM      6  C   UNL     1      -3.067  14.127  22.554  1.00  0.00     0.028 C 
BRANCH   6   7
ATOM      7  C   UNL     1      -2.281  15.340  22.137  1.00  0.00    -0.028 C 
ATOM      8  C   UNL     1      -0.963  15.523  22.382  1.00  0.00    -0.070 CG0
ATOM      9  C   UNL     1      -0.307  16.764  21.835  1.00  0.00     0.039 C 
ATOM     10  G   UNL     1      -0.128  14.546  23.198  1.00  0.00     0.000 G0
ENDBRANCH   6   7
ENDBRANCH   5   6
ENDBRANCH   3   5
ENDBRANCH   1   3
BRANCH   1  11
ATOM     11  C   UNL     1      -0.166  11.836  22.057  1.00  0.00     0.087 C 
BRANCH  11  12
ATOM     12  C   UNL     1       1.112  12.666  21.774  1.00  0.00     0.066 C 
BRANCH  12  13
ATOM     13  C   UNL     1       1.089  14.034  22.451  1.00  0.00     0.140 C 
ATOM     14  O   UNL     1       2.118  14.695  22.460  1.00  0.00    -0.299 OA
BRANCH  13  15
ATOM     15  C   UNL     1      -0.115  14.560  23.197  1.00  0.00     0.106 CG0
ATOM     16  G   UNL     1      -0.959  15.504  22.354  1.00  0.00     0.000 G0
ENDBRANCH  13  15
ENDBRANCH  12  13
BRANCH  12  17
ATOM     17  C   UNL     1       2.422  11.855  22.023  1.00  0.00    -0.006 C 
ATOM     18  C   UNL     1       2.126  10.457  22.589  1.00  0.00     0.008 C 
ATOM     19  C   UNL     1       3.363  11.748  20.810  1.00  0.00     0.008 C 
ENDBRANCH  12  17
ENDBRANCH  11  12
ENDBRANCH   1  11
TORSDOF 1
ENDMDL
MODEL 6
REMARK VINA RESULT:    -5.382      2.388      3.966
REMARK INTER + INTRA:          -8.391
REMARK INTER:                  -7.905
REMARK INTRA:                  -0.486
REMARK UNBOUND:                -0.177
REMARK SMILES CC1=CCC[C@H](C)C(=O)C[C@H](C(C)C)C(=O)C1
REMARK SMILES IDX 8 1 9 2 6 3 7 4 5 5 4 6 3 7 2 8 1 9 10 11 11 12 15 13 16 14
REMARK SMILES IDX 17 15 12 17 13 18 14 19
REMARK H PARENT
REMARK Flexibility Score: 70.00
ROOT
ATOM      1  C   UNL     1       2.142  13.000  21.314  1.00  0.00     0.136 C 
ATOM      2  O   UNL     1       2.927  13.793  21.815  1.00  0.00    -0.299 OA
ENDROOT
BRANCH   1   3
ATOM      3  C   UNL     1       2.705  11.802  20.570  1.00  0.00     0.053 C 
ATOM      4  C   UNL     1       3.571  12.217  19.370  1.00  0.00     0.016 C 
BRANCH   3   5
ATOM      5  C   UNL     1       3.372  10.778  21.521  1.00  0.00     0.015 C 
BRANCH   5   6
ATOM      6  C   UNL     1       2.660  10.557  22.869  1.00  0.00     0.028 C 
BRANCH   6   7
ATOM      7  C   UNL     1       1.725   9.380  22.791  1.00  0.00    -0.028 C 
ATOM      8  C   UNL     1       0.377   9.466  22.853  1.00  0.00    -0.070 CG0
ATOM      9  C   UNL     1      -0.422   8.198  22.689  1.00  0.00     0.039 C 
ATOM     10  G   UNL     1      -0.361  10.776  23.097  1.00  0.00     0.000 G0
ENDBRANCH   6   7
ENDBRANCH   5   6
ENDBRANCH   3   5
ENDBRANCH   1   3
BRANCH   1  11
ATOM     11  C   UNL     1       0.661  13.251  21.488  1.00  0.00     0.087 C 
BRANCH  11  12
ATOM     12  C   UNL     1      -0.202  12.155  20.813  1.00  0.00     0.066 C 
BRANCH  12  13
ATOM     13  C   UNL     1      -0.996  11.326  21.819  1.00  0.00     0.140 C 
ATOM     14  O   UNL     1      -2.196  11.182  21.634  1.00  0.00    -0.299 OA
BRANCH  13  15
ATOM     15  C   UNL     1      -0.386  10.766  23.083  1.00  0.00     0.106 CG0
ATOM     16  G   UNL     1       0.360   9.460  22.843  1.00  0.00     0.000 G0
ENDBRANCH  13  15
ENDBRANCH  12  13
BRANCH  12  17
ATOM     17  C   UNL     1      -1.056  12.707  19.629  1.00  0.00    -0.006 C 
ATOM     18  C   UNL     1      -1.654  14.085  19.954  1.00  0.00     0.008 C 
ATOM     19  C   UNL     1      -0.336  12.749  18.270  1.00  0.00     0.008 C 
ENDBRANCH  12  17
ENDBRANCH  11  12
ENDBRANCH   1  11
TORSDOF 1
ENDMDL
MODEL 7
REMARK VINA RESULT:    -5.376      2.107      3.990
REMARK INTER + INTRA:          -8.382
REMARK INTER:                  -8.662
REMARK INTRA:                   0.281
REMARK UNBOUND:                -0.177
REMARK SMILES CC1=CCC[C@H](C)C(=O)C[C@H](C(C)C)C(=O)C1
REMARK SMILES IDX 8 1 9 2 6 3 7 4 5 5 4 6 3 7 2 8 1 9 10 11 11 12 15 13 16 14
REMARK SMILES IDX 17 15 12 17 13 18 14 19
REMARK H PARENT
REMARK Flexibility Score: 70.00
ROOT
ATOM      1  C   UNL     1       1.865  13.351  22.172  1.00  0.00     0.136 C 
ATOM      2  O   UNL     1       2.698  14.243  22.254  1.00  0.00    -0.299 OA
ENDROOT
BRANCH   1   3
ATOM      3  C   UNL     1       2.324  11.976  21.718  1.00  0.00     0.053 C 
ATOM      4  C   UNL     1       3.855  11.868  21.650  1.00  0.00     0.016 C 
BRANCH   3   5
ATOM      5  C   UNL     1       1.632  10.835  22.502  1.00  0.00     0.015 C 
BRANCH   5   6
ATOM      6  C   UNL     1       0.562  10.043  21.725  1.00  0.00     0.028 C 
BRANCH   6   7
ATOM      7  C   UNL     1      -0.820  10.433  22.174  1.00  0.00    -0.028 C 
ATOM      8  C   UNL     1      -1.585  11.373  21.574  1.00  0.00    -0.070 CG0
ATOM      9  C   UNL     1      -2.979  11.597  22.104  1.00  0.00     0.039 C 
ATOM     10  G   UNL     1      -1.095  12.221  20.408  1.00  0.00     0.000 G0
ENDBRANCH   6   7
ENDBRANCH   5   6
ENDBRANCH   3   5
ENDBRANCH   1   3
BRANCH   1  11
ATOM     11  C   UNL     1       0.436  13.668  22.552  1.00  0.00     0.087 C 
BRANCH  11  12
ATOM     12  C   UNL     1      -0.279  14.523  21.474  1.00  0.00     0.066 C 
BRANCH  12  13
ATOM     13  C   UNL     1      -1.253  13.710  20.627  1.00  0.00     0.140 C 
ATOM     14  O   UNL     1      -2.247  14.269  20.187  1.00  0.00    -0.299 OA
BRANCH  13  15
ATOM     15  C   UNL     1      -1.096  12.224  20.395  1.00  0.00     0.106 CG0
ATOM     16  G   UNL     1      -1.589  11.393  21.571  1.00  0.00     0.000 G0
ENDBRANCH  13  15
ENDBRANCH  12  13
BRANCH  12  17
ATOM     17  C   UNL     1      -0.886  15.838  22.056  1.00  0.00    -0.006 C 
ATOM     18  C   UNL     1      -1.826  15.555  23.238  1.00  0.00     0.008 C 
ATOM     19  C   UNL     1       0.141  16.916  22.442  1.00  0.00     0.008 C 
ENDBRANCH  12  17
ENDBRANCH  11  12
ENDBRANCH   1  11
TORSDOF 1
ENDMDL
MODEL 8
REMARK VINA RESULT:    -5.296      1.973      4.356
REMARK INTER + INTRA:          -8.260
REMARK INTER:                  -8.357
REMARK INTRA:                   0.097
REMARK UNBOUND:                -0.177
REMARK SMILES CC1=CCC[C@H](C)C(=O)C[C@H](C(C)C)C(=O)C1
REMARK SMILES IDX 8 1 9 2 6 3 7 4 5 5 4 6 3 7 2 8 1 9 10 11 11 12 15 13 16 14
REMARK SMILES IDX 17 15 12 17 13 18 14 19
REMARK H PARENT
REMARK Flexibility Score: 70.00
ROOT
ATOM      1  C   UNL     1      -2.134  11.619  22.245  1.00  0.00     0.136 C 
ATOM      2  O   UNL     1      -2.943  10.704  22.322  1.00  0.00    -0.299 OA
ENDROOT
BRANCH   1   3
ATOM      3  C   UNL     1      -2.624  12.975  21.767  1.00  0.00     0.053 C 
ATOM      4  C   UNL     1      -4.155  13.090  21.816  1.00  0.00     0.016 C 
BRANCH   3   5
ATOM      5  C   UNL     1      -1.868  14.146  22.441  1.00  0.00     0.015 C 
BRANCH   5   6
ATOM      6  C   UNL     1      -0.670  14.710  21.654  1.00  0.00     0.028 C 
BRANCH   6   7
ATOM      7  C   UNL     1      -0.677  14.204  20.237  1.00  0.00    -0.028 C 
ATOM      8  C   UNL     1       0.086  13.183  19.783  1.00  0.00    -0.070 CG0
ATOM      9  C   UNL     1      -0.089  12.750  18.350  1.00  0.00     0.039 C 
ATOM     10  G   UNL     1       1.120  12.473  20.646  1.00  0.00     0.000 G0
ENDBRANCH   6   7
ENDBRANCH   5   6
ENDBRANCH   3   5
ENDBRANCH   1   3
BRANCH   1  11
ATOM     11  C   UNL     1      -0.704  11.347  22.656  1.00  0.00     0.087 C 
BRANCH  11  12
ATOM     12  C   UNL     1      -0.014  10.321  21.722  1.00  0.00     0.066 C 
BRANCH  12  13
ATOM     13  C   UNL     1       0.915  10.980  20.706  1.00  0.00     0.140 C 
ATOM     14  O   UNL     1       1.573  10.260  19.968  1.00  0.00    -0.299 OA
BRANCH  13  15
ATOM     15  C   UNL     1       1.132  12.474  20.642  1.00  0.00     0.106 CG0
ATOM     16  G   UNL     1       0.092  13.180  19.784  1.00  0.00     0.000 G0
ENDBRANCH  13  15
ENDBRANCH  12  13
BRANCH  12  17
ATOM     17  C   UNL     1       0.638   9.138  22.506  1.00  0.00    -0.006 C 
ATOM     18  C   UNL     1       1.759   9.624  23.438  1.00  0.00     0.008 C 
ATOM     19  C   UNL     1      -0.349   8.249  23.283  1.00  0.00     0.008 C 
ENDBRANCH  12  17
ENDBRANCH  11  12
ENDBRANCH   1  11
TORSDOF 1
ENDMDL
MODEL 9
REMARK VINA RESULT:    -5.232      2.459      4.990
REMARK INTER + INTRA:          -8.162
REMARK INTER:                  -8.332
REMARK INTRA:                   0.170
REMARK UNBOUND:                -0.177
REMARK SMILES CC1=CCC[C@H](C)C(=O)C[C@H](C(C)C)C(=O)C1
REMARK SMILES IDX 8 1 9 2 6 3 7 4 5 5 4 6 3 7 2 8 1 9 10 11 11 12 15 13 16 14
REMARK SMILES IDX 17 15 12 17 13 18 14 19
REMARK H PARENT
REMARK Flexibility Score: 70.00
ROOT
ATOM      1  C   UNL     1       0.212  14.788  22.625  1.00  0.00     0.136 C 
ATOM      2  O   UNL     1       0.935  15.320  23.456  1.00  0.00    -0.299 OA
ENDROOT
BRANCH   1   3
ATOM      3  C   UNL     1      -1.223  15.271  22.505  1.00  0.00     0.053 C 
ATOM      4  C   UNL     1      -1.897  15.435  23.876  1.00  0.00     0.016 C 
BRANCH   3   5
ATOM      5  C   UNL     1      -1.356  16.498  21.571  1.00  0.00     0.015 C 
BRANCH   5   6
ATOM      6  C   UNL     1      -2.210  16.286  20.307  1.00  0.00     0.028 C 
BRANCH   6   7
ATOM      7  C   UNL     1      -3.051  15.044  20.433  1.00  0.00    -0.028 C 
ATOM      8  C   UNL     1      -2.739  13.848  19.883  1.00  0.00    -0.070 CG0
ATOM      9  C   UNL     1      -3.653  12.681  20.161  1.00  0.00     0.039 C 
ATOM     10  G   UNL     1      -1.527  13.637  18.987  1.00  0.00     0.000 G0
ENDBRANCH   6   7
ENDBRANCH   5   6
ENDBRANCH   3   5
ENDBRANCH   1   3
BRANCH   1  11
ATOM     11  C   UNL     1       0.801  13.701  21.755  1.00  0.00     0.087 C 
BRANCH  11  12
ATOM     12  C   UNL     1      -0.286  12.757  21.182  1.00  0.00     0.066 C 
BRANCH  12  13
ATOM     13  C   UNL     1      -0.418  12.861  19.665  1.00  0.00     0.140 C 
ATOM     14  O   UNL     1       0.453  12.356  18.970  1.00  0.00    -0.299 OA
BRANCH  13  15
ATOM     15  C   UNL     1      -1.518  13.647  18.989  1.00  0.00     0.106 CG0
ATOM     16  G   UNL     1      -2.730  13.847  19.887  1.00  0.00     0.000 G0
ENDBRANCH  13  15
ENDBRANCH  12  13
BRANCH  12  17
ATOM     17  C   UNL     1      -0.152  11.294  21.710  1.00  0.00    -0.006 C 
ATOM     18  C   UNL     1       1.118  11.111  22.556  1.00  0.00     0.008 C 
ATOM     19  C   UNL     1      -1.378  10.761  22.471  1.00  0.00     0.008 C 
ENDBRANCH  12  17
ENDBRANCH  11  12
ENDBRANCH   1  11
TORSDOF 1
ENDMDL
