MODEL 1
REMARK VINA RESULT:    -5.251      0.000      0.000
REMARK INTER + INTRA:          -7.100
REMARK INTER:                  -6.786
REMARK INTRA:                  -0.314
REMARK UNBOUND:                -0.314
REMARK SMILES CCO[C@H]1O[C@@H](CO)[C@H](O)[C@H](O)[C@H]1O
REMARK SMILES IDX 4 1 13 2 11 3 9 4 6 5 5 6 3 7 2 8 1 9 14 10 12 12 7 14 8 15
REMARK SMILES IDX 10 17
REMARK H PARENT 14 11 12 13 8 16 10 18
REMARK Flexibility Score: inf
ROOT
ATOM      1  C   UNL     1      40.534  40.228  23.073  1.00  0.00     0.281 C 
ATOM      2  C   UNL     1      41.844  39.722  22.438  1.00  0.00     0.202 C 
ATOM      3  C   UNL     1      41.908  38.190  22.467  1.00  0.00     0.179 C 
ATOM      4  C   UNL     1      41.699  37.704  23.911  1.00  0.00     0.177 C 
ATOM      5  C   UNL     1      40.414  38.316  24.519  1.00  0.00     0.178 C 
ATOM      6  O   UNL     1      40.351  39.736  24.398  1.00  0.00    -0.341 OA
ENDROOT
BRANCH   1   7
ATOM      7  O   UNL     1      39.424  39.911  22.249  1.00  0.00    -0.350 OA
BRANCH   7   8
ATOM      8  C   UNL     1      38.445  40.928  22.329  1.00  0.00     0.160 C 
ATOM      9  C   UNL     1      39.114  42.280  22.134  1.00  0.00     0.035 C 
ENDBRANCH   7   8
ENDBRANCH   1   7
BRANCH   2  10
ATOM     10  O   UNL     1      41.996  40.216  21.130  1.00  0.00    -0.385 OA
ATOM     11  H   UNL     1      41.262  39.846  20.573  1.00  0.00     0.211 HD
ENDBRANCH   2  10
BRANCH   3  12
ATOM     12  O   UNL     1      43.154  37.763  21.980  1.00  0.00    -0.387 OA
ATOM     13  H   UNL     1      43.073  36.791  21.799  1.00  0.00     0.211 HD
ENDBRANCH   3  12
BRANCH   5  14
ATOM     14  C   UNL     1      39.126  37.609  24.048  1.00  0.00     0.191 C 
BRANCH  14  15
ATOM     15  O   UNL     1      39.236  36.220  24.213  1.00  0.00    -0.394 OA
ATOM     16  H   UNL     1      39.802  35.889  23.467  1.00  0.00     0.210 HD
ENDBRANCH  14  15
ENDBRANCH   5  14
BRANCH   4  17
ATOM     17  O   UNL     1      42.797  38.069  24.711  1.00  0.00    -0.387 OA
ATOM     18  H   UNL     1      43.018  37.287  25.280  1.00  0.00     0.211 HD
ENDBRANCH   4  17
TORSDOF 7
ENDMDL
MODEL 2
REMARK VINA RESULT:    -5.073      1.583      2.129
REMARK INTER + INTRA:          -6.871
REMARK INTER:                  -6.663
REMARK INTRA:                  -0.208
REMARK UNBOUND:                -0.314
REMARK SMILES CCO[C@H]1O[C@@H](CO)[C@H](O)[C@H](O)[C@H]1O
REMARK SMILES IDX 4 1 13 2 11 3 9 4 6 5 5 6 3 7 2 8 1 9 14 10 12 12 7 14 8 15
REMARK SMILES IDX 10 17
REMARK H PARENT 14 11 12 13 8 16 10 18
REMARK Flexibility Score: inf
ROOT
ATOM      1  C   UNL     1      40.885  40.053  24.512  1.00  0.00     0.281 C 
ATOM      2  C   UNL     1      41.540  40.405  23.162  1.00  0.00     0.202 C 
ATOM      3  C   UNL     1      41.361  39.263  22.154  1.00  0.00     0.179 C 
ATOM      4  C   UNL     1      41.893  37.958  22.771  1.00  0.00     0.177 C 
ATOM      5  C   UNL     1      41.261  37.709  24.162  1.00  0.00     0.178 C 
ATOM      6  O   UNL     1      41.373  38.824  25.044  1.00  0.00    -0.341 OA
ENDROOT
BRANCH   1   7
ATOM      7  O   UNL     1      39.472  40.038  24.393  1.00  0.00    -0.350 OA
BRANCH   7   8
ATOM      8  C   UNL     1      38.870  40.292  25.646  1.00  0.00     0.160 C 
ATOM      9  C   UNL     1      37.489  39.655  25.672  1.00  0.00     0.035 C 
ENDBRANCH   7   8
ENDBRANCH   1   7
BRANCH   2  10
ATOM     10  O   UNL     1      41.037  41.618  22.656  1.00  0.00    -0.385 OA
ATOM     11  H   UNL     1      41.617  41.902  21.902  1.00  0.00     0.211 HD
ENDBRANCH   2  10
BRANCH   3  12
ATOM     12  O   UNL     1      42.057  39.567  20.973  1.00  0.00    -0.387 OA
ATOM     13  H   UNL     1      41.419  39.433  20.224  1.00  0.00     0.211 HD
ENDBRANCH   3  12
BRANCH   5  14
ATOM     14  C   UNL     1      39.828  37.139  24.082  1.00  0.00     0.191 C 
BRANCH  14  15
ATOM     15  O   UNL     1      39.804  35.803  24.509  1.00  0.00    -0.394 OA
ATOM     16  H   UNL     1      39.283  35.297  23.833  1.00  0.00     0.210 HD
ENDBRANCH  14  15
ENDBRANCH   5  14
BRANCH   4  17
ATOM     17  O   UNL     1      43.291  38.022  22.913  1.00  0.00    -0.387 OA
ATOM     18  H   UNL     1      43.667  37.222  22.463  1.00  0.00     0.211 HD
ENDBRANCH   4  17
TORSDOF 7
ENDMDL
MODEL 3
REMARK VINA RESULT:    -5.006      1.663      3.704
REMARK INTER + INTRA:          -6.783
REMARK INTER:                  -6.366
REMARK INTRA:                  -0.417
REMARK UNBOUND:                -0.314
REMARK SMILES CCO[C@H]1O[C@@H](CO)[C@H](O)[C@H](O)[C@H]1O
REMARK SMILES IDX 4 1 13 2 11 3 9 4 6 5 5 6 3 7 2 8 1 9 14 10 12 12 7 14 8 15
REMARK SMILES IDX 10 17
REMARK H PARENT 14 11 12 13 8 16 10 18
REMARK Flexibility Score: inf
ROOT
ATOM      1  C   UNL     1      40.541  38.741  22.875  1.00  0.00     0.281 C 
ATOM      2  C   UNL     1      41.575  39.728  22.299  1.00  0.00     0.202 C 
ATOM      3  C   UNL     1      41.573  41.042  23.089  1.00  0.00     0.179 C 
ATOM      4  C   UNL     1      40.142  41.606  23.127  1.00  0.00     0.177 C 
ATOM      5  C   UNL     1      39.143  40.538  23.632  1.00  0.00     0.178 C 
ATOM      6  O   UNL     1      39.232  39.300  22.929  1.00  0.00    -0.341 OA
ENDROOT
BRANCH   1   7
ATOM      7  O   UNL     1      40.954  38.272  24.149  1.00  0.00    -0.350 OA
BRANCH   7   8
ATOM      8  C   UNL     1      41.112  36.868  24.130  1.00  0.00     0.160 C 
ATOM      9  C   UNL     1      39.740  36.212  24.159  1.00  0.00     0.035 C 
ENDBRANCH   7   8
ENDBRANCH   1   7
BRANCH   2  10
ATOM     10  O   UNL     1      42.859  39.153  22.264  1.00  0.00    -0.385 OA
ATOM     11  H   UNL     1      42.754  38.172  22.154  1.00  0.00     0.211 HD
ENDBRANCH   2  10
BRANCH   3  12
ATOM     12  O   UNL     1      42.446  41.958  22.479  1.00  0.00    -0.387 OA
ATOM     13  H   UNL     1      42.666  41.589  21.584  1.00  0.00     0.211 HD
ENDBRANCH   3  12
BRANCH   5  14
ATOM     14  C   UNL     1      39.163  40.367  25.167  1.00  0.00     0.191 C 
BRANCH  14  15
ATOM     15  O   UNL     1      38.420  39.240  25.548  1.00  0.00    -0.394 OA
ATOM     16  H   UNL     1      37.470  39.445  25.348  1.00  0.00     0.210 HD
ENDBRANCH  14  15
ENDBRANCH   5  14
BRANCH   4  17
ATOM     17  O   UNL     1      39.750  42.023  21.843  1.00  0.00    -0.387 OA
ATOM     18  H   UNL     1      40.180  41.409  21.192  1.00  0.00     0.211 HD
ENDBRANCH   4  17
TORSDOF 7
ENDMDL
MODEL 4
REMARK VINA RESULT:    -4.671      1.583      3.551
REMARK INTER + INTRA:          -6.350
REMARK INTER:                  -6.076
REMARK INTRA:                  -0.275
REMARK UNBOUND:                -0.314
REMARK SMILES CCO[C@H]1O[C@@H](CO)[C@H](O)[C@H](O)[C@H]1O
REMARK SMILES IDX 4 1 13 2 11 3 9 4 6 5 5 6 3 7 2 8 1 9 14 10 12 12 7 14 8 15
REMARK SMILES IDX 10 17
REMARK H PARENT 14 11 12 13 8 16 10 18
REMARK Flexibility Score: inf
ROOT
ATOM      1  C   UNL     1      39.578  39.032  23.396  1.00  0.00     0.281 C 
ATOM      2  C   UNL     1      40.777  38.113  23.089  1.00  0.00     0.202 C 
ATOM      3  C   UNL     1      42.099  38.879  23.217  1.00  0.00     0.179 C 
ATOM      4  C   UNL     1      42.044  40.131  22.327  1.00  0.00     0.177 C 
ATOM      5  C   UNL     1      40.775  40.964  22.625  1.00  0.00     0.178 C 
ATOM      6  O   UNL     1      39.571  40.200  22.579  1.00  0.00    -0.341 OA
ENDROOT
BRANCH   1   7
ATOM      7  O   UNL     1      39.546  39.368  24.774  1.00  0.00    -0.350 OA
BRANCH   7   8
ATOM      8  C   UNL     1      38.210  39.500  25.217  1.00  0.00     0.160 C 
ATOM      9  C   UNL     1      37.340  38.493  24.482  1.00  0.00     0.035 C 
ENDBRANCH   7   8
ENDBRANCH   1   7
BRANCH   2  10
ATOM     10  O   UNL     1      40.763  36.972  23.913  1.00  0.00    -0.385 OA
ATOM     11  H   UNL     1      41.696  36.641  23.997  1.00  0.00     0.211 HD
ENDBRANCH   2  10
BRANCH   3  12
ATOM     12  O   UNL     1      43.162  38.046  22.830  1.00  0.00    -0.387 OA
ATOM     13  H   UNL     1      43.472  38.371  21.945  1.00  0.00     0.211 HD
ENDBRANCH   3  12
BRANCH   5  14
ATOM     14  C   UNL     1      40.900  41.823  23.901  1.00  0.00     0.191 C 
BRANCH  14  15
ATOM     15  O   UNL     1      42.195  42.352  24.015  1.00  0.00    -0.394 OA
ATOM     16  H   UNL     1      42.222  42.857  24.869  1.00  0.00     0.210 HD
ENDBRANCH  14  15
ENDBRANCH   5  14
BRANCH   4  17
ATOM     17  O   UNL     1      42.036  39.762  20.969  1.00  0.00    -0.387 OA
ATOM     18  H   UNL     1      42.802  40.223  20.537  1.00  0.00     0.211 HD
ENDBRANCH   4  17
TORSDOF 7
ENDMDL
MODEL 5
REMARK VINA RESULT:    -4.645      1.426      1.524
REMARK INTER + INTRA:          -6.317
REMARK INTER:                  -5.888
REMARK INTRA:                  -0.429
REMARK UNBOUND:                -0.314
REMARK SMILES CCO[C@H]1O[C@@H](CO)[C@H](O)[C@H](O)[C@H]1O
REMARK SMILES IDX 4 1 13 2 11 3 9 4 6 5 5 6 3 7 2 8 1 9 14 10 12 12 7 14 8 15
REMARK SMILES IDX 10 17
REMARK H PARENT 14 11 12 13 8 16 10 18
REMARK Flexibility Score: inf
ROOT
ATOM      1  C   UNL     1      40.674  40.805  24.042  1.00  0.00     0.281 C 
ATOM      2  C   UNL     1      41.558  40.600  22.796  1.00  0.00     0.202 C 
ATOM      3  C   UNL     1      41.273  39.243  22.142  1.00  0.00     0.179 C 
ATOM      4  C   UNL     1      41.432  38.133  23.194  1.00  0.00     0.177 C 
ATOM      5  C   UNL     1      40.587  38.442  24.453  1.00  0.00     0.178 C 
ATOM      6  O   UNL     1      40.817  39.745  24.985  1.00  0.00    -0.341 OA
ENDROOT
BRANCH   1   7
ATOM      7  O   UNL     1      39.317  40.982  23.669  1.00  0.00    -0.350 OA
BRANCH   7   8
ATOM      8  C   UNL     1      38.823  42.205  24.177  1.00  0.00     0.160 C 
ATOM      9  C   UNL     1      37.988  42.888  23.104  1.00  0.00     0.035 C 
ENDBRANCH   7   8
ENDBRANCH   1   7
BRANCH   2  10
ATOM     10  O   UNL     1      41.392  41.656  21.880  1.00  0.00    -0.385 OA
ATOM     11  H   UNL     1      41.729  42.488  22.305  1.00  0.00     0.211 HD
ENDBRANCH   2  10
BRANCH   3  12
ATOM     12  O   UNL     1      42.164  39.041  21.075  1.00  0.00    -0.387 OA
ATOM     13  H   UNL     1      42.873  39.730  21.160  1.00  0.00     0.211 HD
ENDBRANCH   3  12
BRANCH   5  14
ATOM     14  C   UNL     1      39.089  38.116  24.272  1.00  0.00     0.191 C 
BRANCH  14  15
ATOM     15  O   UNL     1      38.325  38.733  25.274  1.00  0.00    -0.394 OA
ATOM     16  H   UNL     1      37.763  38.023  25.681  1.00  0.00     0.210 HD
ENDBRANCH  14  15
ENDBRANCH   5  14
BRANCH   4  17
ATOM     17  O   UNL     1      42.781  38.011  23.572  1.00  0.00    -0.387 OA
ATOM     18  H   UNL     1      43.312  38.570  22.947  1.00  0.00     0.211 HD
ENDBRANCH   4  17
TORSDOF 7
ENDMDL
MODEL 6
REMARK VINA RESULT:    -4.584      1.629      3.953
REMARK INTER + INTRA:          -6.239
REMARK INTER:                  -6.023
REMARK INTRA:                  -0.216
REMARK UNBOUND:                -0.314
REMARK SMILES CCO[C@H]1O[C@@H](CO)[C@H](O)[C@H](O)[C@H]1O
REMARK SMILES IDX 4 1 13 2 11 3 9 4 6 5 5 6 3 7 2 8 1 9 14 10 12 12 7 14 8 15
REMARK SMILES IDX 10 17
REMARK H PARENT 14 11 12 13 8 16 10 18
REMARK Flexibility Score: inf
ROOT
ATOM      1  C   UNL     1      39.975  39.414  24.236  1.00  0.00     0.281 C 
ATOM      2  C   UNL     1      39.551  40.861  23.915  1.00  0.00     0.202 C 
ATOM      3  C   UNL     1      40.090  41.297  22.547  1.00  0.00     0.179 C 
ATOM      4  C   UNL     1      41.613  41.083  22.514  1.00  0.00     0.177 C 
ATOM      5  C   UNL     1      41.976  39.637  22.929  1.00  0.00     0.178 C 
ATOM      6  O   UNL     1      41.388  39.238  24.165  1.00  0.00    -0.341 OA
ENDROOT
BRANCH   1   7
ATOM      7  O   UNL     1      39.300  38.496  23.392  1.00  0.00    -0.350 OA
BRANCH   7   8
ATOM      8  C   UNL     1      38.789  37.416  24.147  1.00  0.00     0.160 C 
ATOM      9  C   UNL     1      39.789  36.270  24.114  1.00  0.00     0.035 C 
ENDBRANCH   7   8
ENDBRANCH   1   7
BRANCH   2  10
ATOM     10  O   UNL     1      38.153  41.005  23.985  1.00  0.00    -0.385 OA
ATOM     11  H   UNL     1      37.827  40.473  24.758  1.00  0.00     0.211 HD
ENDBRANCH   2  10
BRANCH   3  12
ATOM     12  O   UNL     1      39.778  42.649  22.330  1.00  0.00    -0.387 OA
ATOM     13  H   UNL     1      40.266  42.926  21.511  1.00  0.00     0.211 HD
ENDBRANCH   3  12
BRANCH   5  14
ATOM     14  C   UNL     1      41.763  38.611  21.795  1.00  0.00     0.191 C 
BRANCH  14  15
ATOM     15  O   UNL     1      42.966  37.961  21.485  1.00  0.00    -0.394 OA
ATOM     16  H   UNL     1      43.542  38.630  21.031  1.00  0.00     0.210 HD
ENDBRANCH  14  15
ENDBRANCH   5  14
BRANCH   4  17
ATOM     17  O   UNL     1      42.248  41.980  23.391  1.00  0.00    -0.387 OA
ATOM     18  H   UNL     1      43.181  41.661  23.511  1.00  0.00     0.211 HD
ENDBRANCH   4  17
TORSDOF 7
ENDMDL
MODEL 7
REMARK VINA RESULT:    -4.505     11.541     13.604
REMARK INTER + INTRA:          -6.136
REMARK INTER:                  -5.965
REMARK INTRA:                  -0.171
REMARK UNBOUND:                -0.314
REMARK SMILES CCO[C@H]1O[C@@H](CO)[C@H](O)[C@H](O)[C@H]1O
REMARK SMILES IDX 4 1 13 2 11 3 9 4 6 5 5 6 3 7 2 8 1 9 14 10 12 12 7 14 8 15
REMARK SMILES IDX 10 17
REMARK H PARENT 14 11 12 13 8 16 10 18
REMARK Flexibility Score: inf
ROOT
ATOM      1  C   UNL     1      47.873  30.195  16.913  1.00  0.00     0.281 C 
ATOM      2  C   UNL     1      47.585  30.715  15.491  1.00  0.00     0.202 C 
ATOM      3  C   UNL     1      48.441  31.948  15.178  1.00  0.00     0.179 C 
ATOM      4  C   UNL     1      48.221  33.006  16.273  1.00  0.00     0.177 C 
ATOM      5  C   UNL     1      48.440  32.397  17.679  1.00  0.00     0.178 C 
ATOM      6  O   UNL     1      47.692  31.203  17.903  1.00  0.00    -0.341 OA
ENDROOT
BRANCH   1   7
ATOM      7  O   UNL     1      49.171  29.629  16.985  1.00  0.00    -0.350 OA
BRANCH   7   8
ATOM      8  C   UNL     1      49.091  28.250  17.283  1.00  0.00     0.160 C 
ATOM      9  C   UNL     1      50.138  27.504  16.470  1.00  0.00     0.035 C 
ENDBRANCH   7   8
ENDBRANCH   1   7
BRANCH   2  10
ATOM     10  O   UNL     1      47.777  29.701  14.533  1.00  0.00    -0.385 OA
ATOM     11  H   UNL     1      46.921  29.210  14.429  1.00  0.00     0.211 HD
ENDBRANCH   2  10
BRANCH   3  12
ATOM     12  O   UNL     1      48.082  32.461  13.920  1.00  0.00    -0.387 OA
ATOM     13  H   UNL     1      47.103  32.324  13.825  1.00  0.00     0.211 HD
ENDBRANCH   3  12
BRANCH   5  14
ATOM     14  C   UNL     1      49.932  32.258  18.051  1.00  0.00     0.191 C 
BRANCH  14  15
ATOM     15  O   UNL     1      50.466  33.501  18.421  1.00  0.00    -0.394 OA
ATOM     16  H   UNL     1      51.294  33.314  18.935  1.00  0.00     0.210 HD
ENDBRANCH  14  15
ENDBRANCH   5  14
BRANCH   4  17
ATOM     17  O   UNL     1      46.912  33.516  16.199  1.00  0.00    -0.387 OA
ATOM     18  H   UNL     1      46.786  33.866  15.279  1.00  0.00     0.211 HD
ENDBRANCH   4  17
TORSDOF 7
ENDMDL
MODEL 8
REMARK VINA RESULT:    -4.454     13.183     15.374
REMARK INTER + INTRA:          -6.070
REMARK INTER:                  -5.591
REMARK INTRA:                  -0.479
REMARK UNBOUND:                -0.314
REMARK SMILES CCO[C@H]1O[C@@H](CO)[C@H](O)[C@H](O)[C@H]1O
REMARK SMILES IDX 4 1 13 2 11 3 9 4 6 5 5 6 3 7 2 8 1 9 14 10 12 12 7 14 8 15
REMARK SMILES IDX 10 17
REMARK H PARENT 14 11 12 13 8 16 10 18
REMARK Flexibility Score: inf
ROOT
ATOM      1  C   UNL     1      49.145  29.478  15.987  1.00  0.00     0.281 C 
ATOM      2  C   UNL     1      47.943  28.512  15.986  1.00  0.00     0.202 C 
ATOM      3  C   UNL     1      48.269  27.236  16.770  1.00  0.00     0.179 C 
ATOM      4  C   UNL     1      49.557  26.612  16.206  1.00  0.00     0.177 C 
ATOM      5  C   UNL     1      50.698  27.656  16.154  1.00  0.00     0.178 C 
ATOM      6  O   UNL     1      50.331  28.864  15.490  1.00  0.00    -0.341 OA
ENDROOT
BRANCH   1   7
ATOM      7  O   UNL     1      49.349  30.020  17.281  1.00  0.00    -0.350 OA
BRANCH   7   8
ATOM      8  C   UNL     1      49.443  31.428  17.216  1.00  0.00     0.160 C 
ATOM      9  C   UNL     1      48.218  32.040  17.880  1.00  0.00     0.035 C 
ENDBRANCH   7   8
ENDBRANCH   1   7
BRANCH   2  10
ATOM     10  O   UNL     1      46.788  29.141  16.486  1.00  0.00    -0.385 OA
ATOM     11  H   UNL     1      46.176  28.437  16.825  1.00  0.00     0.211 HD
ENDBRANCH   2  10
BRANCH   3  12
ATOM     12  O   UNL     1      47.198  26.334  16.663  1.00  0.00    -0.387 OA
ATOM     13  H   UNL     1      46.691  26.389  17.515  1.00  0.00     0.211 HD
ENDBRANCH   3  12
BRANCH   5  14
ATOM     14  C   UNL     1      51.362  27.895  17.527  1.00  0.00     0.191 C 
BRANCH  14  15
ATOM     15  O   UNL     1      52.227  28.998  17.471  1.00  0.00    -0.394 OA
ATOM     16  H   UNL     1      51.678  29.777  17.195  1.00  0.00     0.210 HD
ENDBRANCH  14  15
ENDBRANCH   5  14
BRANCH   4  17
ATOM     17  O   UNL     1      49.331  26.121  14.908  1.00  0.00    -0.387 OA
ATOM     18  H   UNL     1      49.363  25.131  14.959  1.00  0.00     0.211 HD
ENDBRANCH   4  17
TORSDOF 7
ENDMDL
MODEL 9
REMARK VINA RESULT:    -4.421      1.910      4.742
REMARK INTER + INTRA:          -6.027
REMARK INTER:                  -5.572
REMARK INTRA:                  -0.455
REMARK UNBOUND:                -0.314
REMARK SMILES CCO[C@H]1O[C@@H](CO)[C@H](O)[C@H](O)[C@H]1O
REMARK SMILES IDX 4 1 13 2 11 3 9 4 6 5 5 6 3 7 2 8 1 9 14 10 12 12 7 14 8 15
REMARK SMILES IDX 10 17
REMARK H PARENT 14 11 12 13 8 16 10 18
REMARK Flexibility Score: inf
ROOT
ATOM      1  C   UNL     1      40.596  39.495  24.875  1.00  0.00     0.281 C 
ATOM      2  C   UNL     1      39.125  39.890  25.112  1.00  0.00     0.202 C 
ATOM      3  C   UNL     1      38.626  40.825  24.004  1.00  0.00     0.179 C 
ATOM      4  C   UNL     1      39.575  42.030  23.896  1.00  0.00     0.177 C 
ATOM      5  C   UNL     1      41.043  41.565  23.747  1.00  0.00     0.178 C 
ATOM      6  O   UNL     1      41.446  40.631  24.747  1.00  0.00    -0.341 OA
ENDROOT
BRANCH   1   7
ATOM      7  O   UNL     1      40.708  38.638  23.750  1.00  0.00    -0.350 OA
BRANCH   7   8
ATOM      8  C   UNL     1      41.669  37.630  23.992  1.00  0.00     0.160 C 
ATOM      9  C   UNL     1      42.334  37.251  22.678  1.00  0.00     0.035 C 
ENDBRANCH   7   8
ENDBRANCH   1   7
BRANCH   2  10
ATOM     10  O   UNL     1      38.308  38.750  25.229  1.00  0.00    -0.385 OA
ATOM     11  H   UNL     1      37.487  39.010  25.723  1.00  0.00     0.211 HD
ENDBRANCH   2  10
BRANCH   3  12
ATOM     12  O   UNL     1      37.321  41.250  24.303  1.00  0.00    -0.387 OA
ATOM     13  H   UNL     1      37.401  41.939  25.013  1.00  0.00     0.211 HD
ENDBRANCH   3  12
BRANCH   5  14
ATOM     14  C   UNL     1      41.390  41.108  22.314  1.00  0.00     0.191 C 
BRANCH  14  15
ATOM     15  O   UNL     1      42.712  40.644  22.250  1.00  0.00    -0.394 OA
ATOM     16  H   UNL     1      43.093  40.985  21.399  1.00  0.00     0.210 HD
ENDBRANCH  14  15
ENDBRANCH   5  14
BRANCH   4  17
ATOM     17  O   UNL     1      39.469  42.836  25.045  1.00  0.00    -0.387 OA
ATOM     18  H   UNL     1      38.673  42.524  25.548  1.00  0.00     0.211 HD
ENDBRANCH   4  17
TORSDOF 7
ENDMDL
