MODEL 1
REMARK VINA RESULT:    -4.807      0.000      0.000
REMARK INTER + INTRA:          -5.914
REMARK INTER:                  -5.650
REMARK INTRA:                  -0.264
REMARK UNBOUND:                -0.264
REMARK SMILES O=c1cc(-c2ccc(O)c(O)c2)oc2cc(O)cc(O)c12
REMARK SMILES IDX 4 1 3 2 2 3 1 4 21 5 19 6 18 7 16 8 15 9 14 10 13 11 5 12
REMARK SMILES IDX 6 13 7 14 8 15 12 16 10 17 9 18 11 20 20 22 17 24
REMARK H PARENT 9 19 11 21 20 23 17 25
REMARK Flexibility Score: inf
ROOT
ATOM      1  C   UNL     1     -44.185 -46.584  70.857  1.00  0.00     0.138 A 
ATOM      2  C   UNL     1     -43.499 -47.787  70.642  1.00  0.00     0.100 A 
ATOM      3  C   UNL     1     -44.217 -48.977  70.510  1.00  0.00     0.197 A 
ATOM      4  O   UNL     1     -43.571 -50.049  70.381  1.00  0.00    -0.289 OA
ATOM      5  C   UNL     1     -45.631 -48.955  70.563  1.00  0.00     0.107 A 
ATOM      6  C   UNL     1     -46.468 -50.099  70.401  1.00  0.00     0.134 A 
ATOM      7  C   UNL     1     -47.850 -49.974  70.589  1.00  0.00     0.093 A 
ATOM      8  C   UNL     1     -48.430 -48.737  70.875  1.00  0.00     0.123 A 
ATOM      9  C   UNL     1     -47.627 -47.604  70.982  1.00  0.00     0.094 A 
ATOM     10  C   UNL     1     -46.241 -47.701  70.833  1.00  0.00     0.146 A 
ATOM     11  O   UNL     1     -45.510 -46.598  70.958  1.00  0.00    -0.456 OA
ENDROOT
BRANCH   1  12
ATOM     12  C   UNL     1     -43.471 -45.289  71.003  1.00  0.00     0.021 A 
ATOM     13  C   UNL     1     -43.061 -44.867  72.278  1.00  0.00     0.016 A 
ATOM     14  C   UNL     1     -42.394 -43.650  72.443  1.00  0.00     0.051 A 
ATOM     15  C   UNL     1     -42.134 -42.831  71.342  1.00  0.00     0.157 A 
ATOM     16  C   UNL     1     -43.220 -44.454  69.897  1.00  0.00     0.062 A 
ATOM     17  C   UNL     1     -42.551 -43.232  70.062  1.00  0.00     0.158 A 
BRANCH  15  18
ATOM     18  O   UNL     1     -41.466 -41.623  71.537  1.00  0.00    -0.504 OA
ATOM     19  H   UNL     1     -40.455 -41.562  71.546  1.00  0.00     0.293 HD
ENDBRANCH  15  18
BRANCH  17  20
ATOM     20  O   UNL     1     -42.306 -42.414  68.960  1.00  0.00    -0.504 OA
ATOM     21  H   UNL     1     -42.743 -42.586  68.063  1.00  0.00     0.293 HD
ENDBRANCH  17  20
ENDBRANCH   1  12
BRANCH   6  22
ATOM     22  O   UNL     1     -46.000 -51.364  70.033  1.00  0.00    -0.507 OA
ATOM     23  H   UNL     1     -46.436 -52.236  70.289  1.00  0.00     0.293 HD
ENDBRANCH   6  22
BRANCH   8  24
ATOM     24  O   UNL     1     -49.808 -48.620  71.045  1.00  0.00    -0.508 OA
ATOM     25  H   UNL     1     -50.259 -47.716  71.120  1.00  0.00     0.293 HD
ENDBRANCH   8  24
TORSDOF 5
ENDMDL
MODEL 2
REMARK VINA RESULT:    -4.749      1.454      7.259
REMARK INTER + INTRA:          -5.845
REMARK INTER:                  -5.582
REMARK INTRA:                  -0.263
REMARK UNBOUND:                -0.264
REMARK SMILES O=c1cc(-c2ccc(O)c(O)c2)oc2cc(O)cc(O)c12
REMARK SMILES IDX 4 1 3 2 2 3 1 4 21 5 19 6 18 7 16 8 15 9 14 10 13 11 5 12
REMARK SMILES IDX 6 13 7 14 8 15 12 16 10 17 9 18 11 20 20 22 17 24
REMARK H PARENT 9 19 11 21 20 23 17 25
REMARK Flexibility Score: inf
ROOT
ATOM      1  C   UNL     1     -44.248 -46.105  71.312  1.00  0.00     0.138 A 
ATOM      2  C   UNL     1     -43.911 -45.710  72.614  1.00  0.00     0.100 A 
ATOM      3  C   UNL     1     -43.030 -44.644  72.805  1.00  0.00     0.197 A 
ATOM      4  O   UNL     1     -42.698 -44.352  73.983  1.00  0.00    -0.289 OA
ATOM      5  C   UNL     1     -42.509 -43.952  71.686  1.00  0.00     0.107 A 
ATOM      6  C   UNL     1     -41.636 -42.826  71.761  1.00  0.00     0.134 A 
ATOM      7  C   UNL     1     -41.093 -42.295  70.584  1.00  0.00     0.093 A 
ATOM      8  C   UNL     1     -41.438 -42.812  69.334  1.00  0.00     0.123 A 
ATOM      9  C   UNL     1     -42.331 -43.877  69.247  1.00  0.00     0.094 A 
ATOM     10  C   UNL     1     -42.865 -44.450  70.404  1.00  0.00     0.146 A 
ATOM     11  O   UNL     1     -43.702 -45.474  70.277  1.00  0.00    -0.456 OA
ENDROOT
BRANCH   1  12
ATOM     12  C   UNL     1     -45.181 -47.231  71.051  1.00  0.00     0.021 A 
ATOM     13  C   UNL     1     -44.666 -48.477  70.654  1.00  0.00     0.016 A 
ATOM     14  C   UNL     1     -45.523 -49.550  70.396  1.00  0.00     0.051 A 
ATOM     15  C   UNL     1     -46.906 -49.397  70.520  1.00  0.00     0.157 A 
ATOM     16  C   UNL     1     -46.577 -47.077  71.161  1.00  0.00     0.062 A 
ATOM     17  C   UNL     1     -47.437 -48.154  70.901  1.00  0.00     0.158 A 
BRANCH  15  18
ATOM     18  O   UNL     1     -47.736 -50.486  70.257  1.00  0.00    -0.504 OA
ATOM     19  H   UNL     1     -47.860 -51.241  70.920  1.00  0.00     0.293 HD
ENDBRANCH  15  18
BRANCH  17  20
ATOM     20  O   UNL     1     -48.817 -47.990  71.014  1.00  0.00    -0.504 OA
ATOM     21  H   UNL     1     -49.408 -47.879  70.198  1.00  0.00     0.293 HD
ENDBRANCH  17  20
ENDBRANCH   1  12
BRANCH   6  22
ATOM     22  O   UNL     1     -41.294 -42.180  72.953  1.00  0.00    -0.507 OA
ATOM     23  H   UNL     1     -40.506 -41.563  73.068  1.00  0.00     0.293 HD
ENDBRANCH   6  22
BRANCH   8  24
ATOM     24  O   UNL     1     -40.903 -42.267  68.168  1.00  0.00    -0.508 OA
ATOM     25  H   UNL     1     -41.091 -42.673  67.259  1.00  0.00     0.293 HD
ENDBRANCH   8  24
TORSDOF 5
ENDMDL
MODEL 3
REMARK VINA RESULT:    -4.672      1.873      6.977
REMARK INTER + INTRA:          -5.755
REMARK INTER:                  -5.455
REMARK INTRA:                  -0.300
REMARK UNBOUND:                -0.264
REMARK SMILES O=c1cc(-c2ccc(O)c(O)c2)oc2cc(O)cc(O)c12
REMARK SMILES IDX 4 1 3 2 2 3 1 4 21 5 19 6 18 7 16 8 15 9 14 10 13 11 5 12
REMARK SMILES IDX 6 13 7 14 8 15 12 16 10 17 9 18 11 20 20 22 17 24
REMARK H PARENT 9 19 11 21 20 23 17 25
REMARK Flexibility Score: inf
ROOT
ATOM      1  C   UNL     1     -43.732 -46.578  70.753  1.00  0.00     0.138 A 
ATOM      2  C   UNL     1     -42.472 -47.005  71.195  1.00  0.00     0.100 A 
ATOM      3  C   UNL     1     -41.391 -46.125  71.150  1.00  0.00     0.197 A 
ATOM      4  O   UNL     1     -40.259 -46.556  71.494  1.00  0.00    -0.289 OA
ATOM      5  C   UNL     1     -41.579 -44.800  70.687  1.00  0.00     0.107 A 
ATOM      6  C   UNL     1     -40.558 -43.805  70.635  1.00  0.00     0.134 A 
ATOM      7  C   UNL     1     -40.836 -42.563  70.050  1.00  0.00     0.093 A 
ATOM      8  C   UNL     1     -42.112 -42.261  69.570  1.00  0.00     0.123 A 
ATOM      9  C   UNL     1     -43.130 -43.207  69.666  1.00  0.00     0.094 A 
ATOM     10  C   UNL     1     -42.877 -44.468  70.213  1.00  0.00     0.146 A 
ATOM     11  O   UNL     1     -43.871 -45.347  70.272  1.00  0.00    -0.456 OA
ENDROOT
BRANCH   1  12
ATOM     12  C   UNL     1     -44.918 -47.472  70.781  1.00  0.00     0.021 A 
ATOM     13  C   UNL     1     -44.760 -48.837  70.486  1.00  0.00     0.016 A 
ATOM     14  C   UNL     1     -45.860 -49.698  70.499  1.00  0.00     0.051 A 
ATOM     15  C   UNL     1     -47.136 -49.212  70.794  1.00  0.00     0.157 A 
ATOM     16  C   UNL     1     -46.208 -46.983  71.065  1.00  0.00     0.062 A 
ATOM     17  C   UNL     1     -47.313 -47.847  71.076  1.00  0.00     0.158 A 
BRANCH  15  18
ATOM     18  O   UNL     1     -48.215 -50.095  70.800  1.00  0.00    -0.504 OA
ATOM     19  H   UNL     1     -48.122 -51.057  71.103  1.00  0.00     0.293 HD
ENDBRANCH  15  18
BRANCH  17  20
ATOM     20  O   UNL     1     -48.585 -47.352  71.360  1.00  0.00    -0.504 OA
ATOM     21  H   UNL     1     -48.744 -46.368  71.540  1.00  0.00     0.293 HD
ENDBRANCH  17  20
ENDBRANCH   1  12
BRANCH   6  22
ATOM     22  O   UNL     1     -39.274 -43.973  71.162  1.00  0.00    -0.507 OA
ATOM     23  H   UNL     1     -38.476 -43.406  70.925  1.00  0.00     0.293 HD
ENDBRANCH   6  22
BRANCH   8  24
ATOM     24  O   UNL     1     -42.382 -41.017  69.003  1.00  0.00    -0.508 OA
ATOM     25  H   UNL     1     -41.666 -40.307  68.918  1.00  0.00     0.293 HD
ENDBRANCH   8  24
TORSDOF 5
ENDMDL
MODEL 4
REMARK VINA RESULT:    -4.649      2.734      7.762
REMARK INTER + INTRA:          -5.728
REMARK INTER:                  -5.448
REMARK INTRA:                  -0.280
REMARK UNBOUND:                -0.264
REMARK SMILES O=c1cc(-c2ccc(O)c(O)c2)oc2cc(O)cc(O)c12
REMARK SMILES IDX 4 1 3 2 2 3 1 4 21 5 19 6 18 7 16 8 15 9 14 10 13 11 5 12
REMARK SMILES IDX 6 13 7 14 8 15 12 16 10 17 9 18 11 20 20 22 17 24
REMARK H PARENT 9 19 11 21 20 23 17 25
REMARK Flexibility Score: inf
ROOT
ATOM      1  C   UNL     1     -49.224 -49.251  70.920  1.00  0.00     0.138 A 
ATOM      2  C   UNL     1     -48.690 -50.505  70.592  1.00  0.00     0.100 A 
ATOM      3  C   UNL     1     -47.314 -50.642  70.409  1.00  0.00     0.197 A 
ATOM      4  O   UNL     1     -46.871 -51.766  70.053  1.00  0.00    -0.289 OA
ATOM      5  C   UNL     1     -46.465 -49.524  70.587  1.00  0.00     0.107 A 
ATOM      6  C   UNL     1     -45.043 -49.555  70.467  1.00  0.00     0.134 A 
ATOM      7  C   UNL     1     -44.318 -48.360  70.551  1.00  0.00     0.093 A 
ATOM      8  C   UNL     1     -44.957 -47.146  70.810  1.00  0.00     0.123 A 
ATOM      9  C   UNL     1     -46.339 -47.113  70.982  1.00  0.00     0.094 A 
ATOM     10  C   UNL     1     -47.095 -48.282  70.871  1.00  0.00     0.146 A 
ATOM     11  O   UNL     1     -48.412 -48.205  71.027  1.00  0.00    -0.456 OA
ENDROOT
BRANCH   1  12
ATOM     12  C   UNL     1     -50.681 -49.049  71.127  1.00  0.00     0.021 A 
ATOM     13  C   UNL     1     -51.577 -49.372  70.094  1.00  0.00     0.016 A 
ATOM     14  C   UNL     1     -52.951 -49.185  70.261  1.00  0.00     0.051 A 
ATOM     15  C   UNL     1     -53.454 -48.663  71.455  1.00  0.00     0.157 A 
ATOM     16  C   UNL     1     -51.191 -48.511  72.325  1.00  0.00     0.062 A 
ATOM     17  C   UNL     1     -52.571 -48.321  72.492  1.00  0.00     0.158 A 
BRANCH  15  18
ATOM     18  O   UNL     1     -54.831 -48.488  71.594  1.00  0.00    -0.504 OA
ATOM     19  H   UNL     1     -55.463 -48.550  70.805  1.00  0.00     0.293 HD
ENDBRANCH  15  18
BRANCH  17  20
ATOM     20  O   UNL     1     -53.065 -47.789  73.682  1.00  0.00    -0.504 OA
ATOM     21  H   UNL     1     -53.242 -46.797  73.788  1.00  0.00     0.293 HD
ENDBRANCH  17  20
ENDBRANCH   1  12
BRANCH   6  22
ATOM     22  O   UNL     1     -44.300 -50.726  70.292  1.00  0.00    -0.507 OA
ATOM     23  H   UNL     1     -44.413 -51.567  70.836  1.00  0.00     0.293 HD
ENDBRANCH   6  22
BRANCH   8  24
ATOM     24  O   UNL     1     -44.224 -45.964  70.907  1.00  0.00    -0.508 OA
ATOM     25  H   UNL     1     -44.051 -45.519  71.801  1.00  0.00     0.293 HD
ENDBRANCH   8  24
TORSDOF 5
ENDMDL
MODEL 5
REMARK VINA RESULT:    -4.640      1.701      7.049
REMARK INTER + INTRA:          -5.718
REMARK INTER:                  -5.447
REMARK INTRA:                  -0.271
REMARK UNBOUND:                -0.264
REMARK SMILES O=c1cc(-c2ccc(O)c(O)c2)oc2cc(O)cc(O)c12
REMARK SMILES IDX 4 1 3 2 2 3 1 4 21 5 19 6 18 7 16 8 15 9 14 10 13 11 5 12
REMARK SMILES IDX 6 13 7 14 8 15 12 16 10 17 9 18 11 20 20 22 17 24
REMARK H PARENT 9 19 11 21 20 23 17 25
REMARK Flexibility Score: inf
ROOT
ATOM      1  C   UNL     1     -44.579 -46.437  71.381  1.00  0.00     0.138 A 
ATOM      2  C   UNL     1     -43.796 -45.815  70.399  1.00  0.00     0.100 A 
ATOM      3  C   UNL     1     -42.955 -44.759  70.753  1.00  0.00     0.197 A 
ATOM      4  O   UNL     1     -42.312 -44.180  69.840  1.00  0.00    -0.289 OA
ATOM      5  C   UNL     1     -42.877 -44.345  72.104  1.00  0.00     0.107 A 
ATOM      6  C   UNL     1     -42.025 -43.307  72.588  1.00  0.00     0.134 A 
ATOM      7  C   UNL     1     -42.118 -42.907  73.927  1.00  0.00     0.093 A 
ATOM      8  C   UNL     1     -42.988 -43.546  74.812  1.00  0.00     0.123 A 
ATOM      9  C   UNL     1     -43.786 -44.596  74.362  1.00  0.00     0.094 A 
ATOM     10  C   UNL     1     -43.741 -44.997  73.024  1.00  0.00     0.146 A 
ATOM     11  O   UNL     1     -44.528 -45.993  72.633  1.00  0.00    -0.456 OA
ENDROOT
BRANCH   1  12
ATOM     12  C   UNL     1     -45.490 -47.566  71.060  1.00  0.00     0.021 A 
ATOM     13  C   UNL     1     -44.947 -48.796  70.651  1.00  0.00     0.016 A 
ATOM     14  C   UNL     1     -45.782 -49.871  70.336  1.00  0.00     0.051 A 
ATOM     15  C   UNL     1     -47.170 -49.735  70.414  1.00  0.00     0.157 A 
ATOM     16  C   UNL     1     -46.890 -47.429  71.124  1.00  0.00     0.062 A 
ATOM     17  C   UNL     1     -47.729 -48.508  70.806  1.00  0.00     0.158 A 
BRANCH  15  18
ATOM     18  O   UNL     1     -47.978 -50.826  70.094  1.00  0.00    -0.504 OA
ATOM     19  H   UNL     1     -48.503 -51.331  70.798  1.00  0.00     0.293 HD
ENDBRANCH  15  18
BRANCH  17  20
ATOM     20  O   UNL     1     -49.113 -48.361  70.874  1.00  0.00    -0.504 OA
ATOM     21  H   UNL     1     -49.546 -47.685  71.492  1.00  0.00     0.293 HD
ENDBRANCH  17  20
ENDBRANCH   1  12
BRANCH   6  22
ATOM     22  O   UNL     1     -41.060 -42.661  71.808  1.00  0.00    -0.507 OA
ATOM     23  H   UNL     1     -41.256 -42.124  70.978  1.00  0.00     0.293 HD
ENDBRANCH   6  22
BRANCH   8  24
ATOM     24  O   UNL     1     -43.063 -43.150  76.145  1.00  0.00    -0.508 OA
ATOM     25  H   UNL     1     -42.296 -42.668  76.599  1.00  0.00     0.293 HD
ENDBRANCH   8  24
TORSDOF 5
ENDMDL
MODEL 6
REMARK VINA RESULT:    -4.622      1.499      3.204
REMARK INTER + INTRA:          -5.697
REMARK INTER:                  -5.430
REMARK INTRA:                  -0.266
REMARK UNBOUND:                -0.264
REMARK SMILES O=c1cc(-c2ccc(O)c(O)c2)oc2cc(O)cc(O)c12
REMARK SMILES IDX 4 1 3 2 2 3 1 4 21 5 19 6 18 7 16 8 15 9 14 10 13 11 5 12
REMARK SMILES IDX 6 13 7 14 8 15 12 16 10 17 9 18 11 20 20 22 17 24
REMARK H PARENT 9 19 11 21 20 23 17 25
REMARK Flexibility Score: inf
ROOT
ATOM      1  C   UNL     1     -44.990 -47.158  71.019  1.00  0.00     0.138 A 
ATOM      2  C   UNL     1     -46.373 -46.949  71.114  1.00  0.00     0.100 A 
ATOM      3  C   UNL     1     -47.246 -48.020  70.921  1.00  0.00     0.197 A 
ATOM      4  O   UNL     1     -48.483 -47.790  70.950  1.00  0.00    -0.289 OA
ATOM      5  C   UNL     1     -46.730 -49.312  70.662  1.00  0.00     0.107 A 
ATOM      6  C   UNL     1     -47.524 -50.485  70.489  1.00  0.00     0.134 A 
ATOM      7  C   UNL     1     -46.907 -51.688  70.122  1.00  0.00     0.093 A 
ATOM      8  C   UNL     1     -45.520 -51.773  69.981  1.00  0.00     0.123 A 
ATOM      9  C   UNL     1     -44.731 -50.646  70.200  1.00  0.00     0.094 A 
ATOM     10  C   UNL     1     -45.319 -49.423  70.534  1.00  0.00     0.146 A 
ATOM     11  O   UNL     1     -44.532 -48.369  70.720  1.00  0.00    -0.456 OA
ENDROOT
BRANCH   1  12
ATOM     12  C   UNL     1     -44.015 -46.054  71.216  1.00  0.00     0.021 A 
ATOM     13  C   UNL     1     -43.447 -45.426  70.096  1.00  0.00     0.016 A 
ATOM     14  C   UNL     1     -42.523 -44.390  70.254  1.00  0.00     0.051 A 
ATOM     15  C   UNL     1     -42.142 -43.971  71.532  1.00  0.00     0.157 A 
ATOM     16  C   UNL     1     -43.619 -45.638  72.502  1.00  0.00     0.062 A 
ATOM     17  C   UNL     1     -42.689 -44.599  72.662  1.00  0.00     0.158 A 
BRANCH  15  18
ATOM     18  O   UNL     1     -41.219 -42.934  71.659  1.00  0.00    -0.504 OA
ATOM     19  H   UNL     1     -41.270 -42.257  72.410  1.00  0.00     0.293 HD
ENDBRANCH  15  18
BRANCH  17  20
ATOM     20  O   UNL     1     -42.306 -44.194  73.940  1.00  0.00    -0.504 OA
ATOM     21  H   UNL     1     -41.854 -44.831  74.586  1.00  0.00     0.293 HD
ENDBRANCH  17  20
ENDBRANCH   1  12
BRANCH   6  22
ATOM     22  O   UNL     1     -48.907 -50.529  70.689  1.00  0.00    -0.507 OA
ATOM     23  H   UNL     1     -49.540 -51.142  70.200  1.00  0.00     0.293 HD
ENDBRANCH   6  22
BRANCH   8  24
ATOM     24  O   UNL     1     -44.914 -52.977  69.630  1.00  0.00    -0.508 OA
ATOM     25  H   UNL     1     -43.950 -53.175  69.870  1.00  0.00     0.293 HD
ENDBRANCH   8  24
TORSDOF 5
ENDMDL
MODEL 7
REMARK VINA RESULT:    -4.563      3.080      5.997
REMARK INTER + INTRA:          -5.627
REMARK INTER:                  -5.354
REMARK INTRA:                  -0.273
REMARK UNBOUND:                -0.264
REMARK SMILES O=c1cc(-c2ccc(O)c(O)c2)oc2cc(O)cc(O)c12
REMARK SMILES IDX 4 1 3 2 2 3 1 4 21 5 19 6 18 7 16 8 15 9 14 10 13 11 5 12
REMARK SMILES IDX 6 13 7 14 8 15 12 16 10 17 9 18 11 20 20 22 17 24
REMARK H PARENT 9 19 11 21 20 23 17 25
REMARK Flexibility Score: inf
ROOT
ATOM      1  C   UNL     1     -48.839 -48.769  70.714  1.00  0.00     0.138 A 
ATOM      2  C   UNL     1     -49.432 -49.414  69.619  1.00  0.00     0.100 A 
ATOM      3  C   UNL     1     -50.809 -49.638  69.613  1.00  0.00     0.197 A 
ATOM      4  O   UNL     1     -51.304 -50.274  68.647  1.00  0.00    -0.289 OA
ATOM      5  C   UNL     1     -51.601 -49.185  70.696  1.00  0.00     0.107 A 
ATOM      6  C   UNL     1     -53.019 -49.321  70.779  1.00  0.00     0.134 A 
ATOM      7  C   UNL     1     -53.681 -48.938  71.953  1.00  0.00     0.093 A 
ATOM      8  C   UNL     1     -52.984 -48.369  73.021  1.00  0.00     0.123 A 
ATOM      9  C   UNL     1     -51.606 -48.183  72.928  1.00  0.00     0.094 A 
ATOM     10  C   UNL     1     -50.912 -48.585  71.784  1.00  0.00     0.146 A 
ATOM     11  O   UNL     1     -49.596 -48.403  71.742  1.00  0.00    -0.456 OA
ENDROOT
BRANCH   1  12
ATOM     12  C   UNL     1     -47.379 -48.505  70.771  1.00  0.00     0.021 A 
ATOM     13  C   UNL     1     -46.922 -47.206  71.050  1.00  0.00     0.016 A 
ATOM     14  C   UNL     1     -45.554 -46.929  71.102  1.00  0.00     0.051 A 
ATOM     15  C   UNL     1     -44.618 -47.940  70.868  1.00  0.00     0.157 A 
ATOM     16  C   UNL     1     -46.433 -49.518  70.521  1.00  0.00     0.062 A 
ATOM     17  C   UNL     1     -45.058 -49.241  70.573  1.00  0.00     0.158 A 
BRANCH  15  18
ATOM     18  O   UNL     1     -43.259 -47.635  70.928  1.00  0.00    -0.504 OA
ATOM     19  H   UNL     1     -42.567 -48.154  70.402  1.00  0.00     0.293 HD
ENDBRANCH  15  18
BRANCH  17  20
ATOM     20  O   UNL     1     -44.131 -50.252  70.326  1.00  0.00    -0.504 OA
ATOM     21  H   UNL     1     -43.473 -50.554  71.035  1.00  0.00     0.293 HD
ENDBRANCH  17  20
ENDBRANCH   1  12
BRANCH   6  22
ATOM     22  O   UNL     1     -53.820 -49.798  69.738  1.00  0.00    -0.507 OA
ATOM     23  H   UNL     1     -53.473 -50.182  68.873  1.00  0.00     0.293 HD
ENDBRANCH   6  22
BRANCH   8  24
ATOM     24  O   UNL     1     -53.653 -47.978  74.178  1.00  0.00    -0.508 OA
ATOM     25  H   UNL     1     -54.581 -48.320  74.395  1.00  0.00     0.293 HD
ENDBRANCH   8  24
TORSDOF 5
ENDMDL
MODEL 8
REMARK VINA RESULT:    -4.558      2.732      4.570
REMARK INTER + INTRA:          -5.621
REMARK INTER:                  -5.350
REMARK INTRA:                  -0.271
REMARK UNBOUND:                -0.264
REMARK SMILES O=c1cc(-c2ccc(O)c(O)c2)oc2cc(O)cc(O)c12
REMARK SMILES IDX 4 1 3 2 2 3 1 4 21 5 19 6 18 7 16 8 15 9 14 10 13 11 5 12
REMARK SMILES IDX 6 13 7 14 8 15 12 16 10 17 9 18 11 20 20 22 17 24
REMARK H PARENT 9 19 11 21 20 23 17 25
REMARK Flexibility Score: inf
ROOT
ATOM      1  C   UNL     1     -46.899 -48.304  70.044  1.00  0.00     0.138 A 
ATOM      2  C   UNL     1     -47.671 -49.265  70.712  1.00  0.00     0.100 A 
ATOM      3  C   UNL     1     -48.972 -49.524  70.282  1.00  0.00     0.197 A 
ATOM      4  O   UNL     1     -49.662 -50.346  70.940  1.00  0.00    -0.289 OA
ATOM      5  C   UNL     1     -49.492 -48.841  69.157  1.00  0.00     0.107 A 
ATOM      6  C   UNL     1     -50.790 -49.054  68.605  1.00  0.00     0.134 A 
ATOM      7  C   UNL     1     -51.238 -48.235  67.560  1.00  0.00     0.093 A 
ATOM      8  C   UNL     1     -50.413 -47.252  67.010  1.00  0.00     0.123 A 
ATOM      9  C   UNL     1     -49.124 -47.072  67.507  1.00  0.00     0.094 A 
ATOM     10  C   UNL     1     -48.659 -47.850  68.570  1.00  0.00     0.146 A 
ATOM     11  O   UNL     1     -47.429 -47.636  69.024  1.00  0.00    -0.456 OA
ENDROOT
BRANCH   1  12
ATOM     12  C   UNL     1     -45.508 -47.989  70.458  1.00  0.00     0.021 A 
ATOM     13  C   UNL     1     -44.486 -48.923  70.216  1.00  0.00     0.016 A 
ATOM     14  C   UNL     1     -43.171 -48.654  70.603  1.00  0.00     0.051 A 
ATOM     15  C   UNL     1     -42.854 -47.454  71.246  1.00  0.00     0.157 A 
ATOM     16  C   UNL     1     -45.186 -46.787  71.119  1.00  0.00     0.062 A 
ATOM     17  C   UNL     1     -43.866 -46.517  71.509  1.00  0.00     0.158 A 
BRANCH  15  18
ATOM     18  O   UNL     1     -41.532 -47.213  71.619  1.00  0.00    -0.504 OA
ATOM     19  H   UNL     1     -41.257 -46.373  72.113  1.00  0.00     0.293 HD
ENDBRANCH  15  18
BRANCH  17  20
ATOM     20  O   UNL     1     -43.559 -45.324  72.161  1.00  0.00    -0.504 OA
ATOM     21  H   UNL     1     -42.680 -45.196  72.649  1.00  0.00     0.293 HD
ENDBRANCH  17  20
ENDBRANCH   1  12
BRANCH   6  22
ATOM     22  O   UNL     1     -51.662 -50.064  69.024  1.00  0.00    -0.507 OA
ATOM     23  H   UNL     1     -51.439 -51.047  69.040  1.00  0.00     0.293 HD
ENDBRANCH   6  22
BRANCH   8  24
ATOM     24  O   UNL     1     -50.862 -46.453  65.961  1.00  0.00    -0.508 OA
ATOM     25  H   UNL     1     -51.833 -46.172  65.886  1.00  0.00     0.293 HD
ENDBRANCH   8  24
TORSDOF 5
ENDMDL
MODEL 9
REMARK VINA RESULT:    -4.476      2.327      2.818
REMARK INTER + INTRA:          -5.525
REMARK INTER:                  -5.208
REMARK INTRA:                  -0.317
REMARK UNBOUND:                -0.264
REMARK SMILES O=c1cc(-c2ccc(O)c(O)c2)oc2cc(O)cc(O)c12
REMARK SMILES IDX 4 1 3 2 2 3 1 4 21 5 19 6 18 7 16 8 15 9 14 10 13 11 5 12
REMARK SMILES IDX 6 13 7 14 8 15 12 16 10 17 9 18 11 20 20 22 17 24
REMARK H PARENT 9 19 11 21 20 23 17 25
REMARK Flexibility Score: inf
ROOT
ATOM      1  C   UNL     1     -44.320 -46.435  71.594  1.00  0.00     0.138 A 
ATOM      2  C   UNL     1     -43.579 -46.952  70.521  1.00  0.00     0.100 A 
ATOM      3  C   UNL     1     -44.213 -47.746  69.565  1.00  0.00     0.197 A 
ATOM      4  O   UNL     1     -43.510 -48.247  68.649  1.00  0.00    -0.289 OA
ATOM      5  C   UNL     1     -45.602 -47.999  69.668  1.00  0.00     0.107 A 
ATOM      6  C   UNL     1     -46.360 -48.761  68.730  1.00  0.00     0.134 A 
ATOM      7  C   UNL     1     -47.706 -49.041  68.998  1.00  0.00     0.093 A 
ATOM      8  C   UNL     1     -48.335 -48.537  70.138  1.00  0.00     0.123 A 
ATOM      9  C   UNL     1     -47.616 -47.747  71.033  1.00  0.00     0.094 A 
ATOM     10  C   UNL     1     -46.263 -47.478  70.812  1.00  0.00     0.146 A 
ATOM     11  O   UNL     1     -45.611 -46.733  71.698  1.00  0.00    -0.456 OA
ENDROOT
BRANCH   1  12
ATOM     12  C   UNL     1     -43.696 -45.583  72.639  1.00  0.00     0.021 A 
ATOM     13  C   UNL     1     -42.367 -45.158  72.481  1.00  0.00     0.016 A 
ATOM     14  C   UNL     1     -41.755 -44.362  73.452  1.00  0.00     0.051 A 
ATOM     15  C   UNL     1     -42.455 -43.985  74.601  1.00  0.00     0.157 A 
ATOM     16  C   UNL     1     -44.394 -45.212  73.805  1.00  0.00     0.062 A 
ATOM     17  C   UNL     1     -43.780 -44.414  74.782  1.00  0.00     0.158 A 
BRANCH  15  18
ATOM     18  O   UNL     1     -41.819 -43.189  75.553  1.00  0.00    -0.504 OA
ATOM     19  H   UNL     1     -41.858 -42.177  75.523  1.00  0.00     0.293 HD
ENDBRANCH  15  18
BRANCH  17  20
ATOM     20  O   UNL     1     -44.480 -44.051  75.931  1.00  0.00    -0.504 OA
ATOM     21  H   UNL     1     -45.465 -43.813  75.900  1.00  0.00     0.293 HD
ENDBRANCH  17  20
ENDBRANCH   1  12
BRANCH   6  22
ATOM     22  O   UNL     1     -45.852 -49.239  67.518  1.00  0.00    -0.507 OA
ATOM     23  H   UNL     1     -45.315 -48.693  66.863  1.00  0.00     0.293 HD
ENDBRANCH   6  22
BRANCH   8  24
ATOM     24  O   UNL     1     -49.678 -48.809  70.388  1.00  0.00    -0.508 OA
ATOM     25  H   UNL     1     -50.339 -48.070  70.597  1.00  0.00     0.293 HD
ENDBRANCH   8  24
TORSDOF 5
ENDMDL
