MODEL 1
REMARK VINA RESULT:    -2.788      0.000      0.000
REMARK INTER + INTRA:          -2.788
REMARK INTER:                  -2.788
REMARK INTRA:                   0.000
REMARK UNBOUND:                 0.000
REMARK SMILES CC(=O)[O-]
REMARK SMILES IDX 1 1 2 2 3 3 4 4
REMARK H PARENT
REMARK Flexibility Score: inf
ROOT
ATOM      1  C   UNL     1      38.247   3.383  21.103  1.00  0.00     0.063 C 
ATOM      2  C   UNL     1      37.502   4.552  20.553  1.00  0.00     0.038 C 
ATOM      3  O   UNL     1      37.998   5.234  19.618  1.00  0.00    -0.550 OA
ATOM      4  O   UNL     1      36.237   4.861  21.035  1.00  0.00    -0.550 OA
ENDROOT
TORSDOF 0
ENDMDL
MODEL 2
REMARK VINA RESULT:    -2.636      1.513      1.791
REMARK INTER + INTRA:          -2.636
REMARK INTER:                  -2.636
REMARK INTRA:                   0.000
REMARK UNBOUND:                 0.000
REMARK SMILES CC(=O)[O-]
REMARK SMILES IDX 1 1 2 2 3 3 4 4
REMARK H PARENT
REMARK Flexibility Score: inf
ROOT
ATOM      1  C   UNL     1      36.046   4.400  20.887  1.00  0.00     0.063 C 
ATOM      2  C   UNL     1      37.522   4.268  20.714  1.00  0.00     0.038 C 
ATOM      3  O   UNL     1      38.153   5.106  20.019  1.00  0.00    -0.550 OA
ATOM      4  O   UNL     1      38.211   3.252  21.363  1.00  0.00    -0.550 OA
ENDROOT
TORSDOF 0
ENDMDL
MODEL 3
REMARK VINA RESULT:    -2.315      2.119      2.849
REMARK INTER + INTRA:          -2.315
REMARK INTER:                  -2.315
REMARK INTRA:                   0.000
REMARK UNBOUND:                 0.000
REMARK SMILES CC(=O)[O-]
REMARK SMILES IDX 1 1 2 2 3 3 4 4
REMARK H PARENT
REMARK Flexibility Score: inf
ROOT
ATOM      1  C   UNL     1      34.193   4.221  20.267  1.00  0.00     0.063 C 
ATOM      2  C   UNL     1      35.626   4.297  20.675  1.00  0.00     0.038 C 
ATOM      3  O   UNL     1      36.121   3.406  21.413  1.00  0.00    -0.550 OA
ATOM      4  O   UNL     1      36.432   5.322  20.198  1.00  0.00    -0.550 OA
ENDROOT
TORSDOF 0
ENDMDL
MODEL 4
REMARK VINA RESULT:    -2.243     17.201     17.655
REMARK INTER + INTRA:          -2.243
REMARK INTER:                  -2.243
REMARK INTRA:                   0.000
REMARK UNBOUND:                 0.000
REMARK SMILES CC(=O)[O-]
REMARK SMILES IDX 1 1 2 2 3 3 4 4
REMARK H PARENT
REMARK Flexibility Score: inf
ROOT
ATOM      1  C   UNL     1      33.973  20.141  13.317  1.00  0.00     0.063 C 
ATOM      2  C   UNL     1      32.537  19.841  13.589  1.00  0.00     0.038 C 
ATOM      3  O   UNL     1      32.172  18.659  13.823  1.00  0.00    -0.550 OA
ATOM      4  O   UNL     1      31.608  20.871  13.639  1.00  0.00    -0.550 OA
ENDROOT
TORSDOF 0
ENDMDL
MODEL 5
REMARK VINA RESULT:    -2.236     17.168     17.620
REMARK INTER + INTRA:          -2.236
REMARK INTER:                  -2.236
REMARK INTRA:                   0.000
REMARK UNBOUND:                 0.000
REMARK SMILES CC(=O)[O-]
REMARK SMILES IDX 1 1 2 2 3 3 4 4
REMARK H PARENT
REMARK Flexibility Score: inf
ROOT
ATOM      1  C   UNL     1      34.001  20.165  13.344  1.00  0.00     0.063 C 
ATOM      2  C   UNL     1      32.565  19.881  13.632  1.00  0.00     0.038 C 
ATOM      3  O   UNL     1      31.730  20.823  13.664  1.00  0.00    -0.550 OA
ATOM      4  O   UNL     1      32.136  18.574  13.813  1.00  0.00    -0.550 OA
ENDROOT
TORSDOF 0
ENDMDL
MODEL 6
REMARK VINA RESULT:    -2.203     17.555     17.811
REMARK INTER + INTRA:          -2.203
REMARK INTER:                  -2.203
REMARK INTRA:                   0.000
REMARK UNBOUND:                 0.000
REMARK SMILES CC(=O)[O-]
REMARK SMILES IDX 1 1 2 2 3 3 4 4
REMARK H PARENT
REMARK Flexibility Score: inf
ROOT
ATOM      1  C   UNL     1      32.241  19.164  13.627  1.00  0.00     0.063 C 
ATOM      2  C   UNL     1      33.318  20.083  13.156  1.00  0.00     0.038 C 
ATOM      3  O   UNL     1      33.908  20.836  13.974  1.00  0.00    -0.550 OA
ATOM      4  O   UNL     1      33.710  20.071  11.824  1.00  0.00    -0.550 OA
ENDROOT
TORSDOF 0
ENDMDL
MODEL 7
REMARK VINA RESULT:    -2.116      8.274      8.687
REMARK INTER + INTRA:          -2.116
REMARK INTER:                  -2.116
REMARK INTRA:                   0.000
REMARK UNBOUND:                 0.000
REMARK SMILES CC(=O)[O-]
REMARK SMILES IDX 1 1 2 2 3 3 4 4
REMARK H PARENT
REMARK Flexibility Score: inf
ROOT
ATOM      1  C   UNL     1      31.264   6.266  14.335  1.00  0.00     0.063 C 
ATOM      2  C   UNL     1      31.663   4.854  14.601  1.00  0.00     0.038 C 
ATOM      3  O   UNL     1      31.961   4.491  15.769  1.00  0.00    -0.550 OA
ATOM      4  O   UNL     1      31.656   3.923  13.571  1.00  0.00    -0.550 OA
ENDROOT
TORSDOF 0
ENDMDL
MODEL 8
REMARK VINA RESULT:    -2.083     17.722     17.980
REMARK INTER + INTRA:          -2.083
REMARK INTER:                  -2.083
REMARK INTRA:                   0.000
REMARK UNBOUND:                 0.000
REMARK SMILES CC(=O)[O-]
REMARK SMILES IDX 1 1 2 2 3 3 4 4
REMARK H PARENT
REMARK Flexibility Score: inf
ROOT
ATOM      1  C   UNL     1      32.240  19.227  13.621  1.00  0.00     0.063 C 
ATOM      2  C   UNL     1      32.214  19.495  12.154  1.00  0.00     0.038 C 
ATOM      3  O   UNL     1      33.151  20.139  11.613  1.00  0.00    -0.550 OA
ATOM      4  O   UNL     1      31.185  18.989  11.372  1.00  0.00    -0.550 OA
ENDROOT
TORSDOF 0
ENDMDL
MODEL 9
REMARK VINA RESULT:    -2.051      9.911     10.262
REMARK INTER + INTRA:          -2.051
REMARK INTER:                  -2.051
REMARK INTRA:                   0.000
REMARK UNBOUND:                 0.000
REMARK SMILES CC(=O)[O-]
REMARK SMILES IDX 1 1 2 2 3 3 4 4
REMARK H PARENT
REMARK Flexibility Score: inf
ROOT
ATOM      1  C   UNL     1      31.401   6.221  14.364  1.00  0.00     0.063 C 
ATOM      2  C   UNL     1      30.176   5.802  13.623  1.00  0.00     0.038 C 
ATOM      3  O   UNL     1      29.915   4.579  13.474  1.00  0.00    -0.550 OA
ATOM      4  O   UNL     1      29.293   6.758  13.140  1.00  0.00    -0.550 OA
ENDROOT
TORSDOF 0
ENDMDL
