MODEL 1
REMARK VINA RESULT:    -3.712      0.000      0.000
REMARK INTER + INTRA:          -5.509
REMARK INTER:                  -5.231
REMARK INTRA:                  -0.278
REMARK UNBOUND:                -0.278
REMARK SMILES CCCCCCCCC(=O)[O-]
REMARK SMILES IDX 6 1 7 2 8 3 9 4 10 5 11 6 5 7 4 8 3 9 2 10 1 11
REMARK H PARENT
REMARK Flexibility Score: inf
ROOT
ATOM      1  C   UNL     1      -0.246   3.631   6.624  1.00  0.00     0.000 C 
ENDROOT
BRANCH   1   2
ATOM      2  C   UNL     1      -0.162   3.067   5.200  1.00  0.00     0.006 C 
BRANCH   2   3
ATOM      3  C   UNL     1       0.609   4.015   4.278  1.00  0.00     0.053 C 
BRANCH   3   4
ATOM      4  C   UNL     1      -0.020   4.053   2.921  1.00  0.00     0.041 C 
ATOM      5  O   UNL     1       0.394   4.867   2.054  1.00  0.00    -0.550 OA
ATOM      6  O   UNL     1      -1.096   3.225   2.630  1.00  0.00    -0.550 OA
ENDBRANCH   3   4
ENDBRANCH   2   3
ENDBRANCH   1   2
BRANCH   1   7
ATOM      7  C   UNL     1      -0.553   2.523   7.638  1.00  0.00     0.000 C 
BRANCH   7   8
ATOM      8  C   UNL     1      -0.533   1.142   6.965  1.00  0.00    -0.000 C 
BRANCH   8   9
ATOM      9  C   UNL     1      -0.666  -0.010   7.974  1.00  0.00    -0.000 C 
BRANCH   9  10
ATOM     10  C   UNL     1      -1.993   0.031   8.746  1.00  0.00    -0.003 C 
ATOM     11  C   UNL     1      -2.524  -1.377   8.998  1.00  0.00     0.004 C 
ENDBRANCH   9  10
ENDBRANCH   8   9
ENDBRANCH   7   8
ENDBRANCH   1   7
TORSDOF 7
ENDMDL
MODEL 2
REMARK VINA RESULT:    -3.710      5.609      7.934
REMARK INTER + INTRA:          -5.506
REMARK INTER:                  -5.221
REMARK INTRA:                  -0.284
REMARK UNBOUND:                -0.278
REMARK SMILES CCCCCCCCC(=O)[O-]
REMARK SMILES IDX 6 1 7 2 8 3 9 4 10 5 11 6 5 7 4 8 3 9 2 10 1 11
REMARK H PARENT
REMARK Flexibility Score: inf
ROOT
ATOM      1  C   UNL     1       0.219   8.235  -0.346  1.00  0.00     0.000 C 
ENDROOT
BRANCH   1   2
ATOM      2  C   UNL     1      -0.018   7.750  -1.782  1.00  0.00     0.006 C 
BRANCH   2   3
ATOM      3  C   UNL     1       1.077   6.773  -2.219  1.00  0.00     0.053 C 
BRANCH   3   4
ATOM      4  C   UNL     1       1.721   7.241  -3.486  1.00  0.00     0.041 C 
ATOM      5  O   UNL     1       1.557   8.426  -3.879  1.00  0.00    -0.550 OA
ATOM      6  O   UNL     1       2.460   6.354  -4.258  1.00  0.00    -0.550 OA
ENDBRANCH   3   4
ENDBRANCH   2   3
ENDBRANCH   1   2
BRANCH   1   7
ATOM      7  C   UNL     1       1.108   7.254   0.428  1.00  0.00     0.000 C 
BRANCH   7   8
ATOM      8  C   UNL     1       0.520   6.958   1.816  1.00  0.00    -0.000 C 
BRANCH   8   9
ATOM      9  C   UNL     1       0.747   5.503   2.257  1.00  0.00    -0.000 C 
BRANCH   9  10
ATOM     10  C   UNL     1      -0.370   4.984   3.175  1.00  0.00    -0.003 C 
ATOM     11  C   UNL     1      -0.819   3.587   2.755  1.00  0.00     0.004 C 
ENDBRANCH   9  10
ENDBRANCH   8   9
ENDBRANCH   7   8
ENDBRANCH   1   7
TORSDOF 7
ENDMDL
MODEL 3
REMARK VINA RESULT:    -3.701      9.685     10.640
REMARK INTER + INTRA:          -5.493
REMARK INTER:                  -5.090
REMARK INTRA:                  -0.403
REMARK UNBOUND:                -0.278
REMARK SMILES CCCCCCCCC(=O)[O-]
REMARK SMILES IDX 6 1 7 2 8 3 9 4 10 5 11 6 5 7 4 8 3 9 2 10 1 11
REMARK H PARENT
REMARK Flexibility Score: inf
ROOT
ATOM      1  C   UNL     1       2.683   6.619  -3.773  1.00  0.00     0.000 C 
ENDROOT
BRANCH   1   2
ATOM      2  C   UNL     1       3.858   7.119  -2.923  1.00  0.00     0.006 C 
BRANCH   2   3
ATOM      3  C   UNL     1       4.755   5.957  -2.489  1.00  0.00     0.053 C 
BRANCH   3   4
ATOM      4  C   UNL     1       5.213   6.148  -1.077  1.00  0.00     0.041 C 
ATOM      5  O   UNL     1       4.371   6.283  -0.151  1.00  0.00    -0.550 OA
ATOM      6  O   UNL     1       6.570   6.226  -0.791  1.00  0.00    -0.550 OA
ENDBRANCH   3   4
ENDBRANCH   2   3
ENDBRANCH   1   2
BRANCH   1   7
ATOM      7  C   UNL     1       1.600   5.982  -2.895  1.00  0.00     0.000 C 
BRANCH   7   8
ATOM      8  C   UNL     1       1.181   6.933  -1.763  1.00  0.00    -0.000 C 
BRANCH   8   9
ATOM      9  C   UNL     1       0.282   8.078  -2.254  1.00  0.00    -0.000 C 
BRANCH   9  10
ATOM     10  C   UNL     1      -0.511   8.736  -1.115  1.00  0.00    -0.003 C 
ATOM     11  C   UNL     1      -1.961   8.976  -1.524  1.00  0.00     0.004 C 
ENDBRANCH   9  10
ENDBRANCH   8   9
ENDBRANCH   7   8
ENDBRANCH   1   7
TORSDOF 7
ENDMDL
MODEL 4
REMARK VINA RESULT:    -3.697      4.494      8.938
REMARK INTER + INTRA:          -5.487
REMARK INTER:                  -5.255
REMARK INTRA:                  -0.233
REMARK UNBOUND:                -0.278
REMARK SMILES CCCCCCCCC(=O)[O-]
REMARK SMILES IDX 6 1 7 2 8 3 9 4 10 5 11 6 5 7 4 8 3 9 2 10 1 11
REMARK H PARENT
REMARK Flexibility Score: inf
ROOT
ATOM      1  C   UNL     1       0.631   7.117   1.299  1.00  0.00     0.000 C 
ENDROOT
BRANCH   1   2
ATOM      2  C   UNL     1       0.933   5.865   2.132  1.00  0.00     0.006 C 
BRANCH   2   3
ATOM      3  C   UNL     1      -0.196   5.581   3.127  1.00  0.00     0.053 C 
BRANCH   3   4
ATOM      4  C   UNL     1      -0.412   4.107   3.268  1.00  0.00     0.041 C 
ATOM      5  O   UNL     1      -0.564   3.389   2.245  1.00  0.00    -0.550 OA
ATOM      6  O   UNL     1      -0.495   3.535   4.530  1.00  0.00    -0.550 OA
ENDBRANCH   3   4
ENDBRANCH   2   3
ENDBRANCH   1   2
BRANCH   1   7
ATOM      7  C   UNL     1       1.252   7.011  -0.099  1.00  0.00     0.000 C 
BRANCH   7   8
ATOM      8  C   UNL     1       0.384   7.733  -1.141  1.00  0.00    -0.000 C 
BRANCH   8   9
ATOM      9  C   UNL     1       0.961   7.634  -2.563  1.00  0.00    -0.000 C 
BRANCH   9  10
ATOM     10  C   UNL     1       1.596   6.265  -2.848  1.00  0.00    -0.003 C 
ATOM     11  C   UNL     1       2.489   6.321  -4.084  1.00  0.00     0.004 C 
ENDBRANCH   9  10
ENDBRANCH   8   9
ENDBRANCH   7   8
ENDBRANCH   1   7
TORSDOF 7
ENDMDL
MODEL 5
REMARK VINA RESULT:    -3.671      4.520      8.496
REMARK INTER + INTRA:          -5.450
REMARK INTER:                  -5.064
REMARK INTRA:                  -0.386
REMARK UNBOUND:                -0.278
REMARK SMILES CCCCCCCCC(=O)[O-]
REMARK SMILES IDX 6 1 7 2 8 3 9 4 10 5 11 6 5 7 4 8 3 9 2 10 1 11
REMARK H PARENT
REMARK Flexibility Score: inf
ROOT
ATOM      1  C   UNL     1       0.253   7.426   1.829  1.00  0.00     0.000 C 
ENDROOT
BRANCH   1   2
ATOM      2  C   UNL     1       0.013   6.462   2.998  1.00  0.00     0.006 C 
BRANCH   2   3
ATOM      3  C   UNL     1       0.722   5.126   2.763  1.00  0.00     0.053 C 
BRANCH   3   4
ATOM      4  C   UNL     1      -0.150   3.988   3.188  1.00  0.00     0.041 C 
ATOM      5  O   UNL     1      -0.708   3.260   2.325  1.00  0.00    -0.550 OA
ATOM      6  O   UNL     1      -0.387   3.760   4.537  1.00  0.00    -0.550 OA
ENDBRANCH   3   4
ENDBRANCH   2   3
ENDBRANCH   1   2
BRANCH   1   7
ATOM      7  C   UNL     1       0.997   6.729   0.684  1.00  0.00     0.000 C 
BRANCH   7   8
ATOM      8  C   UNL     1       1.248   7.700  -0.480  1.00  0.00    -0.000 C 
BRANCH   8   9
ATOM      9  C   UNL     1       0.218   7.548  -1.610  1.00  0.00    -0.000 C 
BRANCH   9  10
ATOM     10  C   UNL     1      -0.494   8.868  -1.942  1.00  0.00    -0.003 C 
ATOM     11  C   UNL     1      -1.924   8.868  -1.410  1.00  0.00     0.004 C 
ENDBRANCH   9  10
ENDBRANCH   8   9
ENDBRANCH   7   8
ENDBRANCH   1   7
TORSDOF 7
ENDMDL
MODEL 6
REMARK VINA RESULT:    -3.619     10.540     11.506
REMARK INTER + INTRA:          -5.377
REMARK INTER:                  -4.946
REMARK INTRA:                  -0.432
REMARK UNBOUND:                -0.278
REMARK SMILES CCCCCCCCC(=O)[O-]
REMARK SMILES IDX 6 1 7 2 8 3 9 4 10 5 11 6 5 7 4 8 3 9 2 10 1 11
REMARK H PARENT
REMARK Flexibility Score: inf
ROOT
ATOM      1  C   UNL     1       1.240   7.568  -3.521  1.00  0.00     0.000 C 
ENDROOT
BRANCH   1   2
ATOM      2  C   UNL     1       2.376   6.537  -3.580  1.00  0.00     0.006 C 
BRANCH   2   3
ATOM      3  C   UNL     1       3.287   6.654  -2.355  1.00  0.00     0.053 C 
BRANCH   3   4
ATOM      4  C   UNL     1       4.674   6.203  -2.690  1.00  0.00     0.041 C 
ATOM      5  O   UNL     1       5.001   5.994  -3.888  1.00  0.00    -0.550 OA
ATOM      6  O   UNL     1       5.591   5.965  -1.674  1.00  0.00    -0.550 OA
ENDBRANCH   3   4
ENDBRANCH   2   3
ENDBRANCH   1   2
BRANCH   1   7
ATOM      7  C   UNL     1       1.710   8.933  -4.037  1.00  0.00     0.000 C 
BRANCH   7   8
ATOM      8  C   UNL     1       0.997  10.075  -3.295  1.00  0.00    -0.000 C 
BRANCH   8   9
ATOM      9  C   UNL     1       0.286   9.598  -2.018  1.00  0.00    -0.000 C 
BRANCH   9  10
ATOM     10  C   UNL     1      -1.173  10.073  -1.942  1.00  0.00    -0.003 C 
ATOM     11  C   UNL     1      -2.093   8.946  -1.484  1.00  0.00     0.004 C 
ENDBRANCH   9  10
ENDBRANCH   8   9
ENDBRANCH   7   8
ENDBRANCH   1   7
TORSDOF 7
ENDMDL
MODEL 7
REMARK VINA RESULT:    -3.602      9.489     10.639
REMARK INTER + INTRA:          -5.354
REMARK INTER:                  -4.837
REMARK INTRA:                  -0.517
REMARK UNBOUND:                -0.278
REMARK SMILES CCCCCCCCC(=O)[O-]
REMARK SMILES IDX 6 1 7 2 8 3 9 4 10 5 11 6 5 7 4 8 3 9 2 10 1 11
REMARK H PARENT
REMARK Flexibility Score: inf
ROOT
ATOM      1  C   UNL     1       1.344   6.365  -2.634  1.00  0.00     0.000 C 
ENDROOT
BRANCH   1   2
ATOM      2  C   UNL     1       0.620   7.127  -1.515  1.00  0.00     0.006 C 
BRANCH   2   3
ATOM      3  C   UNL     1       0.030   8.439  -2.036  1.00  0.00     0.053 C 
BRANCH   3   4
ATOM      4  C   UNL     1      -1.115   8.876  -1.178  1.00  0.00     0.041 C 
ATOM      5  O   UNL     1      -0.960   9.012   0.064  1.00  0.00    -0.550 OA
ATOM      6  O   UNL     1      -2.366   9.086  -1.743  1.00  0.00    -0.550 OA
ENDBRANCH   3   4
ENDBRANCH   2   3
ENDBRANCH   1   2
BRANCH   1   7
ATOM      7  C   UNL     1       2.118   7.328  -3.542  1.00  0.00     0.000 C 
BRANCH   7   8
ATOM      8  C   UNL     1       3.546   7.547  -3.020  1.00  0.00    -0.000 C 
BRANCH   8   9
ATOM      9  C   UNL     1       4.448   6.319  -3.228  1.00  0.00    -0.000 C 
BRANCH   9  10
ATOM     10  C   UNL     1       5.082   5.824  -1.920  1.00  0.00    -0.003 C 
ATOM     11  C   UNL     1       4.495   6.553  -0.715  1.00  0.00     0.004 C 
ENDBRANCH   9  10
ENDBRANCH   8   9
ENDBRANCH   7   8
ENDBRANCH   1   7
TORSDOF 7
ENDMDL
MODEL 8
REMARK VINA RESULT:    -3.601      9.138     10.543
REMARK INTER + INTRA:          -5.352
REMARK INTER:                  -4.803
REMARK INTRA:                  -0.550
REMARK UNBOUND:                -0.278
REMARK SMILES CCCCCCCCC(=O)[O-]
REMARK SMILES IDX 6 1 7 2 8 3 9 4 10 5 11 6 5 7 4 8 3 9 2 10 1 11
REMARK H PARENT
REMARK Flexibility Score: inf
ROOT
ATOM      1  C   UNL     1       2.348   7.840  -0.475  1.00  0.00     0.000 C 
ENDROOT
BRANCH   1   2
ATOM      2  C   UNL     1       3.400   6.919  -1.106  1.00  0.00     0.006 C 
BRANCH   2   3
ATOM      3  C   UNL     1       3.975   7.536  -2.385  1.00  0.00     0.053 C 
BRANCH   3   4
ATOM      4  C   UNL     1       3.929   6.549  -3.509  1.00  0.00     0.041 C 
ATOM      5  O   UNL     1       4.981   5.968  -3.884  1.00  0.00    -0.550 OA
ATOM      6  O   UNL     1       2.734   6.308  -4.174  1.00  0.00    -0.550 OA
ENDBRANCH   3   4
ENDBRANCH   2   3
ENDBRANCH   1   2
BRANCH   1   7
ATOM      7  C   UNL     1       0.962   7.184  -0.490  1.00  0.00     0.000 C 
BRANCH   7   8
ATOM      8  C   UNL     1       0.256   7.422  -1.834  1.00  0.00    -0.000 C 
BRANCH   8   9
ATOM      9  C   UNL     1       0.401   8.869  -2.330  1.00  0.00    -0.000 C 
BRANCH   9  10
ATOM     10  C   UNL     1      -0.746   9.774  -1.856  1.00  0.00    -0.003 C 
ATOM     11  C   UNL     1      -2.004   8.960  -1.569  1.00  0.00     0.004 C 
ENDBRANCH   9  10
ENDBRANCH   8   9
ENDBRANCH   7   8
ENDBRANCH   1   7
TORSDOF 7
ENDMDL
MODEL 9
REMARK VINA RESULT:    -3.586      8.291     10.362
REMARK INTER + INTRA:          -5.331
REMARK INTER:                  -4.797
REMARK INTRA:                  -0.535
REMARK UNBOUND:                -0.278
REMARK SMILES CCCCCCCCC(=O)[O-]
REMARK SMILES IDX 6 1 7 2 8 3 9 4 10 5 11 6 5 7 4 8 3 9 2 10 1 11
REMARK H PARENT
REMARK Flexibility Score: inf
ROOT
ATOM      1  C   UNL     1       1.433   8.639  -3.377  1.00  0.00     0.000 C 
ENDROOT
BRANCH   1   2
ATOM      2  C   UNL     1       1.482   7.117  -3.186  1.00  0.00     0.006 C 
BRANCH   2   3
ATOM      3  C   UNL     1       2.560   6.488  -4.072  1.00  0.00     0.053 C 
BRANCH   3   4
ATOM      4  C   UNL     1       3.828   6.299  -3.301  1.00  0.00     0.041 C 
ATOM      5  O   UNL     1       3.830   6.413  -2.047  1.00  0.00    -0.550 OA
ATOM      6  O   UNL     1       5.018   6.047  -3.971  1.00  0.00    -0.550 OA
ENDBRANCH   3   4
ENDBRANCH   2   3
ENDBRANCH   1   2
BRANCH   1   7
ATOM      7  C   UNL     1       0.339   9.268  -2.506  1.00  0.00     0.000 C 
BRANCH   7   8
ATOM      8  C   UNL     1      -0.307   8.216  -1.591  1.00  0.00    -0.000 C 
BRANCH   8   9
ATOM      9  C   UNL     1      -0.586   8.751  -0.178  1.00  0.00    -0.000 C 
BRANCH   9  10
ATOM     10  C   UNL     1       0.420   8.231   0.860  1.00  0.00    -0.003 C 
ATOM     11  C   UNL     1       1.024   6.902   0.420  1.00  0.00     0.004 C 
ENDBRANCH   9  10
ENDBRANCH   8   9
ENDBRANCH   7   8
ENDBRANCH   1   7
TORSDOF 7
ENDMDL
