MODEL 1
REMARK VINA RESULT:    -3.916      0.000      0.000
REMARK INTER + INTRA:          -5.608
REMARK INTER:                  -5.061
REMARK INTRA:                  -0.548
REMARK UNBOUND:                -0.548
REMARK SMILES C=CC(=O)CCCCC
REMARK SMILES IDX 6 1 7 2 8 3 9 4 5 5 3 6 4 7 2 8 1 9
REMARK H PARENT
REMARK Flexibility Score: inf
ROOT
ATOM      1  C   UNL     1      17.721  -9.721  67.599  1.00  0.00     0.008 C 
ENDROOT
BRANCH   1   2
ATOM      2  C   UNL     1      17.644 -10.470  66.260  1.00  0.00     0.000 C 
BRANCH   2   3
ATOM      3  C   UNL     1      17.440 -11.982  66.440  1.00  0.00    -0.003 C 
ATOM      4  C   UNL     1      18.521 -12.811  65.749  1.00  0.00     0.004 C 
ENDBRANCH   2   3
ENDBRANCH   1   2
BRANCH   1   5
ATOM      5  C   UNL     1      19.179  -9.433  67.985  1.00  0.00     0.080 C 
BRANCH   5   6
ATOM      6  C   UNL     1      19.596 -10.108  69.272  1.00  0.00     0.155 C 
ATOM      7  O   UNL     1      19.609  -9.456  70.352  1.00  0.00    -0.295 OA
BRANCH   6   8
ATOM      8  C   UNL     1      20.000 -11.527  69.313  1.00  0.00     0.039 C 
ATOM      9  C   UNL     1      20.930 -12.053  68.515  1.00  0.00     0.012 C 
ENDBRANCH   6   8
ENDBRANCH   5   6
ENDBRANCH   1   5
TORSDOF 5
ENDMDL
MODEL 2
REMARK VINA RESULT:    -3.767      1.284      1.567
REMARK INTER + INTRA:          -5.416
REMARK INTER:                  -4.972
REMARK INTRA:                  -0.444
REMARK UNBOUND:                -0.548
REMARK SMILES C=CC(=O)CCCCC
REMARK SMILES IDX 6 1 7 2 8 3 9 4 5 5 3 6 4 7 2 8 1 9
REMARK H PARENT
REMARK Flexibility Score: inf
ROOT
ATOM      1  C   UNL     1      17.835 -10.152  67.343  1.00  0.00     0.008 C 
ENDROOT
BRANCH   1   2
ATOM      2  C   UNL     1      18.044 -10.279  65.827  1.00  0.00     0.000 C 
BRANCH   2   3
ATOM      3  C   UNL     1      19.499 -10.605  65.456  1.00  0.00    -0.003 C 
ATOM      4  C   UNL     1      20.079  -9.635  64.428  1.00  0.00     0.004 C 
ENDBRANCH   2   3
ENDBRANCH   1   2
BRANCH   1   5
ATOM      5  C   UNL     1      19.053  -9.500  68.013  1.00  0.00     0.080 C 
BRANCH   5   6
ATOM      6  C   UNL     1      19.494 -10.217  69.269  1.00  0.00     0.155 C 
ATOM      7  O   UNL     1      19.500  -9.609  70.375  1.00  0.00    -0.295 OA
BRANCH   6   8
ATOM      8  C   UNL     1      19.929 -11.628  69.250  1.00  0.00     0.039 C 
ATOM      9  C   UNL     1      20.975 -12.068  68.551  1.00  0.00     0.012 C 
ENDBRANCH   6   8
ENDBRANCH   5   6
ENDBRANCH   1   5
TORSDOF 5
ENDMDL
MODEL 3
REMARK VINA RESULT:    -3.542      1.093      2.301
REMARK INTER + INTRA:          -5.125
REMARK INTER:                  -4.552
REMARK INTRA:                  -0.573
REMARK UNBOUND:                -0.548
REMARK SMILES C=CC(=O)CCCCC
REMARK SMILES IDX 6 1 7 2 8 3 9 4 5 5 3 6 4 7 2 8 1 9
REMARK H PARENT
REMARK Flexibility Score: inf
ROOT
ATOM      1  C   UNL     1      18.034 -12.371  67.831  1.00  0.00     0.008 C 
ENDROOT
BRANCH   1   2
ATOM      2  C   UNL     1      18.373 -12.764  66.385  1.00  0.00     0.000 C 
BRANCH   2   3
ATOM      3  C   UNL     1      17.607 -11.926  65.350  1.00  0.00    -0.003 C 
ATOM      4  C   UNL     1      16.405 -11.200  65.951  1.00  0.00     0.004 C 
ENDBRANCH   2   3
ENDBRANCH   1   2
BRANCH   1   5
ATOM      5  C   UNL     1      19.305 -12.020  68.618  1.00  0.00     0.080 C 
BRANCH   5   6
ATOM      6  C   UNL     1      19.381 -10.561  69.003  1.00  0.00     0.155 C 
ATOM      7  O   UNL     1      19.708 -10.232  70.176  1.00  0.00    -0.295 OA
BRANCH   6   8
ATOM      8  C   UNL     1      19.077  -9.483  68.040  1.00  0.00     0.039 C 
ATOM      9  C   UNL     1      19.777  -9.271  66.925  1.00  0.00     0.012 C 
ENDBRANCH   6   8
ENDBRANCH   5   6
ENDBRANCH   1   5
TORSDOF 5
ENDMDL
MODEL 4
REMARK VINA RESULT:    -3.494      3.229      4.664
REMARK INTER + INTRA:          -5.063
REMARK INTER:                  -4.467
REMARK INTRA:                  -0.596
REMARK UNBOUND:                -0.548
REMARK SMILES C=CC(=O)CCCCC
REMARK SMILES IDX 6 1 7 2 8 3 9 4 5 5 3 6 4 7 2 8 1 9
REMARK H PARENT
REMARK Flexibility Score: inf
ROOT
ATOM      1  C   UNL     1      16.351 -11.144  65.685  1.00  0.00     0.008 C 
ENDROOT
BRANCH   1   2
ATOM      2  C   UNL     1      17.344 -11.167  66.857  1.00  0.00     0.000 C 
BRANCH   2   3
ATOM      3  C   UNL     1      17.584  -9.773  67.456  1.00  0.00    -0.003 C 
ATOM      4  C   UNL     1      19.007  -9.592  67.981  1.00  0.00     0.004 C 
ENDBRANCH   2   3
ENDBRANCH   1   2
BRANCH   1   5
ATOM      5  C   UNL     1      16.731 -10.062  64.664  1.00  0.00     0.080 C 
BRANCH   5   6
ATOM      6  C   UNL     1      17.892 -10.460  63.782  1.00  0.00     0.155 C 
ATOM      7  O   UNL     1      17.760 -11.397  62.948  1.00  0.00    -0.295 OA
BRANCH   6   8
ATOM      8  C   UNL     1      19.201  -9.783  63.864  1.00  0.00     0.039 C 
ATOM      9  C   UNL     1      20.262 -10.299  64.485  1.00  0.00     0.012 C 
ENDBRANCH   6   8
ENDBRANCH   5   6
ENDBRANCH   1   5
TORSDOF 5
ENDMDL
MODEL 5
REMARK VINA RESULT:    -3.432     15.204     16.713
REMARK INTER + INTRA:          -4.983
REMARK INTER:                  -4.791
REMARK INTRA:                  -0.191
REMARK UNBOUND:                -0.548
REMARK SMILES C=CC(=O)CCCCC
REMARK SMILES IDX 6 1 7 2 8 3 9 4 5 5 3 6 4 7 2 8 1 9
REMARK H PARENT
REMARK Flexibility Score: inf
ROOT
ATOM      1  C   UNL     1      20.366   5.582  64.868  1.00  0.00     0.008 C 
ENDROOT
BRANCH   1   2
ATOM      2  C   UNL     1      21.739   6.109  64.424  1.00  0.00     0.000 C 
BRANCH   2   3
ATOM      3  C   UNL     1      22.306   5.340  63.220  1.00  0.00    -0.003 C 
ATOM      4  C   UNL     1      23.707   5.807  62.828  1.00  0.00     0.004 C 
ENDBRANCH   2   3
ENDBRANCH   1   2
BRANCH   1   5
ATOM      5  C   UNL     1      19.376   5.569  63.694  1.00  0.00     0.080 C 
BRANCH   5   6
ATOM      6  C   UNL     1      18.755   4.212  63.456  1.00  0.00     0.155 C 
ATOM      7  O   UNL     1      19.182   3.203  64.082  1.00  0.00    -0.295 OA
BRANCH   6   8
ATOM      8  C   UNL     1      17.648   4.018  62.499  1.00  0.00     0.039 C 
ATOM      9  C   UNL     1      17.327   2.836  61.971  1.00  0.00     0.012 C 
ENDBRANCH   6   8
ENDBRANCH   5   6
ENDBRANCH   1   5
TORSDOF 5
ENDMDL
MODEL 6
REMARK VINA RESULT:    -3.414      1.609      2.420
REMARK INTER + INTRA:          -4.960
REMARK INTER:                  -4.393
REMARK INTRA:                  -0.567
REMARK UNBOUND:                -0.548
REMARK SMILES C=CC(=O)CCCCC
REMARK SMILES IDX 6 1 7 2 8 3 9 4 5 5 3 6 4 7 2 8 1 9
REMARK H PARENT
REMARK Flexibility Score: inf
ROOT
ATOM      1  C   UNL     1      17.158 -11.292  66.899  1.00  0.00     0.008 C 
ENDROOT
BRANCH   1   2
ATOM      2  C   UNL     1      17.009 -11.297  65.371  1.00  0.00     0.000 C 
BRANCH   2   3
ATOM      3  C   UNL     1      16.833  -9.885  64.790  1.00  0.00    -0.003 C 
ATOM      4  C   UNL     1      17.798  -9.595  63.641  1.00  0.00     0.004 C 
ENDBRANCH   2   3
ENDBRANCH   1   2
BRANCH   1   5
ATOM      5  C   UNL     1      17.541  -9.896  67.411  1.00  0.00     0.080 C 
BRANCH   5   6
ATOM      6  C   UNL     1      18.950  -9.829  67.954  1.00  0.00     0.155 C 
ATOM      7  O   UNL     1      19.163  -9.347  69.101  1.00  0.00    -0.295 OA
BRANCH   6   8
ATOM      8  C   UNL     1      20.109 -10.312  67.178  1.00  0.00     0.039 C 
ATOM      9  C   UNL     1      20.638  -9.647  66.150  1.00  0.00     0.012 C 
ENDBRANCH   6   8
ENDBRANCH   5   6
ENDBRANCH   1   5
TORSDOF 5
ENDMDL
MODEL 7
REMARK VINA RESULT:    -3.263      3.618      5.556
REMARK INTER + INTRA:          -4.765
REMARK INTER:                  -4.285
REMARK INTRA:                  -0.480
REMARK UNBOUND:                -0.548
REMARK SMILES C=CC(=O)CCCCC
REMARK SMILES IDX 6 1 7 2 8 3 9 4 5 5 3 6 4 7 2 8 1 9
REMARK H PARENT
REMARK Flexibility Score: inf
ROOT
ATOM      1  C   UNL     1      17.871 -12.085  65.733  1.00  0.00     0.008 C 
ENDROOT
BRANCH   1   2
ATOM      2  C   UNL     1      16.931 -11.456  66.773  1.00  0.00     0.000 C 
BRANCH   2   3
ATOM      3  C   UNL     1      17.297 -10.000  67.096  1.00  0.00    -0.003 C 
ATOM      4  C   UNL     1      18.803  -9.786  67.235  1.00  0.00     0.004 C 
ENDBRANCH   2   3
ENDBRANCH   1   2
BRANCH   1   5
ATOM      5  C   UNL     1      17.078 -12.652  64.546  1.00  0.00     0.080 C 
BRANCH   5   6
ATOM      6  C   UNL     1      17.328 -11.907  63.255  1.00  0.00     0.155 C 
ATOM      7  O   UNL     1      17.307 -12.524  62.155  1.00  0.00    -0.295 OA
BRANCH   6   8
ATOM      8  C   UNL     1      17.604 -10.457  63.232  1.00  0.00     0.039 C 
ATOM      9  C   UNL     1      16.660  -9.528  63.074  1.00  0.00     0.012 C 
ENDBRANCH   6   8
ENDBRANCH   5   6
ENDBRANCH   1   5
TORSDOF 5
ENDMDL
MODEL 8
REMARK VINA RESULT:    -3.248      3.899      5.745
REMARK INTER + INTRA:          -4.745
REMARK INTER:                  -4.209
REMARK INTRA:                  -0.536
REMARK UNBOUND:                -0.548
REMARK SMILES C=CC(=O)CCCCC
REMARK SMILES IDX 6 1 7 2 8 3 9 4 5 5 3 6 4 7 2 8 1 9
REMARK H PARENT
REMARK Flexibility Score: inf
ROOT
ATOM      1  C   UNL     1      18.440 -11.272  64.888  1.00  0.00     0.008 C 
ENDROOT
BRANCH   1   2
ATOM      2  C   UNL     1      18.546 -10.132  65.912  1.00  0.00     0.000 C 
BRANCH   2   3
ATOM      3  C   UNL     1      17.348 -10.087  66.872  1.00  0.00    -0.003 C 
ATOM      4  C   UNL     1      16.649 -11.438  67.009  1.00  0.00     0.004 C 
ENDBRANCH   2   3
ENDBRANCH   1   2
BRANCH   1   5
ATOM      5  C   UNL     1      17.915 -10.755  63.540  1.00  0.00     0.080 C 
BRANCH   5   6
ATOM      6  C   UNL     1      16.890 -11.670  62.912  1.00  0.00     0.155 C 
ATOM      7  O   UNL     1      17.252 -12.549  62.081  1.00  0.00    -0.295 OA
BRANCH   6   8
ATOM      8  C   UNL     1      15.453 -11.572  63.238  1.00  0.00     0.039 C 
ATOM      9  C   UNL     1      14.904 -10.517  63.840  1.00  0.00     0.012 C 
ENDBRANCH   6   8
ENDBRANCH   5   6
ENDBRANCH   1   5
TORSDOF 5
ENDMDL
MODEL 9
REMARK VINA RESULT:    -3.223      2.174      2.787
REMARK INTER + INTRA:          -4.713
REMARK INTER:                  -4.089
REMARK INTRA:                  -0.623
REMARK UNBOUND:                -0.548
REMARK SMILES C=CC(=O)CCCCC
REMARK SMILES IDX 6 1 7 2 8 3 9 4 5 5 3 6 4 7 2 8 1 9
REMARK H PARENT
REMARK Flexibility Score: inf
ROOT
ATOM      1  C   UNL     1      18.367 -11.531  66.012  1.00  0.00     0.008 C 
ENDROOT
BRANCH   1   2
ATOM      2  C   UNL     1      18.597 -10.052  65.668  1.00  0.00     0.000 C 
BRANCH   2   3
ATOM      3  C   UNL     1      20.086  -9.674  65.653  1.00  0.00    -0.003 C 
ATOM      4  C   UNL     1      21.004 -10.891  65.552  1.00  0.00     0.004 C 
ENDBRANCH   2   3
ENDBRANCH   1   2
BRANCH   1   5
ATOM      5  C   UNL     1      17.869 -11.690  67.455  1.00  0.00     0.080 C 
BRANCH   5   6
ATOM      6  C   UNL     1      18.929 -12.220  68.394  1.00  0.00     0.155 C 
ATOM      7  O   UNL     1      19.124 -13.462  68.491  1.00  0.00    -0.295 OA
BRANCH   6   8
ATOM      8  C   UNL     1      19.759 -11.320  69.220  1.00  0.00     0.039 C 
ATOM      9  C   UNL     1      19.534 -10.011  69.340  1.00  0.00     0.012 C 
ENDBRANCH   6   8
ENDBRANCH   5   6
ENDBRANCH   1   5
TORSDOF 5
ENDMDL
