MODEL 1
REMARK VINA RESULT:    14.145      0.000      0.000
REMARK INTER + INTRA:          30.877
REMARK INTER:                  30.684
REMARK INTRA:                   0.193
REMARK UNBOUND:                 0.193
REMARK SMILES CCCCCCCCCCCCCCCCCCCCCC(=O)[O-]
REMARK SMILES IDX 12 1 11 2 10 3 9 4 8 5 7 6 6 7 5 8 4 9 3 10 2 11 1 12 13 13
REMARK SMILES IDX 14 14 15 15 16 16 17 17 18 18 19 19 20 20 21 21 22 22 23 23
REMARK SMILES IDX 24 24
REMARK H PARENT
REMARK Flexibility Score: inf
ROOT
ATOM      1  C   UNL     1     -11.611  18.959 -15.285  1.00  0.00     0.000 C 
ENDROOT
BRANCH   1   2
ATOM      2  C   UNL     1     -12.434  19.875 -14.364  1.00  0.00     0.000 C 
BRANCH   2   3
ATOM      3  C   UNL     1     -12.098  19.672 -12.874  1.00  0.00     0.000 C 
BRANCH   3   4
ATOM      4  C   UNL     1     -12.959  18.579 -12.223  1.00  0.00    -0.000 C 
BRANCH   4   5
ATOM      5  C   UNL     1     -13.381  18.939 -10.788  1.00  0.00    -0.000 C 
BRANCH   5   6
ATOM      6  C   UNL     1     -12.379  18.440  -9.730  1.00  0.00    -0.000 C 
BRANCH   6   7
ATOM      7  C   UNL     1     -13.001  18.033  -8.379  1.00  0.00    -0.000 C 
BRANCH   7   8
ATOM      8  C   UNL     1     -13.981  19.057  -7.778  1.00  0.00    -0.000 C 
BRANCH   8   9
ATOM      9  C   UNL     1     -13.411  19.773  -6.545  1.00  0.00    -0.000 C 
BRANCH   9  10
ATOM     10  C   UNL     1     -12.800  21.129  -6.930  1.00  0.00    -0.000 C 
BRANCH  10  11
ATOM     11  C   UNL     1     -11.549  20.985  -7.811  1.00  0.00    -0.003 C 
ATOM     12  C   UNL     1     -11.467  22.055  -8.900  1.00  0.00     0.004 C 
ENDBRANCH  10  11
ENDBRANCH   9  10
ENDBRANCH   8   9
ENDBRANCH   7   8
ENDBRANCH   6   7
ENDBRANCH   5   6
ENDBRANCH   4   5
ENDBRANCH   3   4
ENDBRANCH   2   3
ENDBRANCH   1   2
BRANCH   1  13
ATOM     13  C   UNL     1     -10.359  19.654 -15.854  1.00  0.00     0.000 C 
BRANCH  13  14
ATOM     14  C   UNL     1     -10.571  20.142 -17.303  1.00  0.00     0.000 C 
BRANCH  14  15
ATOM     15  C   UNL     1     -11.328  19.139 -18.190  1.00  0.00     0.000 C 
BRANCH  15  16
ATOM     16  C   UNL     1     -12.056  19.812 -19.366  1.00  0.00     0.000 C 
BRANCH  16  17
ATOM     17  C   UNL     1     -11.953  18.998 -20.666  1.00  0.00     0.000 C 
BRANCH  17  18
ATOM     18  C   UNL     1     -11.166  19.735 -21.763  1.00  0.00     0.000 C 
BRANCH  18  19
ATOM     19  C   UNL     1     -12.085  20.242 -22.893  1.00  0.00     0.000 C 
BRANCH  19  20
ATOM     20  C   UNL     1     -13.382  19.428 -23.064  1.00  0.00     0.006 C 
BRANCH  20  21
ATOM     21  C   UNL     1     -14.666  20.277 -23.095  1.00  0.00     0.053 C 
BRANCH  21  22
ATOM     22  C   UNL     1     -14.953  20.977 -21.797  1.00  0.00     0.041 C 
ATOM     23  O   UNL     1     -14.214  20.800 -20.792  1.00  0.00    -0.550 OA
ATOM     24  O   UNL     1     -16.098  21.753 -21.671  1.00  0.00    -0.550 OA
ENDBRANCH  21  22
ENDBRANCH  20  21
ENDBRANCH  19  20
ENDBRANCH  18  19
ENDBRANCH  17  18
ENDBRANCH  16  17
ENDBRANCH  15  16
ENDBRANCH  14  15
ENDBRANCH  13  14
ENDBRANCH   1  13
TORSDOF 20
ENDMDL
MODEL 2
REMARK VINA RESULT:    14.715      1.368      2.116
REMARK INTER + INTRA:          32.113
REMARK INTER:                  32.809
REMARK INTRA:                  -0.696
REMARK UNBOUND:                 0.193
REMARK SMILES CCCCCCCCCCCCCCCCCCCCCC(=O)[O-]
REMARK SMILES IDX 12 1 11 2 10 3 9 4 8 5 7 6 6 7 5 8 4 9 3 10 2 11 1 12 13 13
REMARK SMILES IDX 14 14 15 15 16 16 17 17 18 18 19 19 20 20 21 21 22 22 23 23
REMARK SMILES IDX 24 24
REMARK H PARENT
REMARK Flexibility Score: inf
ROOT
ATOM      1  C   UNL     1     -11.779  19.642 -13.963  1.00  0.00     0.000 C 
ENDROOT
BRANCH   1   2
ATOM      2  C   UNL     1     -12.975  18.972 -13.266  1.00  0.00     0.000 C 
BRANCH   2   3
ATOM      3  C   UNL     1     -12.948  19.159 -11.736  1.00  0.00     0.000 C 
BRANCH   3   4
ATOM      4  C   UNL     1     -12.604  17.858 -10.994  1.00  0.00    -0.000 C 
BRANCH   4   5
ATOM      5  C   UNL     1     -13.105  17.861  -9.539  1.00  0.00    -0.000 C 
BRANCH   5   6
ATOM      6  C   UNL     1     -13.906  19.128  -9.187  1.00  0.00    -0.000 C 
BRANCH   6   7
ATOM      7  C   UNL     1     -14.236  19.301  -7.691  1.00  0.00    -0.000 C 
BRANCH   7   8
ATOM      8  C   UNL     1     -13.202  20.107  -6.885  1.00  0.00    -0.000 C 
BRANCH   8   9
ATOM      9  C   UNL     1     -12.482  21.167  -7.731  1.00  0.00    -0.000 C 
BRANCH   9  10
ATOM     10  C   UNL     1     -10.960  20.962  -7.692  1.00  0.00    -0.000 C 
BRANCH  10  11
ATOM     11  C   UNL     1     -10.212  21.900  -8.651  1.00  0.00    -0.003 C 
ATOM     12  C   UNL     1     -11.033  22.254  -9.891  1.00  0.00     0.004 C 
ENDBRANCH  10  11
ENDBRANCH   9  10
ENDBRANCH   8   9
ENDBRANCH   7   8
ENDBRANCH   6   7
ENDBRANCH   5   6
ENDBRANCH   4   5
ENDBRANCH   3   4
ENDBRANCH   2   3
ENDBRANCH   1   2
BRANCH   1  13
ATOM     13  C   UNL     1     -11.673  19.268 -15.454  1.00  0.00     0.000 C 
BRANCH  13  14
ATOM     14  C   UNL     1     -10.555  20.051 -16.174  1.00  0.00     0.000 C 
BRANCH  14  15
ATOM     15  C   UNL     1     -10.837  20.305 -17.665  1.00  0.00     0.000 C 
BRANCH  15  16
ATOM     16  C   UNL     1     -11.561  19.131 -18.344  1.00  0.00     0.000 C 
BRANCH  16  17
ATOM     17  C   UNL     1     -11.881  19.411 -19.821  1.00  0.00     0.000 C 
BRANCH  17  18
ATOM     18  C   UNL     1     -13.393  19.499 -20.091  1.00  0.00     0.000 C 
BRANCH  18  19
ATOM     19  C   UNL     1     -13.854  20.951 -20.332  1.00  0.00     0.000 C 
BRANCH  19  20
ATOM     20  C   UNL     1     -14.780  21.124 -21.553  1.00  0.00     0.006 C 
BRANCH  20  21
ATOM     21  C   UNL     1     -14.061  21.034 -22.912  1.00  0.00     0.053 C 
BRANCH  21  22
ATOM     22  C   UNL     1     -13.274  19.768 -23.091  1.00  0.00     0.041 C 
ATOM     23  O   UNL     1     -13.852  18.649 -23.125  1.00  0.00    -0.550 OA
ATOM     24  O   UNL     1     -11.886  19.817 -23.124  1.00  0.00    -0.550 OA
ENDBRANCH  21  22
ENDBRANCH  20  21
ENDBRANCH  19  20
ENDBRANCH  18  19
ENDBRANCH  17  18
ENDBRANCH  16  17
ENDBRANCH  15  16
ENDBRANCH  14  15
ENDBRANCH  13  14
ENDBRANCH   1  13
TORSDOF 20
ENDMDL
MODEL 3
REMARK VINA RESULT:    14.907      1.984      2.707
REMARK INTER + INTRA:          32.528
REMARK INTER:                  33.929
REMARK INTRA:                  -1.401
REMARK UNBOUND:                 0.193
REMARK SMILES CCCCCCCCCCCCCCCCCCCCCC(=O)[O-]
REMARK SMILES IDX 12 1 11 2 10 3 9 4 8 5 7 6 6 7 5 8 4 9 3 10 2 11 1 12 13 13
REMARK SMILES IDX 14 14 15 15 16 16 17 17 18 18 19 19 20 20 21 21 22 22 23 23
REMARK SMILES IDX 24 24
REMARK H PARENT
REMARK Flexibility Score: inf
ROOT
ATOM      1  C   UNL     1     -12.946  18.786 -15.261  1.00  0.00     0.000 C 
ENDROOT
BRANCH   1   2
ATOM      2  C   UNL     1     -11.633  18.985 -14.486  1.00  0.00     0.000 C 
BRANCH   2   3
ATOM      3  C   UNL     1     -11.829  19.793 -13.188  1.00  0.00     0.000 C 
BRANCH   3   4
ATOM      4  C   UNL     1     -12.693  19.049 -12.159  1.00  0.00    -0.000 C 
BRANCH   4   5
ATOM      5  C   UNL     1     -13.186  19.969 -11.029  1.00  0.00    -0.000 C 
BRANCH   5   6
ATOM      6  C   UNL     1     -13.791  19.189  -9.847  1.00  0.00    -0.000 C 
BRANCH   6   7
ATOM      7  C   UNL     1     -12.889  18.084  -9.261  1.00  0.00    -0.000 C 
BRANCH   7   8
ATOM      8  C   UNL     1     -12.644  18.178  -7.745  1.00  0.00    -0.000 C 
BRANCH   8   9
ATOM      9  C   UNL     1     -13.509  19.251  -7.068  1.00  0.00    -0.000 C 
BRANCH   9  10
ATOM     10  C   UNL     1     -12.638  20.393  -6.520  1.00  0.00    -0.000 C 
BRANCH  10  11
ATOM     11  C   UNL     1     -12.536  21.577  -7.494  1.00  0.00    -0.003 C 
ATOM     12  C   UNL     1     -11.342  21.462  -8.442  1.00  0.00     0.004 C 
ENDBRANCH  10  11
ENDBRANCH   9  10
ENDBRANCH   8   9
ENDBRANCH   7   8
ENDBRANCH   6   7
ENDBRANCH   5   6
ENDBRANCH   4   5
ENDBRANCH   3   4
ENDBRANCH   2   3
ENDBRANCH   1   2
BRANCH   1  13
ATOM     13  C   UNL     1     -12.811  17.769 -16.411  1.00  0.00     0.000 C 
BRANCH  13  14
ATOM     14  C   UNL     1     -14.163  17.483 -17.098  1.00  0.00     0.000 C 
BRANCH  14  15
ATOM     15  C   UNL     1     -15.198  18.606 -16.919  1.00  0.00     0.000 C 
BRANCH  15  16
ATOM     16  C   UNL     1     -15.808  19.074 -18.251  1.00  0.00     0.000 C 
BRANCH  16  17
ATOM     17  C   UNL     1     -14.744  19.561 -19.248  1.00  0.00     0.000 C 
BRANCH  17  18
ATOM     18  C   UNL     1     -15.361  20.146 -20.530  1.00  0.00     0.000 C 
BRANCH  18  19
ATOM     19  C   UNL     1     -14.423  21.162 -21.212  1.00  0.00     0.000 C 
BRANCH  19  20
ATOM     20  C   UNL     1     -14.266  20.956 -22.732  1.00  0.00     0.006 C 
BRANCH  20  21
ATOM     21  C   UNL     1     -13.225  19.892 -23.124  1.00  0.00     0.053 C 
BRANCH  21  22
ATOM     22  C   UNL     1     -11.843  20.191 -22.617  1.00  0.00     0.041 C 
ATOM     23  O   UNL     1     -11.244  21.244 -22.962  1.00  0.00    -0.550 OA
ATOM     24  O   UNL     1     -11.177  19.254 -21.838  1.00  0.00    -0.550 OA
ENDBRANCH  21  22
ENDBRANCH  20  21
ENDBRANCH  19  20
ENDBRANCH  18  19
ENDBRANCH  17  18
ENDBRANCH  16  17
ENDBRANCH  15  16
ENDBRANCH  14  15
ENDBRANCH  13  14
ENDBRANCH   1  13
TORSDOF 20
ENDMDL
MODEL 4
REMARK VINA RESULT:    15.023      4.106     11.729
REMARK INTER + INTRA:          32.781
REMARK INTER:                  33.385
REMARK INTRA:                  -0.604
REMARK UNBOUND:                 0.193
REMARK SMILES CCCCCCCCCCCCCCCCCCCCCC(=O)[O-]
REMARK SMILES IDX 12 1 11 2 10 3 9 4 8 5 7 6 6 7 5 8 4 9 3 10 2 11 1 12 13 13
REMARK SMILES IDX 14 14 15 15 16 16 17 17 18 18 19 19 20 20 21 21 22 22 23 23
REMARK SMILES IDX 24 24
REMARK H PARENT
REMARK Flexibility Score: inf
ROOT
ATOM      1  C   UNL     1     -11.050  19.154 -15.043  1.00  0.00     0.000 C 
ENDROOT
BRANCH   1   2
ATOM      2  C   UNL     1     -11.220  20.003 -16.314  1.00  0.00     0.000 C 
BRANCH   2   3
ATOM      3  C   UNL     1     -10.882  19.219 -17.598  1.00  0.00     0.000 C 
BRANCH   3   4
ATOM      4  C   UNL     1     -11.080  20.061 -18.867  1.00  0.00    -0.000 C 
BRANCH   4   5
ATOM      5  C   UNL     1     -11.997  19.373 -19.893  1.00  0.00    -0.000 C 
BRANCH   5   6
ATOM      6  C   UNL     1     -11.262  19.007 -21.196  1.00  0.00    -0.000 C 
BRANCH   6   7
ATOM      7  C   UNL     1     -11.585  19.907 -22.406  1.00  0.00    -0.000 C 
BRANCH   7   8
ATOM      8  C   UNL     1     -12.960  19.662 -23.052  1.00  0.00    -0.000 C 
BRANCH   8   9
ATOM      9  C   UNL     1     -13.820  20.933 -23.122  1.00  0.00    -0.000 C 
BRANCH   9  10
ATOM     10  C   UNL     1     -14.141  21.458 -21.714  1.00  0.00    -0.000 C 
BRANCH  10  11
ATOM     11  C   UNL     1     -15.290  20.688 -21.044  1.00  0.00    -0.003 C 
ATOM     12  C   UNL     1     -14.799  19.686 -19.999  1.00  0.00     0.004 C 
ENDBRANCH  10  11
ENDBRANCH   9  10
ENDBRANCH   8   9
ENDBRANCH   7   8
ENDBRANCH   6   7
ENDBRANCH   5   6
ENDBRANCH   4   5
ENDBRANCH   3   4
ENDBRANCH   2   3
ENDBRANCH   1   2
BRANCH   1  13
ATOM     13  C   UNL     1     -11.518  19.886 -13.771  1.00  0.00     0.000 C 
BRANCH  13  14
ATOM     14  C   UNL     1     -13.044  19.779 -13.565  1.00  0.00     0.000 C 
BRANCH  14  15
ATOM     15  C   UNL     1     -13.465  18.624 -12.640  1.00  0.00     0.000 C 
BRANCH  15  16
ATOM     16  C   UNL     1     -13.053  18.851 -11.176  1.00  0.00     0.000 C 
BRANCH  16  17
ATOM     17  C   UNL     1     -12.665  17.544 -10.464  1.00  0.00     0.000 C 
BRANCH  17  18
ATOM     18  C   UNL     1     -12.173  17.780  -9.026  1.00  0.00     0.000 C 
BRANCH  18  19
ATOM     19  C   UNL     1     -13.341  17.930  -8.031  1.00  0.00     0.000 C 
BRANCH  19  20
ATOM     20  C   UNL     1     -13.326  19.251  -7.236  1.00  0.00     0.006 C 
BRANCH  20  21
ATOM     21  C   UNL     1     -13.083  20.505  -8.094  1.00  0.00     0.053 C 
BRANCH  21  22
ATOM     22  C   UNL     1     -11.952  21.361  -7.599  1.00  0.00     0.041 C 
ATOM     23  O   UNL     1     -10.955  21.599  -8.331  1.00  0.00    -0.550 OA
ATOM     24  O   UNL     1     -11.957  21.816  -6.287  1.00  0.00    -0.550 OA
ENDBRANCH  21  22
ENDBRANCH  20  21
ENDBRANCH  19  20
ENDBRANCH  18  19
ENDBRANCH  17  18
ENDBRANCH  16  17
ENDBRANCH  15  16
ENDBRANCH  14  15
ENDBRANCH  13  14
ENDBRANCH   1  13
TORSDOF 20
ENDMDL
MODEL 5
REMARK VINA RESULT:    15.290      1.942      2.920
REMARK INTER + INTRA:          33.360
REMARK INTER:                  33.067
REMARK INTRA:                   0.294
REMARK UNBOUND:                 0.193
REMARK SMILES CCCCCCCCCCCCCCCCCCCCCC(=O)[O-]
REMARK SMILES IDX 12 1 11 2 10 3 9 4 8 5 7 6 6 7 5 8 4 9 3 10 2 11 1 12 13 13
REMARK SMILES IDX 14 14 15 15 16 16 17 17 18 18 19 19 20 20 21 21 22 22 23 23
REMARK SMILES IDX 24 24
REMARK H PARENT
REMARK Flexibility Score: inf
ROOT
ATOM      1  C   UNL     1     -11.668  18.919 -14.782  1.00  0.00     0.000 C 
ENDROOT
BRANCH   1   2
ATOM      2  C   UNL     1     -12.266  19.849 -13.713  1.00  0.00     0.000 C 
BRANCH   2   3
ATOM      3  C   UNL     1     -13.265  19.124 -12.791  1.00  0.00     0.000 C 
BRANCH   3   4
ATOM      4  C   UNL     1     -12.767  19.038 -11.340  1.00  0.00    -0.000 C 
BRANCH   4   5
ATOM      5  C   UNL     1     -12.887  17.618 -10.759  1.00  0.00    -0.000 C 
BRANCH   5   6
ATOM      6  C   UNL     1     -11.921  17.371  -9.586  1.00  0.00    -0.000 C 
BRANCH   6   7
ATOM      7  C   UNL     1     -12.205  18.201  -8.318  1.00  0.00    -0.000 C 
BRANCH   7   8
ATOM      8  C   UNL     1     -11.996  19.718  -8.471  1.00  0.00    -0.000 C 
BRANCH   8   9
ATOM      9  C   UNL     1     -12.911  20.540  -7.552  1.00  0.00    -0.000 C 
BRANCH   9  10
ATOM     10  C   UNL     1     -14.205  19.773  -7.235  1.00  0.00    -0.000 C 
BRANCH  10  11
ATOM     11  C   UNL     1     -15.127  19.640  -8.457  1.00  0.00    -0.003 C 
ATOM     12  C   UNL     1     -15.464  18.186  -8.787  1.00  0.00     0.004 C 
ENDBRANCH  10  11
ENDBRANCH   9  10
ENDBRANCH   8   9
ENDBRANCH   7   8
ENDBRANCH   6   7
ENDBRANCH   5   6
ENDBRANCH   4   5
ENDBRANCH   3   4
ENDBRANCH   2   3
ENDBRANCH   1   2
BRANCH   1  13
ATOM     13  C   UNL     1     -12.744  18.179 -15.599  1.00  0.00     0.000 C 
BRANCH  13  14
ATOM     14  C   UNL     1     -14.149  18.785 -15.395  1.00  0.00     0.000 C 
BRANCH  14  15
ATOM     15  C   UNL     1     -15.105  18.542 -16.577  1.00  0.00     0.000 C 
BRANCH  15  16
ATOM     16  C   UNL     1     -14.598  17.457 -17.542  1.00  0.00     0.000 C 
BRANCH  16  17
ATOM     17  C   UNL     1     -13.949  18.047 -18.804  1.00  0.00     0.000 C 
BRANCH  17  18
ATOM     18  C   UNL     1     -14.746  19.230 -19.380  1.00  0.00     0.000 C 
BRANCH  18  19
ATOM     19  C   UNL     1     -13.845  20.214 -20.153  1.00  0.00     0.000 C 
BRANCH  19  20
ATOM     20  C   UNL     1     -14.613  21.188 -21.068  1.00  0.00     0.006 C 
BRANCH  20  21
ATOM     21  C   UNL     1     -14.415  20.935 -22.573  1.00  0.00     0.053 C 
BRANCH  21  22
ATOM     22  C   UNL     1     -13.579  19.724 -22.873  1.00  0.00     0.041 C 
ATOM     23  O   UNL     1     -14.103  18.580 -22.943  1.00  0.00    -0.550 OA
ATOM     24  O   UNL     1     -12.200  19.848 -22.979  1.00  0.00    -0.550 OA
ENDBRANCH  21  22
ENDBRANCH  20  21
ENDBRANCH  19  20
ENDBRANCH  18  19
ENDBRANCH  17  18
ENDBRANCH  16  17
ENDBRANCH  15  16
ENDBRANCH  14  15
ENDBRANCH  13  14
ENDBRANCH   1  13
TORSDOF 20
ENDMDL
MODEL 6
REMARK VINA RESULT:    15.816      1.343      2.022
REMARK INTER + INTRA:          34.501
REMARK INTER:                  34.062
REMARK INTRA:                   0.439
REMARK UNBOUND:                 0.193
REMARK SMILES CCCCCCCCCCCCCCCCCCCCCC(=O)[O-]
REMARK SMILES IDX 12 1 11 2 10 3 9 4 8 5 7 6 6 7 5 8 4 9 3 10 2 11 1 12 13 13
REMARK SMILES IDX 14 14 15 15 16 16 17 17 18 18 19 19 20 20 21 21 22 22 23 23
REMARK SMILES IDX 24 24
REMARK H PARENT
REMARK Flexibility Score: inf
ROOT
ATOM      1  C   UNL     1     -12.791  17.974 -15.753  1.00  0.00     0.000 C 
ENDROOT
BRANCH   1   2
ATOM      2  C   UNL     1     -13.877  18.966 -15.305  1.00  0.00     0.000 C 
BRANCH   2   3
ATOM      3  C   UNL     1     -13.558  19.618 -13.946  1.00  0.00     0.000 C 
BRANCH   3   4
ATOM      4  C   UNL     1     -12.048  19.696 -13.673  1.00  0.00    -0.000 C 
BRANCH   4   5
ATOM      5  C   UNL     1     -11.710  19.527 -12.181  1.00  0.00    -0.000 C 
BRANCH   5   6
ATOM      6  C   UNL     1     -12.937  19.147 -11.332  1.00  0.00    -0.000 C 
BRANCH   6   7
ATOM      7  C   UNL     1     -12.792  17.847 -10.515  1.00  0.00    -0.000 C 
BRANCH   7   8
ATOM      8  C   UNL     1     -12.891  18.022  -8.989  1.00  0.00    -0.000 C 
BRANCH   8   9
ATOM      9  C   UNL     1     -13.472  19.383  -8.582  1.00  0.00    -0.000 C 
BRANCH   9  10
ATOM     10  C   UNL     1     -13.091  19.732  -7.135  1.00  0.00    -0.000 C 
BRANCH  10  11
ATOM     11  C   UNL     1     -12.346  21.071  -7.026  1.00  0.00    -0.003 C 
ATOM     12  C   UNL     1     -11.893  21.607  -8.385  1.00  0.00     0.004 C 
ENDBRANCH  10  11
ENDBRANCH   9  10
ENDBRANCH   8   9
ENDBRANCH   7   8
ENDBRANCH   6   7
ENDBRANCH   5   6
ENDBRANCH   4   5
ENDBRANCH   3   4
ENDBRANCH   2   3
ENDBRANCH   1   2
BRANCH   1  13
ATOM     13  C   UNL     1     -13.086  17.349 -17.130  1.00  0.00     0.000 C 
BRANCH  13  14
ATOM     14  C   UNL     1     -14.401  17.877 -17.741  1.00  0.00     0.000 C 
BRANCH  14  15
ATOM     15  C   UNL     1     -14.198  18.741 -18.998  1.00  0.00     0.000 C 
BRANCH  15  16
ATOM     16  C   UNL     1     -12.726  18.821 -19.435  1.00  0.00     0.000 C 
BRANCH  16  17
ATOM     17  C   UNL     1     -12.501  19.842 -20.562  1.00  0.00     0.000 C 
BRANCH  17  18
ATOM     18  C   UNL     1     -11.510  19.339 -21.626  1.00  0.00     0.000 C 
BRANCH  18  19
ATOM     19  C   UNL     1     -11.945  19.731 -23.053  1.00  0.00     0.000 C 
BRANCH  19  20
ATOM     20  C   UNL     1     -12.970  20.882 -23.106  1.00  0.00     0.006 C 
BRANCH  20  21
ATOM     21  C   UNL     1     -14.421  20.453 -22.822  1.00  0.00     0.053 C 
BRANCH  21  22
ATOM     22  C   UNL     1     -15.047  21.181 -21.668  1.00  0.00     0.041 C 
ATOM     23  O   UNL     1     -16.254  21.539 -21.710  1.00  0.00    -0.550 OA
ATOM     24  O   UNL     1     -14.266  21.552 -20.582  1.00  0.00    -0.550 OA
ENDBRANCH  21  22
ENDBRANCH  20  21
ENDBRANCH  19  20
ENDBRANCH  18  19
ENDBRANCH  17  18
ENDBRANCH  16  17
ENDBRANCH  15  16
ENDBRANCH  14  15
ENDBRANCH  13  14
ENDBRANCH   1  13
TORSDOF 20
ENDMDL
MODEL 7
REMARK VINA RESULT:    15.925      3.854     11.730
REMARK INTER + INTRA:          34.738
REMARK INTER:                  34.039
REMARK INTRA:                   0.699
REMARK UNBOUND:                 0.193
REMARK SMILES CCCCCCCCCCCCCCCCCCCCCC(=O)[O-]
REMARK SMILES IDX 12 1 11 2 10 3 9 4 8 5 7 6 6 7 5 8 4 9 3 10 2 11 1 12 13 13
REMARK SMILES IDX 14 14 15 15 16 16 17 17 18 18 19 19 20 20 21 21 22 22 23 23
REMARK SMILES IDX 24 24
REMARK H PARENT
REMARK Flexibility Score: inf
ROOT
ATOM      1  C   UNL     1     -10.914  19.684 -15.458  1.00  0.00     0.000 C 
ENDROOT
BRANCH   1   2
ATOM      2  C   UNL     1     -11.429  19.956 -16.881  1.00  0.00     0.000 C 
BRANCH   2   3
ATOM      3  C   UNL     1     -11.181  18.772 -17.836  1.00  0.00     0.000 C 
BRANCH   3   4
ATOM      4  C   UNL     1     -11.416  19.147 -19.307  1.00  0.00    -0.000 C 
BRANCH   4   5
ATOM      5  C   UNL     1     -12.491  20.235 -19.474  1.00  0.00    -0.000 C 
BRANCH   5   6
ATOM      6  C   UNL     1     -13.774  19.707 -20.141  1.00  0.00    -0.000 C 
BRANCH   6   7
ATOM      7  C   UNL     1     -14.677  20.786 -20.771  1.00  0.00    -0.000 C 
BRANCH   7   8
ATOM      8  C   UNL     1     -14.499  20.980 -22.288  1.00  0.00    -0.000 C 
BRANCH   8   9
ATOM      9  C   UNL     1     -14.260  19.658 -23.032  1.00  0.00    -0.000 C 
BRANCH   9  10
ATOM     10  C   UNL     1     -12.867  19.093 -22.716  1.00  0.00    -0.000 C 
BRANCH  10  11
ATOM     11  C   UNL     1     -11.735  20.048 -23.124  1.00  0.00    -0.003 C 
ATOM     12  C   UNL     1     -12.161  21.516 -23.095  1.00  0.00     0.004 C 
ENDBRANCH  10  11
ENDBRANCH   9  10
ENDBRANCH   8   9
ENDBRANCH   7   8
ENDBRANCH   6   7
ENDBRANCH   5   6
ENDBRANCH   4   5
ENDBRANCH   3   4
ENDBRANCH   2   3
ENDBRANCH   1   2
BRANCH   1  13
ATOM     13  C   UNL     1     -11.544  20.619 -14.407  1.00  0.00     0.000 C 
BRANCH  13  14
ATOM     14  C   UNL     1     -11.588  19.975 -13.005  1.00  0.00     0.000 C 
BRANCH  14  15
ATOM     15  C   UNL     1     -12.984  19.471 -12.599  1.00  0.00     0.000 C 
BRANCH  15  16
ATOM     16  C   UNL     1     -12.934  18.164 -11.789  1.00  0.00     0.000 C 
BRANCH  16  17
ATOM     17  C   UNL     1     -13.457  18.340 -10.355  1.00  0.00     0.000 C 
BRANCH  17  18
ATOM     18  C   UNL     1     -12.523  17.715  -9.305  1.00  0.00     0.000 C 
BRANCH  18  19
ATOM     19  C   UNL     1     -12.709  18.349  -7.912  1.00  0.00     0.000 C 
BRANCH  19  20
ATOM     20  C   UNL     1     -13.569  19.629  -7.912  1.00  0.00     0.006 C 
BRANCH  20  21
ATOM     21  C   UNL     1     -12.911  20.835  -7.217  1.00  0.00     0.053 C 
BRANCH  21  22
ATOM     22  C   UNL     1     -11.626  21.271  -7.861  1.00  0.00     0.041 C 
ATOM     23  O   UNL     1     -10.666  21.693  -7.163  1.00  0.00    -0.550 OA
ATOM     24  O   UNL     1     -11.526  21.303  -9.246  1.00  0.00    -0.550 OA
ENDBRANCH  21  22
ENDBRANCH  20  21
ENDBRANCH  19  20
ENDBRANCH  18  19
ENDBRANCH  17  18
ENDBRANCH  16  17
ENDBRANCH  15  16
ENDBRANCH  14  15
ENDBRANCH  13  14
ENDBRANCH   1  13
TORSDOF 20
ENDMDL
MODEL 8
REMARK VINA RESULT:    16.010      1.389      2.426
REMARK INTER + INTRA:          34.921
REMARK INTER:                  31.540
REMARK INTRA:                   3.381
REMARK UNBOUND:                 0.193
REMARK SMILES CCCCCCCCCCCCCCCCCCCCCC(=O)[O-]
REMARK SMILES IDX 12 1 11 2 10 3 9 4 8 5 7 6 6 7 5 8 4 9 3 10 2 11 1 12 13 13
REMARK SMILES IDX 14 14 15 15 16 16 17 17 18 18 19 19 20 20 21 21 22 22 23 23
REMARK SMILES IDX 24 24
REMARK H PARENT
REMARK Flexibility Score: inf
ROOT
ATOM      1  C   UNL     1     -12.202  20.018 -15.043  1.00  0.00     0.000 C 
ENDROOT
BRANCH   1   2
ATOM      2  C   UNL     1     -11.877  19.857 -13.549  1.00  0.00     0.000 C 
BRANCH   2   3
ATOM      3  C   UNL     1     -12.461  18.561 -12.953  1.00  0.00     0.000 C 
BRANCH   3   4
ATOM      4  C   UNL     1     -13.159  18.798 -11.605  1.00  0.00    -0.000 C 
BRANCH   4   5
ATOM      5  C   UNL     1     -12.764  20.141 -10.966  1.00  0.00    -0.000 C 
BRANCH   5   6
ATOM      6  C   UNL     1     -13.018  20.174  -9.447  1.00  0.00    -0.000 C 
BRANCH   6   7
ATOM      7  C   UNL     1     -12.153  21.179  -8.660  1.00  0.00    -0.000 C 
BRANCH   7   8
ATOM      8  C   UNL     1     -12.179  21.004  -7.131  1.00  0.00    -0.000 C 
BRANCH   8   9
ATOM      9  C   UNL     1     -13.399  20.208  -6.644  1.00  0.00    -0.000 C 
BRANCH   9  10
ATOM     10  C   UNL     1     -13.035  18.734  -6.409  1.00  0.00    -0.000 C 
BRANCH  10  11
ATOM     11  C   UNL     1     -12.626  18.013  -7.702  1.00  0.00    -0.003 C 
ATOM     12  C   UNL     1     -13.736  18.008  -8.753  1.00  0.00     0.004 C 
ENDBRANCH  10  11
ENDBRANCH   9  10
ENDBRANCH   8   9
ENDBRANCH   7   8
ENDBRANCH   6   7
ENDBRANCH   5   6
ENDBRANCH   4   5
ENDBRANCH   3   4
ENDBRANCH   2   3
ENDBRANCH   1   2
BRANCH   1  13
ATOM     13  C   UNL     1     -11.767  18.803 -15.883  1.00  0.00     0.000 C 
BRANCH  13  14
ATOM     14  C   UNL     1     -10.856  19.204 -17.062  1.00  0.00     0.000 C 
BRANCH  14  15
ATOM     15  C   UNL     1     -11.383  18.749 -18.434  1.00  0.00     0.000 C 
BRANCH  15  16
ATOM     16  C   UNL     1     -11.847  19.922 -19.314  1.00  0.00     0.000 C 
BRANCH  16  17
ATOM     17  C   UNL     1     -13.203  19.653 -19.986  1.00  0.00     0.000 C 
BRANCH  17  18
ATOM     18  C   UNL     1     -13.928  20.948 -20.392  1.00  0.00     0.000 C 
BRANCH  18  19
ATOM     19  C   UNL     1     -15.175  20.667 -21.255  1.00  0.00     0.000 C 
BRANCH  19  20
ATOM     20  C   UNL     1     -14.860  20.308 -22.720  1.00  0.00     0.006 C 
BRANCH  20  21
ATOM     21  C   UNL     1     -13.619  19.415 -22.902  1.00  0.00     0.053 C 
BRANCH  21  22
ATOM     22  C   UNL     1     -12.345  20.189 -23.084  1.00  0.00     0.041 C 
ATOM     23  O   UNL     1     -11.232  19.600 -23.114  1.00  0.00    -0.550 OA
ATOM     24  O   UNL     1     -12.381  21.576 -23.124  1.00  0.00    -0.550 OA
ENDBRANCH  21  22
ENDBRANCH  20  21
ENDBRANCH  19  20
ENDBRANCH  18  19
ENDBRANCH  17  18
ENDBRANCH  16  17
ENDBRANCH  15  16
ENDBRANCH  14  15
ENDBRANCH  13  14
ENDBRANCH   1  13
TORSDOF 20
ENDMDL
