MODEL 1
REMARK VINA RESULT:    -5.001      0.000      0.000
REMARK INTER + INTRA:          -8.015
REMARK INTER:                  -7.632
REMARK INTRA:                  -0.383
REMARK UNBOUND:                -0.383
REMARK SMILES O=C([O-])CCCCCCCCC(=O)[O-]
REMARK SMILES IDX 7 1 6 2 5 3 4 4 2 5 1 6 3 7 8 8 9 9 10 10 11 11 12 12 13 13
REMARK SMILES IDX 14 14
REMARK H PARENT
REMARK Flexibility Score: inf
ROOT
ATOM      1  C   UNL     1     -11.905  -0.166 -10.003  1.00  0.00     0.000 C 
ENDROOT
BRANCH   1   2
ATOM      2  C   UNL     1     -10.674  -1.080 -10.166  1.00  0.00     0.000 C 
BRANCH   2   3
ATOM      3  C   UNL     1     -10.864  -2.525  -9.670  1.00  0.00     0.006 C 
BRANCH   3   4
ATOM      4  C   UNL     1      -9.594  -3.374  -9.810  1.00  0.00     0.053 C 
BRANCH   4   5
ATOM      5  C   UNL     1      -9.311  -4.105  -8.535  1.00  0.00     0.041 C 
ATOM      6  O   UNL     1      -8.953  -3.471  -7.508  1.00  0.00    -0.550 OA
ATOM      7  O   UNL     1      -9.394  -5.490  -8.495  1.00  0.00    -0.550 OA
ENDBRANCH   4   5
ENDBRANCH   3   4
ENDBRANCH   2   3
ENDBRANCH   1   2
BRANCH   1   8
ATOM      8  C   UNL     1     -13.188  -0.670 -10.686  1.00  0.00     0.000 C 
BRANCH   8   9
ATOM      9  C   UNL     1     -14.464  -0.247  -9.946  1.00  0.00     0.000 C 
BRANCH   9  10
ATOM     10  C   UNL     1     -14.749   1.246 -10.152  1.00  0.00     0.006 C 
BRANCH  10  11
ATOM     11  C   UNL     1     -14.794   1.987  -8.814  1.00  0.00     0.053 C 
BRANCH  11  12
ATOM     12  C   UNL     1     -13.883   3.174  -8.841  1.00  0.00     0.041 C 
ATOM     13  O   UNL     1     -14.297   4.299  -8.456  1.00  0.00    -0.550 OA
ATOM     14  O   UNL     1     -12.563   3.026  -9.244  1.00  0.00    -0.550 OA
ENDBRANCH  11  12
ENDBRANCH  10  11
ENDBRANCH   9  10
ENDBRANCH   8   9
ENDBRANCH   1   8
TORSDOF 9
ENDMDL
MODEL 2
REMARK VINA RESULT:    -4.723      0.476      7.156
REMARK INTER + INTRA:          -7.591
REMARK INTER:                  -7.212
REMARK INTRA:                  -0.379
REMARK UNBOUND:                -0.383
REMARK SMILES O=C([O-])CCCCCCCCC(=O)[O-]
REMARK SMILES IDX 7 1 6 2 5 3 4 4 2 5 1 6 3 7 8 8 9 9 10 10 11 11 12 12 13 13
REMARK SMILES IDX 14 14
REMARK H PARENT
REMARK Flexibility Score: inf
ROOT
ATOM      1  C   UNL     1     -13.124  -0.670 -10.681  1.00  0.00     0.000 C 
ENDROOT
BRANCH   1   2
ATOM      2  C   UNL     1     -14.418  -0.233  -9.965  1.00  0.00     0.000 C 
BRANCH   2   3
ATOM      3  C   UNL     1     -14.806   1.243 -10.161  1.00  0.00     0.006 C 
BRANCH   3   4
ATOM      4  C   UNL     1     -14.833   2.031  -8.846  1.00  0.00     0.053 C 
BRANCH   4   5
ATOM      5  C   UNL     1     -13.822   3.134  -8.876  1.00  0.00     0.041 C 
ATOM      6  O   UNL     1     -12.640   2.899  -9.241  1.00  0.00    -0.550 OA
ATOM      7  O   UNL     1     -14.171   4.409  -8.452  1.00  0.00    -0.550 OA
ENDBRANCH   4   5
ENDBRANCH   3   4
ENDBRANCH   2   3
ENDBRANCH   1   2
BRANCH   1   8
ATOM      8  C   UNL     1     -11.819  -0.296  -9.957  1.00  0.00     0.000 C 
BRANCH   8   9
ATOM      9  C   UNL     1     -10.661  -1.250 -10.284  1.00  0.00     0.000 C 
BRANCH   9  10
ATOM     10  C   UNL     1     -10.324  -2.140  -9.081  1.00  0.00     0.006 C 
BRANCH  10  11
ATOM     11  C   UNL     1     -10.022  -3.573  -9.525  1.00  0.00     0.053 C 
BRANCH  11  12
ATOM     12  C   UNL     1      -9.854  -4.466  -8.336  1.00  0.00     0.041 C 
ATOM     13  O   UNL     1      -9.593  -5.687  -8.492  1.00  0.00    -0.550 OA
ATOM     14  O   UNL     1      -9.937  -3.938  -7.054  1.00  0.00    -0.550 OA
ENDBRANCH  11  12
ENDBRANCH  10  11
ENDBRANCH   9  10
ENDBRANCH   8   9
ENDBRANCH   1   8
TORSDOF 9
ENDMDL
MODEL 3
REMARK VINA RESULT:    -4.665      1.348      2.040
REMARK INTER + INTRA:          -7.502
REMARK INTER:                  -7.130
REMARK INTRA:                  -0.372
REMARK UNBOUND:                -0.383
REMARK SMILES O=C([O-])CCCCCCCCC(=O)[O-]
REMARK SMILES IDX 7 1 6 2 5 3 4 4 2 5 1 6 3 7 8 8 9 9 10 10 11 11 12 12 13 13
REMARK SMILES IDX 14 14
REMARK H PARENT
REMARK Flexibility Score: inf
ROOT
ATOM      1  C   UNL     1     -10.686  -1.842  -9.320  1.00  0.00     0.000 C 
ENDROOT
BRANCH   1   2
ATOM      2  C   UNL     1      -9.839  -2.926 -10.017  1.00  0.00     0.000 C 
BRANCH   2   3
ATOM      3  C   UNL     1      -9.042  -3.839  -9.070  1.00  0.00     0.006 C 
BRANCH   3   4
ATOM      4  C   UNL     1      -9.549  -3.786  -7.624  1.00  0.00     0.053 C 
BRANCH   4   5
ATOM      5  C   UNL     1     -10.213  -5.075  -7.254  1.00  0.00     0.041 C 
ATOM      6  O   UNL     1     -10.908  -5.152  -6.208  1.00  0.00    -0.550 OA
ATOM      7  O   UNL     1     -10.023  -6.204  -8.039  1.00  0.00    -0.550 OA
ENDBRANCH   4   5
ENDBRANCH   3   4
ENDBRANCH   2   3
ENDBRANCH   1   2
BRANCH   1   8
ATOM      8  C   UNL     1     -11.146  -0.688 -10.228  1.00  0.00     0.000 C 
BRANCH   8   9
ATOM      9  C   UNL     1     -12.660  -0.693 -10.480  1.00  0.00     0.000 C 
BRANCH   9  10
ATOM     10  C   UNL     1     -13.328   0.529  -9.839  1.00  0.00     0.006 C 
BRANCH  10  11
ATOM     11  C   UNL     1     -12.288   1.579  -9.440  1.00  0.00     0.053 C 
BRANCH  11  12
ATOM     12  C   UNL     1     -12.957   2.871  -9.087  1.00  0.00     0.041 C 
ATOM     13  O   UNL     1     -12.266   3.880  -8.787  1.00  0.00    -0.550 OA
ATOM     14  O   UNL     1     -14.340   2.974  -9.138  1.00  0.00    -0.550 OA
ENDBRANCH  11  12
ENDBRANCH  10  11
ENDBRANCH   9  10
ENDBRANCH   8   9
ENDBRANCH   1   8
TORSDOF 9
ENDMDL
MODEL 4
REMARK VINA RESULT:    -4.553      0.875      7.152
REMARK INTER + INTRA:          -7.331
REMARK INTER:                  -6.984
REMARK INTRA:                  -0.347
REMARK UNBOUND:                -0.383
REMARK SMILES O=C([O-])CCCCCCCCC(=O)[O-]
REMARK SMILES IDX 7 1 6 2 5 3 4 4 2 5 1 6 3 7 8 8 9 9 10 10 11 11 12 12 13 13
REMARK SMILES IDX 14 14
REMARK H PARENT
REMARK Flexibility Score: inf
ROOT
ATOM      1  C   UNL     1     -11.773  -0.226  -9.893  1.00  0.00     0.000 C 
ENDROOT
BRANCH   1   2
ATOM      2  C   UNL     1     -13.186  -0.498 -10.446  1.00  0.00     0.000 C 
BRANCH   2   3
ATOM      3  C   UNL     1     -14.333   0.165  -9.662  1.00  0.00     0.006 C 
BRANCH   3   4
ATOM      4  C   UNL     1     -14.655   1.579 -10.160  1.00  0.00     0.053 C 
BRANCH   4   5
ATOM      5  C   UNL     1     -14.046   2.603  -9.255  1.00  0.00     0.041 C 
ATOM      6  O   UNL     1     -12.854   2.971  -9.427  1.00  0.00    -0.550 OA
ATOM      7  O   UNL     1     -14.778   3.113  -8.191  1.00  0.00    -0.550 OA
ENDBRANCH   4   5
ENDBRANCH   3   4
ENDBRANCH   2   3
ENDBRANCH   1   2
BRANCH   1   8
ATOM      8  C   UNL     1     -10.692  -1.224 -10.343  1.00  0.00     0.000 C 
BRANCH   8   9
ATOM      9  C   UNL     1     -10.768  -2.563  -9.595  1.00  0.00     0.000 C 
BRANCH   9  10
ATOM     10  C   UNL     1      -9.382  -3.211  -9.487  1.00  0.00     0.006 C 
BRANCH  10  11
ATOM     11  C   UNL     1      -9.057  -3.576  -8.036  1.00  0.00     0.053 C 
BRANCH  11  12
ATOM     12  C   UNL     1      -9.836  -4.782  -7.612  1.00  0.00     0.041 C 
ATOM     13  O   UNL     1     -10.569  -4.735  -6.590  1.00  0.00    -0.550 OA
ATOM     14  O   UNL     1      -9.790  -5.941  -8.374  1.00  0.00    -0.550 OA
ENDBRANCH  11  12
ENDBRANCH  10  11
ENDBRANCH   9  10
ENDBRANCH   8   9
ENDBRANCH   1   8
TORSDOF 9
ENDMDL
MODEL 5
REMARK VINA RESULT:    -4.460     15.303     17.463
REMARK INTER + INTRA:          -7.189
REMARK INTER:                  -6.453
REMARK INTRA:                  -0.736
REMARK UNBOUND:                -0.383
REMARK SMILES O=C([O-])CCCCCCCCC(=O)[O-]
REMARK SMILES IDX 7 1 6 2 5 3 4 4 2 5 1 6 3 7 8 8 9 9 10 10 11 11 12 12 13 13
REMARK SMILES IDX 14 14
REMARK H PARENT
REMARK Flexibility Score: inf
ROOT
ATOM      1  C   UNL     1     -13.615   4.721   7.457  1.00  0.00     0.000 C 
ENDROOT
BRANCH   1   2
ATOM      2  C   UNL     1     -14.153   6.120   7.097  1.00  0.00     0.000 C 
BRANCH   2   3
ATOM      3  C   UNL     1     -13.477   6.788   5.886  1.00  0.00     0.006 C 
BRANCH   3   4
ATOM      4  C   UNL     1     -14.438   7.002   4.710  1.00  0.00     0.053 C 
BRANCH   4   5
ATOM      5  C   UNL     1     -14.110   6.065   3.590  1.00  0.00     0.041 C 
ATOM      6  O   UNL     1     -13.598   4.941   3.835  1.00  0.00    -0.550 OA
ATOM      7  O   UNL     1     -14.324   6.453   2.274  1.00  0.00    -0.550 OA
ENDBRANCH   4   5
ENDBRANCH   3   4
ENDBRANCH   2   3
ENDBRANCH   1   2
BRANCH   1   8
ATOM      8  C   UNL     1     -12.863   4.635   8.796  1.00  0.00     0.000 C 
BRANCH   8   9
ATOM      9  C   UNL     1     -11.775   3.552   8.801  1.00  0.00     0.000 C 
BRANCH   9  10
ATOM     10  C   UNL     1     -10.907   3.639   7.539  1.00  0.00     0.006 C 
BRANCH  10  11
ATOM     11  C   UNL     1     -10.021   4.887   7.566  1.00  0.00     0.053 C 
BRANCH  11  12
ATOM     12  C   UNL     1      -9.957   5.513   6.208  1.00  0.00     0.041 C 
ATOM     13  O   UNL     1     -10.532   4.966   5.231  1.00  0.00    -0.550 OA
ATOM     14  O   UNL     1      -9.304   6.725   6.032  1.00  0.00    -0.550 OA
ENDBRANCH  11  12
ENDBRANCH  10  11
ENDBRANCH   9  10
ENDBRANCH   8   9
ENDBRANCH   1   8
TORSDOF 9
ENDMDL
MODEL 6
REMARK VINA RESULT:    -4.406     15.376     17.022
REMARK INTER + INTRA:          -7.107
REMARK INTER:                  -6.337
REMARK INTRA:                  -0.770
REMARK UNBOUND:                -0.383
REMARK SMILES O=C([O-])CCCCCCCCC(=O)[O-]
REMARK SMILES IDX 7 1 6 2 5 3 4 4 2 5 1 6 3 7 8 8 9 9 10 10 11 11 12 12 13 13
REMARK SMILES IDX 14 14
REMARK H PARENT
REMARK Flexibility Score: inf
ROOT
ATOM      1  C   UNL     1     -12.904   4.812   8.531  1.00  0.00     0.000 C 
ENDROOT
BRANCH   1   2
ATOM      2  C   UNL     1     -12.131   3.549   8.099  1.00  0.00     0.000 C 
BRANCH   2   3
ATOM      3  C   UNL     1     -10.689   3.798   7.624  1.00  0.00     0.006 C 
BRANCH   3   4
ATOM      4  C   UNL     1     -10.240   5.251   7.820  1.00  0.00     0.053 C 
BRANCH   4   5
ATOM      5  C   UNL     1      -9.678   5.800   6.547  1.00  0.00     0.041 C 
ATOM      6  O   UNL     1      -8.872   6.767   6.576  1.00  0.00    -0.550 OA
ATOM      7  O   UNL     1     -10.083   5.278   5.326  1.00  0.00    -0.550 OA
ENDBRANCH   4   5
ENDBRANCH   3   4
ENDBRANCH   2   3
ENDBRANCH   1   2
BRANCH   1   8
ATOM      8  C   UNL     1     -13.956   5.311   7.526  1.00  0.00     0.000 C 
BRANCH   8   9
ATOM      9  C   UNL     1     -13.768   6.786   7.148  1.00  0.00     0.000 C 
BRANCH   9  10
ATOM     10  C   UNL     1     -13.143   6.922   5.754  1.00  0.00     0.006 C 
BRANCH  10  11
ATOM     11  C   UNL     1     -14.220   7.111   4.684  1.00  0.00     0.053 C 
BRANCH  11  12
ATOM     12  C   UNL     1     -14.065   6.094   3.597  1.00  0.00     0.041 C 
ATOM     13  O   UNL     1     -14.393   6.375   2.415  1.00  0.00    -0.550 OA
ATOM     14  O   UNL     1     -13.512   4.853   3.882  1.00  0.00    -0.550 OA
ENDBRANCH  11  12
ENDBRANCH  10  11
ENDBRANCH   9  10
ENDBRANCH   8   9
ENDBRANCH   1   8
TORSDOF 9
ENDMDL
MODEL 7
REMARK VINA RESULT:    -4.365      4.610      6.831
REMARK INTER + INTRA:          -7.044
REMARK INTER:                  -6.174
REMARK INTRA:                  -0.871
REMARK UNBOUND:                -0.383
REMARK SMILES O=C([O-])CCCCCCCCC(=O)[O-]
REMARK SMILES IDX 7 1 6 2 5 3 4 4 2 5 1 6 3 7 8 8 9 9 10 10 11 11 12 12 13 13
REMARK SMILES IDX 14 14
REMARK H PARENT
REMARK Flexibility Score: inf
ROOT
ATOM      1  C   UNL     1     -11.803  -7.018  -5.138  1.00  0.00     0.000 C 
ENDROOT
BRANCH   1   2
ATOM      2  C   UNL     1     -13.188  -7.262  -5.771  1.00  0.00     0.000 C 
BRANCH   2   3
ATOM      3  C   UNL     1     -13.179  -7.489  -7.293  1.00  0.00     0.006 C 
BRANCH   3   4
ATOM      4  C   UNL     1     -13.875  -6.362  -8.067  1.00  0.00     0.053 C 
BRANCH   4   5
ATOM      5  C   UNL     1     -12.965  -5.812  -9.119  1.00  0.00     0.041 C 
ATOM      6  O   UNL     1     -13.167  -4.663  -9.593  1.00  0.00    -0.550 OA
ATOM      7  O   UNL     1     -11.925  -6.588  -9.614  1.00  0.00    -0.550 OA
ENDBRANCH   4   5
ENDBRANCH   3   4
ENDBRANCH   2   3
ENDBRANCH   1   2
BRANCH   1   8
ATOM      8  C   UNL     1     -10.701  -6.591  -6.123  1.00  0.00     0.000 C 
BRANCH   8   9
ATOM      9  C   UNL     1     -10.675  -5.076  -6.369  1.00  0.00     0.000 C 
BRANCH   9  10
ATOM     10  C   UNL     1      -9.719  -4.721  -7.514  1.00  0.00     0.006 C 
BRANCH  10  11
ATOM     11  C   UNL     1      -9.764  -3.222  -7.824  1.00  0.00     0.053 C 
BRANCH  11  12
ATOM     12  C   UNL     1     -10.068  -2.995  -9.271  1.00  0.00     0.041 C 
ATOM     13  O   UNL     1      -9.794  -3.882 -10.123  1.00  0.00    -0.550 OA
ATOM     14  O   UNL     1     -10.698  -1.825  -9.674  1.00  0.00    -0.550 OA
ENDBRANCH  11  12
ENDBRANCH  10  11
ENDBRANCH   9  10
ENDBRANCH   8   9
ENDBRANCH   1   8
TORSDOF 9
ENDMDL
MODEL 8
REMARK VINA RESULT:    -4.361      5.475      7.393
REMARK INTER + INTRA:          -7.038
REMARK INTER:                  -6.122
REMARK INTRA:                  -0.915
REMARK UNBOUND:                -0.383
REMARK SMILES O=C([O-])CCCCCCCCC(=O)[O-]
REMARK SMILES IDX 7 1 6 2 5 3 4 4 2 5 1 6 3 7 8 8 9 9 10 10 11 11 12 12 13 13
REMARK SMILES IDX 14 14
REMARK H PARENT
REMARK Flexibility Score: inf
ROOT
ATOM      1  C   UNL     1     -10.794  -5.492  -6.048  1.00  0.00     0.000 C 
ENDROOT
BRANCH   1   2
ATOM      2  C   UNL     1     -10.295  -6.551  -7.052  1.00  0.00     0.000 C 
BRANCH   2   3
ATOM      3  C   UNL     1     -10.482  -6.184  -8.534  1.00  0.00     0.006 C 
BRANCH   3   4
ATOM      4  C   UNL     1     -10.900  -4.722  -8.738  1.00  0.00     0.053 C 
BRANCH   4   5
ATOM      5  C   UNL     1      -9.721  -3.894  -9.144  1.00  0.00     0.041 C 
ATOM      6  O   UNL     1      -9.561  -3.571 -10.350  1.00  0.00    -0.550 OA
ATOM      7  O   UNL     1      -8.774  -3.522  -8.200  1.00  0.00    -0.550 OA
ENDBRANCH   4   5
ENDBRANCH   3   4
ENDBRANCH   2   3
ENDBRANCH   1   2
BRANCH   1   8
ATOM      8  C   UNL     1     -11.929  -5.955  -5.119  1.00  0.00     0.000 C 
BRANCH   8   9
ATOM      9  C   UNL     1     -12.133  -7.477  -5.139  1.00  0.00     0.000 C 
BRANCH   9  10
ATOM     10  C   UNL     1     -13.537  -7.838  -5.640  1.00  0.00     0.006 C 
BRANCH  10  11
ATOM     11  C   UNL     1     -14.225  -6.625  -6.271  1.00  0.00     0.053 C 
BRANCH  11  12
ATOM     12  C   UNL     1     -14.096  -6.666  -7.761  1.00  0.00     0.041 C 
ATOM     13  O   UNL     1     -13.714  -7.720  -8.335  1.00  0.00    -0.550 OA
ATOM     14  O   UNL     1     -14.446  -5.558  -8.520  1.00  0.00    -0.550 OA
ENDBRANCH  11  12
ENDBRANCH  10  11
ENDBRANCH   9  10
ENDBRANCH   8   9
ENDBRANCH   1   8
TORSDOF 9
ENDMDL
MODEL 9
REMARK VINA RESULT:    -4.314      5.625      7.013
REMARK INTER + INTRA:          -6.966
REMARK INTER:                  -6.004
REMARK INTRA:                  -0.962
REMARK UNBOUND:                -0.383
REMARK SMILES O=C([O-])CCCCCCCCC(=O)[O-]
REMARK SMILES IDX 7 1 6 2 5 3 4 4 2 5 1 6 3 7 8 8 9 9 10 10 11 11 12 12 13 13
REMARK SMILES IDX 14 14
REMARK H PARENT
REMARK Flexibility Score: inf
ROOT
ATOM      1  C   UNL     1     -11.673  -6.329  -5.236  1.00  0.00     0.000 C 
ENDROOT
BRANCH   1   2
ATOM      2  C   UNL     1     -10.589  -6.966  -6.128  1.00  0.00     0.000 C 
BRANCH   2   3
ATOM      3  C   UNL     1     -10.202  -6.147  -7.371  1.00  0.00     0.006 C 
BRANCH   3   4
ATOM      4  C   UNL     1     -10.248  -4.634  -7.125  1.00  0.00     0.053 C 
BRANCH   4   5
ATOM      5  C   UNL     1      -9.328  -3.923  -8.067  1.00  0.00     0.041 C 
ATOM      6  O   UNL     1      -8.469  -3.115  -7.624  1.00  0.00    -0.550 OA
ATOM      7  O   UNL     1      -9.451  -4.114  -9.436  1.00  0.00    -0.550 OA
ENDBRANCH   4   5
ENDBRANCH   3   4
ENDBRANCH   2   3
ENDBRANCH   1   2
BRANCH   1   8
ATOM      8  C   UNL     1     -13.115  -6.483  -5.749  1.00  0.00     0.000 C 
BRANCH   8   9
ATOM      9  C   UNL     1     -13.363  -7.834  -6.434  1.00  0.00     0.000 C 
BRANCH   9  10
ATOM     10  C   UNL     1     -13.823  -7.639  -7.884  1.00  0.00     0.006 C 
BRANCH  10  11
ATOM     11  C   UNL     1     -13.961  -6.152  -8.223  1.00  0.00     0.053 C 
BRANCH  11  12
ATOM     12  C   UNL     1     -13.172  -5.819  -9.450  1.00  0.00     0.041 C 
ATOM     13  O   UNL     1     -12.743  -4.648  -9.628  1.00  0.00    -0.550 OA
ATOM     14  O   UNL     1     -12.868  -6.811 -10.371  1.00  0.00    -0.550 OA
ENDBRANCH  11  12
ENDBRANCH  10  11
ENDBRANCH   9  10
ENDBRANCH   8   9
ENDBRANCH   1   8
TORSDOF 9
ENDMDL
