MODEL 1
REMARK VINA RESULT:    -3.493      0.000      0.000
REMARK INTER + INTRA:          -3.714
REMARK INTER:                  -3.697
REMARK INTRA:                  -0.017
REMARK UNBOUND:                -0.017
REMARK SMILES O=C([O-])c1cccnc1
REMARK SMILES IDX 4 1 5 2 9 3 6 4 8 5 7 6 2 7 1 8 3 9
REMARK H PARENT
REMARK Flexibility Score: inf
ROOT
ATOM      1  C   UNL     1      41.145 183.832 172.116  1.00  0.00     0.016 A 
ATOM      2  C   UNL     1      41.739 182.560 172.130  1.00  0.00     0.013 A 
ATOM      3  C   UNL     1      41.683 184.831 172.944  1.00  0.00     0.120 A 
ATOM      4  C   UNL     1      42.838 182.308 172.954  1.00  0.00     0.021 A 
ATOM      5  N   UNL     1      42.754 184.560 173.739  1.00  0.00    -0.264 NA
ATOM      6  C   UNL     1      43.337 183.333 173.760  1.00  0.00     0.111 A 
ENDROOT
BRANCH   1   7
ATOM      7  C   UNL     1      39.981 184.110 171.246  1.00  0.00     0.073 C 
ATOM      8  O   UNL     1      40.118 184.183 169.996  1.00  0.00    -0.545 OA
ATOM      9  O   UNL     1      38.718 184.295 171.798  1.00  0.00    -0.545 OA
ENDBRANCH   1   7
TORSDOF 1
ENDMDL
MODEL 2
REMARK VINA RESULT:    -3.492      0.919      1.601
REMARK INTER + INTRA:          -3.713
REMARK INTER:                  -3.697
REMARK INTRA:                  -0.017
REMARK UNBOUND:                -0.017
REMARK SMILES O=C([O-])c1cccnc1
REMARK SMILES IDX 4 1 5 2 9 3 6 4 8 5 7 6 2 7 1 8 3 9
REMARK H PARENT
REMARK Flexibility Score: inf
ROOT
ATOM      1  C   UNL     1      41.123 183.798 172.121  1.00  0.00     0.016 A 
ATOM      2  C   UNL     1      41.639 184.800 172.958  1.00  0.00     0.013 A 
ATOM      3  C   UNL     1      41.716 182.525 172.156  1.00  0.00     0.120 A 
ATOM      4  C   UNL     1      42.718 184.522 173.800  1.00  0.00     0.021 A 
ATOM      5  N   UNL     1      42.767 182.280 172.984  1.00  0.00    -0.264 NA
ATOM      6  C   UNL     1      43.275 183.242 173.798  1.00  0.00     0.111 A 
ENDROOT
BRANCH   1   7
ATOM      7  C   UNL     1      39.979 184.081 171.226  1.00  0.00     0.073 C 
ATOM      8  O   UNL     1      40.149 184.178 169.981  1.00  0.00    -0.545 OA
ATOM      9  O   UNL     1      38.701 184.244 171.747  1.00  0.00    -0.545 OA
ENDBRANCH   1   7
TORSDOF 1
ENDMDL
MODEL 3
REMARK VINA RESULT:    -3.461      0.921      1.930
REMARK INTER + INTRA:          -3.680
REMARK INTER:                  -3.663
REMARK INTRA:                  -0.017
REMARK UNBOUND:                -0.017
REMARK SMILES O=C([O-])c1cccnc1
REMARK SMILES IDX 4 1 5 2 9 3 6 4 8 5 7 6 2 7 1 8 3 9
REMARK H PARENT
REMARK Flexibility Score: inf
ROOT
ATOM      1  C   UNL     1      41.115 183.797 172.192  1.00  0.00     0.016 A 
ATOM      2  C   UNL     1      41.638 184.784 173.042  1.00  0.00     0.013 A 
ATOM      3  C   UNL     1      41.724 182.530 172.182  1.00  0.00     0.120 A 
ATOM      4  C   UNL     1      42.739 184.499 173.854  1.00  0.00     0.021 A 
ATOM      5  N   UNL     1      42.796 182.278 172.981  1.00  0.00    -0.264 NA
ATOM      6  C   UNL     1      43.310 183.226 173.808  1.00  0.00     0.111 A 
ENDROOT
BRANCH   1   7
ATOM      7  C   UNL     1      39.949 184.088 171.329  1.00  0.00     0.073 C 
ATOM      8  O   UNL     1      38.813 184.290 171.834  1.00  0.00    -0.545 OA
ATOM      9  O   UNL     1      40.091 184.140 169.948  1.00  0.00    -0.545 OA
ENDBRANCH   1   7
TORSDOF 1
ENDMDL
MODEL 4
REMARK VINA RESULT:    -3.354      2.913      3.798
REMARK INTER + INTRA:          -3.567
REMARK INTER:                  -3.550
REMARK INTRA:                  -0.016
REMARK UNBOUND:                -0.017
REMARK SMILES O=C([O-])c1cccnc1
REMARK SMILES IDX 4 1 5 2 9 3 6 4 8 5 7 6 2 7 1 8 3 9
REMARK H PARENT
REMARK Flexibility Score: inf
ROOT
ATOM      1  C   UNL     1      42.382 183.625 172.664  1.00  0.00     0.016 A 
ATOM      2  C   UNL     1      42.386 184.895 173.262  1.00  0.00     0.013 A 
ATOM      3  C   UNL     1      41.256 183.243 171.914  1.00  0.00     0.120 A 
ATOM      4  C   UNL     1      41.291 185.748 173.106  1.00  0.00     0.021 A 
ATOM      5  N   UNL     1      40.202 184.092 171.778  1.00  0.00    -0.264 NA
ATOM      6  C   UNL     1      40.197 185.324 172.352  1.00  0.00     0.111 A 
ENDROOT
BRANCH   1   7
ATOM      7  C   UNL     1      43.536 182.714 172.822  1.00  0.00     0.073 C 
ATOM      8  O   UNL     1      44.384 182.588 171.899  1.00  0.00    -0.545 OA
ATOM      9  O   UNL     1      43.701 181.983 173.993  1.00  0.00    -0.545 OA
ENDBRANCH   1   7
TORSDOF 1
ENDMDL
MODEL 5
REMARK VINA RESULT:    -3.292      2.721      3.486
REMARK INTER + INTRA:          -3.501
REMARK INTER:                  -3.485
REMARK INTRA:                  -0.016
REMARK UNBOUND:                -0.017
REMARK SMILES O=C([O-])c1cccnc1
REMARK SMILES IDX 4 1 5 2 9 3 6 4 8 5 7 6 2 7 1 8 3 9
REMARK H PARENT
REMARK Flexibility Score: inf
ROOT
ATOM      1  C   UNL     1      42.376 183.537 172.679  1.00  0.00     0.016 A 
ATOM      2  C   UNL     1      41.255 183.263 171.881  1.00  0.00     0.013 A 
ATOM      3  C   UNL     1      42.408 184.746 173.396  1.00  0.00     0.120 A 
ATOM      4  C   UNL     1      40.203 184.179 171.811  1.00  0.00     0.021 A 
ATOM      5  N   UNL     1      41.371 185.622 173.310  1.00  0.00    -0.264 NA
ATOM      6  C   UNL     1      40.280 185.366 172.541  1.00  0.00     0.111 A 
ENDROOT
BRANCH   1   7
ATOM      7  C   UNL     1      43.496 182.574 172.762  1.00  0.00     0.073 C 
ATOM      8  O   UNL     1      44.417 182.587 171.903  1.00  0.00    -0.545 OA
ATOM      9  O   UNL     1      43.546 181.639 173.789  1.00  0.00    -0.545 OA
ENDBRANCH   1   7
TORSDOF 1
ENDMDL
MODEL 6
REMARK VINA RESULT:    -3.198      2.008      2.607
REMARK INTER + INTRA:          -3.402
REMARK INTER:                  -3.385
REMARK INTRA:                  -0.016
REMARK UNBOUND:                -0.017
REMARK SMILES O=C([O-])c1cccnc1
REMARK SMILES IDX 4 1 5 2 9 3 6 4 8 5 7 6 2 7 1 8 3 9
REMARK H PARENT
REMARK Flexibility Score: inf
ROOT
ATOM      1  C   UNL     1      39.308 184.882 171.425  1.00  0.00     0.016 A 
ATOM      2  C   UNL     1      40.448 184.125 171.112  1.00  0.00     0.013 A 
ATOM      3  C   UNL     1      39.417 185.879 172.410  1.00  0.00     0.120 A 
ATOM      4  C   UNL     1      41.654 184.367 171.773  1.00  0.00     0.021 A 
ATOM      5  N   UNL     1      40.604 186.095 173.040  1.00  0.00    -0.264 NA
ATOM      6  C   UNL     1      41.712 185.367 172.744  1.00  0.00     0.111 A 
ENDROOT
BRANCH   1   7
ATOM      7  C   UNL     1      38.025 184.635 170.731  1.00  0.00     0.073 C 
ATOM      8  O   UNL     1      37.097 184.006 171.306  1.00  0.00    -0.545 OA
ATOM      9  O   UNL     1      37.827 185.093 169.434  1.00  0.00    -0.545 OA
ENDBRANCH   1   7
TORSDOF 1
ENDMDL
MODEL 7
REMARK VINA RESULT:    -3.173      2.665      3.846
REMARK INTER + INTRA:          -3.376
REMARK INTER:                  -3.352
REMARK INTRA:                  -0.024
REMARK UNBOUND:                -0.017
REMARK SMILES O=C([O-])c1cccnc1
REMARK SMILES IDX 4 1 5 2 9 3 6 4 8 5 7 6 2 7 1 8 3 9
REMARK H PARENT
REMARK Flexibility Score: inf
ROOT
ATOM      1  C   UNL     1      40.968 184.639 172.321  1.00  0.00     0.016 A 
ATOM      2  C   UNL     1      40.467 184.069 171.141  1.00  0.00     0.013 A 
ATOM      3  C   UNL     1      40.192 185.610 172.977  1.00  0.00     0.120 A 
ATOM      4  C   UNL     1      39.225 184.468 170.641  1.00  0.00     0.021 A 
ATOM      5  N   UNL     1      38.985 185.982 172.470  1.00  0.00    -0.264 NA
ATOM      6  C   UNL     1      38.491 185.437 171.328  1.00  0.00     0.111 A 
ENDROOT
BRANCH   1   7
ATOM      7  C   UNL     1      42.282 184.224 172.860  1.00  0.00     0.073 C 
ATOM      8  O   UNL     1      42.781 184.813 173.855  1.00  0.00    -0.545 OA
ATOM      9  O   UNL     1      42.984 183.178 172.273  1.00  0.00    -0.545 OA
ENDBRANCH   1   7
TORSDOF 1
ENDMDL
MODEL 8
REMARK VINA RESULT:    -3.153      1.780      2.340
REMARK INTER + INTRA:          -3.354
REMARK INTER:                  -3.331
REMARK INTRA:                  -0.023
REMARK UNBOUND:                -0.017
REMARK SMILES O=C([O-])c1cccnc1
REMARK SMILES IDX 4 1 5 2 9 3 6 4 8 5 7 6 2 7 1 8 3 9
REMARK H PARENT
REMARK Flexibility Score: inf
ROOT
ATOM      1  C   UNL     1      41.182 184.777 172.686  1.00  0.00     0.016 A 
ATOM      2  C   UNL     1      42.313 184.786 173.517  1.00  0.00     0.013 A 
ATOM      3  C   UNL     1      40.914 183.621 171.933  1.00  0.00     0.120 A 
ATOM      4  C   UNL     1      43.143 183.666 173.584  1.00  0.00     0.021 A 
ATOM      5  N   UNL     1      41.740 182.543 172.014  1.00  0.00    -0.264 NA
ATOM      6  C   UNL     1      42.837 182.541 172.816  1.00  0.00     0.111 A 
ENDROOT
BRANCH   1   7
ATOM      7  C   UNL     1      40.294 185.958 172.608  1.00  0.00     0.073 C 
ATOM      8  O   UNL     1      40.702 187.092 172.976  1.00  0.00    -0.545 OA
ATOM      9  O   UNL     1      38.995 185.832 172.129  1.00  0.00    -0.545 OA
ENDBRANCH   1   7
TORSDOF 1
ENDMDL
MODEL 9
REMARK VINA RESULT:    -3.108     23.642     24.029
REMARK INTER + INTRA:          -3.307
REMARK INTER:                  -3.285
REMARK INTRA:                  -0.022
REMARK UNBOUND:                -0.017
REMARK SMILES O=C([O-])c1cccnc1
REMARK SMILES IDX 4 1 5 2 9 3 6 4 8 5 7 6 2 7 1 8 3 9
REMARK H PARENT
REMARK Flexibility Score: inf
ROOT
ATOM      1  C   UNL     1      30.642 172.250 154.368  1.00  0.00     0.016 A 
ATOM      2  C   UNL     1      31.893 171.848 153.876  1.00  0.00     0.013 A 
ATOM      3  C   UNL     1      29.858 171.305 155.053  1.00  0.00     0.120 A 
ATOM      4  C   UNL     1      32.336 170.538 154.070  1.00  0.00     0.021 A 
ATOM      5  N   UNL     1      30.312 170.035 155.229  1.00  0.00    -0.264 NA
ATOM      6  C   UNL     1      31.522 169.636 154.756  1.00  0.00     0.111 A 
ENDROOT
BRANCH   1   7
ATOM      7  C   UNL     1      30.163 173.635 154.169  1.00  0.00     0.073 C 
ATOM      8  O   UNL     1      28.930 173.880 154.080  1.00  0.00    -0.545 OA
ATOM      9  O   UNL     1      31.068 174.686 154.076  1.00  0.00    -0.545 OA
ENDBRANCH   1   7
TORSDOF 1
ENDMDL
