MODEL 1
REMARK VINA RESULT:    -3.754      0.000      0.000
REMARK INTER + INTRA:          -4.910
REMARK INTER:                  -4.632
REMARK INTRA:                  -0.278
REMARK UNBOUND:                -0.278
REMARK SMILES C=CC[C@@H](C)C(=O)CC
REMARK SMILES IDX 4 1 5 2 6 3 7 4 8 5 9 6 3 7 2 8 1 9
REMARK H PARENT
REMARK Flexibility Score: inf
ROOT
ATOM      1  C   UNL     1       2.404  39.194  -7.565  1.00  0.00     0.057 C 
ATOM      2  C   UNL     1       3.697  38.368  -7.585  1.00  0.00     0.016 C 
ENDROOT
BRANCH   1   3
ATOM      3  C   UNL     1       2.150  39.838  -8.913  1.00  0.00     0.135 C 
ATOM      4  O   UNL     1       2.951  40.645  -9.366  1.00  0.00    -0.299 OA
BRANCH   3   5
ATOM      5  C   UNL     1       0.919  39.505  -9.714  1.00  0.00     0.072 C 
ATOM      6  C   UNL     1       1.201  39.611 -11.208  1.00  0.00     0.012 C 
ENDBRANCH   3   5
ENDBRANCH   1   3
BRANCH   1   7
ATOM      7  C   UNL     1       1.188  38.375  -7.083  1.00  0.00     0.038 C 
BRANCH   7   8
ATOM      8  C   UNL     1       1.533  36.957  -6.701  1.00  0.00    -0.034 C 
ATOM      9  C   UNL     1       0.922  35.907  -7.257  1.00  0.00     0.004 C 
ENDBRANCH   7   8
ENDBRANCH   1   7
TORSDOF 4
ENDMDL
MODEL 2
REMARK VINA RESULT:    -3.216     12.177     13.501
REMARK INTER + INTRA:          -4.246
REMARK INTER:                  -4.062
REMARK INTRA:                  -0.184
REMARK UNBOUND:                -0.278
REMARK SMILES C=CC[C@@H](C)C(=O)CC
REMARK SMILES IDX 4 1 5 2 6 3 7 4 8 5 9 6 3 7 2 8 1 9
REMARK H PARENT
REMARK Flexibility Score: inf
ROOT
ATOM      1  C   UNL     1      11.781  38.676 -16.617  1.00  0.00     0.057 C 
ATOM      2  C   UNL     1      12.013  39.054 -18.087  1.00  0.00     0.016 C 
ENDROOT
BRANCH   1   3
ATOM      3  C   UNL     1      12.420  37.341 -16.293  1.00  0.00     0.135 C 
ATOM      4  O   UNL     1      11.869  36.302 -16.630  1.00  0.00    -0.299 OA
BRANCH   3   5
ATOM      5  C   UNL     1      13.731  37.265 -15.555  1.00  0.00     0.072 C 
ATOM      6  C   UNL     1      13.792  36.014 -14.688  1.00  0.00     0.012 C 
ENDBRANCH   3   5
ENDBRANCH   1   3
BRANCH   1   7
ATOM      7  C   UNL     1      12.240  39.783 -15.644  1.00  0.00     0.038 C 
BRANCH   7   8
ATOM      8  C   UNL     1      11.152  40.767 -15.298  1.00  0.00    -0.034 C 
ATOM      9  C   UNL     1      11.420  42.042 -15.002  1.00  0.00     0.004 C 
ENDBRANCH   7   8
ENDBRANCH   1   7
TORSDOF 4
ENDMDL
MODEL 3
REMARK VINA RESULT:    -2.698     16.832     18.520
REMARK INTER + INTRA:          -3.606
REMARK INTER:                  -3.455
REMARK INTRA:                  -0.151
REMARK UNBOUND:                -0.278
REMARK SMILES C=CC[C@@H](C)C(=O)CC
REMARK SMILES IDX 4 1 5 2 6 3 7 4 8 5 9 6 3 7 2 8 1 9
REMARK H PARENT
REMARK Flexibility Score: inf
ROOT
ATOM      1  C   UNL     1       5.311  32.564 -25.910  1.00  0.00     0.057 C 
ATOM      2  C   UNL     1       4.228  31.498 -26.125  1.00  0.00     0.016 C 
ENDROOT
BRANCH   1   3
ATOM      3  C   UNL     1       4.714  33.842 -25.359  1.00  0.00     0.135 C 
ATOM      4  O   UNL     1       5.373  34.552 -24.612  1.00  0.00    -0.299 OA
BRANCH   3   5
ATOM      5  C   UNL     1       3.311  34.260 -25.713  1.00  0.00     0.072 C 
ATOM      6  C   UNL     1       2.710  35.125 -24.611  1.00  0.00     0.012 C 
ENDBRANCH   3   5
ENDBRANCH   1   3
BRANCH   1   7
ATOM      7  C   UNL     1       6.476  32.052 -25.036  1.00  0.00     0.038 C 
BRANCH   7   8
ATOM      8  C   UNL     1       7.397  31.102 -25.759  1.00  0.00    -0.034 C 
ATOM      9  C   UNL     1       8.378  30.450 -25.128  1.00  0.00     0.004 C 
ENDBRANCH   7   8
ENDBRANCH   1   7
TORSDOF 4
ENDMDL
MODEL 4
REMARK VINA RESULT:    -2.679     12.561     13.665
REMARK INTER + INTRA:          -3.584
REMARK INTER:                  -3.521
REMARK INTRA:                  -0.062
REMARK UNBOUND:                -0.278
REMARK SMILES C=CC[C@@H](C)C(=O)CC
REMARK SMILES IDX 4 1 5 2 6 3 7 4 8 5 9 6 3 7 2 8 1 9
REMARK H PARENT
REMARK Flexibility Score: inf
ROOT
ATOM      1  C   UNL     1      12.632  37.657 -16.099  1.00  0.00     0.057 C 
ATOM      2  C   UNL     1      13.808  37.842 -15.131  1.00  0.00     0.016 C 
ENDROOT
BRANCH   1   3
ATOM      3  C   UNL     1      12.084  38.996 -16.550  1.00  0.00     0.135 C 
ATOM      4  O   UNL     1      12.356  39.423 -17.664  1.00  0.00    -0.299 OA
BRANCH   3   5
ATOM      5  C   UNL     1      11.206  39.821 -15.647  1.00  0.00     0.072 C 
ATOM      6  C   UNL     1      11.824  41.192 -15.397  1.00  0.00     0.012 C 
ENDBRANCH   3   5
ENDBRANCH   1   3
BRANCH   1   7
ATOM      7  C   UNL     1      12.990  36.751 -17.296  1.00  0.00     0.038 C 
BRANCH   7   8
ATOM      8  C   UNL     1      11.796  36.347 -18.123  1.00  0.00    -0.034 C 
ATOM      9  C   UNL     1      11.908  36.019 -19.413  1.00  0.00     0.004 C 
ENDBRANCH   7   8
ENDBRANCH   1   7
TORSDOF 4
ENDMDL
MODEL 5
REMARK VINA RESULT:    -2.597     12.505     13.649
REMARK INTER + INTRA:          -3.482
REMARK INTER:                  -3.339
REMARK INTRA:                  -0.143
REMARK UNBOUND:                -0.278
REMARK SMILES C=CC[C@@H](C)C(=O)CC
REMARK SMILES IDX 4 1 5 2 6 3 7 4 8 5 9 6 3 7 2 8 1 9
REMARK H PARENT
REMARK Flexibility Score: inf
ROOT
ATOM      1  C   UNL     1      12.913  38.170 -16.285  1.00  0.00     0.057 C 
ATOM      2  C   UNL     1      13.811  37.895 -15.071  1.00  0.00     0.016 C 
ENDROOT
BRANCH   1   3
ATOM      3  C   UNL     1      12.468  36.876 -16.936  1.00  0.00     0.135 C 
ATOM      4  O   UNL     1      11.732  36.109 -16.331  1.00  0.00    -0.299 OA
BRANCH   3   5
ATOM      5  C   UNL     1      12.920  36.509 -18.325  1.00  0.00     0.072 C 
ATOM      6  C   UNL     1      11.727  36.173 -19.211  1.00  0.00     0.012 C 
ENDBRANCH   3   5
ENDBRANCH   1   3
BRANCH   1   7
ATOM      7  C   UNL     1      11.714  39.078 -15.937  1.00  0.00     0.038 C 
BRANCH   7   8
ATOM      8  C   UNL     1      12.112  40.489 -15.584  1.00  0.00    -0.034 C 
ATOM      9  C   UNL     1      11.228  41.378 -15.121  1.00  0.00     0.004 C 
ENDBRANCH   7   8
ENDBRANCH   1   7
TORSDOF 4
ENDMDL
MODEL 6
REMARK VINA RESULT:    -2.433     26.329     27.292
REMARK INTER + INTRA:          -3.280
REMARK INTER:                  -2.955
REMARK INTRA:                  -0.325
REMARK UNBOUND:                -0.278
REMARK SMILES C=CC[C@@H](C)C(=O)CC
REMARK SMILES IDX 4 1 5 2 6 3 7 4 8 5 9 6 3 7 2 8 1 9
REMARK H PARENT
REMARK Flexibility Score: inf
ROOT
ATOM      1  C   UNL     1      19.483  27.860 -24.516  1.00  0.00     0.057 C 
ATOM      2  C   UNL     1      18.222  27.200 -23.941  1.00  0.00     0.016 C 
ENDROOT
BRANCH   1   3
ATOM      3  C   UNL     1      20.612  26.857 -24.639  1.00  0.00     0.135 C 
ATOM      4  O   UNL     1      21.125  26.387 -23.632  1.00  0.00    -0.299 OA
BRANCH   3   5
ATOM      5  C   UNL     1      21.125  26.425 -25.987  1.00  0.00     0.072 C 
ATOM      6  C   UNL     1      21.116  24.906 -26.108  1.00  0.00     0.012 C 
ENDBRANCH   3   5
ENDBRANCH   1   3
BRANCH   1   7
ATOM      7  C   UNL     1      19.212  28.584 -25.851  1.00  0.00     0.038 C 
BRANCH   7   8
ATOM      8  C   UNL     1      19.760  29.988 -25.895  1.00  0.00    -0.034 C 
ATOM      9  C   UNL     1      19.993  30.691 -24.783  1.00  0.00     0.004 C 
ENDBRANCH   7   8
ENDBRANCH   1   7
TORSDOF 4
ENDMDL
MODEL 7
REMARK VINA RESULT:    -2.405     17.438     18.827
REMARK INTER + INTRA:          -3.245
REMARK INTER:                  -3.107
REMARK INTRA:                  -0.138
REMARK UNBOUND:                -0.278
REMARK SMILES C=CC[C@@H](C)C(=O)CC
REMARK SMILES IDX 4 1 5 2 6 3 7 4 8 5 9 6 3 7 2 8 1 9
REMARK H PARENT
REMARK Flexibility Score: inf
ROOT
ATOM      1  C   UNL     1       4.588  33.642 -25.834  1.00  0.00     0.057 C 
ATOM      2  C   UNL     1       5.016  34.222 -24.480  1.00  0.00     0.016 C 
ENDROOT
BRANCH   1   3
ATOM      3  C   UNL     1       4.991  32.186 -25.952  1.00  0.00     0.135 C 
ATOM      4  O   UNL     1       4.133  31.313 -25.957  1.00  0.00    -0.299 OA
BRANCH   3   5
ATOM      5  C   UNL     1       6.438  31.785 -26.062  1.00  0.00     0.072 C 
ATOM      6  C   UNL     1       6.577  30.269 -26.125  1.00  0.00     0.012 C 
ENDBRANCH   3   5
ENDBRANCH   1   3
BRANCH   1   7
ATOM      7  C   UNL     1       3.084  33.845 -26.114  1.00  0.00     0.038 C 
BRANCH   7   8
ATOM      8  C   UNL     1       2.541  35.140 -25.564  1.00  0.00    -0.034 C 
ATOM      9  C   UNL     1       1.426  35.699 -26.044  1.00  0.00     0.004 C 
ENDBRANCH   7   8
ENDBRANCH   1   7
TORSDOF 4
ENDMDL
MODEL 8
REMARK VINA RESULT:    -2.387     15.165     17.281
REMARK INTER + INTRA:          -3.223
REMARK INTER:                  -3.075
REMARK INTRA:                  -0.148
REMARK UNBOUND:                -0.278
REMARK SMILES C=CC[C@@H](C)C(=O)CC
REMARK SMILES IDX 4 1 5 2 6 3 7 4 8 5 9 6 3 7 2 8 1 9
REMARK H PARENT
REMARK Flexibility Score: inf
ROOT
ATOM      1  C   UNL     1       3.010  34.413 -24.849  1.00  0.00     0.057 C 
ATOM      2  C   UNL     1       2.399  35.009 -26.125  1.00  0.00     0.016 C 
ENDROOT
BRANCH   1   3
ATOM      3  C   UNL     1       4.446  33.988 -25.082  1.00  0.00     0.135 C 
ATOM      4  O   UNL     1       5.357  34.579 -24.518  1.00  0.00    -0.299 OA
BRANCH   3   5
ATOM      5  C   UNL     1       4.779  32.845 -26.004  1.00  0.00     0.072 C 
ATOM      6  C   UNL     1       5.996  32.079 -25.499  1.00  0.00     0.012 C 
ENDBRANCH   3   5
ENDBRANCH   1   3
BRANCH   1   7
ATOM      7  C   UNL     1       2.882  35.360 -23.637  1.00  0.00     0.038 C 
BRANCH   7   8
ATOM      8  C   UNL     1       1.666  36.250 -23.696  1.00  0.00    -0.034 C 
ATOM      9  C   UNL     1       1.614  37.418 -23.050  1.00  0.00     0.004 C 
ENDBRANCH   7   8
ENDBRANCH   1   7
TORSDOF 4
ENDMDL
MODEL 9
REMARK VINA RESULT:    -2.292     14.984     16.858
REMARK INTER + INTRA:          -3.105
REMARK INTER:                  -2.939
REMARK INTRA:                  -0.166
REMARK UNBOUND:                -0.278
REMARK SMILES C=CC[C@@H](C)C(=O)CC
REMARK SMILES IDX 4 1 5 2 6 3 7 4 8 5 9 6 3 7 2 8 1 9
REMARK H PARENT
REMARK Flexibility Score: inf
ROOT
ATOM      1  C   UNL     1       2.871  35.368 -24.945  1.00  0.00     0.057 C 
ATOM      2  C   UNL     1       1.959  35.005 -26.125  1.00  0.00     0.016 C 
ENDROOT
BRANCH   1   3
ATOM      3  C   UNL     1       2.060  35.845 -23.758  1.00  0.00     0.135 C 
ATOM      4  O   UNL     1       2.352  35.474 -22.629  1.00  0.00    -0.299 OA
BRANCH   3   5
ATOM      5  C   UNL     1       0.887  36.773 -23.940  1.00  0.00     0.072 C 
ATOM      6  C   UNL     1       1.090  38.061 -23.151  1.00  0.00     0.012 C 
ENDBRANCH   3   5
ENDBRANCH   1   3
BRANCH   1   7
ATOM      7  C   UNL     1       3.825  34.216 -24.562  1.00  0.00     0.038 C 
BRANCH   7   8
ATOM      8  C   UNL     1       4.635  33.696 -25.723  1.00  0.00    -0.034 C 
ATOM      9  C   UNL     1       4.794  32.388 -25.943  1.00  0.00     0.004 C 
ENDBRANCH   7   8
ENDBRANCH   1   7
TORSDOF 4
ENDMDL
