MODEL 1
REMARK VINA RESULT:    -5.115      0.000      0.000
REMARK INTER + INTRA:         -17.201
REMARK INTER:                 -12.889
REMARK INTRA:                  -4.313
REMARK UNBOUND:                -4.313
REMARK SMILES CCCCCCCCCCCCCCCCCCCCCCCCCCCC(=O)[O-]
REMARK SMILES IDX 15 1 16 2 17 3 18 4 19 5 20 6 21 7 22 8 23 9 24 10 25 11
REMARK SMILES IDX 26 12 27 13 28 14 29 15 30 16 14 17 13 18 12 19 11 20 10 21
REMARK SMILES IDX 9 22 8 23 7 24 6 25 5 26 4 27 3 28 2 29 1 30
REMARK H PARENT
REMARK Flexibility Score: inf
ROOT
ATOM      1  C   UNL     1      16.550  33.151  57.651  1.00  0.00     0.000 C 
ENDROOT
BRANCH   1   2
ATOM      2  C   UNL     1      15.329  32.366  58.162  1.00  0.00     0.000 C 
BRANCH   2   3
ATOM      3  C   UNL     1      15.472  30.855  57.922  1.00  0.00     0.000 C 
BRANCH   3   4
ATOM      4  C   UNL     1      14.112  30.142  58.002  1.00  0.00     0.000 C 
BRANCH   4   5
ATOM      5  C   UNL     1      12.962  31.122  58.290  1.00  0.00     0.000 C 
BRANCH   5   6
ATOM      6  C   UNL     1      11.689  30.410  58.784  1.00  0.00     0.000 C 
BRANCH   6   7
ATOM      7  C   UNL     1      11.984  29.195  59.684  1.00  0.00     0.000 C 
BRANCH   7   8
ATOM      8  C   UNL     1      11.455  29.310  61.128  1.00  0.00     0.000 C 
BRANCH   8   9
ATOM      9  C   UNL     1      12.469  29.955  62.090  1.00  0.00     0.000 C 
BRANCH   9  10
ATOM     10  C   UNL     1      13.804  29.192  62.156  1.00  0.00     0.000 C 
BRANCH  10  11
ATOM     11  C   UNL     1      15.017  29.948  61.578  1.00  0.00     0.000 C 
BRANCH  11  12
ATOM     12  C   UNL     1      16.237  29.940  62.514  1.00  0.00     0.006 C 
BRANCH  12  13
ATOM     13  C   UNL     1      16.013  29.007  63.708  1.00  0.00     0.053 C 
BRANCH  13  14
ATOM     14  C   UNL     1      16.861  27.780  63.577  1.00  0.00     0.041 C 
ATOM     15  O   UNL     1      17.662  27.662  62.611  1.00  0.00    -0.550 OA
ATOM     16  O   UNL     1      16.701  26.728  64.467  1.00  0.00    -0.550 OA
ENDBRANCH  13  14
ENDBRANCH  12  13
ENDBRANCH  11  12
ENDBRANCH  10  11
ENDBRANCH   9  10
ENDBRANCH   8   9
ENDBRANCH   7   8
ENDBRANCH   6   7
ENDBRANCH   5   6
ENDBRANCH   4   5
ENDBRANCH   3   4
ENDBRANCH   2   3
ENDBRANCH   1   2
BRANCH   1  17
ATOM     17  C   UNL     1      17.798  32.263  57.503  1.00  0.00     0.000 C 
BRANCH  17  18
ATOM     18  C   UNL     1      18.446  32.374  56.111  1.00  0.00     0.000 C 
BRANCH  18  19
ATOM     19  C   UNL     1      18.493  31.058  55.316  1.00  0.00     0.000 C 
BRANCH  19  20
ATOM     20  C   UNL     1      17.549  31.061  54.103  1.00  0.00     0.000 C 
BRANCH  20  21
ATOM     21  C   UNL     1      16.416  30.032  54.237  1.00  0.00     0.000 C 
BRANCH  21  22
ATOM     22  C   UNL     1      15.026  30.688  54.300  1.00  0.00    -0.000 C 
BRANCH  22  23
ATOM     23  C   UNL     1      15.110  32.228  54.297  1.00  0.00    -0.000 C 
BRANCH  23  24
ATOM     24  C   UNL     1      13.849  32.917  54.845  1.00  0.00    -0.000 C 
BRANCH  24  25
ATOM     25  C   UNL     1      14.074  34.404  55.166  1.00  0.00    -0.000 C 
BRANCH  25  26
ATOM     26  C   UNL     1      15.462  34.911  54.735  1.00  0.00    -0.000 C 
BRANCH  26  27
ATOM     27  C   UNL     1      15.822  36.333  55.200  1.00  0.00    -0.000 C 
BRANCH  27  28
ATOM     28  C   UNL     1      16.882  36.352  56.316  1.00  0.00    -0.000 C 
BRANCH  28  29
ATOM     29  C   UNL     1      16.818  37.633  57.165  1.00  0.00    -0.003 C 
ATOM     30  C   UNL     1      17.949  38.610  56.843  1.00  0.00     0.004 C 
ENDBRANCH  28  29
ENDBRANCH  27  28
ENDBRANCH  26  27
ENDBRANCH  25  26
ENDBRANCH  24  25
ENDBRANCH  23  24
ENDBRANCH  22  23
ENDBRANCH  21  22
ENDBRANCH  20  21
ENDBRANCH  19  20
ENDBRANCH  18  19
ENDBRANCH  17  18
ENDBRANCH   1  17
TORSDOF 26
ENDMDL
MODEL 2
REMARK VINA RESULT:    -5.031      2.745      4.636
REMARK INTER + INTRA:         -16.989
REMARK INTER:                 -12.943
REMARK INTRA:                  -4.046
REMARK UNBOUND:                -4.313
REMARK SMILES CCCCCCCCCCCCCCCCCCCCCCCCCCCC(=O)[O-]
REMARK SMILES IDX 15 1 16 2 17 3 18 4 19 5 20 6 21 7 22 8 23 9 24 10 25 11
REMARK SMILES IDX 26 12 27 13 28 14 29 15 30 16 14 17 13 18 12 19 11 20 10 21
REMARK SMILES IDX 9 22 8 23 7 24 6 25 5 26 4 27 3 28 2 29 1 30
REMARK H PARENT
REMARK Flexibility Score: inf
ROOT
ATOM      1  C   UNL     1      13.498  31.204  57.316  1.00  0.00     0.000 C 
ENDROOT
BRANCH   1   2
ATOM      2  C   UNL     1      14.198  30.099  58.126  1.00  0.00     0.000 C 
BRANCH   2   3
ATOM      3  C   UNL     1      14.801  30.635  59.434  1.00  0.00     0.000 C 
BRANCH   3   4
ATOM      4  C   UNL     1      15.980  29.769  59.907  1.00  0.00     0.000 C 
BRANCH   4   5
ATOM      5  C   UNL     1      16.853  30.499  60.942  1.00  0.00     0.000 C 
BRANCH   5   6
ATOM      6  C   UNL     1      17.227  29.602  62.137  1.00  0.00     0.000 C 
BRANCH   6   7
ATOM      7  C   UNL     1      16.170  29.615  63.258  1.00  0.00     0.000 C 
BRANCH   7   8
ATOM      8  C   UNL     1      15.718  28.223  63.743  1.00  0.00     0.000 C 
BRANCH   8   9
ATOM      9  C   UNL     1      14.385  27.771  63.117  1.00  0.00     0.000 C 
BRANCH   9  10
ATOM     10  C   UNL     1      13.669  28.899  62.352  1.00  0.00     0.000 C 
BRANCH  10  11
ATOM     11  C   UNL     1      12.500  28.441  61.458  1.00  0.00     0.000 C 
BRANCH  11  12
ATOM     12  C   UNL     1      11.403  29.507  61.303  1.00  0.00     0.006 C 
BRANCH  12  13
ATOM     13  C   UNL     1      10.924  29.602  59.851  1.00  0.00     0.053 C 
BRANCH  13  14
ATOM     14  C   UNL     1       9.432  29.715  59.801  1.00  0.00     0.041 C 
ATOM     15  O   UNL     1       8.889  30.706  59.243  1.00  0.00    -0.550 OA
ATOM     16  O   UNL     1       8.642  28.775  60.448  1.00  0.00    -0.550 OA
ENDBRANCH  13  14
ENDBRANCH  12  13
ENDBRANCH  11  12
ENDBRANCH  10  11
ENDBRANCH   9  10
ENDBRANCH   8   9
ENDBRANCH   7   8
ENDBRANCH   6   7
ENDBRANCH   5   6
ENDBRANCH   4   5
ENDBRANCH   3   4
ENDBRANCH   2   3
ENDBRANCH   1   2
BRANCH   1  17
ATOM     17  C   UNL     1      13.460  30.893  55.809  1.00  0.00     0.000 C 
BRANCH  17  18
ATOM     18  C   UNL     1      13.464  32.163  54.939  1.00  0.00     0.000 C 
BRANCH  18  19
ATOM     19  C   UNL     1      14.379  32.095  53.705  1.00  0.00     0.000 C 
BRANCH  19  20
ATOM     20  C   UNL     1      15.123  30.755  53.588  1.00  0.00     0.000 C 
BRANCH  20  21
ATOM     21  C   UNL     1      16.598  30.933  53.197  1.00  0.00     0.000 C 
BRANCH  21  22
ATOM     22  C   UNL     1      17.563  30.388  54.263  1.00  0.00    -0.000 C 
BRANCH  22  23
ATOM     23  C   UNL     1      17.148  30.806  55.689  1.00  0.00    -0.000 C 
BRANCH  23  24
ATOM     24  C   UNL     1      17.758  32.144  56.143  1.00  0.00    -0.000 C 
BRANCH  24  25
ATOM     25  C   UNL     1      17.431  32.482  57.607  1.00  0.00    -0.000 C 
BRANCH  25  26
ATOM     26  C   UNL     1      16.301  33.517  57.749  1.00  0.00    -0.000 C 
BRANCH  26  27
ATOM     27  C   UNL     1      15.954  34.299  56.469  1.00  0.00    -0.000 C 
BRANCH  27  28
ATOM     28  C   UNL     1      16.849  35.534  56.256  1.00  0.00    -0.000 C 
BRANCH  28  29
ATOM     29  C   UNL     1      16.145  36.843  56.651  1.00  0.00    -0.003 C 
ATOM     30  C   UNL     1      17.076  37.818  57.372  1.00  0.00     0.004 C 
ENDBRANCH  28  29
ENDBRANCH  27  28
ENDBRANCH  26  27
ENDBRANCH  25  26
ENDBRANCH  24  25
ENDBRANCH  23  24
ENDBRANCH  22  23
ENDBRANCH  21  22
ENDBRANCH  20  21
ENDBRANCH  19  20
ENDBRANCH  18  19
ENDBRANCH  17  18
ENDBRANCH   1  17
TORSDOF 26
ENDMDL
MODEL 3
REMARK VINA RESULT:    -4.992      1.072      1.602
REMARK INTER + INTRA:         -16.891
REMARK INTER:                 -13.092
REMARK INTRA:                  -3.800
REMARK UNBOUND:                -4.313
REMARK SMILES CCCCCCCCCCCCCCCCCCCCCCCCCCCC(=O)[O-]
REMARK SMILES IDX 15 1 16 2 17 3 18 4 19 5 20 6 21 7 22 8 23 9 24 10 25 11
REMARK SMILES IDX 26 12 27 13 28 14 29 15 30 16 14 17 13 18 12 19 11 20 10 21
REMARK SMILES IDX 9 22 8 23 7 24 6 25 5 26 4 27 3 28 2 29 1 30
REMARK H PARENT
REMARK Flexibility Score: inf
ROOT
ATOM      1  C   UNL     1      16.826  32.381  57.697  1.00  0.00     0.000 C 
ENDROOT
BRANCH   1   2
ATOM      2  C   UNL     1      15.541  33.224  57.781  1.00  0.00     0.000 C 
BRANCH   2   3
ATOM      3  C   UNL     1      14.352  32.411  58.316  1.00  0.00     0.000 C 
BRANCH   3   4
ATOM      4  C   UNL     1      14.381  30.963  57.798  1.00  0.00     0.000 C 
BRANCH   4   5
ATOM      5  C   UNL     1      13.270  30.104  58.425  1.00  0.00     0.000 C 
BRANCH   5   6
ATOM      6  C   UNL     1      11.990  30.911  58.715  1.00  0.00     0.000 C 
BRANCH   6   7
ATOM      7  C   UNL     1      10.724  30.036  58.778  1.00  0.00     0.000 C 
BRANCH   7   8
ATOM      8  C   UNL     1      10.386  29.481  60.177  1.00  0.00     0.000 C 
BRANCH   8   9
ATOM      9  C   UNL     1      11.620  28.949  60.928  1.00  0.00     0.000 C 
BRANCH   9  10
ATOM     10  C   UNL     1      12.004  29.817  62.140  1.00  0.00     0.000 C 
BRANCH  10  11
ATOM     11  C   UNL     1      13.452  30.347  62.131  1.00  0.00     0.000 C 
BRANCH  11  12
ATOM     12  C   UNL     1      14.506  29.228  62.088  1.00  0.00     0.006 C 
BRANCH  12  13
ATOM     13  C   UNL     1      15.331  29.195  63.378  1.00  0.00     0.053 C 
BRANCH  13  14
ATOM     14  C   UNL     1      15.563  27.781  63.812  1.00  0.00     0.041 C 
ATOM     15  O   UNL     1      14.596  27.068  64.196  1.00  0.00    -0.550 OA
ATOM     16  O   UNL     1      16.854  27.278  63.879  1.00  0.00    -0.550 OA
ENDBRANCH  13  14
ENDBRANCH  12  13
ENDBRANCH  11  12
ENDBRANCH  10  11
ENDBRANCH   9  10
ENDBRANCH   8   9
ENDBRANCH   7   8
ENDBRANCH   6   7
ENDBRANCH   5   6
ENDBRANCH   4   5
ENDBRANCH   3   4
ENDBRANCH   2   3
ENDBRANCH   1   2
BRANCH   1  17
ATOM     17  C   UNL     1      17.691  32.750  56.478  1.00  0.00     0.000 C 
BRANCH  17  18
ATOM     18  C   UNL     1      17.130  32.189  55.159  1.00  0.00     0.000 C 
BRANCH  18  19
ATOM     19  C   UNL     1      16.710  30.711  55.215  1.00  0.00     0.000 C 
BRANCH  19  20
ATOM     20  C   UNL     1      15.552  30.384  54.258  1.00  0.00     0.000 C 
BRANCH  20  21
ATOM     21  C   UNL     1      14.942  31.642  53.622  1.00  0.00     0.000 C 
BRANCH  21  22
ATOM     22  C   UNL     1      13.529  31.945  54.150  1.00  0.00    -0.000 C 
BRANCH  22  23
ATOM     23  C   UNL     1      13.455  33.314  54.858  1.00  0.00    -0.000 C 
BRANCH  23  24
ATOM     24  C   UNL     1      13.075  34.474  53.922  1.00  0.00    -0.000 C 
BRANCH  24  25
ATOM     25  C   UNL     1      13.535  35.843  54.451  1.00  0.00    -0.000 C 
BRANCH  25  26
ATOM     26  C   UNL     1      14.780  35.753  55.353  1.00  0.00    -0.000 C 
BRANCH  26  27
ATOM     27  C   UNL     1      16.132  35.879  54.629  1.00  0.00    -0.000 C 
BRANCH  27  28
ATOM     28  C   UNL     1      17.279  36.304  55.565  1.00  0.00    -0.000 C 
BRANCH  28  29
ATOM     29  C   UNL     1      16.771  37.011  56.832  1.00  0.00    -0.003 C 
ATOM     30  C   UNL     1      17.448  38.361  57.065  1.00  0.00     0.004 C 
ENDBRANCH  28  29
ENDBRANCH  27  28
ENDBRANCH  26  27
ENDBRANCH  25  26
ENDBRANCH  24  25
ENDBRANCH  23  24
ENDBRANCH  22  23
ENDBRANCH  21  22
ENDBRANCH  20  21
ENDBRANCH  19  20
ENDBRANCH  18  19
ENDBRANCH  17  18
ENDBRANCH   1  17
TORSDOF 26
ENDMDL
MODEL 4
REMARK VINA RESULT:    -4.955      3.020      5.150
REMARK INTER + INTRA:         -16.799
REMARK INTER:                 -12.876
REMARK INTRA:                  -3.923
REMARK UNBOUND:                -4.313
REMARK SMILES CCCCCCCCCCCCCCCCCCCCCCCCCCCC(=O)[O-]
REMARK SMILES IDX 15 1 16 2 17 3 18 4 19 5 20 6 21 7 22 8 23 9 24 10 25 11
REMARK SMILES IDX 26 12 27 13 28 14 29 15 30 16 14 17 13 18 12 19 11 20 10 21
REMARK SMILES IDX 9 22 8 23 7 24 6 25 5 26 4 27 3 28 2 29 1 30
REMARK H PARENT
REMARK Flexibility Score: inf
ROOT
ATOM      1  C   UNL     1      20.289  31.905  60.484  1.00  0.00     0.000 C 
ENDROOT
BRANCH   1   2
ATOM      2  C   UNL     1      18.826  31.478  60.696  1.00  0.00     0.000 C 
BRANCH   2   3
ATOM      3  C   UNL     1      18.703  30.314  61.692  1.00  0.00     0.000 C 
BRANCH   3   4
ATOM      4  C   UNL     1      17.290  30.238  62.295  1.00  0.00     0.000 C 
BRANCH   4   5
ATOM      5  C   UNL     1      16.436  29.148  61.628  1.00  0.00     0.000 C 
BRANCH   5   6
ATOM      6  C   UNL     1      15.321  28.621  62.552  1.00  0.00     0.000 C 
BRANCH   6   7
ATOM      7  C   UNL     1      14.242  29.677  62.861  1.00  0.00     0.000 C 
BRANCH   7   8
ATOM      8  C   UNL     1      13.619  30.353  61.623  1.00  0.00     0.000 C 
BRANCH   8   9
ATOM      9  C   UNL     1      12.434  29.563  61.039  1.00  0.00     0.000 C 
BRANCH   9  10
ATOM     10  C   UNL     1      12.419  29.555  59.499  1.00  0.00     0.000 C 
BRANCH  10  11
ATOM     11  C   UNL     1      11.401  30.513  58.850  1.00  0.00     0.000 C 
BRANCH  11  12
ATOM     12  C   UNL     1      10.046  29.847  58.557  1.00  0.00     0.006 C 
BRANCH  12  13
ATOM     13  C   UNL     1       8.907  30.562  59.290  1.00  0.00     0.053 C 
BRANCH  13  14
ATOM     14  C   UNL     1       8.495  29.782  60.500  1.00  0.00     0.041 C 
ATOM     15  O   UNL     1       9.027  28.667  60.747  1.00  0.00    -0.550 OA
ATOM     16  O   UNL     1       7.463  30.243  61.304  1.00  0.00    -0.550 OA
ENDBRANCH  13  14
ENDBRANCH  12  13
ENDBRANCH  11  12
ENDBRANCH  10  11
ENDBRANCH   9  10
ENDBRANCH   8   9
ENDBRANCH   7   8
ENDBRANCH   6   7
ENDBRANCH   5   6
ENDBRANCH   4   5
ENDBRANCH   3   4
ENDBRANCH   2   3
ENDBRANCH   1   2
BRANCH   1  17
ATOM     17  C   UNL     1      20.657  32.023  58.994  1.00  0.00     0.000 C 
BRANCH  17  18
ATOM     18  C   UNL     1      19.425  31.973  58.072  1.00  0.00     0.000 C 
BRANCH  18  19
ATOM     19  C   UNL     1      19.737  31.661  56.598  1.00  0.00     0.000 C 
BRANCH  19  20
ATOM     20  C   UNL     1      18.475  31.594  55.723  1.00  0.00     0.000 C 
BRANCH  20  21
ATOM     21  C   UNL     1      18.604  30.572  54.584  1.00  0.00     0.000 C 
BRANCH  21  22
ATOM     22  C   UNL     1      17.351  30.519  53.692  1.00  0.00    -0.000 C 
BRANCH  22  23
ATOM     23  C   UNL     1      16.143  29.900  54.424  1.00  0.00    -0.000 C 
BRANCH  23  24
ATOM     24  C   UNL     1      14.934  30.845  54.530  1.00  0.00    -0.000 C 
BRANCH  24  25
ATOM     25  C   UNL     1      14.284  30.827  55.924  1.00  0.00    -0.000 C 
BRANCH  25  26
ATOM     26  C   UNL     1      15.142  30.108  56.980  1.00  0.00    -0.000 C 
BRANCH  26  27
ATOM     27  C   UNL     1      15.481  30.935  58.233  1.00  0.00    -0.000 C 
BRANCH  27  28
ATOM     28  C   UNL     1      14.927  32.370  58.176  1.00  0.00    -0.000 C 
BRANCH  28  29
ATOM     29  C   UNL     1      16.019  33.408  57.868  1.00  0.00    -0.003 C 
ATOM     30  C   UNL     1      15.724  34.218  56.605  1.00  0.00     0.004 C 
ENDBRANCH  28  29
ENDBRANCH  27  28
ENDBRANCH  26  27
ENDBRANCH  25  26
ENDBRANCH  24  25
ENDBRANCH  23  24
ENDBRANCH  22  23
ENDBRANCH  21  22
ENDBRANCH  20  21
ENDBRANCH  19  20
ENDBRANCH  18  19
ENDBRANCH  17  18
ENDBRANCH   1  17
TORSDOF 26
ENDMDL
MODEL 5
REMARK VINA RESULT:    -4.914      2.929      5.134
REMARK INTER + INTRA:         -16.695
REMARK INTER:                 -12.185
REMARK INTRA:                  -4.510
REMARK UNBOUND:                -4.313
REMARK SMILES CCCCCCCCCCCCCCCCCCCCCCCCCCCC(=O)[O-]
REMARK SMILES IDX 15 1 16 2 17 3 18 4 19 5 20 6 21 7 22 8 23 9 24 10 25 11
REMARK SMILES IDX 26 12 27 13 28 14 29 15 30 16 14 17 13 18 12 19 11 20 10 21
REMARK SMILES IDX 9 22 8 23 7 24 6 25 5 26 4 27 3 28 2 29 1 30
REMARK H PARENT
REMARK Flexibility Score: inf
ROOT
ATOM      1  C   UNL     1      13.604  30.883  57.382  1.00  0.00     0.000 C 
ENDROOT
BRANCH   1   2
ATOM      2  C   UNL     1      14.544  29.966  58.185  1.00  0.00     0.000 C 
BRANCH   2   3
ATOM      3  C   UNL     1      15.210  30.705  59.356  1.00  0.00     0.000 C 
BRANCH   3   4
ATOM      4  C   UNL     1      16.039  29.747  60.228  1.00  0.00     0.000 C 
BRANCH   4   5
ATOM      5  C   UNL     1      17.014  30.501  61.147  1.00  0.00     0.000 C 
BRANCH   5   6
ATOM      6  C   UNL     1      16.883  30.078  62.623  1.00  0.00     0.000 C 
BRANCH   6   7
ATOM      7  C   UNL     1      16.501  28.595  62.796  1.00  0.00     0.000 C 
BRANCH   7   8
ATOM      8  C   UNL     1      15.301  28.338  63.730  1.00  0.00     0.000 C 
BRANCH   8   9
ATOM      9  C   UNL     1      14.048  27.848  62.980  1.00  0.00     0.000 C 
BRANCH   9  10
ATOM     10  C   UNL     1      13.428  28.932  62.078  1.00  0.00     0.000 C 
BRANCH  10  11
ATOM     11  C   UNL     1      12.306  28.439  61.143  1.00  0.00     0.000 C 
BRANCH  11  12
ATOM     12  C   UNL     1      11.109  29.402  61.074  1.00  0.00     0.006 C 
BRANCH  12  13
ATOM     13  C   UNL     1      10.965  30.007  59.675  1.00  0.00     0.053 C 
BRANCH  13  14
ATOM     14  C   UNL     1       9.586  29.767  59.143  1.00  0.00     0.041 C 
ATOM     15  O   UNL     1       9.335  28.730  58.473  1.00  0.00    -0.550 OA
ATOM     16  O   UNL     1       8.601  30.731  59.308  1.00  0.00    -0.550 OA
ENDBRANCH  13  14
ENDBRANCH  12  13
ENDBRANCH  11  12
ENDBRANCH  10  11
ENDBRANCH   9  10
ENDBRANCH   8   9
ENDBRANCH   7   8
ENDBRANCH   6   7
ENDBRANCH   5   6
ENDBRANCH   4   5
ENDBRANCH   3   4
ENDBRANCH   2   3
ENDBRANCH   1   2
BRANCH   1  17
ATOM     17  C   UNL     1      13.745  30.681  55.862  1.00  0.00     0.000 C 
BRANCH  17  18
ATOM     18  C   UNL     1      15.146  30.193  55.454  1.00  0.00     0.000 C 
BRANCH  18  19
ATOM     19  C   UNL     1      15.472  30.350  53.959  1.00  0.00     0.000 C 
BRANCH  19  20
ATOM     20  C   UNL     1      15.144  31.753  53.422  1.00  0.00     0.000 C 
BRANCH  20  21
ATOM     21  C   UNL     1      16.384  32.655  53.341  1.00  0.00     0.000 C 
BRANCH  21  22
ATOM     22  C   UNL     1      16.145  34.046  53.953  1.00  0.00    -0.000 C 
BRANCH  22  23
ATOM     23  C   UNL     1      14.827  34.108  54.754  1.00  0.00    -0.000 C 
BRANCH  23  24
ATOM     24  C   UNL     1      15.027  34.064  56.278  1.00  0.00    -0.000 C 
BRANCH  24  25
ATOM     25  C   UNL     1      16.508  34.138  56.687  1.00  0.00    -0.000 C 
BRANCH  25  26
ATOM     26  C   UNL     1      16.938  32.979  57.605  1.00  0.00    -0.000 C 
BRANCH  26  27
ATOM     27  C   UNL     1      17.830  31.910  56.947  1.00  0.00    -0.000 C 
BRANCH  27  28
ATOM     28  C   UNL     1      18.890  32.507  56.004  1.00  0.00    -0.000 C 
BRANCH  28  29
ATOM     29  C   UNL     1      19.795  31.431  55.382  1.00  0.00    -0.003 C 
ATOM     30  C   UNL     1      19.002  30.277  54.767  1.00  0.00     0.004 C 
ENDBRANCH  28  29
ENDBRANCH  27  28
ENDBRANCH  26  27
ENDBRANCH  25  26
ENDBRANCH  24  25
ENDBRANCH  23  24
ENDBRANCH  22  23
ENDBRANCH  21  22
ENDBRANCH  20  21
ENDBRANCH  19  20
ENDBRANCH  18  19
ENDBRANCH  17  18
ENDBRANCH   1  17
TORSDOF 26
ENDMDL
MODEL 6
REMARK VINA RESULT:    -4.871      2.832      8.002
REMARK INTER + INTRA:         -16.586
REMARK INTER:                 -12.295
REMARK INTRA:                  -4.291
REMARK UNBOUND:                -4.313
REMARK SMILES CCCCCCCCCCCCCCCCCCCCCCCCCCCC(=O)[O-]
REMARK SMILES IDX 15 1 16 2 17 3 18 4 19 5 20 6 21 7 22 8 23 9 24 10 25 11
REMARK SMILES IDX 26 12 27 13 28 14 29 15 30 16 14 17 13 18 12 19 11 20 10 21
REMARK SMILES IDX 9 22 8 23 7 24 6 25 5 26 4 27 3 28 2 29 1 30
REMARK H PARENT
REMARK Flexibility Score: inf
ROOT
ATOM      1  C   UNL     1      14.487  30.155  58.180  1.00  0.00     0.000 C 
ENDROOT
BRANCH   1   2
ATOM      2  C   UNL     1      13.352  31.033  57.627  1.00  0.00     0.000 C 
BRANCH   2   3
ATOM      3  C   UNL     1      13.208  30.899  56.103  1.00  0.00     0.000 C 
BRANCH   3   4
ATOM      4  C   UNL     1      14.503  30.377  55.459  1.00  0.00     0.000 C 
BRANCH   4   5
ATOM      5  C   UNL     1      14.910  31.205  54.228  1.00  0.00     0.000 C 
BRANCH   5   6
ATOM      6  C   UNL     1      14.153  32.544  54.140  1.00  0.00     0.000 C 
BRANCH   6   7
ATOM      7  C   UNL     1      15.029  33.759  54.499  1.00  0.00     0.000 C 
BRANCH   7   8
ATOM      8  C   UNL     1      14.905  34.241  55.959  1.00  0.00     0.000 C 
BRANCH   8   9
ATOM      9  C   UNL     1      16.261  34.321  56.684  1.00  0.00     0.000 C 
BRANCH   9  10
ATOM     10  C   UNL     1      16.396  33.291  57.820  1.00  0.00     0.000 C 
BRANCH  10  11
ATOM     11  C   UNL     1      17.618  32.357  57.713  1.00  0.00     0.000 C 
BRANCH  11  12
ATOM     12  C   UNL     1      17.733  31.665  56.344  1.00  0.00     0.006 C 
BRANCH  12  13
ATOM     13  C   UNL     1      18.975  32.139  55.585  1.00  0.00     0.053 C 
BRANCH  13  14
ATOM     14  C   UNL     1      20.207  31.510  56.156  1.00  0.00     0.041 C 
ATOM     15  O   UNL     1      20.985  32.184  56.885  1.00  0.00    -0.550 OA
ATOM     16  O   UNL     1      20.546  30.209  55.812  1.00  0.00    -0.550 OA
ENDBRANCH  13  14
ENDBRANCH  12  13
ENDBRANCH  11  12
ENDBRANCH  10  11
ENDBRANCH   9  10
ENDBRANCH   8   9
ENDBRANCH   7   8
ENDBRANCH   6   7
ENDBRANCH   5   6
ENDBRANCH   4   5
ENDBRANCH   3   4
ENDBRANCH   2   3
ENDBRANCH   1   2
BRANCH   1  17
ATOM     17  C   UNL     1      15.004  30.652  59.542  1.00  0.00     0.000 C 
BRANCH  17  18
ATOM     18  C   UNL     1      16.121  29.762  60.116  1.00  0.00     0.000 C 
BRANCH  18  19
ATOM     19  C   UNL     1      17.064  30.470  61.104  1.00  0.00     0.000 C 
BRANCH  19  20
ATOM     20  C   UNL     1      16.906  29.961  62.546  1.00  0.00     0.000 C 
BRANCH  20  21
ATOM     21  C   UNL     1      16.894  28.427  62.631  1.00  0.00     0.000 C 
BRANCH  21  22
ATOM     22  C   UNL     1      15.731  27.891  63.483  1.00  0.00    -0.000 C 
BRANCH  22  23
ATOM     23  C   UNL     1      14.447  28.728  63.307  1.00  0.00    -0.000 C 
BRANCH  23  24
ATOM     24  C   UNL     1      13.440  28.114  62.320  1.00  0.00    -0.000 C 
BRANCH  24  25
ATOM     25  C   UNL     1      12.734  29.171  61.454  1.00  0.00    -0.000 C 
BRANCH  25  26
ATOM     26  C   UNL     1      11.832  28.555  60.368  1.00  0.00    -0.000 C 
BRANCH  26  27
ATOM     27  C   UNL     1      10.747  29.489  59.802  1.00  0.00    -0.000 C 
BRANCH  27  28
ATOM     28  C   UNL     1       9.371  28.811  59.683  1.00  0.00    -0.000 C 
BRANCH  28  29
ATOM     29  C   UNL     1       8.358  29.355  60.704  1.00  0.00    -0.003 C 
ATOM     30  C   UNL     1       8.951  29.496  62.105  1.00  0.00     0.004 C 
ENDBRANCH  28  29
ENDBRANCH  27  28
ENDBRANCH  26  27
ENDBRANCH  25  26
ENDBRANCH  24  25
ENDBRANCH  23  24
ENDBRANCH  22  23
ENDBRANCH  21  22
ENDBRANCH  20  21
ENDBRANCH  19  20
ENDBRANCH  18  19
ENDBRANCH  17  18
ENDBRANCH   1  17
TORSDOF 26
ENDMDL
MODEL 7
REMARK VINA RESULT:    -4.783      1.098      2.317
REMARK INTER + INTRA:         -16.365
REMARK INTER:                 -12.063
REMARK INTRA:                  -4.302
REMARK UNBOUND:                -4.313
REMARK SMILES CCCCCCCCCCCCCCCCCCCCCCCCCCCC(=O)[O-]
REMARK SMILES IDX 15 1 16 2 17 3 18 4 19 5 20 6 21 7 22 8 23 9 24 10 25 11
REMARK SMILES IDX 26 12 27 13 28 14 29 15 30 16 14 17 13 18 12 19 11 20 10 21
REMARK SMILES IDX 9 22 8 23 7 24 6 25 5 26 4 27 3 28 2 29 1 30
REMARK H PARENT
REMARK Flexibility Score: inf
ROOT
ATOM      1  C   UNL     1      16.246  32.748  57.752  1.00  0.00     0.000 C 
ENDROOT
BRANCH   1   2
ATOM      2  C   UNL     1      16.089  31.245  58.039  1.00  0.00     0.000 C 
BRANCH   2   3
ATOM      3  C   UNL     1      14.991  30.967  59.077  1.00  0.00     0.000 C 
BRANCH   3   4
ATOM      4  C   UNL     1      13.854  30.120  58.480  1.00  0.00     0.000 C 
BRANCH   4   5
ATOM      5  C   UNL     1      12.501  30.850  58.534  1.00  0.00     0.000 C 
BRANCH   5   6
ATOM      6  C   UNL     1      11.305  29.880  58.522  1.00  0.00     0.000 C 
BRANCH   6   7
ATOM      7  C   UNL     1      10.341  30.093  59.705  1.00  0.00     0.000 C 
BRANCH   7   8
ATOM      8  C   UNL     1      10.740  29.368  61.007  1.00  0.00     0.000 C 
BRANCH   8   9
ATOM      9  C   UNL     1      11.708  28.195  60.770  1.00  0.00     0.000 C 
BRANCH   9  10
ATOM     10  C   UNL     1      12.944  28.242  61.688  1.00  0.00     0.000 C 
BRANCH  10  11
ATOM     11  C   UNL     1      13.420  29.658  62.069  1.00  0.00     0.000 C 
BRANCH  11  12
ATOM     12  C   UNL     1      14.866  29.690  62.592  1.00  0.00     0.006 C 
BRANCH  12  13
ATOM     13  C   UNL     1      15.103  28.593  63.634  1.00  0.00     0.053 C 
BRANCH  13  14
ATOM     14  C   UNL     1      16.436  27.948  63.418  1.00  0.00     0.041 C 
ATOM     15  O   UNL     1      16.872  27.100  64.242  1.00  0.00    -0.550 OA
ATOM     16  O   UNL     1      17.237  28.348  62.358  1.00  0.00    -0.550 OA
ENDBRANCH  13  14
ENDBRANCH  12  13
ENDBRANCH  11  12
ENDBRANCH  10  11
ENDBRANCH   9  10
ENDBRANCH   8   9
ENDBRANCH   7   8
ENDBRANCH   6   7
ENDBRANCH   5   6
ENDBRANCH   4   5
ENDBRANCH   3   4
ENDBRANCH   2   3
ENDBRANCH   1   2
BRANCH   1  17
ATOM     17  C   UNL     1      14.938  33.391  57.258  1.00  0.00     0.000 C 
BRANCH  17  18
ATOM     18  C   UNL     1      14.722  33.215  55.744  1.00  0.00     0.000 C 
BRANCH  18  19
ATOM     19  C   UNL     1      13.806  32.041  55.357  1.00  0.00     0.000 C 
BRANCH  19  20
ATOM     20  C   UNL     1      14.376  31.194  54.208  1.00  0.00     0.000 C 
BRANCH  20  21
ATOM     21  C   UNL     1      15.567  30.330  54.650  1.00  0.00     0.000 C 
BRANCH  21  22
ATOM     22  C   UNL     1      16.588  30.107  53.520  1.00  0.00    -0.000 C 
BRANCH  22  23
ATOM     23  C   UNL     1      18.015  30.519  53.939  1.00  0.00    -0.000 C 
BRANCH  23  24
ATOM     24  C   UNL     1      18.054  31.713  54.908  1.00  0.00    -0.000 C 
BRANCH  24  25
ATOM     25  C   UNL     1      18.123  33.067  54.183  1.00  0.00    -0.000 C 
BRANCH  25  26
ATOM     26  C   UNL     1      18.147  34.267  55.147  1.00  0.00    -0.000 C 
BRANCH  26  27
ATOM     27  C   UNL     1      17.798  35.628  54.519  1.00  0.00    -0.000 C 
BRANCH  27  28
ATOM     28  C   UNL     1      16.589  36.308  55.188  1.00  0.00    -0.000 C 
BRANCH  28  29
ATOM     29  C   UNL     1      16.796  36.520  56.697  1.00  0.00    -0.003 C 
ATOM     30  C   UNL     1      17.265  37.935  57.035  1.00  0.00     0.004 C 
ENDBRANCH  28  29
ENDBRANCH  27  28
ENDBRANCH  26  27
ENDBRANCH  25  26
ENDBRANCH  24  25
ENDBRANCH  23  24
ENDBRANCH  22  23
ENDBRANCH  21  22
ENDBRANCH  20  21
ENDBRANCH  19  20
ENDBRANCH  18  19
ENDBRANCH  17  18
ENDBRANCH   1  17
TORSDOF 26
ENDMDL
MODEL 8
REMARK VINA RESULT:    -4.751      2.733      4.362
REMARK INTER + INTRA:         -16.286
REMARK INTER:                 -11.702
REMARK INTRA:                  -4.584
REMARK UNBOUND:                -4.313
REMARK SMILES CCCCCCCCCCCCCCCCCCCCCCCCCCCC(=O)[O-]
REMARK SMILES IDX 15 1 16 2 17 3 18 4 19 5 20 6 21 7 22 8 23 9 24 10 25 11
REMARK SMILES IDX 26 12 27 13 28 14 29 15 30 16 14 17 13 18 12 19 11 20 10 21
REMARK SMILES IDX 9 22 8 23 7 24 6 25 5 26 4 27 3 28 2 29 1 30
REMARK H PARENT
REMARK Flexibility Score: inf
ROOT
ATOM      1  C   UNL     1      19.028  29.979  53.616  1.00  0.00     0.000 C 
ENDROOT
BRANCH   1   2
ATOM      2  C   UNL     1      17.644  30.098  52.954  1.00  0.00     0.000 C 
BRANCH   2   3
ATOM      3  C   UNL     1      17.043  31.502  53.122  1.00  0.00     0.000 C 
BRANCH   3   4
ATOM      4  C   UNL     1      15.684  31.450  53.839  1.00  0.00     0.000 C 
BRANCH   4   5
ATOM      5  C   UNL     1      15.424  30.079  54.485  1.00  0.00     0.000 C 
BRANCH   5   6
ATOM      6  C   UNL     1      14.855  30.195  55.911  1.00  0.00     0.000 C 
BRANCH   6   7
ATOM      7  C   UNL     1      13.553  31.018  55.979  1.00  0.00     0.000 C 
BRANCH   7   8
ATOM      8  C   UNL     1      12.815  30.957  57.331  1.00  0.00     0.000 C 
BRANCH   8   9
ATOM      9  C   UNL     1      13.706  31.358  58.521  1.00  0.00     0.000 C 
BRANCH   9  10
ATOM     10  C   UNL     1      14.048  30.171  59.440  1.00  0.00     0.000 C 
BRANCH  10  11
ATOM     11  C   UNL     1      13.326  30.170  60.802  1.00  0.00     0.000 C 
BRANCH  11  12
ATOM     12  C   UNL     1      12.734  28.800  61.172  1.00  0.00     0.006 C 
BRANCH  12  13
ATOM     13  C   UNL     1      11.497  28.484  60.327  1.00  0.00     0.053 C 
BRANCH  13  14
ATOM     14  C   UNL     1      10.453  29.541  60.517  1.00  0.00     0.041 C 
ATOM     15  O   UNL     1       9.897  29.689  61.638  1.00  0.00    -0.550 OA
ATOM     16  O   UNL     1      10.028  30.299  59.436  1.00  0.00    -0.550 OA
ENDBRANCH  13  14
ENDBRANCH  12  13
ENDBRANCH  11  12
ENDBRANCH  10  11
ENDBRANCH   9  10
ENDBRANCH   8   9
ENDBRANCH   7   8
ENDBRANCH   6   7
ENDBRANCH   5   6
ENDBRANCH   4   5
ENDBRANCH   3   4
ENDBRANCH   2   3
ENDBRANCH   1   2
BRANCH   1  17
ATOM     17  C   UNL     1      19.448  31.273  54.336  1.00  0.00     0.000 C 
BRANCH  17  18
ATOM     18  C   UNL     1      20.163  31.005  55.673  1.00  0.00     0.000 C 
BRANCH  18  19
ATOM     19  C   UNL     1      19.478  31.624  56.904  1.00  0.00     0.000 C 
BRANCH  19  20
ATOM     20  C   UNL     1      17.977  31.872  56.689  1.00  0.00     0.000 C 
BRANCH  20  21
ATOM     21  C   UNL     1      17.264  32.314  57.977  1.00  0.00     0.000 C 
BRANCH  21  22
ATOM     22  C   UNL     1      16.420  33.585  57.779  1.00  0.00    -0.000 C 
BRANCH  22  23
ATOM     23  C   UNL     1      16.132  33.864  56.289  1.00  0.00    -0.000 C 
BRANCH  23  24
ATOM     24  C   UNL     1      14.786  34.566  56.040  1.00  0.00    -0.000 C 
BRANCH  24  25
ATOM     25  C   UNL     1      14.814  35.491  54.812  1.00  0.00    -0.000 C 
BRANCH  25  26
ATOM     26  C   UNL     1      16.171  35.484  54.083  1.00  0.00    -0.000 C 
BRANCH  26  27
ATOM     27  C   UNL     1      16.947  36.813  54.118  1.00  0.00    -0.000 C 
BRANCH  27  28
ATOM     28  C   UNL     1      17.959  36.889  55.276  1.00  0.00    -0.000 C 
BRANCH  28  29
ATOM     29  C   UNL     1      17.681  38.068  56.223  1.00  0.00    -0.003 C 
ATOM     30  C   UNL     1      16.953  37.641  57.498  1.00  0.00     0.004 C 
ENDBRANCH  28  29
ENDBRANCH  27  28
ENDBRANCH  26  27
ENDBRANCH  25  26
ENDBRANCH  24  25
ENDBRANCH  23  24
ENDBRANCH  22  23
ENDBRANCH  21  22
ENDBRANCH  20  21
ENDBRANCH  19  20
ENDBRANCH  18  19
ENDBRANCH  17  18
ENDBRANCH   1  17
TORSDOF 26
ENDMDL
MODEL 9
REMARK VINA RESULT:    -4.725      2.792      3.964
REMARK INTER + INTRA:         -16.220
REMARK INTER:                 -11.526
REMARK INTRA:                  -4.694
REMARK UNBOUND:                -4.313
REMARK SMILES CCCCCCCCCCCCCCCCCCCCCCCCCCCC(=O)[O-]
REMARK SMILES IDX 15 1 16 2 17 3 18 4 19 5 20 6 21 7 22 8 23 9 24 10 25 11
REMARK SMILES IDX 26 12 27 13 28 14 29 15 30 16 14 17 13 18 12 19 11 20 10 21
REMARK SMILES IDX 9 22 8 23 7 24 6 25 5 26 4 27 3 28 2 29 1 30
REMARK H PARENT
REMARK Flexibility Score: inf
ROOT
ATOM      1  C   UNL     1      16.150  33.806  56.654  1.00  0.00     0.000 C 
ENDROOT
BRANCH   1   2
ATOM      2  C   UNL     1      14.636  33.532  56.663  1.00  0.00     0.000 C 
BRANCH   2   3
ATOM      3  C   UNL     1      14.246  32.414  55.684  1.00  0.00     0.000 C 
BRANCH   3   4
ATOM      4  C   UNL     1      13.704  31.181  56.426  1.00  0.00     0.000 C 
BRANCH   4   5
ATOM      5  C   UNL     1      14.827  30.212  56.833  1.00  0.00     0.000 C 
BRANCH   5   6
ATOM      6  C   UNL     1      14.563  29.538  58.192  1.00  0.00     0.000 C 
BRANCH   6   7
ATOM      7  C   UNL     1      14.927  30.433  59.393  1.00  0.00     0.000 C 
BRANCH   7   8
ATOM      8  C   UNL     1      14.992  29.705  60.751  1.00  0.00     0.000 C 
BRANCH   8   9
ATOM      9  C   UNL     1      14.126  30.373  61.834  1.00  0.00     0.000 C 
BRANCH   9  10
ATOM     10  C   UNL     1      12.695  29.809  61.891  1.00  0.00     0.000 C 
BRANCH  10  11
ATOM     11  C   UNL     1      12.524  28.399  61.293  1.00  0.00     0.000 C 
BRANCH  11  12
ATOM     12  C   UNL     1      11.615  28.373  60.053  1.00  0.00     0.006 C 
BRANCH  12  13
ATOM     13  C   UNL     1      11.097  29.774  59.716  1.00  0.00     0.053 C 
BRANCH  13  14
ATOM     14  C   UNL     1       9.619  29.851  59.938  1.00  0.00     0.041 C 
ATOM     15  O   UNL     1       8.917  30.654  59.265  1.00  0.00    -0.550 OA
ATOM     16  O   UNL     1       9.028  29.104  60.947  1.00  0.00    -0.550 OA
ENDBRANCH  13  14
ENDBRANCH  12  13
ENDBRANCH  11  12
ENDBRANCH  10  11
ENDBRANCH   9  10
ENDBRANCH   8   9
ENDBRANCH   7   8
ENDBRANCH   6   7
ENDBRANCH   5   6
ENDBRANCH   4   5
ENDBRANCH   3   4
ENDBRANCH   2   3
ENDBRANCH   1   2
BRANCH   1  17
ATOM     17  C   UNL     1      16.877  33.127  57.828  1.00  0.00     0.000 C 
BRANCH  17  18
ATOM     18  C   UNL     1      17.863  32.037  57.368  1.00  0.00     0.000 C 
BRANCH  18  19
ATOM     19  C   UNL     1      18.321  32.160  55.905  1.00  0.00     0.000 C 
BRANCH  19  20
ATOM     20  C   UNL     1      18.042  30.890  55.085  1.00  0.00     0.000 C 
BRANCH  20  21
ATOM     21  C   UNL     1      17.054  31.139  53.935  1.00  0.00     0.000 C 
BRANCH  21  22
ATOM     22  C   UNL     1      17.482  32.306  53.029  1.00  0.00    -0.000 C 
BRANCH  22  23
ATOM     23  C   UNL     1      16.396  33.397  52.936  1.00  0.00    -0.000 C 
BRANCH  23  24
ATOM     24  C   UNL     1      16.918  34.815  53.225  1.00  0.00    -0.000 C 
BRANCH  24  25
ATOM     25  C   UNL     1      18.388  34.829  53.673  1.00  0.00    -0.000 C 
BRANCH  25  26
ATOM     26  C   UNL     1      18.719  35.997  54.621  1.00  0.00    -0.000 C 
BRANCH  26  27
ATOM     27  C   UNL     1      17.594  37.030  54.815  1.00  0.00    -0.000 C 
BRANCH  27  28
ATOM     28  C   UNL     1      18.096  38.365  55.393  1.00  0.00    -0.000 C 
BRANCH  28  29
ATOM     29  C   UNL     1      17.888  38.461  56.914  1.00  0.00    -0.003 C 
ATOM     30  C   UNL     1      16.821  37.493  57.425  1.00  0.00     0.004 C 
ENDBRANCH  28  29
ENDBRANCH  27  28
ENDBRANCH  26  27
ENDBRANCH  25  26
ENDBRANCH  24  25
ENDBRANCH  23  24
ENDBRANCH  22  23
ENDBRANCH  21  22
ENDBRANCH  20  21
ENDBRANCH  19  20
ENDBRANCH  18  19
ENDBRANCH  17  18
ENDBRANCH   1  17
TORSDOF 26
ENDMDL
