MODEL 1
REMARK VINA RESULT:    -5.004      0.000      0.000
REMARK INTER + INTRA:         -11.226
REMARK INTER:                  -9.100
REMARK INTRA:                  -2.126
REMARK UNBOUND:                -2.126
REMARK SMILES CCCCCCCCCCCCCC[C@H](C)C(=O)[O-]
REMARK SMILES IDX 9 1 10 2 11 3 12 4 13 5 14 6 15 7 16 8 17 9 18 10 19 11 8 12
REMARK SMILES IDX 7 13 6 14 5 15 4 16 3 17 2 18 1 19
REMARK H PARENT
REMARK Flexibility Score: inf
ROOT
ATOM      1  C   UNL     1      63.766  30.558  27.326  1.00  0.00     0.000 C 
ENDROOT
BRANCH   1   2
ATOM      2  C   UNL     1      65.140  30.055  27.791  1.00  0.00     0.000 C 
BRANCH   2   3
ATOM      3  C   UNL     1      66.124  29.836  26.627  1.00  0.00     0.000 C 
BRANCH   3   4
ATOM      4  C   UNL     1      65.469  29.661  25.242  1.00  0.00     0.000 C 
BRANCH   4   5
ATOM      5  C   UNL     1      65.878  28.388  24.478  1.00  0.00     0.001 C 
BRANCH   5   6
ATOM      6  C   UNL     1      65.033  27.129  24.775  1.00  0.00     0.009 C 
BRANCH   6   7
ATOM      7  C   UNL     1      64.945  26.062  23.651  1.00  0.00     0.032 C 
ATOM      8  C   UNL     1      66.002  26.255  22.554  1.00  0.00     0.014 C 
BRANCH   7   9
ATOM      9  C   UNL     1      63.553  25.930  23.088  1.00  0.00     0.044 C 
ATOM     10  O   UNL     1      63.116  26.800  22.290  1.00  0.00    -0.550 OA
ATOM     11  O   UNL     1      62.728  24.871  23.453  1.00  0.00    -0.550 OA
ENDBRANCH   7   9
ENDBRANCH   6   7
ENDBRANCH   5   6
ENDBRANCH   4   5
ENDBRANCH   3   4
ENDBRANCH   2   3
ENDBRANCH   1   2
BRANCH   1  12
ATOM     12  C   UNL     1      62.768  30.584  28.492  1.00  0.00     0.000 C 
BRANCH  12  13
ATOM     13  C   UNL     1      62.543  29.197  29.122  1.00  0.00    -0.000 C 
BRANCH  13  14
ATOM     14  C   UNL     1      61.282  28.459  28.635  1.00  0.00    -0.000 C 
BRANCH  14  15
ATOM     15  C   UNL     1      61.580  27.048  28.111  1.00  0.00    -0.000 C 
BRANCH  15  16
ATOM     16  C   UNL     1      61.906  27.077  26.611  1.00  0.00    -0.000 C 
BRANCH  16  17
ATOM     17  C   UNL     1      60.649  27.066  25.721  1.00  0.00    -0.000 C 
BRANCH  17  18
ATOM     18  C   UNL     1      60.593  28.190  24.671  1.00  0.00    -0.003 C 
ATOM     19  C   UNL     1      61.833  29.082  24.682  1.00  0.00     0.004 C 
ENDBRANCH  17  18
ENDBRANCH  16  17
ENDBRANCH  15  16
ENDBRANCH  14  15
ENDBRANCH  13  14
ENDBRANCH  12  13
ENDBRANCH   1  12
TORSDOF 14
ENDMDL
MODEL 2
REMARK VINA RESULT:    -4.940      0.798      3.179
REMARK INTER + INTRA:         -11.109
REMARK INTER:                  -8.972
REMARK INTRA:                  -2.137
REMARK UNBOUND:                -2.126
REMARK SMILES CCCCCCCCCCCCCC[C@H](C)C(=O)[O-]
REMARK SMILES IDX 9 1 10 2 11 3 12 4 13 5 14 6 15 7 16 8 17 9 18 10 19 11 8 12
REMARK SMILES IDX 7 13 6 14 5 15 4 16 3 17 2 18 1 19
REMARK H PARENT
REMARK Flexibility Score: inf
ROOT
ATOM      1  C   UNL     1      61.562  28.006  24.581  1.00  0.00     0.000 C 
ENDROOT
BRANCH   1   2
ATOM      2  C   UNL     1      61.973  29.338  25.224  1.00  0.00     0.000 C 
BRANCH   2   3
ATOM      3  C   UNL     1      63.349  29.835  24.746  1.00  0.00     0.000 C 
BRANCH   3   4
ATOM      4  C   UNL     1      64.559  29.174  25.438  1.00  0.00     0.000 C 
BRANCH   4   5
ATOM      5  C   UNL     1      65.436  28.296  24.528  1.00  0.00     0.001 C 
BRANCH   5   6
ATOM      6  C   UNL     1      65.262  26.770  24.702  1.00  0.00     0.009 C 
BRANCH   6   7
ATOM      7  C   UNL     1      65.159  25.924  23.404  1.00  0.00     0.032 C 
ATOM      8  C   UNL     1      66.141  26.373  22.313  1.00  0.00     0.014 C 
BRANCH   7   9
ATOM      9  C   UNL     1      63.743  25.821  22.895  1.00  0.00     0.044 C 
ATOM     10  O   UNL     1      63.351  26.590  21.979  1.00  0.00    -0.550 OA
ATOM     11  O   UNL     1      62.851  24.900  23.435  1.00  0.00    -0.550 OA
ENDBRANCH   7   9
ENDBRANCH   6   7
ENDBRANCH   5   6
ENDBRANCH   4   5
ENDBRANCH   3   4
ENDBRANCH   2   3
ENDBRANCH   1   2
BRANCH   1  12
ATOM     12  C   UNL     1      61.092  27.005  25.646  1.00  0.00     0.000 C 
BRANCH  12  13
ATOM     13  C   UNL     1      62.064  26.890  26.834  1.00  0.00    -0.000 C 
BRANCH  13  14
ATOM     14  C   UNL     1      61.407  26.983  28.224  1.00  0.00    -0.000 C 
BRANCH  14  15
ATOM     15  C   UNL     1      61.186  28.430  28.686  1.00  0.00    -0.000 C 
BRANCH  15  16
ATOM     16  C   UNL     1      62.510  29.073  29.125  1.00  0.00    -0.000 C 
BRANCH  16  17
ATOM     17  C   UNL     1      62.749  30.453  28.484  1.00  0.00    -0.000 C 
BRANCH  17  18
ATOM     18  C   UNL     1      63.882  31.273  29.124  1.00  0.00    -0.003 C 
ATOM     19  C   UNL     1      65.189  31.206  28.335  1.00  0.00     0.004 C 
ENDBRANCH  17  18
ENDBRANCH  16  17
ENDBRANCH  15  16
ENDBRANCH  14  15
ENDBRANCH  13  14
ENDBRANCH  12  13
ENDBRANCH   1  12
TORSDOF 14
ENDMDL
MODEL 3
REMARK VINA RESULT:    -4.924      1.465      2.221
REMARK INTER + INTRA:         -11.080
REMARK INTER:                  -8.512
REMARK INTRA:                  -2.568
REMARK UNBOUND:                -2.126
REMARK SMILES CCCCCCCCCCCCCC[C@H](C)C(=O)[O-]
REMARK SMILES IDX 9 1 10 2 11 3 12 4 13 5 14 6 15 7 16 8 17 9 18 10 19 11 8 12
REMARK SMILES IDX 7 13 6 14 5 15 4 16 3 17 2 18 1 19
REMARK H PARENT
REMARK Flexibility Score: inf
ROOT
ATOM      1  C   UNL     1      62.282  29.985  28.259  1.00  0.00     0.000 C 
ENDROOT
BRANCH   1   2
ATOM      2  C   UNL     1      63.797  29.746  28.308  1.00  0.00     0.000 C 
BRANCH   2   3
ATOM      3  C   UNL     1      64.554  30.452  27.169  1.00  0.00     0.000 C 
BRANCH   3   4
ATOM      4  C   UNL     1      65.707  29.640  26.547  1.00  0.00     0.000 C 
BRANCH   4   5
ATOM      5  C   UNL     1      65.282  28.366  25.795  1.00  0.00     0.001 C 
BRANCH   5   6
ATOM      6  C   UNL     1      65.933  28.158  24.409  1.00  0.00     0.009 C 
BRANCH   6   7
ATOM      7  C   UNL     1      65.269  27.114  23.472  1.00  0.00     0.032 C 
ATOM      8  C   UNL     1      64.719  25.893  24.223  1.00  0.00     0.014 C 
BRANCH   7   9
ATOM      9  C   UNL     1      66.159  26.724  22.319  1.00  0.00     0.044 C 
ATOM     10  O   UNL     1      66.821  27.608  21.714  1.00  0.00    -0.550 OA
ATOM     11  O   UNL     1      66.247  25.403  21.895  1.00  0.00    -0.550 OA
ENDBRANCH   7   9
ENDBRANCH   6   7
ENDBRANCH   5   6
ENDBRANCH   4   5
ENDBRANCH   3   4
ENDBRANCH   2   3
ENDBRANCH   1   2
BRANCH   1  12
ATOM     12  C   UNL     1      61.511  28.696  28.576  1.00  0.00     0.000 C 
BRANCH  12  13
ATOM     13  C   UNL     1      62.305  27.422  28.231  1.00  0.00    -0.000 C 
BRANCH  13  14
ATOM     14  C   UNL     1      61.930  26.766  26.889  1.00  0.00    -0.000 C 
BRANCH  14  15
ATOM     15  C   UNL     1      60.475  27.030  26.479  1.00  0.00    -0.000 C 
BRANCH  15  16
ATOM     16  C   UNL     1      60.401  27.600  25.055  1.00  0.00    -0.000 C 
BRANCH  16  17
ATOM     17  C   UNL     1      61.759  28.113  24.542  1.00  0.00    -0.000 C 
BRANCH  17  18
ATOM     18  C   UNL     1      61.941  29.639  24.614  1.00  0.00    -0.003 C 
ATOM     19  C   UNL     1      63.114  30.143  23.774  1.00  0.00     0.004 C 
ENDBRANCH  17  18
ENDBRANCH  16  17
ENDBRANCH  15  16
ENDBRANCH  14  15
ENDBRANCH  13  14
ENDBRANCH  12  13
ENDBRANCH   1  12
TORSDOF 14
ENDMDL
MODEL 4
REMARK VINA RESULT:    -4.848     12.234     14.890
REMARK INTER + INTRA:         -10.942
REMARK INTER:                  -8.807
REMARK INTRA:                  -2.135
REMARK UNBOUND:                -2.126
REMARK SMILES CCCCCCCCCCCCCC[C@H](C)C(=O)[O-]
REMARK SMILES IDX 9 1 10 2 11 3 12 4 13 5 14 6 15 7 16 8 17 9 18 10 19 11 8 12
REMARK SMILES IDX 7 13 6 14 5 15 4 16 3 17 2 18 1 19
REMARK H PARENT
REMARK Flexibility Score: inf
ROOT
ATOM      1  C   UNL     1      64.442  30.345  10.028  1.00  0.00     0.000 C 
ENDROOT
BRANCH   1   2
ATOM      2  C   UNL     1      65.048  31.729   9.759  1.00  0.00     0.000 C 
BRANCH   2   3
ATOM      3  C   UNL     1      65.215  32.569  11.038  1.00  0.00     0.000 C 
BRANCH   3   4
ATOM      4  C   UNL     1      64.480  32.023  12.279  1.00  0.00     0.000 C 
BRANCH   4   5
ATOM      5  C   UNL     1      63.695  33.070  13.090  1.00  0.00     0.001 C 
BRANCH   5   6
ATOM      6  C   UNL     1      62.157  32.923  13.062  1.00  0.00     0.009 C 
BRANCH   6   7
ATOM      7  C   UNL     1      61.389  33.339  14.344  1.00  0.00     0.032 C 
ATOM      8  C   UNL     1      62.309  33.877  15.450  1.00  0.00     0.014 C 
BRANCH   7   9
ATOM      9  C   UNL     1      60.467  32.255  14.843  1.00  0.00     0.044 C 
ATOM     10  O   UNL     1      59.446  31.948  14.174  1.00  0.00    -0.550 OA
ATOM     11  O   UNL     1      60.713  31.599  16.044  1.00  0.00    -0.550 OA
ENDBRANCH   7   9
ENDBRANCH   6   7
ENDBRANCH   5   6
ENDBRANCH   4   5
ENDBRANCH   3   4
ENDBRANCH   2   3
ENDBRANCH   1   2
BRANCH   1  12
ATOM     12  C   UNL     1      63.445  29.959   8.926  1.00  0.00     0.000 C 
BRANCH  12  13
ATOM     13  C   UNL     1      62.772  28.596   9.174  1.00  0.00    -0.000 C 
BRANCH  13  14
ATOM     14  C   UNL     1      61.249  28.654   9.391  1.00  0.00    -0.000 C 
BRANCH  14  15
ATOM     15  C   UNL     1      60.733  30.077   9.641  1.00  0.00    -0.000 C 
BRANCH  15  16
ATOM     16  C   UNL     1      60.465  30.309  11.135  1.00  0.00    -0.000 C 
BRANCH  16  17
ATOM     17  C   UNL     1      60.099  29.017  11.888  1.00  0.00    -0.000 C 
BRANCH  17  18
ATOM     18  C   UNL     1      60.940  28.744  13.148  1.00  0.00    -0.003 C 
ATOM     19  C   UNL     1      62.419  29.078  12.964  1.00  0.00     0.004 C 
ENDBRANCH  17  18
ENDBRANCH  16  17
ENDBRANCH  15  16
ENDBRANCH  14  15
ENDBRANCH  13  14
ENDBRANCH  12  13
ENDBRANCH   1  12
TORSDOF 14
ENDMDL
MODEL 5
REMARK VINA RESULT:    -4.809      1.444      3.819
REMARK INTER + INTRA:         -10.871
REMARK INTER:                  -8.656
REMARK INTRA:                  -2.214
REMARK UNBOUND:                -2.126
REMARK SMILES CCCCCCCCCCCCCC[C@H](C)C(=O)[O-]
REMARK SMILES IDX 9 1 10 2 11 3 12 4 13 5 14 6 15 7 16 8 17 9 18 10 19 11 8 12
REMARK SMILES IDX 7 13 6 14 5 15 4 16 3 17 2 18 1 19
REMARK H PARENT
REMARK Flexibility Score: inf
ROOT
ATOM      1  C   UNL     1      61.809  26.787  27.314  1.00  0.00     0.000 C 
ENDROOT
BRANCH   1   2
ATOM      2  C   UNL     1      61.128  27.154  25.988  1.00  0.00     0.000 C 
BRANCH   2   3
ATOM      3  C   UNL     1      61.588  28.514  25.433  1.00  0.00     0.000 C 
BRANCH   3   4
ATOM      4  C   UNL     1      61.784  28.564  23.905  1.00  0.00     0.000 C 
BRANCH   4   5
ATOM      5  C   UNL     1      63.197  28.204  23.412  1.00  0.00     0.001 C 
BRANCH   5   6
ATOM      6  C   UNL     1      63.379  26.758  22.896  1.00  0.00     0.009 C 
BRANCH   6   7
ATOM      7  C   UNL     1      64.563  25.947  23.487  1.00  0.00     0.032 C 
ATOM      8  C   UNL     1      64.818  26.246  24.971  1.00  0.00     0.014 C 
BRANCH   7   9
ATOM      9  C   UNL     1      65.815  26.066  22.655  1.00  0.00     0.044 C 
ATOM     10  O   UNL     1      66.270  25.052  22.063  1.00  0.00    -0.550 OA
ATOM     11  O   UNL     1      66.493  27.275  22.546  1.00  0.00    -0.550 OA
ENDBRANCH   7   9
ENDBRANCH   6   7
ENDBRANCH   5   6
ENDBRANCH   4   5
ENDBRANCH   3   4
ENDBRANCH   2   3
ENDBRANCH   1   2
BRANCH   1  12
ATOM     12  C   UNL     1      60.885  27.079  28.505  1.00  0.00     0.000 C 
BRANCH  12  13
ATOM     13  C   UNL     1      61.120  28.470  29.122  1.00  0.00    -0.000 C 
BRANCH  13  14
ATOM     14  C   UNL     1      62.568  28.984  29.032  1.00  0.00    -0.000 C 
BRANCH  14  15
ATOM     15  C   UNL     1      62.653  30.492  28.755  1.00  0.00    -0.000 C 
BRANCH  15  16
ATOM     16  C   UNL     1      63.842  30.816  27.839  1.00  0.00    -0.000 C 
BRANCH  16  17
ATOM     17  C   UNL     1      64.489  29.559  27.227  1.00  0.00    -0.000 C 
BRANCH  17  18
ATOM     18  C   UNL     1      65.278  29.807  25.929  1.00  0.00    -0.003 C 
ATOM     19  C   UNL     1      66.792  29.747  26.128  1.00  0.00     0.004 C 
ENDBRANCH  17  18
ENDBRANCH  16  17
ENDBRANCH  15  16
ENDBRANCH  14  15
ENDBRANCH  13  14
ENDBRANCH  12  13
ENDBRANCH   1  12
TORSDOF 14
ENDMDL
MODEL 6
REMARK VINA RESULT:    -4.735     11.698     14.603
REMARK INTER + INTRA:         -10.737
REMARK INTER:                  -8.559
REMARK INTRA:                  -2.179
REMARK UNBOUND:                -2.126
REMARK SMILES CCCCCCCCCCCCCC[C@H](C)C(=O)[O-]
REMARK SMILES IDX 9 1 10 2 11 3 12 4 13 5 14 6 15 7 16 8 17 9 18 10 19 11 8 12
REMARK SMILES IDX 7 13 6 14 5 15 4 16 3 17 2 18 1 19
REMARK H PARENT
REMARK Flexibility Score: inf
ROOT
ATOM      1  C   UNL     1      60.611  28.411  11.970  1.00  0.00     0.000 C 
ENDROOT
BRANCH   1   2
ATOM      2  C   UNL     1      60.472  29.499  13.044  1.00  0.00     0.000 C 
BRANCH   2   3
ATOM      3  C   UNL     1      60.481  30.923  12.459  1.00  0.00     0.000 C 
BRANCH   3   4
ATOM      4  C   UNL     1      60.111  32.041  13.455  1.00  0.00     0.000 C 
BRANCH   4   5
ATOM      5  C   UNL     1      61.007  33.291  13.401  1.00  0.00     0.001 C 
BRANCH   5   6
ATOM      6  C   UNL     1      62.508  33.052  13.684  1.00  0.00     0.009 C 
BRANCH   6   7
ATOM      7  C   UNL     1      63.071  33.628  15.010  1.00  0.00     0.032 C 
ATOM      8  C   UNL     1      64.512  34.143  14.880  1.00  0.00     0.014 C 
BRANCH   7   9
ATOM      9  C   UNL     1      62.905  32.678  16.169  1.00  0.00     0.044 C 
ATOM     10  O   UNL     1      62.525  31.497  15.958  1.00  0.00    -0.550 OA
ATOM     11  O   UNL     1      63.144  33.089  17.476  1.00  0.00    -0.550 OA
ENDBRANCH   7   9
ENDBRANCH   6   7
ENDBRANCH   5   6
ENDBRANCH   4   5
ENDBRANCH   3   4
ENDBRANCH   2   3
ENDBRANCH   1   2
BRANCH   1  12
ATOM     12  C   UNL     1      60.280  28.968  10.578  1.00  0.00     0.000 C 
BRANCH  12  13
ATOM     13  C   UNL     1      61.213  28.430   9.478  1.00  0.00    -0.000 C 
BRANCH  13  14
ATOM     14  C   UNL     1      62.243  29.445   8.947  1.00  0.00    -0.000 C 
BRANCH  14  15
ATOM     15  C   UNL     1      63.692  29.040   9.249  1.00  0.00    -0.000 C 
BRANCH  15  16
ATOM     16  C   UNL     1      64.479  30.219   9.840  1.00  0.00    -0.000 C 
BRANCH  16  17
ATOM     17  C   UNL     1      63.972  30.644  11.231  1.00  0.00    -0.000 C 
BRANCH  17  18
ATOM     18  C   UNL     1      64.066  29.553  12.312  1.00  0.00    -0.003 C 
ATOM     19  C   UNL     1      64.680  30.057  13.618  1.00  0.00     0.004 C 
ENDBRANCH  17  18
ENDBRANCH  16  17
ENDBRANCH  15  16
ENDBRANCH  14  15
ENDBRANCH  13  14
ENDBRANCH  12  13
ENDBRANCH   1  12
TORSDOF 14
ENDMDL
MODEL 7
REMARK VINA RESULT:    -4.719     11.332     13.923
REMARK INTER + INTRA:         -10.708
REMARK INTER:                  -8.718
REMARK INTRA:                  -1.990
REMARK UNBOUND:                -2.126
REMARK SMILES CCCCCCCCCCCCCC[C@H](C)C(=O)[O-]
REMARK SMILES IDX 9 1 10 2 11 3 12 4 13 5 14 6 15 7 16 8 17 9 18 10 19 11 8 12
REMARK SMILES IDX 7 13 6 14 5 15 4 16 3 17 2 18 1 19
REMARK H PARENT
REMARK Flexibility Score: inf
ROOT
ATOM      1  C   UNL     1      61.859  30.533  14.041  1.00  0.00     0.000 C 
ENDROOT
BRANCH   1   2
ATOM      2  C   UNL     1      62.265  31.662  13.084  1.00  0.00     0.000 C 
BRANCH   2   3
ATOM      3  C   UNL     1      61.244  32.813  13.046  1.00  0.00     0.000 C 
BRANCH   3   4
ATOM      4  C   UNL     1      60.431  33.008  14.342  1.00  0.00     0.000 C 
BRANCH   4   5
ATOM      5  C   UNL     1      60.910  34.155  15.250  1.00  0.00     0.001 C 
BRANCH   5   6
ATOM      6  C   UNL     1      61.613  33.724  16.558  1.00  0.00     0.009 C 
BRANCH   6   7
ATOM      7  C   UNL     1      63.085  34.178  16.744  1.00  0.00     0.032 C 
ATOM      8  C   UNL     1      63.966  33.884  15.522  1.00  0.00     0.014 C 
BRANCH   7   9
ATOM      9  C   UNL     1      63.690  33.661  18.025  1.00  0.00     0.044 C 
ATOM     10  O   UNL     1      62.942  33.347  18.987  1.00  0.00    -0.550 OA
ATOM     11  O   UNL     1      65.069  33.546  18.173  1.00  0.00    -0.550 OA
ENDBRANCH   7   9
ENDBRANCH   6   7
ENDBRANCH   5   6
ENDBRANCH   4   5
ENDBRANCH   3   4
ENDBRANCH   2   3
ENDBRANCH   1   2
BRANCH   1  12
ATOM     12  C   UNL     1      61.848  29.178  13.318  1.00  0.00     0.000 C 
BRANCH  12  13
ATOM     13  C   UNL     1      60.442  28.760  12.847  1.00  0.00    -0.000 C 
BRANCH  13  14
ATOM     14  C   UNL     1      60.292  28.588  11.324  1.00  0.00    -0.000 C 
BRANCH  14  15
ATOM     15  C   UNL     1      60.333  29.921  10.564  1.00  0.00    -0.000 C 
BRANCH  15  16
ATOM     16  C   UNL     1      61.177  29.798   9.287  1.00  0.00    -0.000 C 
BRANCH  16  17
ATOM     17  C   UNL     1      62.146  28.601   9.319  1.00  0.00    -0.000 C 
BRANCH  17  18
ATOM     18  C   UNL     1      63.637  28.975   9.254  1.00  0.00    -0.003 C 
ATOM     19  C   UNL     1      64.064  29.925  10.372  1.00  0.00     0.004 C 
ENDBRANCH  17  18
ENDBRANCH  16  17
ENDBRANCH  15  16
ENDBRANCH  14  15
ENDBRANCH  13  14
ENDBRANCH  12  13
ENDBRANCH   1  12
TORSDOF 14
ENDMDL
MODEL 8
REMARK VINA RESULT:    -4.702      1.582      4.892
REMARK INTER + INTRA:         -10.677
REMARK INTER:                  -8.550
REMARK INTRA:                  -2.127
REMARK UNBOUND:                -2.126
REMARK SMILES CCCCCCCCCCCCCC[C@H](C)C(=O)[O-]
REMARK SMILES IDX 9 1 10 2 11 3 12 4 13 5 14 6 15 7 16 8 17 9 18 10 19 11 8 12
REMARK SMILES IDX 7 13 6 14 5 15 4 16 3 17 2 18 1 19
REMARK H PARENT
REMARK Flexibility Score: inf
ROOT
ATOM      1  C   UNL     1      65.627  29.209  26.277  1.00  0.00     0.000 C 
ENDROOT
BRANCH   1   2
ATOM      2  C   UNL     1      65.994  30.316  27.275  1.00  0.00     0.000 C 
BRANCH   2   3
ATOM      3  C   UNL     1      65.241  30.193  28.612  1.00  0.00     0.000 C 
BRANCH   3   4
ATOM      4  C   UNL     1      63.779  30.683  28.586  1.00  0.00     0.000 C 
BRANCH   4   5
ATOM      5  C   UNL     1      62.714  29.571  28.599  1.00  0.00     0.001 C 
BRANCH   5   6
ATOM      6  C   UNL     1      61.935  29.375  27.279  1.00  0.00     0.009 C 
BRANCH   6   7
ATOM      7  C   UNL     1      61.128  28.058  27.130  1.00  0.00     0.032 C 
ATOM      8  C   UNL     1      61.807  26.856  27.803  1.00  0.00     0.014 C 
BRANCH   7   9
ATOM      9  C   UNL     1      60.746  27.774  25.700  1.00  0.00     0.044 C 
ATOM     10  O   UNL     1      60.007  26.790  25.435  1.00  0.00    -0.550 OA
ATOM     11  O   UNL     1      61.214  28.569  24.660  1.00  0.00    -0.550 OA
ENDBRANCH   7   9
ENDBRANCH   6   7
ENDBRANCH   5   6
ENDBRANCH   4   5
ENDBRANCH   3   4
ENDBRANCH   2   3
ENDBRANCH   1   2
BRANCH   1  12
ATOM     12  C   UNL     1      64.842  29.781  25.087  1.00  0.00     0.000 C 
BRANCH  12  13
ATOM     13  C   UNL     1      65.661  29.806  23.783  1.00  0.00    -0.000 C 
BRANCH  13  14
ATOM     14  C   UNL     1      66.652  28.638  23.616  1.00  0.00    -0.000 C 
BRANCH  14  15
ATOM     15  C   UNL     1      66.362  27.781  22.376  1.00  0.00    -0.000 C 
BRANCH  15  16
ATOM     16  C   UNL     1      65.744  26.433  22.774  1.00  0.00    -0.000 C 
BRANCH  16  17
ATOM     17  C   UNL     1      64.216  26.393  22.585  1.00  0.00    -0.000 C 
BRANCH  17  18
ATOM     18  C   UNL     1      63.424  25.939  23.824  1.00  0.00    -0.003 C 
ATOM     19  C   UNL     1      64.201  26.112  25.128  1.00  0.00     0.004 C 
ENDBRANCH  17  18
ENDBRANCH  16  17
ENDBRANCH  15  16
ENDBRANCH  14  15
ENDBRANCH  13  14
ENDBRANCH  12  13
ENDBRANCH   1  12
TORSDOF 14
ENDMDL
MODEL 9
REMARK VINA RESULT:    -4.694     11.824     14.841
REMARK INTER + INTRA:         -10.663
REMARK INTER:                  -8.394
REMARK INTRA:                  -2.269
REMARK UNBOUND:                -2.126
REMARK SMILES CCCCCCCCCCCCCC[C@H](C)C(=O)[O-]
REMARK SMILES IDX 9 1 10 2 11 3 12 4 13 5 14 6 15 7 16 8 17 9 18 10 19 11 8 12
REMARK SMILES IDX 7 13 6 14 5 15 4 16 3 17 2 18 1 19
REMARK H PARENT
REMARK Flexibility Score: inf
ROOT
ATOM      1  C   UNL     1      60.005  29.103  10.708  1.00  0.00     0.000 C 
ENDROOT
BRANCH   1   2
ATOM      2  C   UNL     1      60.790  28.646  11.946  1.00  0.00     0.000 C 
BRANCH   2   3
ATOM      3  C   UNL     1      60.807  29.699  13.068  1.00  0.00     0.000 C 
BRANCH   3   4
ATOM      4  C   UNL     1      60.469  31.136  12.621  1.00  0.00     0.000 C 
BRANCH   4   5
ATOM      5  C   UNL     1      59.917  32.054  13.726  1.00  0.00     0.001 C 
BRANCH   5   6
ATOM      6  C   UNL     1      60.849  33.206  14.167  1.00  0.00     0.009 C 
BRANCH   6   7
ATOM      7  C   UNL     1      61.744  32.948  15.408  1.00  0.00     0.032 C 
ATOM      8  C   UNL     1      61.280  31.748  16.246  1.00  0.00     0.014 C 
BRANCH   7   9
ATOM      9  C   UNL     1      61.945  34.187  16.242  1.00  0.00     0.044 C 
ATOM     10  O   UNL     1      63.094  34.472  16.671  1.00  0.00    -0.550 OA
ATOM     11  O   UNL     1      60.876  35.015  16.568  1.00  0.00    -0.550 OA
ENDBRANCH   7   9
ENDBRANCH   6   7
ENDBRANCH   5   6
ENDBRANCH   4   5
ENDBRANCH   3   4
ENDBRANCH   2   3
ENDBRANCH   1   2
BRANCH   1  12
ATOM     12  C   UNL     1      60.949  29.368   9.527  1.00  0.00     0.000 C 
BRANCH  12  13
ATOM     13  C   UNL     1      62.063  28.313   9.398  1.00  0.00    -0.000 C 
BRANCH  13  14
ATOM     14  C   UNL     1      63.479  28.883   9.198  1.00  0.00    -0.000 C 
BRANCH  14  15
ATOM     15  C   UNL     1      63.568  30.385   9.503  1.00  0.00    -0.000 C 
BRANCH  15  16
ATOM     16  C   UNL     1      64.624  30.663  10.584  1.00  0.00    -0.000 C 
BRANCH  16  17
ATOM     17  C   UNL     1      64.194  30.182  11.982  1.00  0.00    -0.000 C 
BRANCH  17  18
ATOM     18  C   UNL     1      64.220  31.267  13.073  1.00  0.00    -0.003 C 
ATOM     19  C   UNL     1      64.153  32.685  12.509  1.00  0.00     0.004 C 
ENDBRANCH  17  18
ENDBRANCH  16  17
ENDBRANCH  15  16
ENDBRANCH  14  15
ENDBRANCH  13  14
ENDBRANCH  12  13
ENDBRANCH   1  12
TORSDOF 14
ENDMDL
