MODEL 1
REMARK VINA RESULT:    -8.117      0.000      0.000
REMARK INTER + INTRA:         -12.216
REMARK INTER:                 -11.913
REMARK INTRA:                  -0.303
REMARK UNBOUND:                -0.303
REMARK SMILES O=c1c(O[C@@H]2O[C@@H](CO)[C@@H](O)[C@@H](O)[C@H]2O)c(-c2ccc(O)c(O)c2)oc2cc(O)cc(O)c12
REMARK SMILES IDX 4 1 3 2 16 3 25 4 2 5 26 6 1 7 33 8 27 9 31 10 28 11 30 12
REMARK SMILES IDX 17 13 18 14 19 15 20 16 24 17 22 18 21 19 23 21 32 23 29 25
REMARK SMILES IDX 5 27 14 28 6 29 12 30 7 31 10 32 15 33 13 35 8 37 9 38 11 40
REMARK H PARENT 21 20 23 22 32 24 29 26 15 34 13 36 9 39 11 41
REMARK Flexibility Score: inf
ROOT
ATOM      1  O   UNL     1       8.842 -15.077 -24.131  1.00  0.00    -0.454 OA
ENDROOT
BRANCH   1   2
ATOM      2  C   UNL     1       9.000 -13.682 -24.256  1.00  0.00     0.214 A 
ATOM      3  C   UNL     1       9.602 -12.985 -23.188  1.00  0.00     0.180 A 
ATOM      4  O   UNL     1       9.824 -11.678 -23.279  1.00  0.00    -0.452 OA
ATOM      5  C   UNL     1       8.618 -12.944 -25.402  1.00  0.00     0.239 A 
ATOM      6  C   UNL     1       9.483 -10.952 -24.335  1.00  0.00     0.146 A 
ATOM      7  O   UNL     1       8.076 -13.522 -26.381  1.00  0.00    -0.285 OA
ATOM      8  C   UNL     1       8.856 -11.553 -25.448  1.00  0.00     0.111 A 
ATOM      9  C   UNL     1       9.755  -9.581 -24.332  1.00  0.00     0.094 A 
ATOM     10  C   UNL     1       8.501 -10.744 -26.557  1.00  0.00     0.134 A 
ATOM     11  C   UNL     1       9.406  -8.789 -25.425  1.00  0.00     0.123 A 
ATOM     12  C   UNL     1       8.781  -9.370 -26.534  1.00  0.00     0.093 A 
BRANCH   3  13
ATOM     13  C   UNL     1      10.029 -13.674 -21.950  1.00  0.00     0.025 A 
ATOM     14  C   UNL     1      10.133 -12.947 -20.755  1.00  0.00     0.016 A 
ATOM     15  C   UNL     1      10.527 -13.582 -19.574  1.00  0.00     0.051 A 
ATOM     16  C   UNL     1      10.808 -14.954 -19.568  1.00  0.00     0.157 A 
ATOM     17  C   UNL     1      10.284 -15.055 -21.935  1.00  0.00     0.062 A 
ATOM     18  C   UNL     1      10.682 -15.695 -20.755  1.00  0.00     0.158 A 
BRANCH  16  19
ATOM     19  O   UNL     1      11.205 -15.583 -18.390  1.00  0.00    -0.504 OA
ATOM     20  H   UNL     1      11.906 -15.178 -17.781  1.00  0.00     0.293 HD
ENDBRANCH  16  19
BRANCH  18  21
ATOM     21  O   UNL     1      10.942 -17.064 -20.782  1.00  0.00    -0.504 OA
ATOM     22  H   UNL     1      11.618 -17.496 -20.163  1.00  0.00     0.293 HD
ENDBRANCH  18  21
ENDBRANCH   3  13
BRANCH  10  23
ATOM     23  O   UNL     1       7.875 -11.292 -27.678  1.00  0.00    -0.507 OA
ATOM     24  H   UNL     1       7.442 -12.207 -27.654  1.00  0.00     0.293 HD
ENDBRANCH  10  23
BRANCH  11  25
ATOM     25  O   UNL     1       9.684  -7.424 -25.402  1.00  0.00    -0.508 OA
ATOM     26  H   UNL     1       8.964  -6.739 -25.206  1.00  0.00     0.293 HD
ENDBRANCH  11  25
ENDBRANCH   1   2
BRANCH   1  27
ATOM     27  C   UNL     1       8.809 -16.050 -25.180  1.00  0.00     0.339 C 
ATOM     28  C   UNL     1      10.187 -16.133 -25.864  1.00  0.00     0.214 C 
ATOM     29  O   UNL     1       8.389 -17.322 -24.704  1.00  0.00    -0.332 OA
ATOM     30  C   UNL     1      11.221 -16.769 -24.908  1.00  0.00     0.180 C 
ATOM     31  C   UNL     1       9.279 -17.834 -23.724  1.00  0.00     0.179 C 
ATOM     32  C   UNL     1      10.681 -18.086 -24.326  1.00  0.00     0.177 C 
BRANCH  28  33
ATOM     33  O   UNL     1      10.070 -16.888 -27.043  1.00  0.00    -0.384 OA
ATOM     34  H   UNL     1      10.504 -17.764 -26.870  1.00  0.00     0.211 HD
ENDBRANCH  28  33
BRANCH  30  35
ATOM     35  O   UNL     1      12.438 -17.000 -25.571  1.00  0.00    -0.387 OA
ATOM     36  H   UNL     1      12.813 -16.109 -25.797  1.00  0.00     0.211 HD
ENDBRANCH  30  35
BRANCH  31  37
ATOM     37  C   UNL     1       8.679 -19.107 -23.113  1.00  0.00     0.191 C 
BRANCH  37  38
ATOM     38  O   UNL     1       8.939 -19.168 -21.737  1.00  0.00    -0.394 OA
ATOM     39  H   UNL     1       9.900 -18.952 -21.629  1.00  0.00     0.210 HD
ENDBRANCH  37  38
ENDBRANCH  31  37
BRANCH  32  40
ATOM     40  O   UNL     1      10.608 -19.070 -25.328  1.00  0.00    -0.387 OA
ATOM     41  H   UNL     1       9.679 -19.058 -25.679  1.00  0.00     0.211 HD
ENDBRANCH  32  40
ENDBRANCH   1  27
TORSDOF 12
ENDMDL
MODEL 2
REMARK VINA RESULT:    -6.203      1.185      2.387
REMARK INTER + INTRA:          -9.408
REMARK INTER:                  -9.838
REMARK INTRA:                   0.430
REMARK UNBOUND:                -0.303
REMARK SMILES O=c1c(O[C@@H]2O[C@@H](CO)[C@@H](O)[C@@H](O)[C@H]2O)c(-c2ccc(O)c(O)c2)oc2cc(O)cc(O)c12
REMARK SMILES IDX 4 1 3 2 16 3 25 4 2 5 26 6 1 7 33 8 27 9 31 10 28 11 30 12
REMARK SMILES IDX 17 13 18 14 19 15 20 16 24 17 22 18 21 19 23 21 32 23 29 25
REMARK SMILES IDX 5 27 14 28 6 29 12 30 7 31 10 32 15 33 13 35 8 37 9 38 11 40
REMARK H PARENT 21 20 23 22 32 24 29 26 15 34 13 36 9 39 11 41
REMARK Flexibility Score: inf
ROOT
ATOM      1  O   UNL     1       9.465 -15.273 -24.504  1.00  0.00    -0.454 OA
ENDROOT
BRANCH   1   2
ATOM      2  C   UNL     1       9.177 -13.894 -24.571  1.00  0.00     0.214 A 
ATOM      3  C   UNL     1       9.348 -13.124 -23.402  1.00  0.00     0.180 A 
ATOM      4  O   UNL     1       9.144 -11.812 -23.426  1.00  0.00    -0.452 OA
ATOM      5  C   UNL     1       8.756 -13.232 -25.749  1.00  0.00     0.239 A 
ATOM      6  C   UNL     1       8.752 -11.154 -24.509  1.00  0.00     0.146 A 
ATOM      7  O   UNL     1       8.589 -13.877 -26.818  1.00  0.00    -0.285 OA
ATOM      8  C   UNL     1       8.533 -11.838 -25.725  1.00  0.00     0.111 A 
ATOM      9  C   UNL     1       8.559  -9.772 -24.430  1.00  0.00     0.094 A 
ATOM     10  C   UNL     1       8.109 -11.102 -26.860  1.00  0.00     0.134 A 
ATOM     11  C   UNL     1       8.143  -9.052 -25.549  1.00  0.00     0.123 A 
ATOM     12  C   UNL     1       7.919  -9.716 -26.760  1.00  0.00     0.093 A 
BRANCH   3  13
ATOM     13  C   UNL     1       9.781 -13.734 -22.124  1.00  0.00     0.025 A 
ATOM     14  C   UNL     1       9.814 -15.131 -22.002  1.00  0.00     0.016 A 
ATOM     15  C   UNL     1      10.227 -15.726 -20.806  1.00  0.00     0.051 A 
ATOM     16  C   UNL     1      10.625 -14.932 -19.722  1.00  0.00     0.157 A 
ATOM     17  C   UNL     1      10.207 -12.942 -21.045  1.00  0.00     0.062 A 
ATOM     18  C   UNL     1      10.618 -13.533 -19.845  1.00  0.00     0.158 A 
BRANCH  16  19
ATOM     19  O   UNL     1      11.031 -15.528 -18.530  1.00  0.00    -0.504 OA
ATOM     20  H   UNL     1      10.920 -16.522 -18.368  1.00  0.00     0.293 HD
ENDBRANCH  16  19
BRANCH  18  21
ATOM     21  O   UNL     1      11.020 -12.715 -18.790  1.00  0.00    -0.504 OA
ATOM     22  H   UNL     1      11.867 -12.891 -18.264  1.00  0.00     0.293 HD
ENDBRANCH  18  21
ENDBRANCH   3  13
BRANCH  10  23
ATOM     23  O   UNL     1       7.875 -11.735 -28.082  1.00  0.00    -0.507 OA
ATOM     24  H   UNL     1       6.950 -11.775 -28.495  1.00  0.00     0.293 HD
ENDBRANCH  10  23
BRANCH  11  25
ATOM     25  O   UNL     1       7.955  -7.675 -25.450  1.00  0.00    -0.508 OA
ATOM     26  H   UNL     1       8.157  -7.054 -26.226  1.00  0.00     0.293 HD
ENDBRANCH  11  25
ENDBRANCH   1   2
BRANCH   1  27
ATOM     27  C   UNL     1      10.620 -15.950 -25.010  1.00  0.00     0.339 C 
ATOM     28  C   UNL     1      11.082 -17.023 -24.007  1.00  0.00     0.214 C 
ATOM     29  O   UNL     1      10.380 -16.509 -26.295  1.00  0.00    -0.332 OA
ATOM     30  C   UNL     1      10.062 -18.183 -23.959  1.00  0.00     0.180 C 
ATOM     31  C   UNL     1       9.344 -17.477 -26.259  1.00  0.00     0.179 C 
ATOM     32  C   UNL     1       9.743 -18.684 -25.378  1.00  0.00     0.177 C 
BRANCH  28  33
ATOM     33  O   UNL     1      12.350 -17.493 -24.389  1.00  0.00    -0.384 OA
ATOM     34  H   UNL     1      12.886 -16.700 -24.651  1.00  0.00     0.211 HD
ENDBRANCH  28  33
BRANCH  30  35
ATOM     35  O   UNL     1      10.547 -19.242 -23.174  1.00  0.00    -0.387 OA
ATOM     36  H   UNL     1      11.374 -19.569 -23.615  1.00  0.00     0.211 HD
ENDBRANCH  30  35
BRANCH  31  37
ATOM     37  C   UNL     1       9.001 -17.903 -27.694  1.00  0.00     0.191 C 
BRANCH  37  38
ATOM     38  O   UNL     1       8.958 -16.790 -28.545  1.00  0.00    -0.394 OA
ATOM     39  H   UNL     1       9.627 -16.148 -28.192  1.00  0.00     0.210 HD
ENDBRANCH  37  38
ENDBRANCH  31  37
BRANCH  32  40
ATOM     40  O   UNL     1      10.860 -19.337 -25.928  1.00  0.00    -0.387 OA
ATOM     41  H   UNL     1      11.282 -19.858 -25.195  1.00  0.00     0.211 HD
ENDBRANCH  32  40
ENDBRANCH   1  27
TORSDOF 12
ENDMDL
MODEL 3
REMARK VINA RESULT:    -6.185     15.107     18.540
REMARK INTER + INTRA:          -9.380
REMARK INTER:                  -7.776
REMARK INTRA:                  -1.604
REMARK UNBOUND:                -0.303
REMARK SMILES O=c1c(O[C@@H]2O[C@@H](CO)[C@@H](O)[C@@H](O)[C@H]2O)c(-c2ccc(O)c(O)c2)oc2cc(O)cc(O)c12
REMARK SMILES IDX 4 1 3 2 16 3 25 4 2 5 26 6 1 7 33 8 27 9 31 10 28 11 30 12
REMARK SMILES IDX 17 13 18 14 19 15 20 16 24 17 22 18 21 19 23 21 32 23 29 25
REMARK SMILES IDX 5 27 14 28 6 29 12 30 7 31 10 32 15 33 13 35 8 37 9 38 11 40
REMARK H PARENT 21 20 23 22 32 24 29 26 15 34 13 36 9 39 11 41
REMARK Flexibility Score: inf
ROOT
ATOM      1  O   UNL     1      24.232  -5.885 -29.588  1.00  0.00    -0.454 OA
ENDROOT
BRANCH   1   2
ATOM      2  C   UNL     1      23.936  -7.253 -29.758  1.00  0.00     0.214 A 
ATOM      3  C   UNL     1      22.901  -7.601 -30.650  1.00  0.00     0.180 A 
ATOM      4  O   UNL     1      22.621  -8.878 -30.887  1.00  0.00    -0.452 OA
ATOM      5  C   UNL     1      24.637  -8.298 -29.109  1.00  0.00     0.239 A 
ATOM      6  C   UNL     1      23.255  -9.885 -30.302  1.00  0.00     0.146 A 
ATOM      7  O   UNL     1      25.569  -8.037 -28.303  1.00  0.00    -0.285 OA
ATOM      8  C   UNL     1      24.293  -9.641 -29.377  1.00  0.00     0.111 A 
ATOM      9  C   UNL     1      22.880 -11.195 -30.615  1.00  0.00     0.094 A 
ATOM     10  C   UNL     1      24.943 -10.743 -28.767  1.00  0.00     0.134 A 
ATOM     11  C   UNL     1      23.524 -12.277 -30.015  1.00  0.00     0.123 A 
ATOM     12  C   UNL     1      24.552 -12.050 -29.094  1.00  0.00     0.093 A 
BRANCH   3  13
ATOM     13  C   UNL     1      22.113  -6.575 -31.368  1.00  0.00     0.025 A 
ATOM     14  C   UNL     1      22.455  -6.239 -32.687  1.00  0.00     0.016 A 
ATOM     15  C   UNL     1      21.718  -5.277 -33.384  1.00  0.00     0.051 A 
ATOM     16  C   UNL     1      20.623  -4.649 -32.777  1.00  0.00     0.157 A 
ATOM     17  C   UNL     1      20.998  -5.963 -30.773  1.00  0.00     0.062 A 
ATOM     18  C   UNL     1      20.259  -4.998 -31.466  1.00  0.00     0.158 A 
BRANCH  16  19
ATOM     19  O   UNL     1      19.893  -3.687 -33.473  1.00  0.00    -0.504 OA
ATOM     20  H   UNL     1      18.932  -3.847 -33.751  1.00  0.00     0.293 HD
ENDBRANCH  16  19
BRANCH  18  21
ATOM     21  O   UNL     1      19.167  -4.400 -30.838  1.00  0.00    -0.504 OA
ATOM     22  H   UNL     1      18.292  -4.235 -31.320  1.00  0.00     0.293 HD
ENDBRANCH  18  21
ENDBRANCH   3  13
BRANCH  10  23
ATOM     23  O   UNL     1      25.972 -10.552 -27.844  1.00  0.00    -0.507 OA
ATOM     24  H   UNL     1      26.531 -11.323 -27.499  1.00  0.00     0.293 HD
ENDBRANCH  10  23
BRANCH  11  25
ATOM     25  O   UNL     1      23.136 -13.574 -30.339  1.00  0.00    -0.508 OA
ATOM     26  H   UNL     1      23.537 -14.067 -31.130  1.00  0.00     0.293 HD
ENDBRANCH  11  25
ENDBRANCH   1   2
BRANCH   1  27
ATOM     27  C   UNL     1      23.732  -5.002 -28.578  1.00  0.00     0.339 C 
ATOM     28  C   UNL     1      24.904  -4.332 -27.838  1.00  0.00     0.214 C 
ATOM     29  O   UNL     1      22.839  -4.037 -29.119  1.00  0.00    -0.332 OA
ATOM     30  C   UNL     1      25.622  -3.331 -28.771  1.00  0.00     0.180 C 
ATOM     31  C   UNL     1      23.481  -3.211 -30.078  1.00  0.00     0.179 C 
ATOM     32  C   UNL     1      24.608  -2.377 -29.425  1.00  0.00     0.177 C 
BRANCH  28  33
ATOM     33  O   UNL     1      24.413  -3.680 -26.694  1.00  0.00    -0.384 OA
ATOM     34  H   UNL     1      23.699  -4.256 -26.316  1.00  0.00     0.211 HD
ENDBRANCH  28  33
BRANCH  30  35
ATOM     35  O   UNL     1      26.588  -2.594 -28.064  1.00  0.00    -0.387 OA
ATOM     36  H   UNL     1      26.156  -1.743 -27.793  1.00  0.00     0.211 HD
ENDBRANCH  30  35
BRANCH  31  37
ATOM     37  C   UNL     1      22.433  -2.323 -30.761  1.00  0.00     0.191 C 
BRANCH  37  38
ATOM     38  O   UNL     1      21.294  -2.189 -29.956  1.00  0.00    -0.394 OA
ATOM     39  H   UNL     1      21.495  -1.458 -29.315  1.00  0.00     0.210 HD
ENDBRANCH  37  38
ENDBRANCH  31  37
BRANCH  32  40
ATOM     40  O   UNL     1      24.070  -1.502 -28.464  1.00  0.00    -0.387 OA
ATOM     41  H   UNL     1      23.714  -2.065 -27.727  1.00  0.00     0.211 HD
ENDBRANCH  32  40
ENDBRANCH   1  27
TORSDOF 12
ENDMDL
MODEL 4
REMARK VINA RESULT:    -6.032     15.718     19.097
REMARK INTER + INTRA:          -9.156
REMARK INTER:                  -8.029
REMARK INTRA:                  -1.127
REMARK UNBOUND:                -0.303
REMARK SMILES O=c1c(O[C@@H]2O[C@@H](CO)[C@@H](O)[C@@H](O)[C@H]2O)c(-c2ccc(O)c(O)c2)oc2cc(O)cc(O)c12
REMARK SMILES IDX 4 1 3 2 16 3 25 4 2 5 26 6 1 7 33 8 27 9 31 10 28 11 30 12
REMARK SMILES IDX 17 13 18 14 19 15 20 16 24 17 22 18 21 19 23 21 32 23 29 25
REMARK SMILES IDX 5 27 14 28 6 29 12 30 7 31 10 32 15 33 13 35 8 37 9 38 11 40
REMARK H PARENT 21 20 23 22 32 24 29 26 15 34 13 36 9 39 11 41
REMARK Flexibility Score: inf
ROOT
ATOM      1  O   UNL     1      23.595  -5.323 -32.110  1.00  0.00    -0.454 OA
ENDROOT
BRANCH   1   2
ATOM      2  C   UNL     1      23.696  -6.513 -31.360  1.00  0.00     0.214 A 
ATOM      3  C   UNL     1      24.154  -6.420 -30.030  1.00  0.00     0.180 A 
ATOM      4  O   UNL     1      24.215  -7.503 -29.263  1.00  0.00    -0.452 OA
ATOM      5  C   UNL     1      23.338  -7.790 -31.854  1.00  0.00     0.239 A 
ATOM      6  C   UNL     1      23.886  -8.716 -29.687  1.00  0.00     0.146 A 
ATOM      7  O   UNL     1      22.923  -7.924 -33.036  1.00  0.00    -0.285 OA
ATOM      8  C   UNL     1      23.436  -8.918 -31.010  1.00  0.00     0.111 A 
ATOM      9  C   UNL     1      23.992  -9.795 -28.804  1.00  0.00     0.094 A 
ATOM     10  C   UNL     1      23.099 -10.229 -31.429  1.00  0.00     0.134 A 
ATOM     11  C   UNL     1      23.657 -11.083 -29.220  1.00  0.00     0.123 A 
ATOM     12  C   UNL     1      23.213 -11.299 -30.528  1.00  0.00     0.093 A 
BRANCH   3  13
ATOM     13  C   UNL     1      24.555  -5.127 -29.432  1.00  0.00     0.025 A 
ATOM     14  C   UNL     1      23.874  -4.646 -28.303  1.00  0.00     0.016 A 
ATOM     15  C   UNL     1      24.244  -3.431 -27.720  1.00  0.00     0.051 A 
ATOM     16  C   UNL     1      25.306  -2.686 -28.249  1.00  0.00     0.157 A 
ATOM     17  C   UNL     1      25.637  -4.391 -29.943  1.00  0.00     0.062 A 
ATOM     18  C   UNL     1      26.008  -3.173 -29.364  1.00  0.00     0.158 A 
BRANCH  16  19
ATOM     19  O   UNL     1      25.668  -1.472 -27.669  1.00  0.00    -0.504 OA
ATOM     20  H   UNL     1      25.203  -1.120 -26.841  1.00  0.00     0.293 HD
ENDBRANCH  16  19
BRANCH  18  21
ATOM     21  O   UNL     1      27.078  -2.462 -29.908  1.00  0.00    -0.504 OA
ATOM     22  H   UNL     1      27.827  -2.920 -30.414  1.00  0.00     0.293 HD
ENDBRANCH  18  21
ENDBRANCH   3  13
BRANCH  10  23
ATOM     23  O   UNL     1      22.653 -10.479 -32.728  1.00  0.00    -0.507 OA
ATOM     24  H   UNL     1      21.673 -10.419 -32.977  1.00  0.00     0.293 HD
ENDBRANCH  10  23
BRANCH  11  25
ATOM     25  O   UNL     1      23.770 -12.145 -28.325  1.00  0.00    -0.508 OA
ATOM     26  H   UNL     1      23.318 -13.036 -28.498  1.00  0.00     0.293 HD
ENDBRANCH  11  25
ENDBRANCH   1   2
BRANCH   1  27
ATOM     27  C   UNL     1      22.417  -4.756 -32.693  1.00  0.00     0.339 C 
ATOM     28  C   UNL     1      21.487  -4.224 -31.587  1.00  0.00     0.214 C 
ATOM     29  O   UNL     1      22.734  -3.741 -33.637  1.00  0.00    -0.332 OA
ATOM     30  C   UNL     1      22.110  -2.978 -30.918  1.00  0.00     0.180 C 
ATOM     31  C   UNL     1      23.429  -2.663 -33.032  1.00  0.00     0.179 C 
ATOM     32  C   UNL     1      22.545  -1.953 -31.980  1.00  0.00     0.177 C 
BRANCH  28  33
ATOM     33  O   UNL     1      20.237  -3.912 -32.148  1.00  0.00    -0.384 OA
ATOM     34  H   UNL     1      20.009  -2.991 -31.856  1.00  0.00     0.211 HD
ENDBRANCH  28  33
BRANCH  30  35
ATOM     35  O   UNL     1      21.204  -2.386 -30.022  1.00  0.00    -0.387 OA
ATOM     36  H   UNL     1      20.863  -1.564 -30.462  1.00  0.00     0.211 HD
ENDBRANCH  30  35
BRANCH  31  37
ATOM     37  C   UNL     1      23.910  -1.697 -34.123  1.00  0.00     0.191 C 
BRANCH  37  38
ATOM     38  O   UNL     1      25.243  -1.324 -33.904  1.00  0.00    -0.394 OA
ATOM     39  H   UNL     1      25.590  -1.940 -33.209  1.00  0.00     0.210 HD
ENDBRANCH  37  38
ENDBRANCH  31  37
BRANCH  32  40
ATOM     40  O   UNL     1      21.418  -1.384 -32.600  1.00  0.00    -0.387 OA
ATOM     41  H   UNL     1      20.722  -2.091 -32.642  1.00  0.00     0.211 HD
ENDBRANCH  32  40
ENDBRANCH   1  27
TORSDOF 12
ENDMDL
MODEL 5
REMARK VINA RESULT:    -5.998     15.169     18.357
REMARK INTER + INTRA:          -9.107
REMARK INTER:                  -7.995
REMARK INTRA:                  -1.112
REMARK UNBOUND:                -0.303
REMARK SMILES O=c1c(O[C@@H]2O[C@@H](CO)[C@@H](O)[C@@H](O)[C@H]2O)c(-c2ccc(O)c(O)c2)oc2cc(O)cc(O)c12
REMARK SMILES IDX 4 1 3 2 16 3 25 4 2 5 26 6 1 7 33 8 27 9 31 10 28 11 30 12
REMARK SMILES IDX 17 13 18 14 19 15 20 16 24 17 22 18 21 19 23 21 32 23 29 25
REMARK SMILES IDX 5 27 14 28 6 29 12 30 7 31 10 32 15 33 13 35 8 37 9 38 11 40
REMARK H PARENT 21 20 23 22 32 24 29 26 15 34 13 36 9 39 11 41
REMARK Flexibility Score: inf
ROOT
ATOM      1  O   UNL     1      23.594  -6.060 -29.282  1.00  0.00    -0.454 OA
ENDROOT
BRANCH   1   2
ATOM      2  C   UNL     1      23.443  -7.425 -29.604  1.00  0.00     0.214 A 
ATOM      3  C   UNL     1      22.547  -7.766 -30.639  1.00  0.00     0.180 A 
ATOM      4  O   UNL     1      22.409  -9.032 -31.017  1.00  0.00    -0.452 OA
ATOM      5  C   UNL     1      24.159  -8.469 -28.971  1.00  0.00     0.239 A 
ATOM      6  C   UNL     1      23.063 -10.038 -30.452  1.00  0.00     0.146 A 
ATOM      7  O   UNL     1      24.970  -8.214 -28.042  1.00  0.00    -0.285 OA
ATOM      8  C   UNL     1      23.967  -9.803 -29.393  1.00  0.00     0.111 A 
ATOM      9  C   UNL     1      22.843 -11.336 -30.919  1.00  0.00     0.094 A 
ATOM     10  C   UNL     1      24.643 -10.904 -28.810  1.00  0.00     0.134 A 
ATOM     11  C   UNL     1      23.512 -12.417 -30.344  1.00  0.00     0.123 A 
ATOM     12  C   UNL     1      24.408 -12.200 -29.292  1.00  0.00     0.093 A 
BRANCH   3  13
ATOM     13  C   UNL     1      21.754  -6.740 -31.352  1.00  0.00     0.025 A 
ATOM     14  C   UNL     1      21.933  -6.565 -32.733  1.00  0.00     0.016 A 
ATOM     15  C   UNL     1      21.188  -5.607 -33.425  1.00  0.00     0.051 A 
ATOM     16  C   UNL     1      20.245  -4.820 -32.750  1.00  0.00     0.157 A 
ATOM     17  C   UNL     1      20.789  -5.969 -30.684  1.00  0.00     0.062 A 
ATOM     18  C   UNL     1      20.043  -5.006 -31.373  1.00  0.00     0.158 A 
BRANCH  16  19
ATOM     19  O   UNL     1      19.507  -3.862 -33.443  1.00  0.00    -0.504 OA
ATOM     20  H   UNL     1      18.699  -3.413 -33.029  1.00  0.00     0.293 HD
ENDBRANCH  16  19
BRANCH  18  21
ATOM     21  O   UNL     1      19.104  -4.249 -30.674  1.00  0.00    -0.504 OA
ATOM     22  H   UNL     1      18.619  -3.467 -31.097  1.00  0.00     0.293 HD
ENDBRANCH  18  21
ENDBRANCH   3  13
BRANCH  10  23
ATOM     23  O   UNL     1      25.543 -10.722 -27.758  1.00  0.00    -0.507 OA
ATOM     24  H   UNL     1      26.482 -10.374 -27.913  1.00  0.00     0.293 HD
ENDBRANCH  10  23
BRANCH  11  25
ATOM     25  O   UNL     1      23.278 -13.704 -30.823  1.00  0.00    -0.508 OA
ATOM     26  H   UNL     1      23.100 -14.480 -30.196  1.00  0.00     0.293 HD
ENDBRANCH  11  25
ENDBRANCH   1   2
BRANCH   1  27
ATOM     27  C   UNL     1      24.599  -5.157 -29.757  1.00  0.00     0.339 C 
ATOM     28  C   UNL     1      24.001  -4.221 -30.824  1.00  0.00     0.214 C 
ATOM     29  O   UNL     1      25.189  -4.422 -28.693  1.00  0.00    -0.332 OA
ATOM     30  C   UNL     1      23.006  -3.234 -30.173  1.00  0.00     0.180 C 
ATOM     31  C   UNL     1      24.233  -3.622 -28.016  1.00  0.00     0.179 C 
ATOM     32  C   UNL     1      23.646  -2.544 -28.956  1.00  0.00     0.177 C 
BRANCH  28  33
ATOM     33  O   UNL     1      25.043  -3.526 -31.461  1.00  0.00    -0.384 OA
ATOM     34  H   UNL     1      25.525  -4.183 -32.028  1.00  0.00     0.211 HD
ENDBRANCH  28  33
BRANCH  30  35
ATOM     35  O   UNL     1      22.577  -2.271 -31.101  1.00  0.00    -0.387 OA
ATOM     36  H   UNL     1      21.837  -1.770 -30.671  1.00  0.00     0.211 HD
ENDBRANCH  30  35
BRANCH  31  37
ATOM     37  C   UNL     1      24.883  -3.005 -26.770  1.00  0.00     0.191 C 
BRANCH  37  38
ATOM     38  O   UNL     1      24.676  -3.819 -25.648  1.00  0.00    -0.394 OA
ATOM     39  H   UNL     1      23.730  -3.683 -25.381  1.00  0.00     0.210 HD
ENDBRANCH  37  38
ENDBRANCH  31  37
BRANCH  32  40
ATOM     40  O   UNL     1      24.659  -1.661 -29.372  1.00  0.00    -0.387 OA
ATOM     41  H   UNL     1      24.864  -1.071 -28.600  1.00  0.00     0.211 HD
ENDBRANCH  32  40
ENDBRANCH   1  27
TORSDOF 12
ENDMDL
MODEL 6
REMARK VINA RESULT:    -5.843     15.685     19.000
REMARK INTER + INTRA:          -8.879
REMARK INTER:                  -7.823
REMARK INTRA:                  -1.056
REMARK UNBOUND:                -0.303
REMARK SMILES O=c1c(O[C@@H]2O[C@@H](CO)[C@@H](O)[C@@H](O)[C@H]2O)c(-c2ccc(O)c(O)c2)oc2cc(O)cc(O)c12
REMARK SMILES IDX 4 1 3 2 16 3 25 4 2 5 26 6 1 7 33 8 27 9 31 10 28 11 30 12
REMARK SMILES IDX 17 13 18 14 19 15 20 16 24 17 22 18 21 19 23 21 32 23 29 25
REMARK SMILES IDX 5 27 14 28 6 29 12 30 7 31 10 32 15 33 13 35 8 37 9 38 11 40
REMARK H PARENT 21 20 23 22 32 24 29 26 15 34 13 36 9 39 11 41
REMARK Flexibility Score: inf
ROOT
ATOM      1  O   UNL     1      23.595  -4.712 -31.525  1.00  0.00    -0.454 OA
ENDROOT
BRANCH   1   2
ATOM      2  C   UNL     1      23.738  -5.957 -30.878  1.00  0.00     0.214 A 
ATOM      3  C   UNL     1      24.310  -5.972 -29.589  1.00  0.00     0.180 A 
ATOM      4  O   UNL     1      24.416  -7.111 -28.915  1.00  0.00    -0.452 OA
ATOM      5  C   UNL     1      23.313  -7.188 -31.433  1.00  0.00     0.239 A 
ATOM      6  C   UNL     1      24.028  -8.284 -29.398  1.00  0.00     0.146 A 
ATOM      7  O   UNL     1      22.796  -7.225 -32.581  1.00  0.00    -0.285 OA
ATOM      8  C   UNL     1      23.462  -8.378 -30.688  1.00  0.00     0.111 A 
ATOM      9  C   UNL     1      24.188  -9.428 -28.611  1.00  0.00     0.094 A 
ATOM     10  C   UNL     1      23.064  -9.649 -31.173  1.00  0.00     0.134 A 
ATOM     11  C   UNL     1      23.793 -10.676 -29.091  1.00  0.00     0.123 A 
ATOM     12  C   UNL     1      23.234 -10.786 -30.369  1.00  0.00     0.093 A 
BRANCH   3  13
ATOM     13  C   UNL     1      24.786  -4.733 -28.934  1.00  0.00     0.025 A 
ATOM     14  C   UNL     1      24.086  -4.222 -27.830  1.00  0.00     0.016 A 
ATOM     15  C   UNL     1      24.524  -3.058 -27.193  1.00  0.00     0.051 A 
ATOM     16  C   UNL     1      25.675  -2.397 -27.642  1.00  0.00     0.157 A 
ATOM     17  C   UNL     1      25.954  -4.083 -29.364  1.00  0.00     0.062 A 
ATOM     18  C   UNL     1      26.395  -2.915 -28.731  1.00  0.00     0.158 A 
BRANCH  16  19
ATOM     19  O   UNL     1      26.107  -1.233 -27.008  1.00  0.00    -0.504 OA
ATOM     20  H   UNL     1      25.480  -0.674 -26.440  1.00  0.00     0.293 HD
ENDBRANCH  16  19
BRANCH  18  21
ATOM     21  O   UNL     1      27.551  -2.288 -29.195  1.00  0.00    -0.504 OA
ATOM     22  H   UNL     1      27.534  -1.626 -29.961  1.00  0.00     0.293 HD
ENDBRANCH  18  21
ENDBRANCH   3  13
BRANCH  10  23
ATOM     23  O   UNL     1      22.503  -9.793 -32.444  1.00  0.00    -0.507 OA
ATOM     24  H   UNL     1      22.459 -10.691 -32.910  1.00  0.00     0.293 HD
ENDBRANCH  10  23
BRANCH  11  25
ATOM     25  O   UNL     1      23.962 -11.805 -28.292  1.00  0.00    -0.508 OA
ATOM     26  H   UNL     1      23.523 -11.880 -27.381  1.00  0.00     0.293 HD
ENDBRANCH  11  25
ENDBRANCH   1   2
BRANCH   1  27
ATOM     27  C   UNL     1      22.720  -3.637 -31.168  1.00  0.00     0.339 C 
ATOM     28  C   UNL     1      23.331  -2.293 -31.607  1.00  0.00     0.214 C 
ATOM     29  O   UNL     1      21.418  -3.817 -31.710  1.00  0.00    -0.332 OA
ATOM     30  C   UNL     1      23.319  -2.179 -33.148  1.00  0.00     0.180 C 
ATOM     31  C   UNL     1      21.442  -3.847 -33.128  1.00  0.00     0.179 C 
ATOM     32  C   UNL     1      21.919  -2.493 -33.703  1.00  0.00     0.177 C 
BRANCH  28  33
ATOM     33  O   UNL     1      22.599  -1.244 -31.026  1.00  0.00    -0.384 OA
ATOM     34  H   UNL     1      22.913  -0.402 -31.449  1.00  0.00     0.211 HD
ENDBRANCH  28  33
BRANCH  30  35
ATOM     35  O   UNL     1      23.721  -0.897 -33.557  1.00  0.00    -0.387 OA
ATOM     36  H   UNL     1      24.512  -0.656 -33.007  1.00  0.00     0.211 HD
ENDBRANCH  30  35
BRANCH  31  37
ATOM     37  C   UNL     1      20.050  -4.233 -33.648  1.00  0.00     0.191 C 
BRANCH  37  38
ATOM     38  O   UNL     1      19.217  -4.624 -32.592  1.00  0.00    -0.394 OA
ATOM     39  H   UNL     1      18.828  -5.497 -32.858  1.00  0.00     0.210 HD
ENDBRANCH  37  38
ENDBRANCH  31  37
BRANCH  32  40
ATOM     40  O   UNL     1      21.015  -1.473 -33.356  1.00  0.00    -0.387 OA
ATOM     41  H   UNL     1      20.224  -1.914 -32.948  1.00  0.00     0.211 HD
ENDBRANCH  32  40
ENDBRANCH   1  27
TORSDOF 12
ENDMDL
MODEL 7
REMARK VINA RESULT:    -5.821     15.366     18.029
REMARK INTER + INTRA:          -8.846
REMARK INTER:                  -8.281
REMARK INTRA:                  -0.565
REMARK UNBOUND:                -0.303
REMARK SMILES O=c1c(O[C@@H]2O[C@@H](CO)[C@@H](O)[C@@H](O)[C@H]2O)c(-c2ccc(O)c(O)c2)oc2cc(O)cc(O)c12
REMARK SMILES IDX 4 1 3 2 16 3 25 4 2 5 26 6 1 7 33 8 27 9 31 10 28 11 30 12
REMARK SMILES IDX 17 13 18 14 19 15 20 16 24 17 22 18 21 19 23 21 32 23 29 25
REMARK SMILES IDX 5 27 14 28 6 29 12 30 7 31 10 32 15 33 13 35 8 37 9 38 11 40
REMARK H PARENT 21 20 23 22 32 24 29 26 15 34 13 36 9 39 11 41
REMARK Flexibility Score: inf
ROOT
ATOM      1  O   UNL     1      22.910  -6.172 -31.232  1.00  0.00    -0.454 OA
ENDROOT
BRANCH   1   2
ATOM      2  C   UNL     1      23.091  -7.538 -30.928  1.00  0.00     0.214 A 
ATOM      3  C   UNL     1      23.414  -7.883 -29.600  1.00  0.00     0.180 A 
ATOM      4  O   UNL     1      23.541  -9.159 -29.250  1.00  0.00    -0.452 OA
ATOM      5  C   UNL     1      22.937  -8.582 -31.871  1.00  0.00     0.239 A 
ATOM      6  C   UNL     1      23.402 -10.166 -30.101  1.00  0.00     0.146 A 
ATOM      7  O   UNL     1      22.648  -8.323 -33.069  1.00  0.00    -0.285 OA
ATOM      8  C   UNL     1      23.098  -9.923 -31.459  1.00  0.00     0.111 A 
ATOM      9  C   UNL     1      23.561 -11.474 -29.636  1.00  0.00     0.094 A 
ATOM     10  C   UNL     1      22.963 -11.025 -32.341  1.00  0.00     0.134 A 
ATOM     11  C   UNL     1      23.425 -12.555 -30.506  1.00  0.00     0.123 A 
ATOM     12  C   UNL     1      23.128 -12.330 -31.854  1.00  0.00     0.093 A 
BRANCH   3  13
ATOM     13  C   UNL     1      23.599  -6.856 -28.551  1.00  0.00     0.025 A 
ATOM     14  C   UNL     1      23.408  -7.202 -27.204  1.00  0.00     0.016 A 
ATOM     15  C   UNL     1      23.586  -6.248 -26.198  1.00  0.00     0.051 A 
ATOM     16  C   UNL     1      23.970  -4.941 -26.523  1.00  0.00     0.157 A 
ATOM     17  C   UNL     1      24.011  -5.552 -28.870  1.00  0.00     0.062 A 
ATOM     18  C   UNL     1      24.187  -4.593 -27.866  1.00  0.00     0.158 A 
BRANCH  16  19
ATOM     19  O   UNL     1      24.141  -3.991 -25.518  1.00  0.00    -0.504 OA
ATOM     20  H   UNL     1      23.715  -4.100 -24.605  1.00  0.00     0.293 HD
ENDBRANCH  16  19
BRANCH  18  21
ATOM     21  O   UNL     1      24.582  -3.304 -28.223  1.00  0.00    -0.504 OA
ATOM     22  H   UNL     1      25.012  -3.100 -29.117  1.00  0.00     0.293 HD
ENDBRANCH  18  21
ENDBRANCH   3  13
BRANCH  10  23
ATOM     23  O   UNL     1      22.667 -10.835 -33.692  1.00  0.00    -0.507 OA
ATOM     24  H   UNL     1      21.825 -11.210 -34.112  1.00  0.00     0.293 HD
ENDBRANCH  10  23
BRANCH  11  25
ATOM     25  O   UNL     1      23.588 -13.852 -30.022  1.00  0.00    -0.508 OA
ATOM     26  H   UNL     1      23.209 -14.135 -29.125  1.00  0.00     0.293 HD
ENDBRANCH  11  25
ENDBRANCH   1   2
BRANCH   1  27
ATOM     27  C   UNL     1      21.828  -5.573 -31.952  1.00  0.00     0.339 C 
ATOM     28  C   UNL     1      21.051  -4.614 -31.032  1.00  0.00     0.214 C 
ATOM     29  O   UNL     1      22.281  -4.913 -33.127  1.00  0.00    -0.332 OA
ATOM     30  C   UNL     1      21.910  -3.370 -30.709  1.00  0.00     0.180 C 
ATOM     31  C   UNL     1      23.178  -3.857 -32.821  1.00  0.00     0.179 C 
ATOM     32  C   UNL     1      22.475  -2.752 -32.000  1.00  0.00     0.177 C 
BRANCH  28  33
ATOM     33  O   UNL     1      19.854  -4.238 -31.665  1.00  0.00    -0.384 OA
ATOM     34  H   UNL     1      19.708  -4.876 -32.411  1.00  0.00     0.211 HD
ENDBRANCH  28  33
BRANCH  30  35
ATOM     35  O   UNL     1      21.159  -2.413 -30.007  1.00  0.00    -0.387 OA
ATOM     36  H   UNL     1      21.417  -1.526 -30.369  1.00  0.00     0.211 HD
ENDBRANCH  30  35
BRANCH  31  37
ATOM     37  C   UNL     1      23.778  -3.311 -34.124  1.00  0.00     0.191 C 
BRANCH  37  38
ATOM     38  O   UNL     1      24.315  -2.032 -33.926  1.00  0.00    -0.394 OA
ATOM     39  H   UNL     1      24.525  -1.680 -34.828  1.00  0.00     0.210 HD
ENDBRANCH  37  38
ENDBRANCH  31  37
BRANCH  32  40
ATOM     40  O   UNL     1      21.442  -2.170 -32.756  1.00  0.00    -0.387 OA
ATOM     41  H   UNL     1      20.588  -2.387 -32.296  1.00  0.00     0.211 HD
ENDBRANCH  32  40
ENDBRANCH   1  27
TORSDOF 12
ENDMDL
MODEL 8
REMARK VINA RESULT:    -5.692     14.844     16.452
REMARK INTER + INTRA:          -8.656
REMARK INTER:                  -6.935
REMARK INTRA:                  -1.722
REMARK UNBOUND:                -0.303
REMARK SMILES O=c1c(O[C@@H]2O[C@@H](CO)[C@@H](O)[C@@H](O)[C@H]2O)c(-c2ccc(O)c(O)c2)oc2cc(O)cc(O)c12
REMARK SMILES IDX 4 1 3 2 16 3 25 4 2 5 26 6 1 7 33 8 27 9 31 10 28 11 30 12
REMARK SMILES IDX 17 13 18 14 19 15 20 16 24 17 22 18 21 19 23 21 32 23 29 25
REMARK SMILES IDX 5 27 14 28 6 29 12 30 7 31 10 32 15 33 13 35 8 37 9 38 11 40
REMARK H PARENT 21 20 23 22 32 24 29 26 15 34 13 36 9 39 11 41
REMARK Flexibility Score: inf
ROOT
ATOM      1  O   UNL     1      23.169  -9.757 -31.498  1.00  0.00    -0.454 OA
ENDROOT
BRANCH   1   2
ATOM      2  C   UNL     1      22.936  -8.366 -31.514  1.00  0.00     0.214 A 
ATOM      3  C   UNL     1      23.673  -7.560 -30.622  1.00  0.00     0.180 A 
ATOM      4  O   UNL     1      23.531  -6.240 -30.636  1.00  0.00    -0.452 OA
ATOM      5  C   UNL     1      22.028  -7.729 -32.393  1.00  0.00     0.239 A 
ATOM      6  C   UNL     1      22.693  -5.605 -31.445  1.00  0.00     0.146 A 
ATOM      7  O   UNL     1      21.347  -8.406 -33.208  1.00  0.00    -0.285 OA
ATOM      8  C   UNL     1      21.895  -6.324 -32.361  1.00  0.00     0.111 A 
ATOM      9  C   UNL     1      22.612  -4.211 -31.378  1.00  0.00     0.094 A 
ATOM     10  C   UNL     1      21.007  -5.611 -33.206  1.00  0.00     0.134 A 
ATOM     11  C   UNL     1      21.739  -3.514 -32.213  1.00  0.00     0.123 A 
ATOM     12  C   UNL     1      20.939  -4.212 -33.123  1.00  0.00     0.093 A 
BRANCH   3  13
ATOM     13  C   UNL     1      24.640  -8.142 -29.665  1.00  0.00     0.025 A 
ATOM     14  C   UNL     1      24.247  -8.369 -28.337  1.00  0.00     0.016 A 
ATOM     15  C   UNL     1      25.144  -8.924 -27.420  1.00  0.00     0.051 A 
ATOM     16  C   UNL     1      26.440  -9.273 -27.821  1.00  0.00     0.157 A 
ATOM     17  C   UNL     1      25.931  -8.518 -30.070  1.00  0.00     0.062 A 
ATOM     18  C   UNL     1      26.833  -9.072 -29.155  1.00  0.00     0.158 A 
BRANCH  16  19
ATOM     19  O   UNL     1      27.334  -9.822 -26.903  1.00  0.00    -0.504 OA
ATOM     20  H   UNL     1      28.099  -9.281 -26.519  1.00  0.00     0.293 HD
ENDBRANCH  16  19
BRANCH  18  21
ATOM     21  O   UNL     1      28.112  -9.419 -29.589  1.00  0.00    -0.504 OA
ATOM     22  H   UNL     1      28.285 -10.244 -30.151  1.00  0.00     0.293 HD
ENDBRANCH  18  21
ENDBRANCH   3  13
BRANCH  10  23
ATOM     23  O   UNL     1      20.195  -6.278 -34.125  1.00  0.00    -0.507 OA
ATOM     24  H   UNL     1      20.411  -6.296 -35.114  1.00  0.00     0.293 HD
ENDBRANCH  10  23
BRANCH  11  25
ATOM     25  O   UNL     1      21.672  -2.125 -32.130  1.00  0.00    -0.508 OA
ATOM     26  H   UNL     1      22.229  -1.529 -32.733  1.00  0.00     0.293 HD
ENDBRANCH  11  25
ENDBRANCH   1   2
BRANCH   1  27
ATOM     27  C   UNL     1      22.492 -10.747 -30.717  1.00  0.00     0.339 C 
ATOM     28  C   UNL     1      21.860 -11.804 -31.641  1.00  0.00     0.214 C 
ATOM     29  O   UNL     1      23.358 -11.345 -29.761  1.00  0.00    -0.332 OA
ATOM     30  C   UNL     1      22.961 -12.660 -32.306  1.00  0.00     0.180 C 
ATOM     31  C   UNL     1      24.443 -12.014 -30.385  1.00  0.00     0.179 C 
ATOM     32  C   UNL     1      23.944 -13.194 -31.250  1.00  0.00     0.177 C 
BRANCH  28  33
ATOM     33  O   UNL     1      20.990 -12.612 -30.889  1.00  0.00    -0.384 OA
ATOM     34  H   UNL     1      20.771 -12.110 -30.062  1.00  0.00     0.211 HD
ENDBRANCH  28  33
BRANCH  30  35
ATOM     35  O   UNL     1      22.399 -13.729 -33.023  1.00  0.00    -0.387 OA
ATOM     36  H   UNL     1      22.407 -14.515 -32.416  1.00  0.00     0.211 HD
ENDBRANCH  30  35
BRANCH  31  37
ATOM     37  C   UNL     1      25.439 -12.470 -29.310  1.00  0.00     0.191 C 
BRANCH  37  38
ATOM     38  O   UNL     1      24.802 -12.610 -28.070  1.00  0.00    -0.394 OA
ATOM     39  H   UNL     1      23.864 -12.861 -28.269  1.00  0.00     0.210 HD
ENDBRANCH  37  38
ENDBRANCH  31  37
BRANCH  32  40
ATOM     40  O   UNL     1      23.315 -14.156 -30.440  1.00  0.00    -0.387 OA
ATOM     41  H   UNL     1      22.371 -13.868 -30.326  1.00  0.00     0.211 HD
ENDBRANCH  32  40
ENDBRANCH   1  27
TORSDOF 12
ENDMDL
MODEL 9
REMARK VINA RESULT:    -5.629     14.360     16.412
REMARK INTER + INTRA:          -8.564
REMARK INTER:                  -7.169
REMARK INTRA:                  -1.395
REMARK UNBOUND:                -0.303
REMARK SMILES O=c1c(O[C@@H]2O[C@@H](CO)[C@@H](O)[C@@H](O)[C@H]2O)c(-c2ccc(O)c(O)c2)oc2cc(O)cc(O)c12
REMARK SMILES IDX 4 1 3 2 16 3 25 4 2 5 26 6 1 7 33 8 27 9 31 10 28 11 30 12
REMARK SMILES IDX 17 13 18 14 19 15 20 16 24 17 22 18 21 19 23 21 32 23 29 25
REMARK SMILES IDX 5 27 14 28 6 29 12 30 7 31 10 32 15 33 13 35 8 37 9 38 11 40
REMARK H PARENT 21 20 23 22 32 24 29 26 15 34 13 36 9 39 11 41
REMARK Flexibility Score: inf
ROOT
ATOM      1  O   UNL     1      24.399 -10.315 -30.179  1.00  0.00    -0.454 OA
ENDROOT
BRANCH   1   2
ATOM      2  C   UNL     1      23.671  -9.130 -30.411  1.00  0.00     0.214 A 
ATOM      3  C   UNL     1      22.529  -9.206 -31.236  1.00  0.00     0.180 A 
ATOM      4  O   UNL     1      21.777  -8.130 -31.442  1.00  0.00    -0.452 OA
ATOM      5  C   UNL     1      24.000  -7.877 -29.842  1.00  0.00     0.239 A 
ATOM      6  C   UNL     1      22.051  -6.939 -30.925  1.00  0.00     0.146 A 
ATOM      7  O   UNL     1      25.010  -7.760 -29.099  1.00  0.00    -0.285 OA
ATOM      8  C   UNL     1      23.184  -6.755 -30.103  1.00  0.00     0.111 A 
ATOM      9  C   UNL     1      21.200  -5.867 -31.207  1.00  0.00     0.094 A 
ATOM     10  C   UNL     1      23.446  -5.467 -29.573  1.00  0.00     0.134 A 
ATOM     11  C   UNL     1      21.461  -4.601 -30.682  1.00  0.00     0.123 A 
ATOM     12  C   UNL     1      22.581  -4.403 -29.869  1.00  0.00     0.093 A 
BRANCH   3  13
ATOM     13  C   UNL     1      22.113 -10.473 -31.877  1.00  0.00     0.025 A 
ATOM     14  C   UNL     1      22.625 -10.810 -33.139  1.00  0.00     0.016 A 
ATOM     15  C   UNL     1      22.250 -12.006 -33.757  1.00  0.00     0.051 A 
ATOM     16  C   UNL     1      21.370 -12.888 -33.116  1.00  0.00     0.157 A 
ATOM     17  C   UNL     1      21.253 -11.372 -31.225  1.00  0.00     0.062 A 
ATOM     18  C   UNL     1      20.872 -12.569 -31.841  1.00  0.00     0.158 A 
BRANCH  16  19
ATOM     19  O   UNL     1      20.994 -14.078 -33.736  1.00  0.00    -0.504 OA
ATOM     20  H   UNL     1      20.993 -14.173 -34.745  1.00  0.00     0.293 HD
ENDBRANCH  16  19
BRANCH  18  21
ATOM     21  O   UNL     1      20.004 -13.430 -31.170  1.00  0.00    -0.504 OA
ATOM     22  H   UNL     1      19.825 -14.374 -31.493  1.00  0.00     0.293 HD
ENDBRANCH  18  21
ENDBRANCH   3  13
BRANCH  10  23
ATOM     23  O   UNL     1      24.556  -5.235 -28.758  1.00  0.00    -0.507 OA
ATOM     24  H   UNL     1      25.503  -5.307 -29.112  1.00  0.00     0.293 HD
ENDBRANCH  10  23
BRANCH  11  25
ATOM     25  O   UNL     1      20.601  -3.545 -30.976  1.00  0.00    -0.508 OA
ATOM     26  H   UNL     1      20.331  -3.330 -31.929  1.00  0.00     0.293 HD
ENDBRANCH  11  25
ENDBRANCH   1   2
BRANCH   1  27
ATOM     27  C   UNL     1      24.460 -11.080 -28.970  1.00  0.00     0.339 C 
ATOM     28  C   UNL     1      23.618 -12.361 -29.115  1.00  0.00     0.214 C 
ATOM     29  O   UNL     1      25.802 -11.378 -28.605  1.00  0.00    -0.332 OA
ATOM     30  C   UNL     1      24.291 -13.334 -30.109  1.00  0.00     0.180 C 
ATOM     31  C   UNL     1      26.451 -12.160 -29.596  1.00  0.00     0.179 C 
ATOM     32  C   UNL     1      25.772 -13.541 -29.746  1.00  0.00     0.177 C 
BRANCH  28  33
ATOM     33  O   UNL     1      23.476 -12.962 -27.853  1.00  0.00    -0.384 OA
ATOM     34  H   UNL     1      24.375 -13.281 -27.580  1.00  0.00     0.211 HD
ENDBRANCH  28  33
BRANCH  30  35
ATOM     35  O   UNL     1      23.624 -14.569 -30.128  1.00  0.00    -0.387 OA
ATOM     36  H   UNL     1      24.135 -15.179 -29.534  1.00  0.00     0.211 HD
ENDBRANCH  30  35
BRANCH  31  37
ATOM     37  C   UNL     1      27.939 -12.287 -29.241  1.00  0.00     0.191 C 
BRANCH  37  38
ATOM     38  O   UNL     1      28.125 -12.239 -27.853  1.00  0.00    -0.394 OA
ATOM     39  H   UNL     1      29.083 -12.445 -27.697  1.00  0.00     0.210 HD
ENDBRANCH  37  38
ENDBRANCH  31  37
BRANCH  32  40
ATOM     40  O   UNL     1      25.884 -14.269 -28.548  1.00  0.00    -0.387 OA
ATOM     41  H   UNL     1      26.636 -13.871 -28.036  1.00  0.00     0.211 HD
ENDBRANCH  32  40
ENDBRANCH   1  27
TORSDOF 12
ENDMDL
