MODEL 1
REMARK VINA RESULT:    -4.386      0.000      0.000
REMARK INTER + INTRA:          -5.515
REMARK INTER:                  -5.412
REMARK INTRA:                  -0.103
REMARK UNBOUND:                -0.103
REMARK SMILES CCCCCC(=O)[O-]
REMARK SMILES IDX 4 1 5 2 6 3 7 4 8 5 3 6 2 7 1 8
REMARK H PARENT
REMARK Flexibility Score: inf
ROOT
ATOM      1  C   UNL     1     -13.235   1.757  -9.383  1.00  0.00     0.006 C 
ENDROOT
BRANCH   1   2
ATOM      2  C   UNL     1     -12.765   3.219  -9.471  1.00  0.00     0.053 C 
BRANCH   2   3
ATOM      3  C   UNL     1     -12.243   3.718  -8.159  1.00  0.00     0.041 C 
ATOM      4  O   UNL     1     -11.011   3.667  -7.907  1.00  0.00    -0.550 OA
ATOM      5  O   UNL     1     -13.122   4.213  -7.204  1.00  0.00    -0.550 OA
ENDBRANCH   2   3
ENDBRANCH   1   2
BRANCH   1   6
ATOM      6  C   UNL     1     -14.713   1.545  -9.759  1.00  0.00     0.000 C 
BRANCH   6   7
ATOM      7  C   UNL     1     -15.008   0.110 -10.221  1.00  0.00    -0.003 C 
ATOM      8  C   UNL     1     -13.718  -0.639 -10.543  1.00  0.00     0.004 C 
ENDBRANCH   6   7
ENDBRANCH   1   6
TORSDOF 4
ENDMDL
MODEL 2
REMARK VINA RESULT:    -4.176      3.675      4.720
REMARK INTER + INTRA:          -5.256
REMARK INTER:                  -5.178
REMARK INTRA:                  -0.078
REMARK UNBOUND:                -0.103
REMARK SMILES CCCCCC(=O)[O-]
REMARK SMILES IDX 4 1 5 2 6 3 7 4 8 5 3 6 2 7 1 8
REMARK H PARENT
REMARK Flexibility Score: inf
ROOT
ATOM      1  C   UNL     1     -12.197  -0.131  -9.978  1.00  0.00     0.006 C 
ENDROOT
BRANCH   1   2
ATOM      2  C   UNL     1     -10.963  -1.014 -10.229  1.00  0.00     0.053 C 
BRANCH   2   3
ATOM      3  C   UNL     1     -10.928  -2.200  -9.315  1.00  0.00     0.041 C 
ATOM      4  O   UNL     1     -11.548  -3.252  -9.618  1.00  0.00    -0.550 OA
ATOM      5  O   UNL     1     -10.236  -2.130  -8.112  1.00  0.00    -0.550 OA
ENDBRANCH   2   3
ENDBRANCH   1   2
BRANCH   1   6
ATOM      6  C   UNL     1     -13.485  -0.639 -10.651  1.00  0.00     0.000 C 
BRANCH   6   7
ATOM      7  C   UNL     1     -14.747   0.055 -10.118  1.00  0.00    -0.003 C 
ATOM      8  C   UNL     1     -14.432   1.467  -9.631  1.00  0.00     0.004 C 
ENDBRANCH   6   7
ENDBRANCH   1   6
TORSDOF 4
ENDMDL
MODEL 3
REMARK VINA RESULT:    -4.026      1.329      2.053
REMARK INTER + INTRA:          -5.070
REMARK INTER:                  -4.992
REMARK INTRA:                  -0.078
REMARK UNBOUND:                -0.103
REMARK SMILES CCCCCC(=O)[O-]
REMARK SMILES IDX 4 1 5 2 6 3 7 4 8 5 3 6 2 7 1 8
REMARK H PARENT
REMARK Flexibility Score: inf
ROOT
ATOM      1  C   UNL     1     -12.470   1.372  -9.265  1.00  0.00     0.006 C 
ENDROOT
BRANCH   1   2
ATOM      2  C   UNL     1     -13.141   2.746  -9.427  1.00  0.00     0.053 C 
BRANCH   2   3
ATOM      3  C   UNL     1     -12.678   3.721  -8.388  1.00  0.00     0.041 C 
ATOM      4  O   UNL     1     -13.507   4.466  -7.804  1.00  0.00    -0.550 OA
ATOM      5  O   UNL     1     -11.326   3.826  -8.086  1.00  0.00    -0.550 OA
ENDBRANCH   2   3
ENDBRANCH   1   2
BRANCH   1   6
ATOM      6  C   UNL     1     -13.192   0.226  -9.997  1.00  0.00     0.000 C 
BRANCH   6   7
ATOM      7  C   UNL     1     -12.229  -0.864 -10.488  1.00  0.00    -0.003 C 
ATOM      8  C   UNL     1     -10.973  -0.918  -9.623  1.00  0.00     0.004 C 
ENDBRANCH   6   7
ENDBRANCH   1   6
TORSDOF 4
ENDMDL
MODEL 4
REMARK VINA RESULT:    -3.875      4.669      5.796
REMARK INTER + INTRA:          -4.884
REMARK INTER:                  -4.806
REMARK INTRA:                  -0.079
REMARK UNBOUND:                -0.103
REMARK SMILES CCCCCC(=O)[O-]
REMARK SMILES IDX 4 1 5 2 6 3 7 4 8 5 3 6 2 7 1 8
REMARK H PARENT
REMARK Flexibility Score: inf
ROOT
ATOM      1  C   UNL     1     -10.721  -1.265 -10.053  1.00  0.00     0.006 C 
ENDROOT
BRANCH   1   2
ATOM      2  C   UNL     1     -10.636  -1.885  -8.648  1.00  0.00     0.053 C 
BRANCH   2   3
ATOM      3  C   UNL     1     -10.127  -3.293  -8.688  1.00  0.00     0.041 C 
ATOM      4  O   UNL     1     -10.932  -4.255  -8.797  1.00  0.00    -0.550 OA
ATOM      5  O   UNL     1      -8.766  -3.544  -8.574  1.00  0.00    -0.550 OA
ENDBRANCH   2   3
ENDBRANCH   1   2
BRANCH   1   6
ATOM      6  C   UNL     1     -12.092  -0.652 -10.392  1.00  0.00     0.000 C 
BRANCH   6   7
ATOM      7  C   UNL     1     -12.388   0.622  -9.587  1.00  0.00    -0.003 C 
ATOM      8  C   UNL     1     -13.861   1.009  -9.695  1.00  0.00     0.004 C 
ENDBRANCH   6   7
ENDBRANCH   1   6
TORSDOF 4
ENDMDL
MODEL 5
REMARK VINA RESULT:    -3.747      3.096      4.052
REMARK INTER + INTRA:          -4.727
REMARK INTER:                  -4.635
REMARK INTRA:                  -0.091
REMARK UNBOUND:                -0.103
REMARK SMILES CCCCCC(=O)[O-]
REMARK SMILES IDX 4 1 5 2 6 3 7 4 8 5 3 6 2 7 1 8
REMARK H PARENT
REMARK Flexibility Score: inf
ROOT
ATOM      1  C   UNL     1     -11.446  -0.175  -9.599  1.00  0.00     0.006 C 
ENDROOT
BRANCH   1   2
ATOM      2  C   UNL     1     -12.913  -0.080 -10.048  1.00  0.00     0.053 C 
BRANCH   2   3
ATOM      3  C   UNL     1     -13.539   1.221  -9.646  1.00  0.00     0.041 C 
ATOM      4  O   UNL     1     -14.789   1.359  -9.676  1.00  0.00    -0.550 OA
ATOM      5  O   UNL     1     -12.737   2.290  -9.267  1.00  0.00    -0.550 OA
ENDBRANCH   2   3
ENDBRANCH   1   2
BRANCH   1   6
ATOM      6  C   UNL     1     -10.654  -1.315 -10.264  1.00  0.00     0.000 C 
BRANCH   6   7
ATOM      7  C   UNL     1     -10.814  -2.655  -9.531  1.00  0.00    -0.003 C 
ATOM      8  C   UNL     1     -10.269  -2.571  -8.108  1.00  0.00     0.004 C 
ENDBRANCH   6   7
ENDBRANCH   1   6
TORSDOF 4
ENDMDL
MODEL 6
REMARK VINA RESULT:    -3.715      5.198      6.505
REMARK INTER + INTRA:          -4.686
REMARK INTER:                  -4.563
REMARK INTRA:                  -0.123
REMARK UNBOUND:                -0.103
REMARK SMILES CCCCCC(=O)[O-]
REMARK SMILES IDX 4 1 5 2 6 3 7 4 8 5 3 6 2 7 1 8
REMARK H PARENT
REMARK Flexibility Score: inf
ROOT
ATOM      1  C   UNL     1     -11.502  -2.970  -9.537  1.00  0.00     0.006 C 
ENDROOT
BRANCH   1   2
ATOM      2  C   UNL     1     -10.439  -4.080  -9.585  1.00  0.00     0.053 C 
BRANCH   2   3
ATOM      3  C   UNL     1      -9.625  -4.131  -8.330  1.00  0.00     0.041 C 
ATOM      4  O   UNL     1      -8.415  -3.784  -8.344  1.00  0.00    -0.550 OA
ATOM      5  O   UNL     1     -10.195  -4.592  -7.149  1.00  0.00    -0.550 OA
ENDBRANCH   2   3
ENDBRANCH   1   2
BRANCH   1   6
ATOM      6  C   UNL     1     -10.927  -1.553  -9.357  1.00  0.00     0.000 C 
BRANCH   6   7
ATOM      7  C   UNL     1     -11.496  -0.548 -10.369  1.00  0.00    -0.003 C 
ATOM      8  C   UNL     1     -13.019  -0.634 -10.430  1.00  0.00     0.004 C 
ENDBRANCH   6   7
ENDBRANCH   1   6
TORSDOF 4
ENDMDL
MODEL 7
REMARK VINA RESULT:    -3.658      6.519      7.794
REMARK INTER + INTRA:          -4.616
REMARK INTER:                  -4.460
REMARK INTRA:                  -0.156
REMARK UNBOUND:                -0.103
REMARK SMILES CCCCCC(=O)[O-]
REMARK SMILES IDX 4 1 5 2 6 3 7 4 8 5 3 6 2 7 1 8
REMARK H PARENT
REMARK Flexibility Score: inf
ROOT
ATOM      1  C   UNL     1     -11.197  -5.464  -7.710  1.00  0.00     0.006 C 
ENDROOT
BRANCH   1   2
ATOM      2  C   UNL     1     -11.218  -4.252  -8.656  1.00  0.00     0.053 C 
BRANCH   2   3
ATOM      3  C   UNL     1     -10.087  -3.309  -8.383  1.00  0.00     0.041 C 
ATOM      4  O   UNL     1     -10.321  -2.121  -8.039  1.00  0.00    -0.550 OA
ATOM      5  O   UNL     1      -8.773  -3.735  -8.537  1.00  0.00    -0.550 OA
ENDBRANCH   2   3
ENDBRANCH   1   2
BRANCH   1   6
ATOM      6  C   UNL     1     -11.030  -5.101  -6.223  1.00  0.00     0.000 C 
BRANCH   6   7
ATOM      7  C   UNL     1     -11.961  -5.910  -5.307  1.00  0.00    -0.003 C 
ATOM      8  C   UNL     1     -13.021  -6.650  -6.118  1.00  0.00     0.004 C 
ENDBRANCH   6   7
ENDBRANCH   1   6
TORSDOF 4
ENDMDL
MODEL 8
REMARK VINA RESULT:    -3.602      6.392      7.632
REMARK INTER + INTRA:          -4.547
REMARK INTER:                  -4.478
REMARK INTRA:                  -0.069
REMARK UNBOUND:                -0.103
REMARK SMILES CCCCCC(=O)[O-]
REMARK SMILES IDX 4 1 5 2 6 3 7 4 8 5 3 6 2 7 1 8
REMARK H PARENT
REMARK Flexibility Score: inf
ROOT
ATOM      1  C   UNL     1     -10.114  -3.278  -8.529  1.00  0.00     0.006 C 
ENDROOT
BRANCH   1   2
ATOM      2  C   UNL     1     -10.666  -4.249  -7.472  1.00  0.00     0.053 C 
BRANCH   2   3
ATOM      3  C   UNL     1     -10.410  -5.679  -7.838  1.00  0.00     0.041 C 
ATOM      4  O   UNL     1     -10.341  -6.021  -9.047  1.00  0.00    -0.550 OA
ATOM      5  O   UNL     1     -10.280  -6.639  -6.842  1.00  0.00    -0.550 OA
ENDBRANCH   2   3
ENDBRANCH   1   2
BRANCH   1   6
ATOM      6  C   UNL     1     -11.190  -2.647  -9.432  1.00  0.00     0.000 C 
BRANCH   6   7
ATOM      7  C   UNL     1     -10.808  -1.242  -9.918  1.00  0.00    -0.003 C 
ATOM      8  C   UNL     1     -12.050  -0.387 -10.156  1.00  0.00     0.004 C 
ENDBRANCH   6   7
ENDBRANCH   1   6
TORSDOF 4
ENDMDL
MODEL 9
REMARK VINA RESULT:    -3.478      7.892      8.940
REMARK INTER + INTRA:          -4.394
REMARK INTER:                  -4.288
REMARK INTRA:                  -0.105
REMARK UNBOUND:                -0.103
REMARK SMILES CCCCCC(=O)[O-]
REMARK SMILES IDX 4 1 5 2 6 3 7 4 8 5 3 6 2 7 1 8
REMARK H PARENT
REMARK Flexibility Score: inf
ROOT
ATOM      1  C   UNL     1     -10.999  -4.662  -6.646  1.00  0.00     0.006 C 
ENDROOT
BRANCH   1   2
ATOM      2  C   UNL     1      -9.859  -4.705  -7.676  1.00  0.00     0.053 C 
BRANCH   2   3
ATOM      3  C   UNL     1     -10.358  -5.038  -9.049  1.00  0.00     0.041 C 
ATOM      4  O   UNL     1     -10.281  -4.190  -9.975  1.00  0.00    -0.550 OA
ATOM      5  O   UNL     1     -10.937  -6.277  -9.297  1.00  0.00    -0.550 OA
ENDBRANCH   2   3
ENDBRANCH   1   2
BRANCH   1   6
ATOM      6  C   UNL     1     -11.008  -5.847  -5.663  1.00  0.00     0.000 C 
BRANCH   6   7
ATOM      7  C   UNL     1     -12.375  -6.540  -5.580  1.00  0.00    -0.003 C 
ATOM      8  C   UNL     1     -12.256  -7.913  -4.924  1.00  0.00     0.004 C 
ENDBRANCH   6   7
ENDBRANCH   1   6
TORSDOF 4
ENDMDL
