MODEL 1
REMARK VINA RESULT:    -4.239      0.000      0.000
REMARK INTER + INTRA:          -5.978
REMARK INTER:                  -5.726
REMARK INTRA:                  -0.252
REMARK UNBOUND:                -0.252
REMARK SMILES CCCCCCCC(=O)[O-]
REMARK SMILES IDX 5 1 6 2 7 3 8 4 9 5 10 6 4 7 3 8 2 9 1 10
REMARK H PARENT
REMARK Flexibility Score: inf
ROOT
ATOM      1  C   UNL     1       2.320 -37.856  18.346  1.00  0.00     0.000 C 
ENDROOT
BRANCH   1   2
ATOM      2  C   UNL     1       3.043 -37.487  19.653  1.00  0.00     0.006 C 
BRANCH   2   3
ATOM      3  C   UNL     1       4.569 -37.555  19.511  1.00  0.00     0.053 C 
BRANCH   3   4
ATOM      4  C   UNL     1       5.235 -36.324  20.046  1.00  0.00     0.041 C 
ATOM      5  O   UNL     1       5.342 -35.298  19.325  1.00  0.00    -0.550 OA
ATOM      6  O   UNL     1       5.710 -36.301  21.352  1.00  0.00    -0.550 OA
ENDBRANCH   3   4
ENDBRANCH   2   3
ENDBRANCH   1   2
BRANCH   1   7
ATOM      7  C   UNL     1       3.098 -37.423  17.090  1.00  0.00     0.000 C 
BRANCH   7   8
ATOM      8  C   UNL     1       2.285 -36.608  16.064  1.00  0.00    -0.000 C 
BRANCH   8   9
ATOM      9  C   UNL     1       2.848 -36.619  14.631  1.00  0.00    -0.003 C 
ATOM     10  C   UNL     1       3.895 -37.711  14.412  1.00  0.00     0.004 C 
ENDBRANCH   8   9
ENDBRANCH   7   8
ENDBRANCH   1   7
TORSDOF 6
ENDMDL
MODEL 2
REMARK VINA RESULT:    -3.874      2.851      5.750
REMARK INTER + INTRA:          -5.485
REMARK INTER:                  -5.382
REMARK INTRA:                  -0.103
REMARK UNBOUND:                -0.252
REMARK SMILES CCCCCCCC(=O)[O-]
REMARK SMILES IDX 5 1 6 2 7 3 8 4 9 5 10 6 4 7 3 8 2 9 1 10
REMARK H PARENT
REMARK Flexibility Score: inf
ROOT
ATOM      1  C   UNL     1       3.959 -37.470  19.835  1.00  0.00     0.000 C 
ENDROOT
BRANCH   1   2
ATOM      2  C   UNL     1       3.875 -37.085  18.347  1.00  0.00     0.006 C 
BRANCH   2   3
ATOM      3  C   UNL     1       2.585 -37.592  17.689  1.00  0.00     0.053 C 
BRANCH   3   4
ATOM      4  C   UNL     1       2.562 -37.312  16.218  1.00  0.00     0.041 C 
ATOM      5  O   UNL     1       1.693 -36.540  15.734  1.00  0.00    -0.550 OA
ATOM      6  O   UNL     1       3.518 -37.880  15.385  1.00  0.00    -0.550 OA
ENDBRANCH   3   4
ENDBRANCH   2   3
ENDBRANCH   1   2
BRANCH   1   7
ATOM      7  C   UNL     1       5.370 -37.290  20.421  1.00  0.00     0.000 C 
BRANCH   7   8
ATOM      8  C   UNL     1       5.601 -35.965  21.177  1.00  0.00    -0.000 C 
BRANCH   8   9
ATOM      9  C   UNL     1       6.007 -36.121  22.653  1.00  0.00    -0.003 C 
ATOM     10  C   UNL     1       5.902 -34.815  23.440  1.00  0.00     0.004 C 
ENDBRANCH   8   9
ENDBRANCH   7   8
ENDBRANCH   1   7
TORSDOF 6
ENDMDL
MODEL 3
REMARK VINA RESULT:    -3.831      1.100      1.709
REMARK INTER + INTRA:          -5.427
REMARK INTER:                  -5.184
REMARK INTRA:                  -0.242
REMARK UNBOUND:                -0.252
REMARK SMILES CCCCCCCC(=O)[O-]
REMARK SMILES IDX 5 1 6 2 7 3 8 4 9 5 10 6 4 7 3 8 2 9 1 10
REMARK H PARENT
REMARK Flexibility Score: inf
ROOT
ATOM      1  C   UNL     1       2.829 -37.662  19.592  1.00  0.00     0.000 C 
ENDROOT
BRANCH   1   2
ATOM      2  C   UNL     1       4.353 -37.467  19.497  1.00  0.00     0.006 C 
BRANCH   2   3
ATOM      3  C   UNL     1       4.809 -36.148  20.134  1.00  0.00     0.053 C 
BRANCH   3   4
ATOM      4  C   UNL     1       5.573 -36.376  21.403  1.00  0.00     0.041 C 
ATOM      5  O   UNL     1       5.740 -37.544  21.840  1.00  0.00    -0.550 OA
ATOM      6  O   UNL     1       6.125 -35.299  22.086  1.00  0.00    -0.550 OA
ENDBRANCH   3   4
ENDBRANCH   2   3
ENDBRANCH   1   2
BRANCH   1   7
ATOM      7  C   UNL     1       2.164 -37.850  18.217  1.00  0.00     0.000 C 
BRANCH   7   8
ATOM      8  C   UNL     1       3.047 -37.485  17.006  1.00  0.00    -0.000 C 
BRANCH   8   9
ATOM      9  C   UNL     1       2.320 -36.745  15.870  1.00  0.00    -0.003 C 
ATOM     10  C   UNL     1       3.118 -36.726  14.566  1.00  0.00     0.004 C 
ENDBRANCH   8   9
ENDBRANCH   7   8
ENDBRANCH   1   7
TORSDOF 6
ENDMDL
MODEL 4
REMARK VINA RESULT:    -3.811      2.836      5.304
REMARK INTER + INTRA:          -5.399
REMARK INTER:                  -5.197
REMARK INTRA:                  -0.202
REMARK UNBOUND:                -0.252
REMARK SMILES CCCCCCCC(=O)[O-]
REMARK SMILES IDX 5 1 6 2 7 3 8 4 9 5 10 6 4 7 3 8 2 9 1 10
REMARK H PARENT
REMARK Flexibility Score: inf
ROOT
ATOM      1  C   UNL     1       2.992 -37.627  19.491  1.00  0.00     0.000 C 
ENDROOT
BRANCH   1   2
ATOM      2  C   UNL     1       2.237 -37.716  18.153  1.00  0.00     0.006 C 
BRANCH   2   3
ATOM      3  C   UNL     1       3.166 -37.514  16.949  1.00  0.00     0.053 C 
BRANCH   3   4
ATOM      4  C   UNL     1       2.493 -36.756  15.846  1.00  0.00     0.041 C 
ATOM      5  O   UNL     1       1.456 -36.083  16.081  1.00  0.00    -0.550 OA
ATOM      6  O   UNL     1       3.029 -36.770  14.564  1.00  0.00    -0.550 OA
ENDBRANCH   3   4
ENDBRANCH   2   3
ENDBRANCH   1   2
BRANCH   1   7
ATOM      7  C   UNL     1       4.504 -37.407  19.310  1.00  0.00     0.000 C 
BRANCH   7   8
ATOM      8  C   UNL     1       5.320 -37.356  20.618  1.00  0.00    -0.000 C 
BRANCH   8   9
ATOM      9  C   UNL     1       5.632 -35.941  21.135  1.00  0.00    -0.003 C 
ATOM     10  C   UNL     1       6.031 -35.921  22.610  1.00  0.00     0.004 C 
ENDBRANCH   8   9
ENDBRANCH   7   8
ENDBRANCH   1   7
TORSDOF 6
ENDMDL
MODEL 5
REMARK VINA RESULT:    -3.742      3.151      6.427
REMARK INTER + INTRA:          -5.307
REMARK INTER:                  -5.105
REMARK INTRA:                  -0.202
REMARK UNBOUND:                -0.252
REMARK SMILES CCCCCCCC(=O)[O-]
REMARK SMILES IDX 5 1 6 2 7 3 8 4 9 5 10 6 4 7 3 8 2 9 1 10
REMARK H PARENT
REMARK Flexibility Score: inf
ROOT
ATOM      1  C   UNL     1       4.964 -35.602  21.288  1.00  0.00     0.000 C 
ENDROOT
BRANCH   1   2
ATOM      2  C   UNL     1       5.348 -36.230  19.937  1.00  0.00     0.006 C 
BRANCH   2   3
ATOM      3  C   UNL     1       4.736 -37.625  19.752  1.00  0.00     0.053 C 
BRANCH   3   4
ATOM      4  C   UNL     1       3.455 -37.575  18.977  1.00  0.00     0.041 C 
ATOM      5  O   UNL     1       2.365 -37.866  19.534  1.00  0.00    -0.550 OA
ATOM      6  O   UNL     1       3.462 -37.176  17.645  1.00  0.00    -0.550 OA
ENDBRANCH   3   4
ENDBRANCH   2   3
ENDBRANCH   1   2
BRANCH   1   7
ATOM      7  C   UNL     1       6.119 -35.619  22.305  1.00  0.00     0.000 C 
BRANCH   7   8
ATOM      8  C   UNL     1       5.969 -34.635  23.483  1.00  0.00    -0.000 C 
BRANCH   8   9
ATOM      9  C   UNL     1       6.125 -35.263  24.880  1.00  0.00    -0.003 C 
ATOM     10  C   UNL     1       5.744 -36.743  24.912  1.00  0.00     0.004 C 
ENDBRANCH   8   9
ENDBRANCH   7   8
ENDBRANCH   1   7
TORSDOF 6
ENDMDL
MODEL 6
REMARK VINA RESULT:    -3.489      3.536      6.825
REMARK INTER + INTRA:          -4.965
REMARK INTER:                  -4.714
REMARK INTRA:                  -0.251
REMARK UNBOUND:                -0.252
REMARK SMILES CCCCCCCC(=O)[O-]
REMARK SMILES IDX 5 1 6 2 7 3 8 4 9 5 10 6 4 7 3 8 2 9 1 10
REMARK H PARENT
REMARK Flexibility Score: inf
ROOT
ATOM      1  C   UNL     1       5.334 -35.685  22.492  1.00  0.00     0.000 C 
ENDROOT
BRANCH   1   2
ATOM      2  C   UNL     1       6.014 -35.630  21.113  1.00  0.00     0.006 C 
BRANCH   2   3
ATOM      3  C   UNL     1       5.011 -35.802  19.965  1.00  0.00     0.053 C 
BRANCH   3   4
ATOM      4  C   UNL     1       4.519 -37.212  19.860  1.00  0.00     0.041 C 
ATOM      5  O   UNL     1       3.329 -37.444  19.522  1.00  0.00    -0.550 OA
ATOM      6  O   UNL     1       5.383 -38.272  20.107  1.00  0.00    -0.550 OA
ENDBRANCH   3   4
ENDBRANCH   2   3
ENDBRANCH   1   2
BRANCH   1   7
ATOM      7  C   UNL     1       6.054 -34.829  23.549  1.00  0.00     0.000 C 
BRANCH   7   8
ATOM      8  C   UNL     1       6.125 -35.451  24.958  1.00  0.00    -0.000 C 
BRANCH   8   9
ATOM      9  C   UNL     1       5.875 -36.969  25.013  1.00  0.00    -0.003 C 
ATOM     10  C   UNL     1       4.666 -37.342  25.869  1.00  0.00     0.004 C 
ENDBRANCH   8   9
ENDBRANCH   7   8
ENDBRANCH   1   7
TORSDOF 6
ENDMDL
MODEL 7
REMARK VINA RESULT:    -3.451      3.076      4.799
REMARK INTER + INTRA:          -4.914
REMARK INTER:                  -4.774
REMARK INTRA:                  -0.140
REMARK UNBOUND:                -0.252
REMARK SMILES CCCCCCCC(=O)[O-]
REMARK SMILES IDX 5 1 6 2 7 3 8 4 9 5 10 6 4 7 3 8 2 9 1 10
REMARK H PARENT
REMARK Flexibility Score: inf
ROOT
ATOM      1  C   UNL     1       6.124 -35.622  21.327  1.00  0.00     0.000 C 
ENDROOT
BRANCH   1   2
ATOM      2  C   UNL     1       6.098 -35.406  22.850  1.00  0.00     0.006 C 
BRANCH   2   3
ATOM      3  C   UNL     1       6.110 -36.731  23.624  1.00  0.00     0.053 C 
BRANCH   3   4
ATOM      4  C   UNL     1       5.746 -36.540  25.064  1.00  0.00     0.041 C 
ATOM      5  O   UNL     1       6.125 -35.512  25.682  1.00  0.00    -0.550 OA
ATOM      6  O   UNL     1       4.962 -37.485  25.715  1.00  0.00    -0.550 OA
ENDBRANCH   3   4
ENDBRANCH   2   3
ENDBRANCH   1   2
BRANCH   1   7
ATOM      7  C   UNL     1       5.255 -36.811  20.877  1.00  0.00     0.000 C 
BRANCH   7   8
ATOM      8  C   UNL     1       4.673 -36.695  19.453  1.00  0.00    -0.000 C 
BRANCH   8   9
ATOM      9  C   UNL     1       3.401 -37.524  19.201  1.00  0.00    -0.003 C 
ATOM     10  C   UNL     1       2.951 -37.493  17.741  1.00  0.00     0.004 C 
ENDBRANCH   8   9
ENDBRANCH   7   8
ENDBRANCH   1   7
TORSDOF 6
ENDMDL
MODEL 8
REMARK VINA RESULT:    -3.119      1.453      1.875
REMARK INTER + INTRA:          -4.466
REMARK INTER:                  -4.283
REMARK INTRA:                  -0.183
REMARK UNBOUND:                -0.252
REMARK SMILES CCCCCCCC(=O)[O-]
REMARK SMILES IDX 5 1 6 2 7 3 8 4 9 5 10 6 4 7 3 8 2 9 1 10
REMARK H PARENT
REMARK Flexibility Score: inf
ROOT
ATOM      1  C   UNL     1       3.625 -37.445  18.220  1.00  0.00     0.000 C 
ENDROOT
BRANCH   1   2
ATOM      2  C   UNL     1       3.886 -37.464  19.737  1.00  0.00     0.006 C 
BRANCH   2   3
ATOM      3  C   UNL     1       5.374 -37.646  20.067  1.00  0.00     0.053 C 
BRANCH   3   4
ATOM      4  C   UNL     1       5.588 -37.991  21.508  1.00  0.00     0.041 C 
ATOM      5  O   UNL     1       5.836 -37.086  22.346  1.00  0.00    -0.550 OA
ATOM      6  O   UNL     1       5.484 -39.311  21.932  1.00  0.00    -0.550 OA
ENDBRANCH   3   4
ENDBRANCH   2   3
ENDBRANCH   1   2
BRANCH   1   7
ATOM      7  C   UNL     1       2.131 -37.554  17.870  1.00  0.00     0.000 C 
BRANCH   7   8
ATOM      8  C   UNL     1       1.776 -37.230  16.404  1.00  0.00    -0.000 C 
BRANCH   8   9
ATOM      9  C   UNL     1       2.773 -36.304  15.683  1.00  0.00    -0.003 C 
ATOM     10  C   UNL     1       3.310 -36.905  14.385  1.00  0.00     0.004 C 
ENDBRANCH   8   9
ENDBRANCH   7   8
ENDBRANCH   1   7
TORSDOF 6
ENDMDL
MODEL 9
REMARK VINA RESULT:    -3.109      2.883      5.067
REMARK INTER + INTRA:          -4.451
REMARK INTER:                  -4.124
REMARK INTRA:                  -0.327
REMARK UNBOUND:                -0.252
REMARK SMILES CCCCCCCC(=O)[O-]
REMARK SMILES IDX 5 1 6 2 7 3 8 4 9 5 10 6 4 7 3 8 2 9 1 10
REMARK H PARENT
REMARK Flexibility Score: inf
ROOT
ATOM      1  C   UNL     1       2.906 -37.818  19.601  1.00  0.00     0.000 C 
ENDROOT
BRANCH   1   2
ATOM      2  C   UNL     1       2.399 -37.769  18.148  1.00  0.00     0.006 C 
BRANCH   2   3
ATOM      3  C   UNL     1       3.344 -36.983  17.231  1.00  0.00     0.053 C 
BRANCH   3   4
ATOM      4  C   UNL     1       2.678 -36.589  15.948  1.00  0.00     0.041 C 
ATOM      5  O   UNL     1       1.510 -36.121  15.959  1.00  0.00    -0.550 OA
ATOM      6  O   UNL     1       3.360 -36.711  14.743  1.00  0.00    -0.550 OA
ENDBRANCH   3   4
ENDBRANCH   2   3
ENDBRANCH   1   2
BRANCH   1   7
ATOM      7  C   UNL     1       3.949 -36.728  19.907  1.00  0.00     0.000 C 
BRANCH   7   8
ATOM      8  C   UNL     1       5.347 -37.250  20.293  1.00  0.00    -0.000 C 
BRANCH   8   9
ATOM      9  C   UNL     1       5.429 -38.766  20.547  1.00  0.00    -0.003 C 
ATOM     10  C   UNL     1       5.449 -39.120  22.034  1.00  0.00     0.004 C 
ENDBRANCH   8   9
ENDBRANCH   7   8
ENDBRANCH   1   7
TORSDOF 6
ENDMDL
