MODEL 1
REMARK VINA RESULT:    -4.807      0.000      0.000
REMARK INTER + INTRA:          -9.425
REMARK INTER:                  -8.460
REMARK INTRA:                  -0.965
REMARK UNBOUND:                -0.965
REMARK SMILES CCCCCCCCCCCCCCC(=O)[O-]
REMARK SMILES IDX 9 1 10 2 11 3 12 4 13 5 14 6 15 7 16 8 17 9 8 10 7 11 6 12
REMARK SMILES IDX 5 13 4 14 3 15 2 16 1 17
REMARK H PARENT
REMARK Flexibility Score: inf
ROOT
ATOM      1  C   UNL     1       0.864   6.478  16.909  1.00  0.00     0.000 C 
ENDROOT
BRANCH   1   2
ATOM      2  C   UNL     1       0.744   8.005  17.057  1.00  0.00     0.000 C 
BRANCH   2   3
ATOM      3  C   UNL     1       1.557   8.556  18.242  1.00  0.00     0.000 C 
BRANCH   3   4
ATOM      4  C   UNL     1       0.720   8.636  19.536  1.00  0.00     0.000 C 
BRANCH   4   5
ATOM      5  C   UNL     1       0.943   7.447  20.487  1.00  0.00     0.006 C 
BRANCH   5   6
ATOM      6  C   UNL     1      -0.345   6.982  21.174  1.00  0.00     0.053 C 
BRANCH   6   7
ATOM      7  C   UNL     1      -0.116   6.785  22.639  1.00  0.00     0.041 C 
ATOM      8  O   UNL     1       1.053   6.644  23.084  1.00  0.00    -0.550 OA
ATOM      9  O   UNL     1      -1.197   6.709  23.508  1.00  0.00    -0.550 OA
ENDBRANCH   6   7
ENDBRANCH   5   6
ENDBRANCH   4   5
ENDBRANCH   3   4
ENDBRANCH   2   3
ENDBRANCH   1   2
BRANCH   1  10
ATOM     10  C   UNL     1      -0.226   5.665  17.636  1.00  0.00     0.000 C 
BRANCH  10  11
ATOM     11  C   UNL     1      -0.778   4.464  16.848  1.00  0.00    -0.000 C 
BRANCH  11  12
ATOM     12  C   UNL     1      -1.452   4.874  15.530  1.00  0.00    -0.000 C 
BRANCH  12  13
ATOM     13  C   UNL     1      -2.710   4.029  15.272  1.00  0.00    -0.000 C 
BRANCH  13  14
ATOM     14  C   UNL     1      -3.171   3.257  16.519  1.00  0.00    -0.000 C 
BRANCH  14  15
ATOM     15  C   UNL     1      -4.689   3.026  16.545  1.00  0.00    -0.000 C 
BRANCH  15  16
ATOM     16  C   UNL     1      -5.439   4.253  16.017  1.00  0.00    -0.003 C 
ATOM     17  C   UNL     1      -5.628   5.299  17.112  1.00  0.00     0.004 C 
ENDBRANCH  15  16
ENDBRANCH  14  15
ENDBRANCH  13  14
ENDBRANCH  12  13
ENDBRANCH  11  12
ENDBRANCH  10  11
ENDBRANCH   1  10
TORSDOF 13
ENDMDL
MODEL 2
REMARK VINA RESULT:    -4.634      1.696      3.457
REMARK INTER + INTRA:          -9.121
REMARK INTER:                  -7.968
REMARK INTRA:                  -1.153
REMARK UNBOUND:                -0.965
REMARK SMILES CCCCCCCCCCCCCCC(=O)[O-]
REMARK SMILES IDX 9 1 10 2 11 3 12 4 13 5 14 6 15 7 16 8 17 9 8 10 7 11 6 12
REMARK SMILES IDX 5 13 4 14 3 15 2 16 1 17
REMARK H PARENT
REMARK Flexibility Score: inf
ROOT
ATOM      1  C   UNL     1      -2.057   4.381  15.721  1.00  0.00     0.000 C 
ENDROOT
BRANCH   1   2
ATOM      2  C   UNL     1      -1.090   4.273  16.913  1.00  0.00     0.000 C 
BRANCH   2   3
ATOM      3  C   UNL     1      -0.172   5.501  17.050  1.00  0.00     0.000 C 
BRANCH   3   4
ATOM      4  C   UNL     1      -0.052   5.977  18.513  1.00  0.00     0.000 C 
BRANCH   4   5
ATOM      5  C   UNL     1       0.678   7.324  18.664  1.00  0.00     0.006 C 
BRANCH   5   6
ATOM      6  C   UNL     1       0.296   8.069  19.947  1.00  0.00     0.053 C 
BRANCH   6   7
ATOM      7  C   UNL     1       0.528   7.203  21.144  1.00  0.00     0.041 C 
ATOM      8  O   UNL     1      -0.448   6.730  21.783  1.00  0.00    -0.550 OA
ATOM      9  O   UNL     1       1.823   6.957  21.584  1.00  0.00    -0.550 OA
ENDBRANCH   6   7
ENDBRANCH   5   6
ENDBRANCH   4   5
ENDBRANCH   3   4
ENDBRANCH   2   3
ENDBRANCH   1   2
BRANCH   1  10
ATOM     10  C   UNL     1      -3.386   3.617  15.888  1.00  0.00     0.000 C 
BRANCH  10  11
ATOM     11  C   UNL     1      -4.504   4.401  16.599  1.00  0.00    -0.000 C 
BRANCH  11  12
ATOM     12  C   UNL     1      -4.364   5.922  16.436  1.00  0.00    -0.000 C 
BRANCH  12  13
ATOM     13  C   UNL     1      -5.738   6.580  16.238  1.00  0.00    -0.000 C 
BRANCH  13  14
ATOM     14  C   UNL     1      -6.814   5.581  15.785  1.00  0.00    -0.000 C 
BRANCH  14  15
ATOM     15  C   UNL     1      -7.232   5.782  14.321  1.00  0.00    -0.000 C 
BRANCH  15  16
ATOM     16  C   UNL     1      -6.877   4.553  13.477  1.00  0.00    -0.003 C 
ATOM     17  C   UNL     1      -5.452   4.644  12.938  1.00  0.00     0.004 C 
ENDBRANCH  15  16
ENDBRANCH  14  15
ENDBRANCH  13  14
ENDBRANCH  12  13
ENDBRANCH  11  12
ENDBRANCH  10  11
ENDBRANCH   1  10
TORSDOF 13
ENDMDL
MODEL 3
REMARK VINA RESULT:    -4.616      4.973      7.159
REMARK INTER + INTRA:          -9.089
REMARK INTER:                  -6.727
REMARK INTRA:                  -2.363
REMARK UNBOUND:                -0.965
REMARK SMILES CCCCCCCCCCCCCCC(=O)[O-]
REMARK SMILES IDX 9 1 10 2 11 3 12 4 13 5 14 6 15 7 16 8 17 9 8 10 7 11 6 12
REMARK SMILES IDX 5 13 4 14 3 15 2 16 1 17
REMARK H PARENT
REMARK Flexibility Score: inf
ROOT
ATOM      1  C   UNL     1      -7.391   6.748  16.428  1.00  0.00     0.000 C 
ENDROOT
BRANCH   1   2
ATOM      2  C   UNL     1      -5.920   7.194  16.502  1.00  0.00     0.000 C 
BRANCH   2   3
ATOM      3  C   UNL     1      -4.966   6.045  16.872  1.00  0.00     0.000 C 
BRANCH   3   4
ATOM      4  C   UNL     1      -5.609   4.660  16.651  1.00  0.00     0.000 C 
BRANCH   4   5
ATOM      5  C   UNL     1      -4.625   3.603  16.119  1.00  0.00     0.006 C 
BRANCH   5   6
ATOM      6  C   UNL     1      -3.418   4.217  15.403  1.00  0.00     0.053 C 
BRANCH   6   7
ATOM      7  C   UNL     1      -2.143   3.698  15.988  1.00  0.00     0.041 C 
ATOM      8  O   UNL     1      -2.166   2.750  16.817  1.00  0.00    -0.550 OA
ATOM      9  O   UNL     1      -0.932   4.292  15.655  1.00  0.00    -0.550 OA
ENDBRANCH   6   7
ENDBRANCH   5   6
ENDBRANCH   4   5
ENDBRANCH   3   4
ENDBRANCH   2   3
ENDBRANCH   1   2
BRANCH   1  10
ATOM     10  C   UNL     1      -8.189   7.326  15.242  1.00  0.00     0.000 C 
BRANCH  10  11
ATOM     11  C   UNL     1      -9.209   6.362  14.611  1.00  0.00    -0.000 C 
BRANCH  11  12
ATOM     12  C   UNL     1      -8.552   5.121  13.987  1.00  0.00    -0.000 C 
BRANCH  12  13
ATOM     13  C   UNL     1      -7.637   5.516  12.817  1.00  0.00    -0.000 C 
BRANCH  13  14
ATOM     14  C   UNL     1      -6.202   4.993  12.985  1.00  0.00    -0.000 C 
BRANCH  14  15
ATOM     15  C   UNL     1      -5.147   6.099  12.840  1.00  0.00    -0.000 C 
BRANCH  15  16
ATOM     16  C   UNL     1      -5.746   7.344  12.176  1.00  0.00    -0.003 C 
ATOM     17  C   UNL     1      -5.520   8.589  13.030  1.00  0.00     0.004 C 
ENDBRANCH  15  16
ENDBRANCH  14  15
ENDBRANCH  13  14
ENDBRANCH  12  13
ENDBRANCH  11  12
ENDBRANCH  10  11
ENDBRANCH   1  10
TORSDOF 13
ENDMDL
MODEL 4
REMARK VINA RESULT:    -4.592      5.062      6.805
REMARK INTER + INTRA:          -9.047
REMARK INTER:                  -6.857
REMARK INTRA:                  -2.190
REMARK UNBOUND:                -0.965
REMARK SMILES CCCCCCCCCCCCCCC(=O)[O-]
REMARK SMILES IDX 9 1 10 2 11 3 12 4 13 5 14 6 15 7 16 8 17 9 8 10 7 11 6 12
REMARK SMILES IDX 5 13 4 14 3 15 2 16 1 17
REMARK H PARENT
REMARK Flexibility Score: inf
ROOT
ATOM      1  C   UNL     1      -5.450   8.093  15.553  1.00  0.00     0.000 C 
ENDROOT
BRANCH   1   2
ATOM      2  C   UNL     1      -6.027   7.082  16.559  1.00  0.00     0.000 C 
BRANCH   2   3
ATOM      3  C   UNL     1      -5.003   6.016  16.990  1.00  0.00     0.000 C 
BRANCH   3   4
ATOM      4  C   UNL     1      -5.552   4.584  16.832  1.00  0.00     0.000 C 
BRANCH   4   5
ATOM      5  C   UNL     1      -4.847   3.772  15.731  1.00  0.00     0.006 C 
BRANCH   5   6
ATOM      6  C   UNL     1      -3.579   4.454  15.206  1.00  0.00     0.053 C 
BRANCH   6   7
ATOM      7  C   UNL     1      -2.360   3.802  15.778  1.00  0.00     0.041 C 
ATOM      8  O   UNL     1      -2.473   2.822  16.560  1.00  0.00    -0.550 OA
ATOM      9  O   UNL     1      -1.099   4.309  15.488  1.00  0.00    -0.550 OA
ENDBRANCH   6   7
ENDBRANCH   5   6
ENDBRANCH   4   5
ENDBRANCH   3   4
ENDBRANCH   2   3
ENDBRANCH   1   2
BRANCH   1  10
ATOM     10  C   UNL     1      -6.444   8.590  14.485  1.00  0.00     0.000 C 
BRANCH  10  11
ATOM     11  C   UNL     1      -6.150   8.118  13.050  1.00  0.00    -0.000 C 
BRANCH  11  12
ATOM     12  C   UNL     1      -5.176   6.932  13.000  1.00  0.00    -0.000 C 
BRANCH  12  13
ATOM     13  C   UNL     1      -5.918   5.627  12.671  1.00  0.00    -0.000 C 
BRANCH  13  14
ATOM     14  C   UNL     1      -7.445   5.783  12.728  1.00  0.00    -0.000 C 
BRANCH  14  15
ATOM     15  C   UNL     1      -8.063   5.124  13.970  1.00  0.00    -0.000 C 
BRANCH  15  16
ATOM     16  C   UNL     1      -9.442   5.716  14.277  1.00  0.00    -0.003 C 
ATOM     17  C   UNL     1      -9.394   6.623  15.504  1.00  0.00     0.004 C 
ENDBRANCH  15  16
ENDBRANCH  14  15
ENDBRANCH  13  14
ENDBRANCH  12  13
ENDBRANCH  11  12
ENDBRANCH  10  11
ENDBRANCH   1  10
TORSDOF 13
ENDMDL
MODEL 5
REMARK VINA RESULT:    -4.495      4.449      7.396
REMARK INTER + INTRA:          -8.876
REMARK INTER:                  -7.030
REMARK INTRA:                  -1.846
REMARK UNBOUND:                -0.965
REMARK SMILES CCCCCCCCCCCCCCC(=O)[O-]
REMARK SMILES IDX 9 1 10 2 11 3 12 4 13 5 14 6 15 7 16 8 17 9 8 10 7 11 6 12
REMARK SMILES IDX 5 13 4 14 3 15 2 16 1 17
REMARK H PARENT
REMARK Flexibility Score: inf
ROOT
ATOM      1  C   UNL     1      -6.060   5.514  12.075  1.00  0.00     0.000 C 
ENDROOT
BRANCH   1   2
ATOM      2  C   UNL     1      -6.219   4.537  13.254  1.00  0.00     0.000 C 
BRANCH   2   3
ATOM      3  C   UNL     1      -4.906   4.312  14.024  1.00  0.00     0.000 C 
BRANCH   3   4
ATOM      4  C   UNL     1      -5.154   3.885  15.486  1.00  0.00     0.000 C 
BRANCH   4   5
ATOM      5  C   UNL     1      -3.864   3.562  16.260  1.00  0.00     0.006 C 
BRANCH   5   6
ATOM      6  C   UNL     1      -2.611   4.155  15.606  1.00  0.00     0.053 C 
BRANCH   6   7
ATOM      7  C   UNL     1      -1.403   3.877  16.444  1.00  0.00     0.041 C 
ATOM      8  O   UNL     1      -0.533   4.770  16.617  1.00  0.00    -0.550 OA
ATOM      9  O   UNL     1      -1.213   2.615  16.992  1.00  0.00    -0.550 OA
ENDBRANCH   6   7
ENDBRANCH   5   6
ENDBRANCH   4   5
ENDBRANCH   3   4
ENDBRANCH   2   3
ENDBRANCH   1   2
BRANCH   1  10
ATOM     10  C   UNL     1      -6.972   6.755  12.130  1.00  0.00     0.000 C 
BRANCH  10  11
ATOM     11  C   UNL     1      -8.481   6.459  12.077  1.00  0.00    -0.000 C 
BRANCH  11  12
ATOM     12  C   UNL     1      -9.259   7.108  13.232  1.00  0.00    -0.000 C 
BRANCH  12  13
ATOM     13  C   UNL     1      -9.400   6.135  14.412  1.00  0.00    -0.000 C 
BRANCH  13  14
ATOM     14  C   UNL     1      -9.025   6.776  15.758  1.00  0.00    -0.000 C 
BRANCH  14  15
ATOM     15  C   UNL     1      -7.531   6.637  16.084  1.00  0.00    -0.000 C 
BRANCH  15  16
ATOM     16  C   UNL     1      -6.758   7.891  15.662  1.00  0.00    -0.003 C 
ATOM     17  C   UNL     1      -5.269   7.595  15.502  1.00  0.00     0.004 C 
ENDBRANCH  15  16
ENDBRANCH  14  15
ENDBRANCH  13  14
ENDBRANCH  12  13
ENDBRANCH  11  12
ENDBRANCH  10  11
ENDBRANCH   1  10
TORSDOF 13
ENDMDL
MODEL 6
REMARK VINA RESULT:    -4.467      4.047      6.568
REMARK INTER + INTRA:          -8.827
REMARK INTER:                  -6.697
REMARK INTRA:                  -2.130
REMARK UNBOUND:                -0.965
REMARK SMILES CCCCCCCCCCCCCCC(=O)[O-]
REMARK SMILES IDX 9 1 10 2 11 3 12 4 13 5 14 6 15 7 16 8 17 9 8 10 7 11 6 12
REMARK SMILES IDX 5 13 4 14 3 15 2 16 1 17
REMARK H PARENT
REMARK Flexibility Score: inf
ROOT
ATOM      1  C   UNL     1      -7.040   5.035  14.636  1.00  0.00     0.000 C 
ENDROOT
BRANCH   1   2
ATOM      2  C   UNL     1      -6.072   4.217  15.508  1.00  0.00     0.000 C 
BRANCH   2   3
ATOM      3  C   UNL     1      -5.553   5.004  16.724  1.00  0.00     0.000 C 
BRANCH   3   4
ATOM      4  C   UNL     1      -4.046   5.316  16.616  1.00  0.00     0.000 C 
BRANCH   4   5
ATOM      5  C   UNL     1      -3.312   4.454  15.573  1.00  0.00     0.006 C 
BRANCH   5   6
ATOM      6  C   UNL     1      -1.823   4.797  15.456  1.00  0.00     0.053 C 
BRANCH   6   7
ATOM      7  C   UNL     1      -1.072   4.278  16.641  1.00  0.00     0.041 C 
ATOM      8  O   UNL     1      -0.253   5.018  17.246  1.00  0.00    -0.550 OA
ATOM      9  O   UNL     1      -1.239   2.960  17.047  1.00  0.00    -0.550 OA
ENDBRANCH   6   7
ENDBRANCH   5   6
ENDBRANCH   4   5
ENDBRANCH   3   4
ENDBRANCH   2   3
ENDBRANCH   1   2
BRANCH   1  10
ATOM     10  C   UNL     1      -6.968   4.737  13.125  1.00  0.00     0.000 C 
BRANCH  10  11
ATOM     11  C   UNL     1      -5.656   5.159  12.439  1.00  0.00    -0.000 C 
BRANCH  11  12
ATOM     12  C   UNL     1      -5.742   6.548  11.788  1.00  0.00    -0.000 C 
BRANCH  12  13
ATOM     13  C   UNL     1      -4.469   7.362  12.067  1.00  0.00    -0.000 C 
BRANCH  13  14
ATOM     14  C   UNL     1      -4.081   7.366  13.554  1.00  0.00    -0.000 C 
BRANCH  14  15
ATOM     15  C   UNL     1      -4.489   8.662  14.269  1.00  0.00    -0.000 C 
BRANCH  15  16
ATOM     16  C   UNL     1      -5.868   8.517  14.924  1.00  0.00    -0.003 C 
ATOM     17  C   UNL     1      -5.770   8.603  16.444  1.00  0.00     0.004 C 
ENDBRANCH  15  16
ENDBRANCH  14  15
ENDBRANCH  13  14
ENDBRANCH  12  13
ENDBRANCH  11  12
ENDBRANCH  10  11
ENDBRANCH   1  10
TORSDOF 13
ENDMDL
MODEL 7
REMARK VINA RESULT:    -4.458      5.608      7.859
REMARK INTER + INTRA:          -8.810
REMARK INTER:                  -6.314
REMARK INTRA:                  -2.496
REMARK UNBOUND:                -0.965
REMARK SMILES CCCCCCCCCCCCCCC(=O)[O-]
REMARK SMILES IDX 9 1 10 2 11 3 12 4 13 5 14 6 15 7 16 8 17 9 8 10 7 11 6 12
REMARK SMILES IDX 5 13 4 14 3 15 2 16 1 17
REMARK H PARENT
REMARK Flexibility Score: inf
ROOT
ATOM      1  C   UNL     1      -8.859   5.916  14.087  1.00  0.00     0.000 C 
ENDROOT
BRANCH   1   2
ATOM      2  C   UNL     1      -8.928   6.840  15.315  1.00  0.00     0.000 C 
BRANCH   2   3
ATOM      3  C   UNL     1      -7.728   6.666  16.262  1.00  0.00     0.000 C 
BRANCH   3   4
ATOM      4  C   UNL     1      -6.821   5.491  15.842  1.00  0.00     0.000 C 
BRANCH   4   5
ATOM      5  C   UNL     1      -5.603   5.294  16.762  1.00  0.00     0.006 C 
BRANCH   5   6
ATOM      6  C   UNL     1      -4.380   4.740  16.024  1.00  0.00     0.053 C 
BRANCH   6   7
ATOM      7  C   UNL     1      -4.090   3.341  16.469  1.00  0.00     0.041 C 
ATOM      8  O   UNL     1      -2.905   2.917  16.494  1.00  0.00    -0.550 OA
ATOM      9  O   UNL     1      -5.134   2.489  16.808  1.00  0.00    -0.550 OA
ENDBRANCH   6   7
ENDBRANCH   5   6
ENDBRANCH   4   5
ENDBRANCH   3   4
ENDBRANCH   2   3
ENDBRANCH   1   2
BRANCH   1  10
ATOM     10  C   UNL     1      -8.955   6.633  12.725  1.00  0.00     0.000 C 
BRANCH  10  11
ATOM     11  C   UNL     1      -7.851   6.269  11.717  1.00  0.00    -0.000 C 
BRANCH  11  12
ATOM     12  C   UNL     1      -7.085   4.994  12.104  1.00  0.00    -0.000 C 
BRANCH  12  13
ATOM     13  C   UNL     1      -5.616   5.313  12.422  1.00  0.00    -0.000 C 
BRANCH  13  14
ATOM     14  C   UNL     1      -5.306   6.817  12.345  1.00  0.00    -0.000 C 
BRANCH  14  15
ATOM     15  C   UNL     1      -4.296   7.269  13.409  1.00  0.00    -0.000 C 
BRANCH  15  16
ATOM     16  C   UNL     1      -4.929   8.277  14.373  1.00  0.00    -0.003 C 
ATOM     17  C   UNL     1      -6.161   8.933  13.756  1.00  0.00     0.004 C 
ENDBRANCH  15  16
ENDBRANCH  14  15
ENDBRANCH  13  14
ENDBRANCH  12  13
ENDBRANCH  11  12
ENDBRANCH  10  11
ENDBRANCH   1  10
TORSDOF 13
ENDMDL
MODEL 8
REMARK VINA RESULT:    -4.441      5.662      7.036
REMARK INTER + INTRA:          -8.780
REMARK INTER:                  -6.441
REMARK INTRA:                  -2.339
REMARK UNBOUND:                -0.965
REMARK SMILES CCCCCCCCCCCCCCC(=O)[O-]
REMARK SMILES IDX 9 1 10 2 11 3 12 4 13 5 14 6 15 7 16 8 17 9 8 10 7 11 6 12
REMARK SMILES IDX 5 13 4 14 3 15 2 16 1 17
REMARK H PARENT
REMARK Flexibility Score: inf
ROOT
ATOM      1  C   UNL     1      -4.207   7.461  13.629  1.00  0.00     0.000 C 
ENDROOT
BRANCH   1   2
ATOM      2  C   UNL     1      -5.304   8.262  14.353  1.00  0.00     0.000 C 
BRANCH   2   3
ATOM      3  C   UNL     1      -5.692   7.652  15.711  1.00  0.00     0.000 C 
BRANCH   3   4
ATOM      4  C   UNL     1      -4.915   6.353  16.009  1.00  0.00     0.000 C 
BRANCH   4   5
ATOM      5  C   UNL     1      -5.823   5.137  16.263  1.00  0.00     0.006 C 
BRANCH   5   6
ATOM      6  C   UNL     1      -5.297   3.852  15.613  1.00  0.00     0.053 C 
BRANCH   6   7
ATOM      7  C   UNL     1      -4.536   3.037  16.609  1.00  0.00     0.041 C 
ATOM      8  O   UNL     1      -5.147   2.399  17.506  1.00  0.00    -0.550 OA
ATOM      9  O   UNL     1      -3.147   3.020  16.577  1.00  0.00    -0.550 OA
ENDBRANCH   6   7
ENDBRANCH   5   6
ENDBRANCH   4   5
ENDBRANCH   3   4
ENDBRANCH   2   3
ENDBRANCH   1   2
BRANCH   1  10
ATOM     10  C   UNL     1      -4.264   7.522  12.090  1.00  0.00     0.000 C 
BRANCH  10  11
ATOM     11  C   UNL     1      -5.330   6.623  11.439  1.00  0.00    -0.000 C 
BRANCH  11  12
ATOM     12  C   UNL     1      -5.637   5.366  12.266  1.00  0.00    -0.000 C 
BRANCH  12  13
ATOM     13  C   UNL     1      -7.152   5.176  12.432  1.00  0.00    -0.000 C 
BRANCH  13  14
ATOM     14  C   UNL     1      -7.950   6.443  12.087  1.00  0.00    -0.000 C 
BRANCH  14  15
ATOM     15  C   UNL     1      -9.027   6.769  13.132  1.00  0.00    -0.000 C 
BRANCH  15  16
ATOM     16  C   UNL     1      -8.887   5.866  14.363  1.00  0.00    -0.003 C 
ATOM     17  C   UNL     1      -9.228   6.621  15.644  1.00  0.00     0.004 C 
ENDBRANCH  15  16
ENDBRANCH  14  15
ENDBRANCH  13  14
ENDBRANCH  12  13
ENDBRANCH  11  12
ENDBRANCH  10  11
ENDBRANCH   1  10
TORSDOF 13
ENDMDL
MODEL 9
REMARK VINA RESULT:    -4.419      4.293      6.611
REMARK INTER + INTRA:          -8.742
REMARK INTER:                  -6.721
REMARK INTRA:                  -2.020
REMARK UNBOUND:                -0.965
REMARK SMILES CCCCCCCCCCCCCCC(=O)[O-]
REMARK SMILES IDX 9 1 10 2 11 3 12 4 13 5 14 6 15 7 16 8 17 9 8 10 7 11 6 12
REMARK SMILES IDX 5 13 4 14 3 15 2 16 1 17
REMARK H PARENT
REMARK Flexibility Score: inf
ROOT
ATOM      1  C   UNL     1      -7.225   6.563  16.241  1.00  0.00     0.000 C 
ENDROOT
BRANCH   1   2
ATOM      2  C   UNL     1      -6.716   5.184  15.783  1.00  0.00     0.000 C 
BRANCH   2   3
ATOM      3  C   UNL     1      -5.652   4.597  16.728  1.00  0.00     0.000 C 
BRANCH   3   4
ATOM      4  C   UNL     1      -4.504   3.912  15.958  1.00  0.00     0.000 C 
BRANCH   4   5
ATOM      5  C   UNL     1      -3.258   4.801  15.792  1.00  0.00     0.006 C 
BRANCH   5   6
ATOM      6  C   UNL     1      -1.997   4.003  15.446  1.00  0.00     0.053 C 
BRANCH   6   7
ATOM      7  C   UNL     1      -1.200   3.723  16.680  1.00  0.00     0.041 C 
ATOM      8  O   UNL     1      -0.469   4.618  17.180  1.00  0.00    -0.550 OA
ATOM      9  O   UNL     1      -1.225   2.457  17.251  1.00  0.00    -0.550 OA
ENDBRANCH   6   7
ENDBRANCH   5   6
ENDBRANCH   4   5
ENDBRANCH   3   4
ENDBRANCH   2   3
ENDBRANCH   1   2
BRANCH   1  10
ATOM     10  C   UNL     1      -6.181   7.696  16.182  1.00  0.00     0.000 C 
BRANCH  10  11
ATOM     11  C   UNL     1      -5.873   8.227  14.771  1.00  0.00    -0.000 C 
BRANCH  11  12
ATOM     12  C   UNL     1      -4.518   7.743  14.233  1.00  0.00    -0.000 C 
BRANCH  12  13
ATOM     13  C   UNL     1      -4.640   7.290  12.770  1.00  0.00    -0.000 C 
BRANCH  13  14
ATOM     14  C   UNL     1      -5.264   5.892  12.632  1.00  0.00    -0.000 C 
BRANCH  14  15
ATOM     15  C   UNL     1      -6.463   5.870  11.673  1.00  0.00    -0.000 C 
BRANCH  15  16
ATOM     16  C   UNL     1      -7.785   5.917  12.448  1.00  0.00    -0.003 C 
ATOM     17  C   UNL     1      -8.484   7.261  12.268  1.00  0.00     0.004 C 
ENDBRANCH  15  16
ENDBRANCH  14  15
ENDBRANCH  13  14
ENDBRANCH  12  13
ENDBRANCH  11  12
ENDBRANCH  10  11
ENDBRANCH   1  10
TORSDOF 13
ENDMDL
