MODEL 1
REMARK VINA RESULT:    -2.189      0.000      0.000
REMARK INTER + INTRA:          -5.112
REMARK INTER:                  -3.853
REMARK INTRA:                  -1.259
REMARK UNBOUND:                -1.259
REMARK SMILES CCCCCCC=CCCCCCCCC(=O)[O-]
REMARK SMILES IDX 10 1 11 2 12 3 13 4 14 5 15 6 16 7 17 8 18 9 9 10 8 11 7 12
REMARK SMILES IDX 6 13 5 14 4 15 3 16 2 17 1 18
REMARK H PARENT
REMARK Flexibility Score: inf
ROOT
ATOM      1  C   UNL     1     -22.025   2.676   8.415  1.00  0.00     0.004 C 
ENDROOT
BRANCH   1   2
ATOM      2  C   UNL     1     -22.281   1.739   9.605  1.00  0.00     0.000 C 
BRANCH   2   3
ATOM      3  C   UNL     1     -21.618   2.277  10.881  1.00  0.00     0.000 C 
BRANCH   3   4
ATOM      4  C   UNL     1     -21.835   1.363  12.099  1.00  0.00     0.000 C 
BRANCH   4   5
ATOM      5  C   UNL     1     -21.767  -0.142  11.762  1.00  0.00     0.006 C 
BRANCH   5   6
ATOM      6  C   UNL     1     -21.034  -0.946  12.844  1.00  0.00     0.053 C 
BRANCH   6   7
ATOM      7  C   UNL     1     -21.515  -0.554  14.205  1.00  0.00     0.041 C 
ATOM      8  O   UNL     1     -20.742   0.039  15.004  1.00  0.00    -0.550 OA
ATOM      9  O   UNL     1     -22.800  -0.890  14.611  1.00  0.00    -0.550 OA
ENDBRANCH   6   7
ENDBRANCH   5   6
ENDBRANCH   4   5
ENDBRANCH   3   4
ENDBRANCH   2   3
ENDBRANCH   1   2
BRANCH   1  10
ATOM     10  C   UNL     1     -21.365   1.946   7.235  1.00  0.00     0.027 C 
BRANCH  10  11
ATOM     11  C   UNL     1     -20.979   0.533   7.581  1.00  0.00    -0.031 C 
ATOM     12  C   UNL     1     -21.318  -0.502   6.798  1.00  0.00    -0.031 C 
BRANCH  12  13
ATOM     13  C   UNL     1     -20.937  -1.913   7.148  1.00  0.00     0.027 C 
BRANCH  13  14
ATOM     14  C   UNL     1     -20.654  -2.057   8.652  1.00  0.00     0.004 C 
BRANCH  14  15
ATOM     15  C   UNL     1     -19.918  -3.373   8.983  1.00  0.00     0.000 C 
BRANCH  15  16
ATOM     16  C   UNL     1     -19.883  -4.370   7.812  1.00  0.00    -0.000 C 
BRANCH  16  17
ATOM     17  C   UNL     1     -20.143  -5.817   8.251  1.00  0.00    -0.003 C 
ATOM     18  C   UNL     1     -21.625  -6.050   8.528  1.00  0.00     0.004 C 
ENDBRANCH  16  17
ENDBRANCH  15  16
ENDBRANCH  14  15
ENDBRANCH  13  14
ENDBRANCH  12  13
ENDBRANCH  10  11
ENDBRANCH   1  10
TORSDOF 13
ENDMDL
MODEL 2
REMARK VINA RESULT:    -2.113      2.936      5.721
REMARK INTER + INTRA:          -4.978
REMARK INTER:                  -3.843
REMARK INTRA:                  -1.136
REMARK UNBOUND:                -1.259
REMARK SMILES CCCCCCC=CCCCCCCCC(=O)[O-]
REMARK SMILES IDX 10 1 11 2 12 3 13 4 14 5 15 6 16 7 17 8 18 9 9 10 8 11 7 12
REMARK SMILES IDX 6 13 5 14 4 15 3 16 2 17 1 18
REMARK H PARENT
REMARK Flexibility Score: inf
ROOT
ATOM      1  C   UNL     1     -21.497   0.670   6.294  1.00  0.00     0.004 C 
ENDROOT
BRANCH   1   2
ATOM      2  C   UNL     1     -20.498  -0.497   6.288  1.00  0.00     0.000 C 
BRANCH   2   3
ATOM      3  C   UNL     1     -21.074  -1.718   7.020  1.00  0.00     0.000 C 
BRANCH   3   4
ATOM      4  C   UNL     1     -20.646  -1.788   8.495  1.00  0.00     0.000 C 
BRANCH   4   5
ATOM      5  C   UNL     1     -20.183  -3.192   8.939  1.00  0.00     0.006 C 
BRANCH   5   6
ATOM      6  C   UNL     1     -20.213  -4.203   7.786  1.00  0.00     0.053 C 
BRANCH   6   7
ATOM      7  C   UNL     1     -20.436  -5.588   8.308  1.00  0.00     0.041 C 
ATOM      8  O   UNL     1     -19.464  -6.377   8.445  1.00  0.00    -0.550 OA
ATOM      9  O   UNL     1     -21.723  -6.023   8.594  1.00  0.00    -0.550 OA
ENDBRANCH   6   7
ENDBRANCH   5   6
ENDBRANCH   4   5
ENDBRANCH   3   4
ENDBRANCH   2   3
ENDBRANCH   1   2
BRANCH   1  10
ATOM     10  C   UNL     1     -20.979   1.870   7.102  1.00  0.00     0.027 C 
BRANCH  10  11
ATOM     11  C   UNL     1     -21.784   2.109   8.352  1.00  0.00    -0.031 C 
ATOM     12  C   UNL     1     -21.756   1.250   9.382  1.00  0.00    -0.031 C 
BRANCH  12  13
ATOM     13  C   UNL     1     -22.566   1.486  10.627  1.00  0.00     0.027 C 
BRANCH  13  14
ATOM     14  C   UNL     1     -21.660   1.777  11.833  1.00  0.00     0.004 C 
BRANCH  14  15
ATOM     15  C   UNL     1     -22.119   1.026  13.101  1.00  0.00     0.000 C 
BRANCH  15  16
ATOM     16  C   UNL     1     -21.105  -0.016  13.601  1.00  0.00    -0.000 C 
BRANCH  16  17
ATOM     17  C   UNL     1     -21.594  -1.459  13.425  1.00  0.00    -0.003 C 
ATOM     18  C   UNL     1     -20.991  -2.097  12.177  1.00  0.00     0.004 C 
ENDBRANCH  16  17
ENDBRANCH  15  16
ENDBRANCH  14  15
ENDBRANCH  13  14
ENDBRANCH  12  13
ENDBRANCH  10  11
ENDBRANCH   1  10
TORSDOF 13
ENDMDL
MODEL 3
REMARK VINA RESULT:    -2.095      1.450      5.543
REMARK INTER + INTRA:          -4.947
REMARK INTER:                  -3.994
REMARK INTRA:                  -0.953
REMARK UNBOUND:                -1.259
REMARK SMILES CCCCCCC=CCCCCCCCC(=O)[O-]
REMARK SMILES IDX 10 1 11 2 12 3 13 4 14 5 15 6 16 7 17 8 18 9 9 10 8 11 7 12
REMARK SMILES IDX 6 13 5 14 4 15 3 16 2 17 1 18
REMARK H PARENT
REMARK Flexibility Score: inf
ROOT
ATOM      1  C   UNL     1     -20.450  -2.765   8.239  1.00  0.00     0.004 C 
ENDROOT
BRANCH   1   2
ATOM      2  C   UNL     1     -20.274  -1.932   9.517  1.00  0.00     0.000 C 
BRANCH   2   3
ATOM      3  C   UNL     1     -20.918  -2.631  10.723  1.00  0.00     0.000 C 
BRANCH   3   4
ATOM      4  C   UNL     1     -21.041  -1.714  11.951  1.00  0.00     0.000 C 
BRANCH   4   5
ATOM      5  C   UNL     1     -21.443  -0.265  11.604  1.00  0.00     0.006 C 
BRANCH   5   6
ATOM      6  C   UNL     1     -21.565   0.618  12.852  1.00  0.00     0.053 C 
BRANCH   6   7
ATOM      7  C   UNL     1     -21.583  -0.223  14.090  1.00  0.00     0.041 C 
ATOM      8  O   UNL     1     -20.530  -0.381  14.763  1.00  0.00    -0.550 OA
ATOM      9  O   UNL     1     -22.749  -0.873  14.471  1.00  0.00    -0.550 OA
ENDBRANCH   6   7
ENDBRANCH   5   6
ENDBRANCH   4   5
ENDBRANCH   3   4
ENDBRANCH   2   3
ENDBRANCH   1   2
BRANCH   1  10
ATOM     10  C   UNL     1     -20.830  -1.897   7.030  1.00  0.00     0.027 C 
BRANCH  10  11
ATOM     11  C   UNL     1     -21.371  -0.553   7.438  1.00  0.00    -0.031 C 
ATOM     12  C   UNL     1     -20.863   0.588   6.950  1.00  0.00    -0.031 C 
BRANCH  12  13
ATOM     13  C   UNL     1     -21.400   1.930   7.364  1.00  0.00     0.027 C 
BRANCH  13  14
ATOM     14  C   UNL     1     -21.960   1.889   8.794  1.00  0.00     0.004 C 
BRANCH  14  15
ATOM     15  C   UNL     1     -22.502   3.262   9.247  1.00  0.00     0.000 C 
BRANCH  15  16
ATOM     16  C   UNL     1     -22.334   4.368   8.192  1.00  0.00    -0.000 C 
BRANCH  16  17
ATOM     17  C   UNL     1     -22.139   5.759   8.809  1.00  0.00    -0.003 C 
ATOM     18  C   UNL     1     -20.794   5.862   9.521  1.00  0.00     0.004 C 
ENDBRANCH  16  17
ENDBRANCH  15  16
ENDBRANCH  14  15
ENDBRANCH  13  14
ENDBRANCH  12  13
ENDBRANCH  10  11
ENDBRANCH   1  10
TORSDOF 13
ENDMDL
MODEL 4
REMARK VINA RESULT:    -2.050      1.321      1.821
REMARK INTER + INTRA:          -4.868
REMARK INTER:                  -4.168
REMARK INTRA:                  -0.700
REMARK UNBOUND:                -1.259
REMARK SMILES CCCCCCC=CCCCCCCCC(=O)[O-]
REMARK SMILES IDX 10 1 11 2 12 3 13 4 14 5 15 6 16 7 17 8 18 9 9 10 8 11 7 12
REMARK SMILES IDX 6 13 5 14 4 15 3 16 2 17 1 18
REMARK H PARENT
REMARK Flexibility Score: inf
ROOT
ATOM      1  C   UNL     1     -22.409   2.587   9.037  1.00  0.00     0.004 C 
ENDROOT
BRANCH   1   2
ATOM      2  C   UNL     1     -21.758   1.483   9.884  1.00  0.00     0.000 C 
BRANCH   2   3
ATOM      3  C   UNL     1     -22.539   1.255  11.186  1.00  0.00     0.000 C 
BRANCH   3   4
ATOM      4  C   UNL     1     -21.662   1.387  12.442  1.00  0.00     0.000 C 
BRANCH   4   5
ATOM      5  C   UNL     1     -22.094   0.460  13.598  1.00  0.00     0.006 C 
BRANCH   5   6
ATOM      6  C   UNL     1     -21.082  -0.665  13.848  1.00  0.00     0.053 C 
BRANCH   6   7
ATOM      7  C   UNL     1     -21.197  -1.719  12.792  1.00  0.00     0.041 C 
ATOM      8  O   UNL     1     -21.887  -2.752  12.999  1.00  0.00    -0.550 OA
ATOM      9  O   UNL     1     -20.499  -1.585  11.599  1.00  0.00    -0.550 OA
ENDBRANCH   6   7
ENDBRANCH   5   6
ENDBRANCH   4   5
ENDBRANCH   3   4
ENDBRANCH   2   3
ENDBRANCH   1   2
BRANCH   1  10
ATOM     10  C   UNL     1     -21.750   2.721   7.656  1.00  0.00     0.027 C 
BRANCH  10  11
ATOM     11  C   UNL     1     -20.918   1.517   7.299  1.00  0.00    -0.031 C 
ATOM     12  C   UNL     1     -21.363   0.582   6.447  1.00  0.00    -0.031 C 
BRANCH  12  13
ATOM     13  C   UNL     1     -20.534  -0.623   6.097  1.00  0.00     0.027 C 
BRANCH  13  14
ATOM     14  C   UNL     1     -21.021  -1.871   6.849  1.00  0.00     0.004 C 
BRANCH  14  15
ATOM     15  C   UNL     1     -20.654  -1.829   8.347  1.00  0.00     0.000 C 
BRANCH  15  16
ATOM     16  C   UNL     1     -20.339  -3.212   8.943  1.00  0.00    -0.000 C 
BRANCH  16  17
ATOM     17  C   UNL     1     -19.894  -4.231   7.886  1.00  0.00    -0.003 C 
ATOM     18  C   UNL     1     -20.421  -5.626   8.208  1.00  0.00     0.004 C 
ENDBRANCH  16  17
ENDBRANCH  15  16
ENDBRANCH  14  15
ENDBRANCH  13  14
ENDBRANCH  12  13
ENDBRANCH  10  11
ENDBRANCH   1  10
TORSDOF 13
ENDMDL
MODEL 5
REMARK VINA RESULT:    -2.050      1.801      5.360
REMARK INTER + INTRA:          -4.868
REMARK INTER:                  -4.212
REMARK INTRA:                  -0.655
REMARK UNBOUND:                -1.259
REMARK SMILES CCCCCCC=CCCCCCCCC(=O)[O-]
REMARK SMILES IDX 10 1 11 2 12 3 13 4 14 5 15 6 16 7 17 8 18 9 9 10 8 11 7 12
REMARK SMILES IDX 6 13 5 14 4 15 3 16 2 17 1 18
REMARK H PARENT
REMARK Flexibility Score: inf
ROOT
ATOM      1  C   UNL     1     -20.348  -2.957   8.767  1.00  0.00     0.004 C 
ENDROOT
BRANCH   1   2
ATOM      2  C   UNL     1     -20.641  -1.789   9.720  1.00  0.00     0.000 C 
BRANCH   2   3
ATOM      3  C   UNL     1     -20.114  -2.084  11.131  1.00  0.00     0.000 C 
BRANCH   3   4
ATOM      4  C   UNL     1     -21.226  -2.108  12.193  1.00  0.00     0.000 C 
BRANCH   4   5
ATOM      5  C   UNL     1     -20.958  -1.172  13.391  1.00  0.00     0.006 C 
BRANCH   5   6
ATOM      6  C   UNL     1     -22.088  -0.156  13.598  1.00  0.00     0.053 C 
BRANCH   6   7
ATOM      7  C   UNL     1     -21.822   1.092  12.817  1.00  0.00     0.041 C 
ATOM      8  O   UNL     1     -22.113   1.147  11.593  1.00  0.00    -0.550 OA
ATOM      9  O   UNL     1     -21.205   2.176  13.428  1.00  0.00    -0.550 OA
ENDBRANCH   6   7
ENDBRANCH   5   6
ENDBRANCH   4   5
ENDBRANCH   3   4
ENDBRANCH   2   3
ENDBRANCH   1   2
BRANCH   1  10
ATOM     10  C   UNL     1     -20.641  -2.597   7.302  1.00  0.00     0.027 C 
BRANCH  10  11
ATOM     11  C   UNL     1     -21.253  -1.228   7.161  1.00  0.00    -0.031 C 
ATOM     12  C   UNL     1     -20.842  -0.367   6.219  1.00  0.00    -0.031 C 
BRANCH  12  13
ATOM     13  C   UNL     1     -21.449   1.002   6.083  1.00  0.00     0.027 C 
BRANCH  13  14
ATOM     14  C   UNL     1     -21.043   1.909   7.255  1.00  0.00     0.004 C 
BRANCH  14  15
ATOM     15  C   UNL     1     -22.052   1.843   8.421  1.00  0.00     0.000 C 
BRANCH  15  16
ATOM     16  C   UNL     1     -22.145   3.147   9.230  1.00  0.00    -0.000 C 
BRANCH  16  17
ATOM     17  C   UNL     1     -22.581   4.348   8.381  1.00  0.00    -0.003 C 
ATOM     18  C   UNL     1     -21.848   5.617   8.804  1.00  0.00     0.004 C 
ENDBRANCH  16  17
ENDBRANCH  15  16
ENDBRANCH  14  15
ENDBRANCH  13  14
ENDBRANCH  12  13
ENDBRANCH  10  11
ENDBRANCH   1  10
TORSDOF 13
ENDMDL
MODEL 6
REMARK VINA RESULT:    -2.039      3.083      4.833
REMARK INTER + INTRA:          -4.847
REMARK INTER:                  -3.563
REMARK INTRA:                  -1.284
REMARK UNBOUND:                -1.259
REMARK SMILES CCCCCCC=CCCCCCCCC(=O)[O-]
REMARK SMILES IDX 10 1 11 2 12 3 13 4 14 5 15 6 16 7 17 8 18 9 9 10 8 11 7 12
REMARK SMILES IDX 6 13 5 14 4 15 3 16 2 17 1 18
REMARK H PARENT
REMARK Flexibility Score: inf
ROOT
ATOM      1  C   UNL     1     -22.107   0.576  13.377  1.00  0.00     0.004 C 
ENDROOT
BRANCH   1   2
ATOM      2  C   UNL     1     -21.677   1.530  12.253  1.00  0.00     0.000 C 
BRANCH   2   3
ATOM      3  C   UNL     1     -22.628   1.430  11.052  1.00  0.00     0.000 C 
BRANCH   3   4
ATOM      4  C   UNL     1     -21.975   1.876   9.733  1.00  0.00     0.000 C 
BRANCH   4   5
ATOM      5  C   UNL     1     -21.459   0.703   8.872  1.00  0.00     0.006 C 
BRANCH   5   6
ATOM      6  C   UNL     1     -21.117   1.140   7.442  1.00  0.00     0.053 C 
BRANCH   6   7
ATOM      7  C   UNL     1     -21.122  -0.037   6.518  1.00  0.00     0.041 C 
ATOM      8  O   UNL     1     -22.064  -0.872   6.561  1.00  0.00    -0.550 OA
ATOM      9  O   UNL     1     -20.061  -0.240   5.647  1.00  0.00    -0.550 OA
ENDBRANCH   6   7
ENDBRANCH   5   6
ENDBRANCH   4   5
ENDBRANCH   3   4
ENDBRANCH   2   3
ENDBRANCH   1   2
BRANCH   1  10
ATOM     10  C   UNL     1     -21.134  -0.603  13.539  1.00  0.00     0.027 C 
BRANCH  10  11
ATOM     11  C   UNL     1     -21.349  -1.669  12.498  1.00  0.00    -0.031 C 
ATOM     12  C   UNL     1     -20.685  -1.659  11.332  1.00  0.00    -0.031 C 
BRANCH  12  13
ATOM     13  C   UNL     1     -20.906  -2.721  10.291  1.00  0.00     0.027 C 
BRANCH  13  14
ATOM     14  C   UNL     1     -20.009  -2.493   9.065  1.00  0.00     0.004 C 
BRANCH  14  15
ATOM     15  C   UNL     1     -20.267  -3.532   7.953  1.00  0.00     0.000 C 
BRANCH  15  16
ATOM     16  C   UNL     1     -19.894  -4.969   8.355  1.00  0.00    -0.000 C 
BRANCH  16  17
ATOM     17  C   UNL     1     -20.915  -6.008   7.876  1.00  0.00    -0.003 C 
ATOM     18  C   UNL     1     -21.961  -6.288   8.950  1.00  0.00     0.004 C 
ENDBRANCH  16  17
ENDBRANCH  15  16
ENDBRANCH  14  15
ENDBRANCH  13  14
ENDBRANCH  12  13
ENDBRANCH  10  11
ENDBRANCH   1  10
TORSDOF 13
ENDMDL
MODEL 7
REMARK VINA RESULT:    -2.022      3.109      5.772
REMARK INTER + INTRA:          -4.818
REMARK INTER:                  -3.798
REMARK INTRA:                  -1.019
REMARK UNBOUND:                -1.259
REMARK SMILES CCCCCCC=CCCCCCCCC(=O)[O-]
REMARK SMILES IDX 10 1 11 2 12 3 13 4 14 5 15 6 16 7 17 8 18 9 9 10 8 11 7 12
REMARK SMILES IDX 6 13 5 14 4 15 3 16 2 17 1 18
REMARK H PARENT
REMARK Flexibility Score: inf
ROOT
ATOM      1  C   UNL     1     -20.543  -0.350   6.362  1.00  0.00     0.004 C 
ENDROOT
BRANCH   1   2
ATOM      2  C   UNL     1     -21.616   0.740   6.220  1.00  0.00     0.000 C 
BRANCH   2   3
ATOM      3  C   UNL     1     -21.340   1.912   7.172  1.00  0.00     0.000 C 
BRANCH   3   4
ATOM      4  C   UNL     1     -21.692   1.592   8.634  1.00  0.00     0.000 C 
BRANCH   4   5
ATOM      5  C   UNL     1     -22.130   2.827   9.450  1.00  0.00     0.006 C 
BRANCH   5   6
ATOM      6  C   UNL     1     -22.785   3.900   8.570  1.00  0.00     0.053 C 
BRANCH   6   7
ATOM      7  C   UNL     1     -22.098   5.217   8.751  1.00  0.00     0.041 C 
ATOM      8  O   UNL     1     -22.395   6.193   8.011  1.00  0.00    -0.550 OA
ATOM      9  O   UNL     1     -21.096   5.353   9.702  1.00  0.00    -0.550 OA
ENDBRANCH   6   7
ENDBRANCH   5   6
ENDBRANCH   4   5
ENDBRANCH   3   4
ENDBRANCH   2   3
ENDBRANCH   1   2
BRANCH   1  10
ATOM     10  C   UNL     1     -21.132  -1.680   6.857  1.00  0.00     0.027 C 
BRANCH  10  11
ATOM     11  C   UNL     1     -20.537  -2.117   8.169  1.00  0.00    -0.031 C 
ATOM     12  C   UNL     1     -20.800  -1.468   9.312  1.00  0.00    -0.031 C 
BRANCH  12  13
ATOM     13  C   UNL     1     -20.199  -1.901  10.621  1.00  0.00     0.027 C 
BRANCH  13  14
ATOM     14  C   UNL     1     -21.290  -2.222  11.655  1.00  0.00     0.004 C 
BRANCH  14  15
ATOM     15  C   UNL     1     -20.899  -1.761  13.075  1.00  0.00     0.000 C 
BRANCH  15  16
ATOM     16  C   UNL     1     -21.945  -0.845  13.733  1.00  0.00    -0.000 C 
BRANCH  16  17
ATOM     17  C   UNL     1     -21.510   0.626  13.777  1.00  0.00    -0.003 C 
ATOM     18  C   UNL     1     -21.921   1.360  12.506  1.00  0.00     0.004 C 
ENDBRANCH  16  17
ENDBRANCH  15  16
ENDBRANCH  14  15
ENDBRANCH  13  14
ENDBRANCH  12  13
ENDBRANCH  10  11
ENDBRANCH   1  10
TORSDOF 13
ENDMDL
MODEL 8
REMARK VINA RESULT:    -1.943      3.308      7.186
REMARK INTER + INTRA:          -4.679
REMARK INTER:                  -3.596
REMARK INTRA:                  -1.083
REMARK UNBOUND:                -1.259
REMARK SMILES CCCCCCC=CCCCCCCCC(=O)[O-]
REMARK SMILES IDX 10 1 11 2 12 3 13 4 14 5 15 6 16 7 17 8 18 9 9 10 8 11 7 12
REMARK SMILES IDX 6 13 5 14 4 15 3 16 2 17 1 18
REMARK H PARENT
REMARK Flexibility Score: inf
ROOT
ATOM      1  C   UNL     1     -21.594  -1.809  12.889  1.00  0.00     0.004 C 
ENDROOT
BRANCH   1   2
ATOM      2  C   UNL     1     -20.469  -1.783  11.843  1.00  0.00     0.000 C 
BRANCH   2   3
ATOM      3  C   UNL     1     -20.971  -2.288  10.483  1.00  0.00     0.000 C 
BRANCH   3   4
ATOM      4  C   UNL     1     -20.828  -1.241   9.366  1.00  0.00     0.000 C 
BRANCH   4   5
ATOM      5  C   UNL     1     -20.515  -1.850   7.983  1.00  0.00     0.006 C 
BRANCH   5   6
ATOM      6  C   UNL     1     -21.472  -1.346   6.896  1.00  0.00     0.053 C 
BRANCH   6   7
ATOM      7  C   UNL     1     -21.072   0.020   6.436  1.00  0.00     0.041 C 
ATOM      8  O   UNL     1     -21.859   0.708   5.734  1.00  0.00    -0.550 OA
ATOM      9  O   UNL     1     -19.810   0.513   6.739  1.00  0.00    -0.550 OA
ENDBRANCH   6   7
ENDBRANCH   5   6
ENDBRANCH   4   5
ENDBRANCH   3   4
ENDBRANCH   2   3
ENDBRANCH   1   2
BRANCH   1  10
ATOM     10  C   UNL     1     -21.737  -0.464  13.618  1.00  0.00     0.027 C 
BRANCH  10  11
ATOM     11  C   UNL     1     -21.434   0.708  12.722  1.00  0.00    -0.031 C 
ATOM     12  C   UNL     1     -22.229   1.029  11.691  1.00  0.00    -0.031 C 
BRANCH  12  13
ATOM     13  C   UNL     1     -21.922   2.195  10.793  1.00  0.00     0.027 C 
BRANCH  13  14
ATOM     14  C   UNL     1     -22.137   1.832   9.316  1.00  0.00     0.004 C 
BRANCH  14  15
ATOM     15  C   UNL     1     -21.943   3.047   8.383  1.00  0.00     0.000 C 
BRANCH  15  16
ATOM     16  C   UNL     1     -22.768   4.278   8.795  1.00  0.00    -0.000 C 
BRANCH  16  17
ATOM     17  C   UNL     1     -22.052   5.603   8.505  1.00  0.00    -0.003 C 
ATOM     18  C   UNL     1     -20.900   5.832   9.478  1.00  0.00     0.004 C 
ENDBRANCH  16  17
ENDBRANCH  15  16
ENDBRANCH  14  15
ENDBRANCH  13  14
ENDBRANCH  12  13
ENDBRANCH  10  11
ENDBRANCH   1  10
TORSDOF 13
ENDMDL
MODEL 9
REMARK VINA RESULT:    -1.799      3.105      5.528
REMARK INTER + INTRA:          -4.425
REMARK INTER:                  -3.302
REMARK INTRA:                  -1.123
REMARK UNBOUND:                -1.259
REMARK SMILES CCCCCCC=CCCCCCCCC(=O)[O-]
REMARK SMILES IDX 10 1 11 2 12 3 13 4 14 5 15 6 16 7 17 8 18 9 9 10 8 11 7 12
REMARK SMILES IDX 6 13 5 14 4 15 3 16 2 17 1 18
REMARK H PARENT
REMARK Flexibility Score: inf
ROOT
ATOM      1  C   UNL     1     -21.379   0.425  13.378  1.00  0.00     0.004 C 
ENDROOT
BRANCH   1   2
ATOM      2  C   UNL     1     -22.275   1.282  12.472  1.00  0.00     0.000 C 
BRANCH   2   3
ATOM      3  C   UNL     1     -21.470   1.883  11.311  1.00  0.00     0.000 C 
BRANCH   3   4
ATOM      4  C   UNL     1     -22.152   1.690   9.946  1.00  0.00     0.000 C 
BRANCH   4   5
ATOM      5  C   UNL     1     -22.897   2.945   9.444  1.00  0.00     0.006 C 
BRANCH   5   6
ATOM      6  C   UNL     1     -22.102   3.702   8.374  1.00  0.00     0.053 C 
BRANCH   6   7
ATOM      7  C   UNL     1     -22.023   5.158   8.710  1.00  0.00     0.041 C 
ATOM      8  O   UNL     1     -22.799   5.980   8.153  1.00  0.00    -0.550 OA
ATOM      9  O   UNL     1     -21.060   5.614   9.599  1.00  0.00    -0.550 OA
ENDBRANCH   6   7
ENDBRANCH   5   6
ENDBRANCH   4   5
ENDBRANCH   3   4
ENDBRANCH   2   3
ENDBRANCH   1   2
BRANCH   1  10
ATOM     10  C   UNL     1     -21.783  -1.057  13.355  1.00  0.00     0.027 C 
BRANCH  10  11
ATOM     11  C   UNL     1     -20.911  -1.874  12.439  1.00  0.00    -0.031 C 
ATOM     12  C   UNL     1     -20.781  -1.575  11.138  1.00  0.00    -0.031 C 
BRANCH  12  13
ATOM     13  C   UNL     1     -19.915  -2.395  10.223  1.00  0.00     0.027 C 
BRANCH  13  14
ATOM     14  C   UNL     1     -20.518  -2.478   8.812  1.00  0.00     0.004 C 
BRANCH  14  15
ATOM     15  C   UNL     1     -20.891  -1.088   8.255  1.00  0.00     0.000 C 
BRANCH  15  16
ATOM     16  C   UNL     1     -21.464  -1.130   6.828  1.00  0.00    -0.000 C 
BRANCH  16  17
ATOM     17  C   UNL     1     -21.449   0.239   6.137  1.00  0.00    -0.003 C 
ATOM     18  C   UNL     1     -20.508   1.206   6.850  1.00  0.00     0.004 C 
ENDBRANCH  16  17
ENDBRANCH  15  16
ENDBRANCH  14  15
ENDBRANCH  13  14
ENDBRANCH  12  13
ENDBRANCH  10  11
ENDBRANCH   1  10
TORSDOF 13
ENDMDL
