MODEL 1
REMARK VINA RESULT:    -2.698      0.000      0.000
REMARK INTER + INTRA:          -3.031
REMARK INTER:                  -3.014
REMARK INTRA:                  -0.017
REMARK UNBOUND:                -0.017
REMARK SMILES CCCC(=O)[O-]
REMARK SMILES IDX 3 1 4 2 5 3 6 4 2 5 1 6
REMARK H PARENT
REMARK Flexibility Score: inf
ROOT
ATOM      1  C   UNL     1     -18.228  33.348 -19.707  1.00  0.00     0.052 C 
ENDROOT
BRANCH   1   2
ATOM      2  C   UNL     1     -19.265  33.622 -18.665  1.00  0.00     0.041 C 
ATOM      3  O   UNL     1     -18.936  34.125 -17.559  1.00  0.00    -0.550 OA
ATOM      4  O   UNL     1     -20.605  33.369 -18.935  1.00  0.00    -0.550 OA
ENDBRANCH   1   2
BRANCH   1   5
ATOM      5  C   UNL     1     -16.844  33.778 -19.211  1.00  0.00     0.003 C 
ATOM      6  C   UNL     1     -15.747  32.910 -19.820  1.00  0.00     0.004 C 
ENDBRANCH   1   5
TORSDOF 2
ENDMDL
MODEL 2
REMARK VINA RESULT:    -1.850     19.339     20.285
REMARK INTER + INTRA:          -2.083
REMARK INTER:                  -2.077
REMARK INTRA:                  -0.006
REMARK UNBOUND:                -0.017
REMARK SMILES CCCC(=O)[O-]
REMARK SMILES IDX 3 1 4 2 5 3 6 4 2 5 1 6
REMARK H PARENT
REMARK Flexibility Score: inf
ROOT
ATOM      1  C   UNL     1      -5.735  19.350 -11.036  1.00  0.00     0.052 C 
ENDROOT
BRANCH   1   2
ATOM      2  C   UNL     1      -6.112  20.580 -11.799  1.00  0.00     0.041 C 
ATOM      3  O   UNL     1      -5.741  21.714 -11.398  1.00  0.00    -0.550 OA
ATOM      4  O   UNL     1      -6.833  20.470 -12.983  1.00  0.00    -0.550 OA
ENDBRANCH   1   2
BRANCH   1   5
ATOM      5  C   UNL     1      -4.213  19.250 -10.899  1.00  0.00     0.003 C 
ATOM      6  C   UNL     1      -3.769  17.799 -10.737  1.00  0.00     0.004 C 
ENDBRANCH   1   5
TORSDOF 2
ENDMDL
MODEL 3
REMARK VINA RESULT:    -1.730     22.354     23.325
REMARK INTER + INTRA:          -1.949
REMARK INTER:                  -1.938
REMARK INTRA:                  -0.011
REMARK UNBOUND:                -0.017
REMARK SMILES CCCC(=O)[O-]
REMARK SMILES IDX 3 1 4 2 5 3 6 4 2 5 1 6
REMARK H PARENT
REMARK Flexibility Score: inf
ROOT
ATOM      1  C   UNL     1      -3.381  16.888 -10.694  1.00  0.00     0.052 C 
ENDROOT
BRANCH   1   2
ATOM      2  C   UNL     1      -4.118  18.186 -10.785  1.00  0.00     0.041 C 
ATOM      3  O   UNL     1      -3.485  19.273 -10.829  1.00  0.00    -0.550 OA
ATOM      4  O   UNL     1      -5.505  18.193 -10.872  1.00  0.00    -0.550 OA
ENDBRANCH   1   2
BRANCH   1   5
ATOM      5  C   UNL     1      -4.362  15.713 -10.680  1.00  0.00     0.003 C 
ATOM      6  C   UNL     1      -3.671  14.424 -10.245  1.00  0.00     0.004 C 
ENDBRANCH   1   5
TORSDOF 2
ENDMDL
MODEL 4
REMARK VINA RESULT:    -1.572     20.041     21.033
REMARK INTER + INTRA:          -1.773
REMARK INTER:                  -1.742
REMARK INTRA:                  -0.031
REMARK UNBOUND:                -0.017
REMARK SMILES CCCC(=O)[O-]
REMARK SMILES IDX 3 1 4 2 5 3 6 4 2 5 1 6
REMARK H PARENT
REMARK Flexibility Score: inf
ROOT
ATOM      1  C   UNL     1      -5.770  19.142 -11.021  1.00  0.00     0.052 C 
ENDROOT
BRANCH   1   2
ATOM      2  C   UNL     1      -4.307  18.864 -10.880  1.00  0.00     0.041 C 
ATOM      3  O   UNL     1      -3.480  19.813 -10.864  1.00  0.00    -0.550 OA
ATOM      4  O   UNL     1      -3.860  17.559 -10.714  1.00  0.00    -0.550 OA
ENDBRANCH   1   2
BRANCH   1   5
ATOM      5  C   UNL     1      -6.000  20.580 -11.493  1.00  0.00     0.003 C 
ATOM      6  C   UNL     1      -6.682  20.610 -12.858  1.00  0.00     0.004 C 
ENDBRANCH   1   5
TORSDOF 2
ENDMDL
MODEL 5
REMARK VINA RESULT:    -1.411     21.539     22.518
REMARK INTER + INTRA:          -1.593
REMARK INTER:                  -1.581
REMARK INTRA:                  -0.011
REMARK UNBOUND:                -0.017
REMARK SMILES CCCC(=O)[O-]
REMARK SMILES IDX 3 1 4 2 5 3 6 4 2 5 1 6
REMARK H PARENT
REMARK Flexibility Score: inf
ROOT
ATOM      1  C   UNL     1      -3.556  17.913 -10.795  1.00  0.00     0.052 C 
ENDROOT
BRANCH   1   2
ATOM      2  C   UNL     1      -4.539  19.035 -10.889  1.00  0.00     0.041 C 
ATOM      3  O   UNL     1      -4.138  20.226 -10.958  1.00  0.00    -0.550 OA
ATOM      4  O   UNL     1      -5.901  18.764 -10.953  1.00  0.00    -0.550 OA
ENDBRANCH   1   2
BRANCH   1   5
ATOM      5  C   UNL     1      -4.270  16.563 -10.907  1.00  0.00     0.003 C 
ATOM      6  C   UNL     1      -3.372  15.424 -10.432  1.00  0.00     0.004 C 
ENDBRANCH   1   5
TORSDOF 2
ENDMDL
MODEL 6
REMARK VINA RESULT:    -1.306     20.507     21.517
REMARK INTER + INTRA:          -1.475
REMARK INTER:                  -1.456
REMARK INTRA:                  -0.019
REMARK UNBOUND:                -0.017
REMARK SMILES CCCC(=O)[O-]
REMARK SMILES IDX 3 1 4 2 5 3 6 4 2 5 1 6
REMARK H PARENT
REMARK Flexibility Score: inf
ROOT
ATOM      1  C   UNL     1      -5.446  18.913 -10.878  1.00  0.00     0.052 C 
ENDROOT
BRANCH   1   2
ATOM      2  C   UNL     1      -4.049  18.384 -10.807  1.00  0.00     0.041 C 
ATOM      3  O   UNL     1      -3.843  17.143 -10.756  1.00  0.00    -0.550 OA
ATOM      4  O   UNL     1      -2.970  19.259 -10.849  1.00  0.00    -0.550 OA
ENDBRANCH   1   2
BRANCH   1   5
ATOM      5  C   UNL     1      -5.434  20.428 -11.100  1.00  0.00     0.003 C 
ATOM      6  C   UNL     1      -6.473  20.841 -12.140  1.00  0.00     0.004 C 
ENDBRANCH   1   5
TORSDOF 2
ENDMDL
MODEL 7
REMARK VINA RESULT:    -1.131      1.662      2.089
REMARK INTER + INTRA:          -1.280
REMARK INTER:                  -1.249
REMARK INTRA:                  -0.031
REMARK UNBOUND:                -0.017
REMARK SMILES CCCC(=O)[O-]
REMARK SMILES IDX 3 1 4 2 5 3 6 4 2 5 1 6
REMARK H PARENT
REMARK Flexibility Score: inf
ROOT
ATOM      1  C   UNL     1     -16.434  32.333 -19.189  1.00  0.00     0.052 C 
ENDROOT
BRANCH   1   2
ATOM      2  C   UNL     1     -17.702  33.098 -19.396  1.00  0.00     0.041 C 
ATOM      3  O   UNL     1     -17.711  34.125 -20.125  1.00  0.00    -0.550 OA
ATOM      4  O   UNL     1     -18.887  32.649 -18.824  1.00  0.00    -0.550 OA
ENDBRANCH   1   2
BRANCH   1   5
ATOM      5  C   UNL     1     -15.298  32.945 -20.013  1.00  0.00     0.003 C 
ATOM      6  C   UNL     1     -14.363  33.771 -19.135  1.00  0.00     0.004 C 
ENDBRANCH   1   5
TORSDOF 2
ENDMDL
MODEL 8
REMARK VINA RESULT:    -0.978     23.931     24.882
REMARK INTER + INTRA:          -1.110
REMARK INTER:                  -1.104
REMARK INTRA:                  -0.006
REMARK UNBOUND:                -0.017
REMARK SMILES CCCC(=O)[O-]
REMARK SMILES IDX 3 1 4 2 5 3 6 4 2 5 1 6
REMARK H PARENT
REMARK Flexibility Score: inf
ROOT
ATOM      1  C   UNL     1      -4.179  15.694 -10.801  1.00  0.00     0.052 C 
ENDROOT
BRANCH   1   2
ATOM      2  C   UNL     1      -3.473  14.599 -10.068  1.00  0.00     0.041 C 
ATOM      3  O   UNL     1      -4.101  13.875  -9.251  1.00  0.00    -0.550 OA
ATOM      4  O   UNL     1      -2.131  14.343 -10.324  1.00  0.00    -0.550 OA
ENDBRANCH   1   2
BRANCH   1   5
ATOM      5  C   UNL     1      -3.378  16.997 -10.720  1.00  0.00     0.003 C 
ATOM      6  C   UNL     1      -4.299  18.213 -10.749  1.00  0.00     0.004 C 
ENDBRANCH   1   5
TORSDOF 2
ENDMDL
