MODEL 1
REMARK VINA RESULT:    -3.310      0.000      0.000
REMARK INTER + INTRA:          -4.255
REMARK INTER:                  -4.181
REMARK INTRA:                  -0.074
REMARK UNBOUND:                -0.074
REMARK SMILES CSCC[C@H]([NH3+])C(=O)[O-]
REMARK SMILES IDX 4 1 5 2 6 3 7 7 8 8 9 9 3 10 2 11 1 12
REMARK H PARENT 6 4 6 5 6 6
REMARK Flexibility Score: inf
ROOT
ATOM      1  C   UNL     1      13.020 -17.497  30.528  1.00  0.00     0.082 C 
ENDROOT
BRANCH   1   2
ATOM      2  C   UNL     1      14.093 -17.577  31.640  1.00  0.00     0.228 C 
BRANCH   2   3
ATOM      3  N   UNL     1      15.071 -18.644  31.387  1.00  0.00    -0.350 N 
ATOM      4  H   UNL     1      15.614 -18.844  32.259  1.00  0.00     0.345 HD
ATOM      5  H   UNL     1      15.753 -18.336  30.658  1.00  0.00     0.345 HD
ATOM      6  H   UNL     1      14.593 -19.520  31.074  1.00  0.00     0.345 HD
ENDBRANCH   2   3
BRANCH   2   7
ATOM      7  C   UNL     1      13.424 -17.791  32.972  1.00  0.00     0.099 C 
ATOM      8  O   UNL     1      12.383 -18.495  33.058  1.00  0.00    -0.544 OA
ATOM      9  O   UNL     1      13.941 -17.191  34.113  1.00  0.00    -0.544 OA
ENDBRANCH   2   7
ENDBRANCH   1   2
BRANCH   1  10
ATOM     10  C   UNL     1      13.047 -18.690  29.559  1.00  0.00     0.076 C 
BRANCH  10  11
ATOM     11  S   UNL     1      11.483 -18.817  28.622  1.00  0.00    -0.165 SA
ATOM     12  C   UNL     1      12.216 -18.298  27.038  1.00  0.00     0.085 C 
ENDBRANCH  10  11
ENDBRANCH   1  10
TORSDOF 5
ENDMDL
MODEL 2
REMARK VINA RESULT:    -3.275      8.485      9.372
REMARK INTER + INTRA:          -4.210
REMARK INTER:                  -4.116
REMARK INTRA:                  -0.094
REMARK UNBOUND:                -0.074
REMARK SMILES CSCC[C@H]([NH3+])C(=O)[O-]
REMARK SMILES IDX 4 1 5 2 6 3 7 7 8 8 9 9 3 10 2 11 1 12
REMARK H PARENT 6 4 6 5 6 6
REMARK Flexibility Score: inf
ROOT
ATOM      1  C   UNL     1      12.356 -23.921  37.028  1.00  0.00     0.082 C 
ENDROOT
BRANCH   1   2
ATOM      2  C   UNL     1      11.296 -24.667  36.183  1.00  0.00     0.228 C 
BRANCH   2   3
ATOM      3  N   UNL     1      11.905 -25.438  35.091  1.00  0.00    -0.350 N 
ATOM      4  H   UNL     1      11.193 -26.077  34.667  1.00  0.00     0.345 HD
ATOM      5  H   UNL     1      12.677 -26.034  35.464  1.00  0.00     0.345 HD
ATOM      6  H   UNL     1      12.278 -24.802  34.349  1.00  0.00     0.345 HD
ENDBRANCH   2   3
BRANCH   2   7
ATOM      7  C   UNL     1      10.305 -23.677  35.631  1.00  0.00     0.099 C 
ATOM      8  O   UNL     1      10.437 -22.445  35.859  1.00  0.00    -0.544 OA
ATOM      9  O   UNL     1       9.222 -24.121  34.882  1.00  0.00    -0.544 OA
ENDBRANCH   2   7
ENDBRANCH   1   2
BRANCH   1  10
ATOM     10  C   UNL     1      12.317 -24.281  38.522  1.00  0.00     0.076 C 
BRANCH  10  11
ATOM     11  S   UNL     1      13.495 -23.264  39.480  1.00  0.00    -0.165 SA
ATOM     12  C   UNL     1      12.756 -21.675  38.988  1.00  0.00     0.085 C 
ENDBRANCH  10  11
ENDBRANCH   1  10
TORSDOF 5
ENDMDL
MODEL 3
REMARK VINA RESULT:    -3.272      8.549      9.397
REMARK INTER + INTRA:          -4.207
REMARK INTER:                  -4.063
REMARK INTRA:                  -0.143
REMARK UNBOUND:                -0.074
REMARK SMILES CSCC[C@H]([NH3+])C(=O)[O-]
REMARK SMILES IDX 4 1 5 2 6 3 7 7 8 8 9 9 3 10 2 11 1 12
REMARK H PARENT 6 4 6 5 6 6
REMARK Flexibility Score: inf
ROOT
ATOM      1  C   UNL     1      12.259 -24.384  36.957  1.00  0.00     0.082 C 
ENDROOT
BRANCH   1   2
ATOM      2  C   UNL     1      11.139 -24.875  36.008  1.00  0.00     0.228 C 
BRANCH   2   3
ATOM      3  N   UNL     1      11.679 -25.408  34.750  1.00  0.00    -0.350 N 
ATOM      4  H   UNL     1      11.244 -24.912  33.938  1.00  0.00     0.345 HD
ATOM      5  H   UNL     1      11.439 -26.421  34.662  1.00  0.00     0.345 HD
ATOM      6  H   UNL     1      12.717 -25.287  34.710  1.00  0.00     0.345 HD
ENDBRANCH   2   3
BRANCH   2   7
ATOM      7  C   UNL     1      10.185 -23.744  35.727  1.00  0.00     0.099 C 
ATOM      8  O   UNL     1       8.952 -23.964  35.607  1.00  0.00    -0.544 OA
ATOM      9  O   UNL     1      10.667 -22.450  35.577  1.00  0.00    -0.544 OA
ENDBRANCH   2   7
ENDBRANCH   1   2
BRANCH   1  10
ATOM     10  C   UNL     1      12.066 -24.825  38.417  1.00  0.00     0.076 C 
BRANCH  10  11
ATOM     11  S   UNL     1      12.932 -23.700  39.569  1.00  0.00    -0.165 SA
ATOM     12  C   UNL     1      12.461 -22.184  38.680  1.00  0.00     0.085 C 
ENDBRANCH  10  11
ENDBRANCH   1  10
TORSDOF 5
ENDMDL
MODEL 4
REMARK VINA RESULT:    -3.235      5.777      6.141
REMARK INTER + INTRA:          -4.159
REMARK INTER:                  -3.926
REMARK INTRA:                  -0.234
REMARK UNBOUND:                -0.074
REMARK SMILES CSCC[C@H]([NH3+])C(=O)[O-]
REMARK SMILES IDX 4 1 5 2 6 3 7 7 8 8 9 9 3 10 2 11 1 12
REMARK H PARENT 6 4 6 5 6 6
REMARK Flexibility Score: inf
ROOT
ATOM      1  C   UNL     1      13.609 -16.702  35.653  1.00  0.00     0.082 C 
ENDROOT
BRANCH   1   2
ATOM      2  C   UNL     1      14.674 -15.579  35.652  1.00  0.00     0.228 C 
BRANCH   2   3
ATOM      3  N   UNL     1      15.955 -16.037  35.096  1.00  0.00    -0.350 N 
ATOM      4  H   UNL     1      16.527 -15.213  34.798  1.00  0.00     0.345 HD
ATOM      5  H   UNL     1      15.786 -16.624  34.249  1.00  0.00     0.345 HD
ATOM      6  H   UNL     1      16.492 -16.587  35.805  1.00  0.00     0.345 HD
ENDBRANCH   2   3
BRANCH   2   7
ATOM      7  C   UNL     1      14.868 -15.067  37.054  1.00  0.00     0.099 C 
ATOM      8  O   UNL     1      14.302 -14.008  37.431  1.00  0.00    -0.544 OA
ATOM      9  O   UNL     1      15.694 -15.753  37.936  1.00  0.00    -0.544 OA
ENDBRANCH   2   7
ENDBRANCH   1   2
BRANCH   1  10
ATOM     10  C   UNL     1      12.172 -16.187  35.477  1.00  0.00     0.076 C 
BRANCH  10  11
ATOM     11  S   UNL     1      12.092 -14.857  34.226  1.00  0.00    -0.165 SA
ATOM     12  C   UNL     1      11.418 -13.614  35.371  1.00  0.00     0.085 C 
ENDBRANCH  10  11
ENDBRANCH   1  10
TORSDOF 5
ENDMDL
MODEL 5
REMARK VINA RESULT:    -3.216      3.316      4.726
REMARK INTER + INTRA:          -4.135
REMARK INTER:                  -4.023
REMARK INTRA:                  -0.112
REMARK UNBOUND:                -0.074
REMARK SMILES CSCC[C@H]([NH3+])C(=O)[O-]
REMARK SMILES IDX 4 1 5 2 6 3 7 7 8 8 9 9 3 10 2 11 1 12
REMARK H PARENT 6 4 6 5 6 6
REMARK Flexibility Score: inf
ROOT
ATOM      1  C   UNL     1      13.455 -16.998  33.059  1.00  0.00     0.082 C 
ENDROOT
BRANCH   1   2
ATOM      2  C   UNL     1      13.932 -18.027  32.007  1.00  0.00     0.228 C 
BRANCH   2   3
ATOM      3  N   UNL     1      15.321 -17.788  31.592  1.00  0.00    -0.350 N 
ATOM      4  H   UNL     1      15.683 -16.918  32.048  1.00  0.00     0.345 HD
ATOM      5  H   UNL     1      15.364 -17.641  30.559  1.00  0.00     0.345 HD
ATOM      6  H   UNL     1      15.933 -18.593  31.859  1.00  0.00     0.345 HD
ENDBRANCH   2   3
BRANCH   2   7
ATOM      7  C   UNL     1      13.018 -17.986  30.811  1.00  0.00     0.099 C 
ATOM      8  O   UNL     1      11.980 -17.274  30.825  1.00  0.00    -0.544 OA
ATOM      9  O   UNL     1      13.306 -18.755  29.690  1.00  0.00    -0.544 OA
ENDBRANCH   2   7
ENDBRANCH   1   2
BRANCH   1  10
ATOM     10  C   UNL     1      12.688 -17.627  34.232  1.00  0.00     0.076 C 
BRANCH  10  11
ATOM     11  S   UNL     1      13.131 -16.830  35.817  1.00  0.00    -0.165 SA
ATOM     12  C   UNL     1      14.697 -16.136  35.202  1.00  0.00     0.085 C 
ENDBRANCH  10  11
ENDBRANCH   1  10
TORSDOF 5
ENDMDL
MODEL 6
REMARK VINA RESULT:    -3.200      9.383     10.110
REMARK INTER + INTRA:          -4.115
REMARK INTER:                  -4.022
REMARK INTRA:                  -0.094
REMARK UNBOUND:                -0.074
REMARK SMILES CSCC[C@H]([NH3+])C(=O)[O-]
REMARK SMILES IDX 4 1 5 2 6 3 7 7 8 8 9 9 3 10 2 11 1 12
REMARK H PARENT 6 4 6 5 6 6
REMARK Flexibility Score: inf
ROOT
ATOM      1  C   UNL     1      12.356 -24.232  37.280  1.00  0.00     0.082 C 
ENDROOT
BRANCH   1   2
ATOM      2  C   UNL     1      11.664 -25.424  36.575  1.00  0.00     0.228 C 
BRANCH   2   3
ATOM      3  N   UNL     1      11.887 -25.410  35.123  1.00  0.00    -0.350 N 
ATOM      4  H   UNL     1      11.030 -25.749  34.628  1.00  0.00     0.345 HD
ATOM      5  H   UNL     1      12.667 -26.059  34.877  1.00  0.00     0.345 HD
ATOM      6  H   UNL     1      12.114 -24.445  34.791  1.00  0.00     0.345 HD
ENDBRANCH   2   3
BRANCH   2   7
ATOM      7  C   UNL     1      10.189 -25.400  36.875  1.00  0.00     0.099 C 
ATOM      8  O   UNL     1       9.662 -26.315  37.562  1.00  0.00    -0.544 OA
ATOM      9  O   UNL     1       9.395 -24.376  36.376  1.00  0.00    -0.544 OA
ENDBRANCH   2   7
ENDBRANCH   1   2
BRANCH   1  10
ATOM     10  C   UNL     1      12.370 -24.347  38.812  1.00  0.00     0.076 C 
BRANCH  10  11
ATOM     11  S   UNL     1      13.581 -23.194  39.552  1.00  0.00    -0.165 SA
ATOM     12  C   UNL     1      12.685 -21.692  39.046  1.00  0.00     0.085 C 
ENDBRANCH  10  11
ENDBRANCH   1  10
TORSDOF 5
ENDMDL
MODEL 7
REMARK VINA RESULT:    -3.171      8.605      9.715
REMARK INTER + INTRA:          -4.079
REMARK INTER:                  -3.913
REMARK INTRA:                  -0.166
REMARK UNBOUND:                -0.074
REMARK SMILES CSCC[C@H]([NH3+])C(=O)[O-]
REMARK SMILES IDX 4 1 5 2 6 3 7 7 8 8 9 9 3 10 2 11 1 12
REMARK H PARENT 6 4 6 5 6 6
REMARK Flexibility Score: inf
ROOT
ATOM      1  C   UNL     1      12.057 -24.365  36.810  1.00  0.00     0.082 C 
ENDROOT
BRANCH   1   2
ATOM      2  C   UNL     1      10.997 -24.835  35.786  1.00  0.00     0.228 C 
BRANCH   2   3
ATOM      3  N   UNL     1      11.610 -25.468  34.610  1.00  0.00    -0.350 N 
ATOM      4  H   UNL     1      11.344 -24.943  33.745  1.00  0.00     0.345 HD
ATOM      5  H   UNL     1      11.255 -26.444  34.505  1.00  0.00     0.345 HD
ATOM      6  H   UNL     1      12.653 -25.479  34.696  1.00  0.00     0.345 HD
ENDBRANCH   2   3
BRANCH   2   7
ATOM      7  C   UNL     1      10.150 -23.665  35.364  1.00  0.00     0.099 C 
ATOM      8  O   UNL     1       9.080 -23.847  34.726  1.00  0.00    -0.544 OA
ATOM      9  O   UNL     1      10.557 -22.370  35.661  1.00  0.00    -0.544 OA
ENDBRANCH   2   7
ENDBRANCH   1   2
BRANCH   1  10
ATOM     10  C   UNL     1      11.773 -24.828  38.248  1.00  0.00     0.076 C 
BRANCH  10  11
ATOM     11  S   UNL     1      10.671 -26.287  38.268  1.00  0.00    -0.165 SA
ATOM     12  C   UNL     1      12.022 -27.491  38.470  1.00  0.00     0.085 C 
ENDBRANCH  10  11
ENDBRANCH   1  10
TORSDOF 5
ENDMDL
MODEL 8
REMARK VINA RESULT:    -3.165      8.340      9.512
REMARK INTER + INTRA:          -4.072
REMARK INTER:                  -3.874
REMARK INTRA:                  -0.198
REMARK UNBOUND:                -0.074
REMARK SMILES CSCC[C@H]([NH3+])C(=O)[O-]
REMARK SMILES IDX 4 1 5 2 6 3 7 7 8 8 9 9 3 10 2 11 1 12
REMARK H PARENT 6 4 6 5 6 6
REMARK Flexibility Score: inf
ROOT
ATOM      1  C   UNL     1      12.095 -24.422  36.910  1.00  0.00     0.082 C 
ENDROOT
BRANCH   1   2
ATOM      2  C   UNL     1      11.044 -24.842  35.855  1.00  0.00     0.228 C 
BRANCH   2   3
ATOM      3  N   UNL     1      11.665 -25.437  34.665  1.00  0.00    -0.350 N 
ATOM      4  H   UNL     1      11.839 -24.697  33.946  1.00  0.00     0.345 HD
ATOM      5  H   UNL     1      11.020 -26.139  34.240  1.00  0.00     0.345 HD
ATOM      6  H   UNL     1      12.573 -25.896  34.909  1.00  0.00     0.345 HD
ENDBRANCH   2   3
BRANCH   2   7
ATOM      7  C   UNL     1      10.215 -23.646  35.467  1.00  0.00     0.099 C 
ATOM      8  O   UNL     1       9.073 -23.799  34.958  1.00  0.00    -0.544 OA
ATOM      9  O   UNL     1      10.718 -22.364  35.649  1.00  0.00    -0.544 OA
ENDBRANCH   2   7
ENDBRANCH   1   2
BRANCH   1  10
ATOM     10  C   UNL     1      11.730 -24.838  38.343  1.00  0.00     0.076 C 
BRANCH  10  11
ATOM     11  S   UNL     1      10.954 -23.458  39.257  1.00  0.00    -0.165 SA
ATOM     12  C   UNL     1       9.283 -24.180  39.227  1.00  0.00     0.085 C 
ENDBRANCH  10  11
ENDBRANCH   1  10
TORSDOF 5
ENDMDL
MODEL 9
REMARK VINA RESULT:    -3.129      3.835      4.973
REMARK INTER + INTRA:          -4.025
REMARK INTER:                  -3.898
REMARK INTRA:                  -0.128
REMARK UNBOUND:                -0.074
REMARK SMILES CSCC[C@H]([NH3+])C(=O)[O-]
REMARK SMILES IDX 4 1 5 2 6 3 7 7 8 8 9 9 3 10 2 11 1 12
REMARK H PARENT 6 4 6 5 6 6
REMARK Flexibility Score: inf
ROOT
ATOM      1  C   UNL     1      13.361 -15.984  35.326  1.00  0.00     0.082 C 
ENDROOT
BRANCH   1   2
ATOM      2  C   UNL     1      14.752 -15.446  35.740  1.00  0.00     0.228 C 
BRANCH   2   3
ATOM      3  N   UNL     1      15.840 -16.115  35.015  1.00  0.00    -0.350 N 
ATOM      4  H   UNL     1      16.228 -15.474  34.285  1.00  0.00     0.345 HD
ATOM      5  H   UNL     1      15.473 -16.962  34.525  1.00  0.00     0.345 HD
ATOM      6  H   UNL     1      16.607 -16.392  35.669  1.00  0.00     0.345 HD
ENDBRANCH   2   3
BRANCH   2   7
ATOM      7  C   UNL     1      14.935 -15.613  37.225  1.00  0.00     0.099 C 
ATOM      8  O   UNL     1      14.065 -16.210  37.913  1.00  0.00    -0.544 OA
ATOM      9  O   UNL     1      16.060 -15.089  37.849  1.00  0.00    -0.544 OA
ENDBRANCH   2   7
ENDBRANCH   1   2
BRANCH   1  10
ATOM     10  C   UNL     1      13.425 -17.231  34.430  1.00  0.00     0.076 C 
BRANCH  10  11
ATOM     11  S   UNL     1      12.760 -16.885  32.763  1.00  0.00    -0.165 SA
ATOM     12  C   UNL     1      14.041 -17.839  31.890  1.00  0.00     0.085 C 
ENDBRANCH  10  11
ENDBRANCH   1  10
TORSDOF 5
ENDMDL
