MODEL 1
REMARK VINA RESULT:    -3.943      0.000      0.000
REMARK INTER + INTRA:          -3.943
REMARK INTER:                  -3.943
REMARK INTRA:                   0.000
REMARK UNBOUND:                 0.000
REMARK SMILES CC1=CC(=O)[C@H]2C[C@@H]1C2(C)C
REMARK SMILES IDX 1 1 2 2 3 3 4 4 5 5 6 6 7 7 8 8 9 9 10 10 11 11
REMARK H PARENT
REMARK Flexibility Score: inf
ROOT
ATOM      1  C   UNL     1     -23.892  -8.694  -6.798  1.00  0.00     0.040 C 
ATOM      2  C   UNL     1     -23.486  -9.831  -7.680  1.00  0.00    -0.066 C 
ATOM      3  C   UNL     1     -24.412 -10.651  -8.251  1.00  0.00     0.047 C 
ATOM      4  C   UNL     1     -23.878 -11.772  -9.089  1.00  0.00     0.159 C 
ATOM      5  O   UNL     1     -24.631 -12.620  -9.637  1.00  0.00    -0.295 OA
ATOM      6  C   UNL     1     -22.356 -11.816  -9.230  1.00  0.00     0.067 C 
ATOM      7  C   UNL     1     -21.962 -10.353  -9.529  1.00  0.00     0.021 C 
ATOM      8  C   UNL     1     -22.005 -10.122  -8.001  1.00  0.00     0.022 C 
ATOM      9  C   UNL     1     -21.723 -11.642  -7.821  1.00  0.00    -0.019 C 
ATOM     10  C   UNL     1     -20.208 -11.964  -7.811  1.00  0.00     0.012 C 
ATOM     11  C   UNL     1     -22.385 -12.373  -6.618  1.00  0.00     0.012 C 
ENDROOT
TORSDOF 0
ENDMDL
MODEL 2
REMARK VINA RESULT:    -3.791     15.844     17.244
REMARK INTER + INTRA:          -3.791
REMARK INTER:                  -3.791
REMARK INTRA:                   0.000
REMARK UNBOUND:                 0.000
REMARK SMILES CC1=CC(=O)[C@H]2C[C@@H]1C2(C)C
REMARK SMILES IDX 1 1 2 2 3 3 4 4 5 5 6 6 7 7 8 8 9 9 10 10 11 11
REMARK H PARENT
REMARK Flexibility Score: inf
ROOT
ATOM      1  C   UNL     1      -7.794 -13.918  -1.668  1.00  0.00     0.040 C 
ATOM      2  C   UNL     1      -8.039 -15.336  -1.261  1.00  0.00    -0.066 C 
ATOM      3  C   UNL     1      -8.342 -16.295  -2.180  1.00  0.00     0.047 C 
ATOM      4  C   UNL     1      -8.596 -17.671  -1.644  1.00  0.00     0.159 C 
ATOM      5  O   UNL     1      -8.922 -18.633  -2.387  1.00  0.00    -0.295 OA
ATOM      6  C   UNL     1      -8.433 -17.824  -0.131  1.00  0.00     0.067 C 
ATOM      7  C   UNL     1      -7.112 -17.088   0.184  1.00  0.00     0.021 C 
ATOM      8  C   UNL     1      -7.946 -15.787   0.212  1.00  0.00     0.022 C 
ATOM      9  C   UNL     1      -9.186 -16.657   0.568  1.00  0.00    -0.019 C 
ATOM     10  C   UNL     1      -9.332 -16.880   2.095  1.00  0.00     0.012 C 
ATOM     11  C   UNL     1     -10.570 -16.228   0.004  1.00  0.00     0.012 C 
ENDROOT
TORSDOF 0
ENDMDL
MODEL 3
REMARK VINA RESULT:    -3.788     13.297     14.743
REMARK INTER + INTRA:          -3.788
REMARK INTER:                  -3.788
REMARK INTRA:                   0.000
REMARK UNBOUND:                 0.000
REMARK SMILES CC1=CC(=O)[C@H]2C[C@@H]1C2(C)C
REMARK SMILES IDX 1 1 2 2 3 3 4 4 5 5 6 6 7 7 8 8 9 9 10 10 11 11
REMARK H PARENT
REMARK Flexibility Score: inf
ROOT
ATOM      1  C   UNL     1      -7.872 -13.527  -2.193  1.00  0.00     0.040 C 
ATOM      2  C   UNL     1      -8.499 -13.095  -3.480  1.00  0.00    -0.066 C 
ATOM      3  C   UNL     1      -8.830 -13.998  -4.446  1.00  0.00     0.047 C 
ATOM      4  C   UNL     1      -9.424 -13.438  -5.702  1.00  0.00     0.159 C 
ATOM      5  O   UNL     1      -9.734 -14.165  -6.681  1.00  0.00    -0.295 OA
ATOM      6  C   UNL     1      -9.623 -11.921  -5.712  1.00  0.00     0.067 C 
ATOM      7  C   UNL     1     -10.257 -11.615  -4.337  1.00  0.00     0.021 C 
ATOM      8  C   UNL     1      -8.818 -11.614  -3.772  1.00  0.00     0.022 C 
ATOM      9  C   UNL     1      -8.319 -11.248  -5.200  1.00  0.00    -0.019 C 
ATOM     10  C   UNL     1      -8.310  -9.718  -5.447  1.00  0.00     0.012 C 
ATOM     11  C   UNL     1      -6.954 -11.826  -5.672  1.00  0.00     0.012 C 
ENDROOT
TORSDOF 0
ENDMDL
MODEL 4
REMARK VINA RESULT:    -3.761     16.062     18.306
REMARK INTER + INTRA:          -3.761
REMARK INTER:                  -3.761
REMARK INTRA:                   0.000
REMARK UNBOUND:                 0.000
REMARK SMILES CC1=CC(=O)[C@H]2C[C@@H]1C2(C)C
REMARK SMILES IDX 1 1 2 2 3 3 4 4 5 5 6 6 7 7 8 8 9 9 10 10 11 11
REMARK H PARENT
REMARK Flexibility Score: inf
ROOT
ATOM      1  C   UNL     1      -6.619 -14.513   2.103  1.00  0.00     0.040 C 
ATOM      2  C   UNL     1      -7.212 -15.715   1.439  1.00  0.00    -0.066 C 
ATOM      3  C   UNL     1      -6.436 -16.607   0.762  1.00  0.00     0.047 C 
ATOM      4  C   UNL     1      -7.152 -17.752   0.115  1.00  0.00     0.159 C 
ATOM      5  O   UNL     1      -6.551 -18.620  -0.571  1.00  0.00    -0.295 OA
ATOM      6  C   UNL     1      -8.664 -17.790   0.342  1.00  0.00     0.067 C 
ATOM      7  C   UNL     1      -8.826 -17.514   1.853  1.00  0.00     0.021 C 
ATOM      8  C   UNL     1      -8.725 -16.012   1.499  1.00  0.00     0.022 C 
ATOM      9  C   UNL     1      -9.241 -16.371   0.076  1.00  0.00    -0.019 C 
ATOM     10  C   UNL     1     -10.788 -16.370  -0.009  1.00  0.00     0.012 C 
ATOM     11  C   UNL     1      -8.686 -15.563  -1.131  1.00  0.00     0.012 C 
ENDROOT
TORSDOF 0
ENDMDL
MODEL 5
REMARK VINA RESULT:    -3.756     13.405     14.620
REMARK INTER + INTRA:          -3.756
REMARK INTER:                  -3.756
REMARK INTRA:                   0.000
REMARK UNBOUND:                 0.000
REMARK SMILES CC1=CC(=O)[C@H]2C[C@@H]1C2(C)C
REMARK SMILES IDX 1 1 2 2 3 3 4 4 5 5 6 6 7 7 8 8 9 9 10 10 11 11
REMARK H PARENT
REMARK Flexibility Score: inf
ROOT
ATOM      1  C   UNL     1      -9.823 -13.355  -7.648  1.00  0.00     0.040 C 
ATOM      2  C   UNL     1      -9.463 -12.451  -6.511  1.00  0.00    -0.066 C 
ATOM      3  C   UNL     1      -8.935 -11.214  -6.728  1.00  0.00     0.047 C 
ATOM      4  C   UNL     1      -8.589 -10.417  -5.508  1.00  0.00     0.159 C 
ATOM      5  O   UNL     1      -8.060  -9.278  -5.577  1.00  0.00    -0.295 OA
ATOM      6  C   UNL     1      -8.922 -11.086  -4.173  1.00  0.00     0.067 C 
ATOM      7  C   UNL     1     -10.351 -11.639  -4.374  1.00  0.00     0.021 C 
ATOM      8  C   UNL     1      -9.687 -12.865  -5.042  1.00  0.00     0.022 C 
ATOM      9  C   UNL     1      -8.408 -12.553  -4.214  1.00  0.00    -0.019 C 
ATOM     10  C   UNL     1      -8.430 -13.224  -2.817  1.00  0.00     0.012 C 
ATOM     11  C   UNL     1      -7.024 -12.833  -4.867  1.00  0.00     0.012 C 
ENDROOT
TORSDOF 0
ENDMDL
MODEL 6
REMARK VINA RESULT:    -3.720     13.032     14.377
REMARK INTER + INTRA:          -3.720
REMARK INTER:                  -3.720
REMARK INTRA:                   0.000
REMARK UNBOUND:                 0.000
REMARK SMILES CC1=CC(=O)[C@H]2C[C@@H]1C2(C)C
REMARK SMILES IDX 1 1 2 2 3 3 4 4 5 5 6 6 7 7 8 8 9 9 10 10 11 11
REMARK H PARENT
REMARK Flexibility Score: inf
ROOT
ATOM      1  C   UNL     1      -7.760  -9.721  -6.334  1.00  0.00     0.040 C 
ATOM      2  C   UNL     1      -8.387 -11.022  -5.945  1.00  0.00    -0.066 C 
ATOM      3  C   UNL     1      -9.584 -11.415  -6.463  1.00  0.00     0.047 C 
ATOM      4  C   UNL     1     -10.121 -12.724  -5.971  1.00  0.00     0.159 C 
ATOM      5  O   UNL     1     -11.235 -13.177  -6.345  1.00  0.00    -0.295 OA
ATOM      6  C   UNL     1      -9.224 -13.470  -4.983  1.00  0.00     0.067 C 
ATOM      7  C   UNL     1      -7.816 -13.383  -5.611  1.00  0.00     0.021 C 
ATOM      8  C   UNL     1      -7.705 -11.988  -4.954  1.00  0.00     0.022 C 
ATOM      9  C   UNL     1      -8.742 -12.466  -3.897  1.00  0.00    -0.019 C 
ATOM     10  C   UNL     1      -8.074 -13.176  -2.693  1.00  0.00     0.012 C 
ATOM     11  C   UNL     1      -9.761 -11.428  -3.347  1.00  0.00     0.012 C 
ENDROOT
TORSDOF 0
ENDMDL
MODEL 7
REMARK VINA RESULT:    -3.716      1.784      2.579
REMARK INTER + INTRA:          -3.716
REMARK INTER:                  -3.716
REMARK INTRA:                   0.000
REMARK UNBOUND:                 0.000
REMARK SMILES CC1=CC(=O)[C@H]2C[C@@H]1C2(C)C
REMARK SMILES IDX 1 1 2 2 3 3 4 4 5 5 6 6 7 7 8 8 9 9 10 10 11 11
REMARK H PARENT
REMARK Flexibility Score: inf
ROOT
ATOM      1  C   UNL     1     -23.574 -11.756  -5.684  1.00  0.00     0.040 C 
ATOM      2  C   UNL     1     -22.717 -11.619  -6.903  1.00  0.00    -0.066 C 
ATOM      3  C   UNL     1     -22.898 -10.597  -7.785  1.00  0.00     0.047 C 
ATOM      4  C   UNL     1     -21.996 -10.587  -8.982  1.00  0.00     0.159 C 
ATOM      5  O   UNL     1     -22.090  -9.719  -9.888  1.00  0.00    -0.295 OA
ATOM      6  C   UNL     1     -20.955 -11.707  -9.026  1.00  0.00     0.067 C 
ATOM      7  C   UNL     1     -20.368 -11.733  -7.597  1.00  0.00     0.021 C 
ATOM      8  C   UNL     1     -21.579 -12.613  -7.211  1.00  0.00     0.022 C 
ATOM      9  C   UNL     1     -21.663 -13.053  -8.701  1.00  0.00    -0.019 C 
ATOM     10  C   UNL     1     -20.765 -14.279  -9.006  1.00  0.00     0.012 C 
ATOM     11  C   UNL     1     -23.069 -13.314  -9.311  1.00  0.00     0.012 C 
ENDROOT
TORSDOF 0
ENDMDL
MODEL 8
REMARK VINA RESULT:    -3.571      1.924      3.246
REMARK INTER + INTRA:          -3.571
REMARK INTER:                  -3.571
REMARK INTRA:                   0.000
REMARK UNBOUND:                 0.000
REMARK SMILES CC1=CC(=O)[C@H]2C[C@@H]1C2(C)C
REMARK SMILES IDX 1 1 2 2 3 3 4 4 5 5 6 6 7 7 8 8 9 9 10 10 11 11
REMARK H PARENT
REMARK Flexibility Score: inf
ROOT
ATOM      1  C   UNL     1     -24.756 -12.980  -7.596  1.00  0.00     0.040 C 
ATOM      2  C   UNL     1     -23.519 -12.269  -8.047  1.00  0.00    -0.066 C 
ATOM      3  C   UNL     1     -22.325 -12.454  -7.417  1.00  0.00     0.047 C 
ATOM      4  C   UNL     1     -21.168 -11.662  -7.945  1.00  0.00     0.159 C 
ATOM      5  O   UNL     1     -20.024 -11.716  -7.424  1.00  0.00    -0.295 OA
ATOM      6  C   UNL     1     -21.475 -10.783  -9.158  1.00  0.00     0.067 C 
ATOM      7  C   UNL     1     -22.292 -11.701 -10.093  1.00  0.00     0.021 C 
ATOM      8  C   UNL     1     -23.529 -11.308  -9.254  1.00  0.00     0.022 C 
ATOM      9  C   UNL     1     -22.786  -9.994  -8.878  1.00  0.00    -0.019 C 
ATOM     10  C   UNL     1     -23.025  -8.864  -9.910  1.00  0.00     0.012 C 
ATOM     11  C   UNL     1     -23.005  -9.408  -7.454  1.00  0.00     0.012 C 
ENDROOT
TORSDOF 0
ENDMDL
MODEL 9
REMARK VINA RESULT:    -3.569      1.008      3.268
REMARK INTER + INTRA:          -3.569
REMARK INTER:                  -3.569
REMARK INTRA:                   0.000
REMARK UNBOUND:                 0.000
REMARK SMILES CC1=CC(=O)[C@H]2C[C@@H]1C2(C)C
REMARK SMILES IDX 1 1 2 2 3 3 4 4 5 5 6 6 7 7 8 8 9 9 10 10 11 11
REMARK H PARENT
REMARK Flexibility Score: inf
ROOT
ATOM      1  C   UNL     1     -19.352 -12.309  -9.015  1.00  0.00     0.040 C 
ATOM      2  C   UNL     1     -20.830 -12.215  -8.809  1.00  0.00    -0.066 C 
ATOM      3  C   UNL     1     -21.698 -12.963  -9.546  1.00  0.00     0.047 C 
ATOM      4  C   UNL     1     -23.155 -12.756  -9.266  1.00  0.00     0.159 C 
ATOM      5  O   UNL     1     -24.055 -13.359  -9.907  1.00  0.00    -0.295 OA
ATOM      6  C   UNL     1     -23.472 -11.760  -8.149  1.00  0.00     0.067 C 
ATOM      7  C   UNL     1     -22.499 -12.144  -7.013  1.00  0.00     0.021 C 
ATOM      8  C   UNL     1     -21.444 -11.282  -7.744  1.00  0.00     0.022 C 
ATOM      9  C   UNL     1     -22.619 -10.479  -8.373  1.00  0.00    -0.019 C 
ATOM     10  C   UNL     1     -23.077  -9.303  -7.475  1.00  0.00     0.012 C 
ATOM     11  C   UNL     1     -22.451  -9.947  -9.824  1.00  0.00     0.012 C 
ENDROOT
TORSDOF 0
ENDMDL
