MODEL 1
REMARK VINA RESULT:    -7.728      0.000      0.000
REMARK INTER + INTRA:         -10.284
REMARK INTER:                  -9.761
REMARK INTRA:                  -0.523
REMARK UNBOUND:                -0.523
REMARK SMILES Oc1cc(O)cc(CCc2ccccc2O)c1
REMARK SMILES IDX 9 1 10 2 12 3 13 4 11 5 14 6 15 7 16 8 8 10 7 11 6 12 17 13
REMARK SMILES IDX 4 14 2 15 3 16 5 17 1 19
REMARK H PARENT 16 9 5 18 1 20
REMARK Flexibility Score: inf
ROOT
ATOM      1  C   UNL     1      39.496   1.381 105.130  1.00  0.00     0.044 C 
ENDROOT
BRANCH   1   2
ATOM      2  C   UNL     1      39.045   2.535 104.262  1.00  0.00    -0.006 A 
ATOM      3  C   UNL     1      37.739   3.307 102.356  1.00  0.00     0.001 A 
ATOM      4  C   UNL     1      38.089   4.626 102.642  1.00  0.00     0.004 A 
ATOM      5  C   UNL     1      38.211   2.267 103.160  1.00  0.00     0.007 A 
ATOM      6  C   UNL     1      38.909   4.910 103.737  1.00  0.00     0.046 A 
ATOM      7  C   UNL     1      39.388   3.880 104.555  1.00  0.00     0.118 A 
BRANCH   7   8
ATOM      8  O   UNL     1      40.191   4.228 105.643  1.00  0.00    -0.508 OA
ATOM      9  H   UNL     1      40.608   5.142 105.760  1.00  0.00     0.293 HD
ENDBRANCH   7   8
ENDBRANCH   1   2
BRANCH   1  10
ATOM     10  C   UNL     1      38.309   0.651 105.777  1.00  0.00     0.040 C 
BRANCH  10  11
ATOM     11  C   UNL     1      38.315   0.802 107.277  1.00  0.00    -0.040 A 
ATOM     12  C   UNL     1      37.697  -0.163 108.090  1.00  0.00     0.050 A 
ATOM     13  C   UNL     1      38.995   1.874 107.877  1.00  0.00     0.050 A 
ATOM     14  C   UNL     1      37.746  -0.050 109.483  1.00  0.00     0.119 A 
ATOM     15  C   UNL     1      39.044   1.990 109.273  1.00  0.00     0.119 A 
ATOM     16  C   UNL     1      38.418   1.028 110.073  1.00  0.00     0.092 A 
BRANCH  14  17
ATOM     17  O   UNL     1      37.127  -1.019 110.272  1.00  0.00    -0.508 OA
ATOM     18  H   UNL     1      36.141  -0.965 110.499  1.00  0.00     0.293 HD
ENDBRANCH  14  17
BRANCH  15  19
ATOM     19  O   UNL     1      39.713   3.053 109.874  1.00  0.00    -0.508 OA
ATOM     20  H   UNL     1      40.450   3.555 109.393  1.00  0.00     0.293 HD
ENDBRANCH  15  19
ENDBRANCH  10  11
ENDBRANCH   1  10
TORSDOF 6
ENDMDL
MODEL 2
REMARK VINA RESULT:    -7.661      0.082      2.036
REMARK INTER + INTRA:         -10.199
REMARK INTER:                  -9.705
REMARK INTRA:                  -0.494
REMARK UNBOUND:                -0.523
REMARK SMILES Oc1cc(O)cc(CCc2ccccc2O)c1
REMARK SMILES IDX 9 1 10 2 12 3 13 4 11 5 14 6 15 7 16 8 8 10 7 11 6 12 17 13
REMARK SMILES IDX 4 14 2 15 3 16 5 17 1 19
REMARK H PARENT 16 9 5 18 1 20
REMARK Flexibility Score: inf
ROOT
ATOM      1  C   UNL     1      39.383   1.303 105.044  1.00  0.00     0.044 C 
ENDROOT
BRANCH   1   2
ATOM      2  C   UNL     1      38.971   2.490 104.202  1.00  0.00    -0.006 A 
ATOM      3  C   UNL     1      37.703   3.344 102.305  1.00  0.00     0.001 A 
ATOM      4  C   UNL     1      38.086   4.645 102.626  1.00  0.00     0.004 A 
ATOM      5  C   UNL     1      38.140   2.272 103.087  1.00  0.00     0.007 A 
ATOM      6  C   UNL     1      38.904   4.880 103.734  1.00  0.00     0.046 A 
ATOM      7  C   UNL     1      39.347   3.817 104.531  1.00  0.00     0.118 A 
BRANCH   7   8
ATOM      8  O   UNL     1      40.150   4.117 105.633  1.00  0.00    -0.508 OA
ATOM      9  H   UNL     1      41.160   4.086 105.614  1.00  0.00     0.293 HD
ENDBRANCH   7   8
ENDBRANCH   1   2
BRANCH   1  10
ATOM     10  C   UNL     1      38.184   0.663 105.760  1.00  0.00     0.040 C 
BRANCH  10  11
ATOM     11  C   UNL     1      38.307   0.772 107.259  1.00  0.00    -0.040 A 
ATOM     12  C   UNL     1      39.001   1.848 107.837  1.00  0.00     0.050 A 
ATOM     13  C   UNL     1      37.674  -0.166 108.090  1.00  0.00     0.050 A 
ATOM     14  C   UNL     1      39.074   1.977 109.227  1.00  0.00     0.119 A 
ATOM     15  C   UNL     1      37.747  -0.039 109.484  1.00  0.00     0.119 A 
ATOM     16  C   UNL     1      38.448   1.032 110.050  1.00  0.00     0.092 A 
BRANCH  14  17
ATOM     17  O   UNL     1      39.766   3.053 109.781  1.00  0.00    -0.508 OA
ATOM     18  H   UNL     1      39.589   4.006 109.484  1.00  0.00     0.293 HD
ENDBRANCH  14  17
BRANCH  15  19
ATOM     19  O   UNL     1      37.125  -0.968 110.315  1.00  0.00    -0.508 OA
ATOM     20  H   UNL     1      37.441  -1.125 111.264  1.00  0.00     0.293 HD
ENDBRANCH  15  19
ENDBRANCH  10  11
ENDBRANCH   1  10
TORSDOF 6
ENDMDL
MODEL 3
REMARK VINA RESULT:    -7.146      3.207      6.188
REMARK INTER + INTRA:          -9.549
REMARK INTER:                  -9.001
REMARK INTRA:                  -0.547
REMARK UNBOUND:                -0.523
REMARK SMILES Oc1cc(O)cc(CCc2ccccc2O)c1
REMARK SMILES IDX 9 1 10 2 12 3 13 4 11 5 14 6 15 7 16 8 8 10 7 11 6 12 17 13
REMARK SMILES IDX 4 14 2 15 3 16 5 17 1 19
REMARK H PARENT 16 9 5 18 1 20
REMARK Flexibility Score: inf
ROOT
ATOM      1  C   UNL     1      39.665   1.947 104.197  1.00  0.00     0.044 C 
ENDROOT
BRANCH   1   2
ATOM      2  C   UNL     1      39.362   1.939 105.679  1.00  0.00    -0.006 A 
ATOM      3  C   UNL     1      38.625   0.691 107.636  1.00  0.00     0.001 A 
ATOM      4  C   UNL     1      38.850   1.807 108.441  1.00  0.00     0.004 A 
ATOM      5  C   UNL     1      38.881   0.754 106.264  1.00  0.00     0.007 A 
ATOM      6  C   UNL     1      39.335   2.989 107.877  1.00  0.00     0.046 A 
ATOM      7  C   UNL     1      39.600   3.067 106.505  1.00  0.00     0.118 A 
BRANCH   7   8
ATOM      8  O   UNL     1      40.097   4.272 106.002  1.00  0.00    -0.508 OA
ATOM      9  H   UNL     1      39.711   5.177 106.235  1.00  0.00     0.293 HD
ENDBRANCH   7   8
ENDBRANCH   1   2
BRANCH   1  10
ATOM     10  C   UNL     1      38.549   2.623 103.386  1.00  0.00     0.040 C 
BRANCH  10  11
ATOM     11  C   UNL     1      37.702   1.612 102.655  1.00  0.00    -0.040 A 
ATOM     12  C   UNL     1      36.604   2.030 101.885  1.00  0.00     0.050 A 
ATOM     13  C   UNL     1      38.043   0.251 102.686  1.00  0.00     0.050 A 
ATOM     14  C   UNL     1      35.848   1.098 101.167  1.00  0.00     0.119 A 
ATOM     15  C   UNL     1      37.286  -0.686 101.968  1.00  0.00     0.119 A 
ATOM     16  C   UNL     1      36.189  -0.260 101.212  1.00  0.00     0.092 A 
BRANCH  14  17
ATOM     17  O   UNL     1      34.764   1.533 100.407  1.00  0.00    -0.508 OA
ATOM     18  H   UNL     1      34.675   1.295  99.426  1.00  0.00     0.293 HD
ENDBRANCH  14  17
BRANCH  15  19
ATOM     19  O   UNL     1      37.616  -2.038 101.999  1.00  0.00    -0.508 OA
ATOM     20  H   UNL     1      36.978  -2.732 102.372  1.00  0.00     0.293 HD
ENDBRANCH  15  19
ENDBRANCH  10  11
ENDBRANCH   1  10
TORSDOF 6
ENDMDL
MODEL 4
REMARK VINA RESULT:    -7.143      1.806      3.118
REMARK INTER + INTRA:          -9.545
REMARK INTER:                  -8.997
REMARK INTRA:                  -0.547
REMARK UNBOUND:                -0.523
REMARK SMILES Oc1cc(O)cc(CCc2ccccc2O)c1
REMARK SMILES IDX 9 1 10 2 12 3 13 4 11 5 14 6 15 7 16 8 8 10 7 11 6 12 17 13
REMARK SMILES IDX 4 14 2 15 3 16 5 17 1 19
REMARK H PARENT 16 9 5 18 1 20
REMARK Flexibility Score: inf
ROOT
ATOM      1  C   UNL     1      39.437   2.244 107.988  1.00  0.00     0.044 C 
ENDROOT
BRANCH   1   2
ATOM      2  C   UNL     1      39.197   2.070 106.505  1.00  0.00    -0.006 A 
ATOM      3  C   UNL     1      38.290   0.711 104.698  1.00  0.00     0.001 A 
ATOM      4  C   UNL     1      38.636   1.696 103.775  1.00  0.00     0.004 A 
ATOM      5  C   UNL     1      38.566   0.895 106.055  1.00  0.00     0.007 A 
ATOM      6  C   UNL     1      39.255   2.872 104.205  1.00  0.00     0.046 A 
ATOM      7  C   UNL     1      39.535   3.073 105.562  1.00  0.00     0.118 A 
BRANCH   7   8
ATOM      8  O   UNL     1      40.142   4.275 105.932  1.00  0.00    -0.508 OA
ATOM      9  H   UNL     1      40.544   4.926 105.271  1.00  0.00     0.293 HD
ENDBRANCH   7   8
ENDBRANCH   1   2
BRANCH   1  10
ATOM     10  C   UNL     1      40.051   0.986 108.622  1.00  0.00     0.040 C 
BRANCH  10  11
ATOM     11  C   UNL     1      39.149   0.398 109.677  1.00  0.00    -0.040 A 
ATOM     12  C   UNL     1      38.208   1.205 110.337  1.00  0.00     0.050 A 
ATOM     13  C   UNL     1      39.198  -0.976 109.962  1.00  0.00     0.050 A 
ATOM     14  C   UNL     1      37.338   0.650 111.280  1.00  0.00     0.119 A 
ATOM     15  C   UNL     1      38.327  -1.535 110.908  1.00  0.00     0.119 A 
ATOM     16  C   UNL     1      37.400  -0.720 111.566  1.00  0.00     0.092 A 
BRANCH  14  17
ATOM     17  O   UNL     1      36.410   1.468 111.923  1.00  0.00    -0.508 OA
ATOM     18  H   UNL     1      36.697   2.151 112.615  1.00  0.00     0.293 HD
ENDBRANCH  14  17
BRANCH  15  19
ATOM     19  O   UNL     1      38.374  -2.896 111.198  1.00  0.00    -0.508 OA
ATOM     20  H   UNL     1      37.774  -3.561 110.723  1.00  0.00     0.293 HD
ENDBRANCH  15  19
ENDBRANCH  10  11
ENDBRANCH   1  10
TORSDOF 6
ENDMDL
MODEL 5
REMARK VINA RESULT:    -7.124      5.575      8.541
REMARK INTER + INTRA:          -9.521
REMARK INTER:                  -9.070
REMARK INTRA:                  -0.451
REMARK UNBOUND:                -0.523
REMARK SMILES Oc1cc(O)cc(CCc2ccccc2O)c1
REMARK SMILES IDX 9 1 10 2 12 3 13 4 11 5 14 6 15 7 16 8 8 10 7 11 6 12 17 13
REMARK SMILES IDX 4 14 2 15 3 16 5 17 1 19
REMARK H PARENT 16 9 5 18 1 20
REMARK Flexibility Score: inf
ROOT
ATOM      1  C   UNL     1      36.352  -3.737 110.679  1.00  0.00     0.044 C 
ENDROOT
BRANCH   1   2
ATOM      2  C   UNL     1      36.398  -5.116 110.058  1.00  0.00    -0.006 A 
ATOM      3  C   UNL     1      37.652  -6.778 108.793  1.00  0.00     0.001 A 
ATOM      4  C   UNL     1      36.606  -7.688 108.941  1.00  0.00     0.004 A 
ATOM      5  C   UNL     1      37.551  -5.500 109.349  1.00  0.00     0.007 A 
ATOM      6  C   UNL     1      35.458  -7.325 109.648  1.00  0.00     0.046 A 
ATOM      7  C   UNL     1      35.343  -6.050 110.214  1.00  0.00     0.118 A 
BRANCH   7   8
ATOM      8  O   UNL     1      34.177  -5.752 110.923  1.00  0.00    -0.508 OA
ATOM      9  H   UNL     1      33.288  -6.204 110.754  1.00  0.00     0.293 HD
ENDBRANCH   7   8
ENDBRANCH   1   2
BRANCH   1  10
ATOM     10  C   UNL     1      37.685  -3.363 111.346  1.00  0.00     0.040 C 
BRANCH  10  11
ATOM     11  C   UNL     1      38.027  -1.911 111.130  1.00  0.00    -0.040 A 
ATOM     12  C   UNL     1      37.152  -0.903 111.568  1.00  0.00     0.050 A 
ATOM     13  C   UNL     1      39.253  -1.553 110.545  1.00  0.00     0.050 A 
ATOM     14  C   UNL     1      37.492   0.445 111.413  1.00  0.00     0.119 A 
ATOM     15  C   UNL     1      39.594  -0.203 110.387  1.00  0.00     0.119 A 
ATOM     16  C   UNL     1      38.712   0.793 110.820  1.00  0.00     0.092 A 
BRANCH  14  17
ATOM     17  O   UNL     1      36.611   1.430 111.856  1.00  0.00    -0.508 OA
ATOM     18  H   UNL     1      35.757   1.193 112.349  1.00  0.00     0.293 HD
ENDBRANCH  14  17
BRANCH  15  19
ATOM     19  O   UNL     1      40.807   0.159 109.805  1.00  0.00    -0.508 OA
ATOM     20  H   UNL     1      41.018  -0.064 108.839  1.00  0.00     0.293 HD
ENDBRANCH  15  19
ENDBRANCH  10  11
ENDBRANCH   1  10
TORSDOF 6
ENDMDL
MODEL 6
REMARK VINA RESULT:    -7.121      1.783      2.726
REMARK INTER + INTRA:          -9.517
REMARK INTER:                  -8.980
REMARK INTRA:                  -0.537
REMARK UNBOUND:                -0.523
REMARK SMILES Oc1cc(O)cc(CCc2ccccc2O)c1
REMARK SMILES IDX 9 1 10 2 12 3 13 4 11 5 14 6 15 7 16 8 8 10 7 11 6 12 17 13
REMARK SMILES IDX 4 14 2 15 3 16 5 17 1 19
REMARK H PARENT 16 9 5 18 1 20
REMARK Flexibility Score: inf
ROOT
ATOM      1  C   UNL     1      39.445   2.351 108.010  1.00  0.00     0.044 C 
ENDROOT
BRANCH   1   2
ATOM      2  C   UNL     1      39.231   2.182 106.522  1.00  0.00    -0.006 A 
ATOM      3  C   UNL     1      38.413   0.800 104.690  1.00  0.00     0.001 A 
ATOM      4  C   UNL     1      38.720   1.812 103.782  1.00  0.00     0.004 A 
ATOM      5  C   UNL     1      38.665   0.983 106.052  1.00  0.00     0.007 A 
ATOM      6  C   UNL     1      39.275   3.012 104.232  1.00  0.00     0.046 A 
ATOM      7  C   UNL     1      39.530   3.212 105.594  1.00  0.00     0.118 A 
BRANCH   7   8
ATOM      8  O   UNL     1      40.072   4.439 105.984  1.00  0.00    -0.508 OA
ATOM      9  H   UNL     1      39.707   4.995 106.746  1.00  0.00     0.293 HD
ENDBRANCH   7   8
ENDBRANCH   1   2
BRANCH   1  10
ATOM     10  C   UNL     1      40.042   1.089 108.651  1.00  0.00     0.040 C 
BRANCH  10  11
ATOM     11  C   UNL     1      39.096   0.472 109.649  1.00  0.00    -0.040 A 
ATOM     12  C   UNL     1      39.184  -0.895 109.959  1.00  0.00     0.050 A 
ATOM     13  C   UNL     1      38.161   1.273 110.325  1.00  0.00     0.050 A 
ATOM     14  C   UNL     1      38.339  -1.458 110.921  1.00  0.00     0.119 A 
ATOM     15  C   UNL     1      37.312   0.711 111.289  1.00  0.00     0.119 A 
ATOM     16  C   UNL     1      37.402  -0.654 111.584  1.00  0.00     0.092 A 
BRANCH  14  17
ATOM     17  O   UNL     1      38.443  -2.816 111.216  1.00  0.00    -0.508 OA
ATOM     18  H   UNL     1      38.283  -3.525 110.509  1.00  0.00     0.293 HD
ENDBRANCH  14  17
BRANCH  15  19
ATOM     19  O   UNL     1      36.380   1.498 111.959  1.00  0.00    -0.508 OA
ATOM     20  H   UNL     1      36.279   1.458 112.967  1.00  0.00     0.293 HD
ENDBRANCH  15  19
ENDBRANCH  10  11
ENDBRANCH   1  10
TORSDOF 6
ENDMDL
MODEL 7
REMARK VINA RESULT:    -7.107      5.598      8.627
REMARK INTER + INTRA:          -9.499
REMARK INTER:                  -9.052
REMARK INTRA:                  -0.447
REMARK UNBOUND:                -0.523
REMARK SMILES Oc1cc(O)cc(CCc2ccccc2O)c1
REMARK SMILES IDX 9 1 10 2 12 3 13 4 11 5 14 6 15 7 16 8 8 10 7 11 6 12 17 13
REMARK SMILES IDX 4 14 2 15 3 16 5 17 1 19
REMARK H PARENT 16 9 5 18 1 20
REMARK Flexibility Score: inf
ROOT
ATOM      1  C   UNL     1      36.386  -3.755 110.577  1.00  0.00     0.044 C 
ENDROOT
BRANCH   1   2
ATOM      2  C   UNL     1      36.397  -5.152 109.997  1.00  0.00    -0.006 A 
ATOM      3  C   UNL     1      37.596  -6.869 108.752  1.00  0.00     0.001 A 
ATOM      4  C   UNL     1      36.542  -7.759 108.953  1.00  0.00     0.004 A 
ATOM      5  C   UNL     1      37.527  -5.574 109.271  1.00  0.00     0.007 A 
ATOM      6  C   UNL     1      35.418  -7.359 109.678  1.00  0.00     0.046 A 
ATOM      7  C   UNL     1      35.334  -6.066 110.208  1.00  0.00     0.118 A 
BRANCH   7   8
ATOM      8  O   UNL     1      34.191  -5.730 110.936  1.00  0.00    -0.508 OA
ATOM      9  H   UNL     1      33.607  -4.933 110.723  1.00  0.00     0.293 HD
ENDBRANCH   7   8
ENDBRANCH   1   2
BRANCH   1  10
ATOM     10  C   UNL     1      37.690  -3.432 111.322  1.00  0.00     0.040 C 
BRANCH  10  11
ATOM     11  C   UNL     1      38.068  -1.979 111.179  1.00  0.00    -0.040 A 
ATOM     12  C   UNL     1      39.280  -1.618 110.567  1.00  0.00     0.050 A 
ATOM     13  C   UNL     1      37.181  -0.975 111.597  1.00  0.00     0.050 A 
ATOM     14  C   UNL     1      39.608  -0.270 110.389  1.00  0.00     0.119 A 
ATOM     15  C   UNL     1      37.508   0.377 111.421  1.00  0.00     0.119 A 
ATOM     16  C   UNL     1      38.722   0.726 110.819  1.00  0.00     0.092 A 
BRANCH  14  17
ATOM     17  O   UNL     1      40.815   0.067 109.779  1.00  0.00    -0.508 OA
ATOM     18  H   UNL     1      41.280  -0.567 109.139  1.00  0.00     0.293 HD
ENDBRANCH  14  17
BRANCH  15  19
ATOM     19  O   UNL     1      36.635   1.379 111.838  1.00  0.00    -0.508 OA
ATOM     20  H   UNL     1      35.936   1.210 112.551  1.00  0.00     0.293 HD
ENDBRANCH  15  19
ENDBRANCH  10  11
ENDBRANCH   1  10
TORSDOF 6
ENDMDL
MODEL 8
REMARK VINA RESULT:    -7.071      7.818     10.723
REMARK INTER + INTRA:          -9.454
REMARK INTER:                  -9.041
REMARK INTRA:                  -0.413
REMARK UNBOUND:                -0.523
REMARK SMILES Oc1cc(O)cc(CCc2ccccc2O)c1
REMARK SMILES IDX 9 1 10 2 12 3 13 4 11 5 14 6 15 7 16 8 8 10 7 11 6 12 17 13
REMARK SMILES IDX 4 14 2 15 3 16 5 17 1 19
REMARK H PARENT 16 9 5 18 1 20
REMARK Flexibility Score: inf
ROOT
ATOM      1  C   UNL     1      37.381  -6.621 104.167  1.00  0.00     0.044 C 
ENDROOT
BRANCH   1   2
ATOM      2  C   UNL     1      37.416  -7.056 105.615  1.00  0.00    -0.006 A 
ATOM      3  C   UNL     1      37.003  -6.512 107.953  1.00  0.00     0.001 A 
ATOM      4  C   UNL     1      37.372  -7.803 108.325  1.00  0.00     0.004 A 
ATOM      5  C   UNL     1      37.023  -6.139 106.606  1.00  0.00     0.007 A 
ATOM      6  C   UNL     1      37.757  -8.729 107.353  1.00  0.00     0.046 A 
ATOM      7  C   UNL     1      37.779  -8.372 105.999  1.00  0.00     0.118 A 
BRANCH   7   8
ATOM      8  O   UNL     1      38.159  -9.346 105.073  1.00  0.00    -0.508 OA
ATOM      9  H   UNL     1      38.092  -9.222 104.072  1.00  0.00     0.293 HD
ENDBRANCH   7   8
ENDBRANCH   1   2
BRANCH   1  10
ATOM     10  C   UNL     1      37.068  -5.123 104.025  1.00  0.00     0.040 C 
BRANCH  10  11
ATOM     11  C   UNL     1      36.943  -4.716 102.579  1.00  0.00    -0.040 A 
ATOM     12  C   UNL     1      36.874  -5.691 101.570  1.00  0.00     0.050 A 
ATOM     13  C   UNL     1      36.832  -3.359 102.235  1.00  0.00     0.050 A 
ATOM     14  C   UNL     1      36.709  -5.314 100.233  1.00  0.00     0.119 A 
ATOM     15  C   UNL     1      36.668  -2.980 100.895  1.00  0.00     0.119 A 
ATOM     16  C   UNL     1      36.608  -3.958  99.897  1.00  0.00     0.092 A 
BRANCH  14  17
ATOM     17  O   UNL     1      36.641  -6.297  99.247  1.00  0.00    -0.508 OA
ATOM     18  H   UNL     1      36.675  -6.061  98.262  1.00  0.00     0.293 HD
ENDBRANCH  14  17
BRANCH  15  19
ATOM     19  O   UNL     1      36.560  -1.635 100.546  1.00  0.00    -0.508 OA
ATOM     20  H   UNL     1      37.364  -1.103 100.234  1.00  0.00     0.293 HD
ENDBRANCH  15  19
ENDBRANCH  10  11
ENDBRANCH   1  10
TORSDOF 6
ENDMDL
MODEL 9
REMARK VINA RESULT:    -7.065      7.819     10.867
REMARK INTER + INTRA:          -9.447
REMARK INTER:                  -9.031
REMARK INTRA:                  -0.415
REMARK UNBOUND:                -0.523
REMARK SMILES Oc1cc(O)cc(CCc2ccccc2O)c1
REMARK SMILES IDX 9 1 10 2 12 3 13 4 11 5 14 6 15 7 16 8 8 10 7 11 6 12 17 13
REMARK SMILES IDX 4 14 2 15 3 16 5 17 1 19
REMARK H PARENT 16 9 5 18 1 20
REMARK Flexibility Score: inf
ROOT
ATOM      1  C   UNL     1      37.397  -6.604 104.161  1.00  0.00     0.044 C 
ENDROOT
BRANCH   1   2
ATOM      2  C   UNL     1      37.439  -7.037 105.610  1.00  0.00    -0.006 A 
ATOM      3  C   UNL     1      37.031  -6.491 107.948  1.00  0.00     0.001 A 
ATOM      4  C   UNL     1      37.407  -7.780 108.322  1.00  0.00     0.004 A 
ATOM      5  C   UNL     1      37.045  -6.120 106.601  1.00  0.00     0.007 A 
ATOM      6  C   UNL     1      37.793  -8.705 107.349  1.00  0.00     0.046 A 
ATOM      7  C   UNL     1      37.809  -8.351 105.995  1.00  0.00     0.118 A 
BRANCH   7   8
ATOM      8  O   UNL     1      38.191  -9.324 105.069  1.00  0.00    -0.508 OA
ATOM      9  H   UNL     1      39.151  -9.599 104.910  1.00  0.00     0.293 HD
ENDBRANCH   7   8
ENDBRANCH   1   2
BRANCH   1  10
ATOM     10  C   UNL     1      37.073  -5.109 104.018  1.00  0.00     0.040 C 
BRANCH  10  11
ATOM     11  C   UNL     1      36.878  -4.718 102.575  1.00  0.00    -0.040 A 
ATOM     12  C   UNL     1      36.778  -3.364 102.214  1.00  0.00     0.050 A 
ATOM     13  C   UNL     1      36.860  -5.701 101.573  1.00  0.00     0.050 A 
ATOM     14  C   UNL     1      36.648  -2.998 100.870  1.00  0.00     0.119 A 
ATOM     15  C   UNL     1      36.728  -5.337 100.226  1.00  0.00     0.119 A 
ATOM     16  C   UNL     1      36.620  -3.987  99.878  1.00  0.00     0.092 A 
BRANCH  14  17
ATOM     17  O   UNL     1      36.552  -1.650 100.532  1.00  0.00    -0.508 OA
ATOM     18  H   UNL     1      36.903  -0.924 101.146  1.00  0.00     0.293 HD
ENDBRANCH  14  17
BRANCH  15  19
ATOM     19  O   UNL     1      36.704  -6.308  99.227  1.00  0.00    -0.508 OA
ATOM     20  H   UNL     1      36.664  -7.296  99.449  1.00  0.00     0.293 HD
ENDBRANCH  15  19
ENDBRANCH  10  11
ENDBRANCH   1  10
TORSDOF 6
ENDMDL
