MODEL 1
REMARK VINA RESULT:    -7.074      0.000      0.000
REMARK INTER + INTRA:          -9.083
REMARK INTER:                  -8.729
REMARK INTRA:                  -0.354
REMARK UNBOUND:                -0.354
REMARK SMILES O=c1c(O)c(-c2cc(O)c(O)c(O)c2)oc2cc(O)cc(O)c12
REMARK SMILES IDX 5 1 3 2 2 3 1 4 23 5 21 6 20 7 18 8 17 9 16 10 15 11 6 12
REMARK SMILES IDX 7 13 8 14 14 15 10 16 12 17 9 18 11 20 13 22 4 24 22 26
REMARK SMILES IDX 19 28
REMARK H PARENT 9 19 11 21 13 23 4 25 22 27 19 29
REMARK Flexibility Score: inf
ROOT
ATOM      1  C   UNL     1      21.802 -10.119  25.900  1.00  0.00     0.180 A 
ATOM      2  C   UNL     1      21.869 -11.087  24.883  1.00  0.00     0.208 A 
ATOM      3  C   UNL     1      23.059 -11.221  24.149  1.00  0.00     0.238 A 
ATOM      4  O   UNL     1      23.131 -12.125  23.276  1.00  0.00    -0.285 OA
ATOM      5  C   UNL     1      24.159 -10.375  24.428  1.00  0.00     0.111 A 
ATOM      6  C   UNL     1      25.398 -10.396  23.720  1.00  0.00     0.134 A 
ATOM      7  C   UNL     1      26.463  -9.605  24.169  1.00  0.00     0.093 A 
ATOM      8  C   UNL     1      26.312  -8.745  25.259  1.00  0.00     0.123 A 
ATOM      9  C   UNL     1      25.089  -8.674  25.920  1.00  0.00     0.094 A 
ATOM     10  C   UNL     1      24.019  -9.478  25.519  1.00  0.00     0.146 A 
ATOM     11  O   UNL     1      22.873  -9.387  26.183  1.00  0.00    -0.452 OA
ENDROOT
BRANCH   1  12
ATOM     12  C   UNL     1      20.575  -9.902  26.700  1.00  0.00     0.029 A 
ATOM     13  C   UNL     1      19.570  -9.054  26.207  1.00  0.00     0.062 A 
ATOM     14  C   UNL     1      18.391  -8.849  26.936  1.00  0.00     0.162 A 
ATOM     15  C   UNL     1      20.369 -10.570  27.919  1.00  0.00     0.062 A 
ATOM     16  C   UNL     1      18.200  -9.502  28.160  1.00  0.00     0.200 A 
ATOM     17  C   UNL     1      19.190 -10.369  28.651  1.00  0.00     0.162 A 
BRANCH  14  18
ATOM     18  O   UNL     1      17.403  -7.995  26.448  1.00  0.00    -0.504 OA
ATOM     19  H   UNL     1      16.862  -7.401  27.065  1.00  0.00     0.293 HD
ENDBRANCH  14  18
BRANCH  16  20
ATOM     20  O   UNL     1      17.021  -9.282  28.872  1.00  0.00    -0.502 OA
ATOM     21  H   UNL     1      17.023  -8.967  29.834  1.00  0.00     0.293 HD
ENDBRANCH  16  20
BRANCH  17  22
ATOM     22  O   UNL     1      18.998 -11.032  29.863  1.00  0.00    -0.504 OA
ATOM     23  H   UNL     1      18.277 -10.747  30.515  1.00  0.00     0.293 HD
ENDBRANCH  17  22
ENDBRANCH   1  12
BRANCH   2  24
ATOM     24  O   UNL     1      20.779 -11.926  24.637  1.00  0.00    -0.502 OA
ATOM     25  H   UNL     1      20.781 -12.907  24.884  1.00  0.00     0.293 HD
ENDBRANCH   2  24
BRANCH   6  26
ATOM     26  O   UNL     1      25.624 -11.150  22.564  1.00  0.00    -0.507 OA
ATOM     27  H   UNL     1      26.318 -11.877  22.480  1.00  0.00     0.293 HD
ENDBRANCH   6  26
BRANCH   8  28
ATOM     28  O   UNL     1      27.372  -7.950  25.689  1.00  0.00    -0.508 OA
ATOM     29  H   UNL     1      27.598  -7.855  26.672  1.00  0.00     0.293 HD
ENDBRANCH   8  28
TORSDOF 7
ENDMDL
MODEL 2
REMARK VINA RESULT:    -6.690      1.675      7.381
REMARK INTER + INTRA:          -8.608
REMARK INTER:                  -8.878
REMARK INTRA:                   0.269
REMARK UNBOUND:                -0.354
REMARK SMILES O=c1c(O)c(-c2cc(O)c(O)c(O)c2)oc2cc(O)cc(O)c12
REMARK SMILES IDX 5 1 3 2 2 3 1 4 23 5 21 6 20 7 18 8 17 9 16 10 15 11 6 12
REMARK SMILES IDX 7 13 8 14 14 15 10 16 12 17 9 18 11 20 13 22 4 24 22 26
REMARK SMILES IDX 19 28
REMARK H PARENT 9 19 11 21 13 23 4 25 22 27 19 29
REMARK Flexibility Score: inf
ROOT
ATOM      1  C   UNL     1      22.945  -9.708  26.267  1.00  0.00     0.180 A 
ATOM      2  C   UNL     1      22.857  -9.209  27.578  1.00  0.00     0.208 A 
ATOM      3  C   UNL     1      21.614  -9.226  28.231  1.00  0.00     0.238 A 
ATOM      4  O   UNL     1      21.552  -8.827  29.423  1.00  0.00    -0.285 OA
ATOM      5  C   UNL     1      20.472  -9.724  27.560  1.00  0.00     0.111 A 
ATOM      6  C   UNL     1      19.156  -9.750  28.110  1.00  0.00     0.134 A 
ATOM      7  C   UNL     1      18.125 -10.386  27.406  1.00  0.00     0.093 A 
ATOM      8  C   UNL     1      18.350 -10.938  26.143  1.00  0.00     0.123 A 
ATOM      9  C   UNL     1      19.618 -10.865  25.572  1.00  0.00     0.094 A 
ATOM     10  C   UNL     1      20.674 -10.269  26.265  1.00  0.00     0.146 A 
ATOM     11  O   UNL     1      21.870 -10.230  25.689  1.00  0.00    -0.452 OA
ENDROOT
BRANCH   1  12
ATOM     12  C   UNL     1      24.215  -9.702  25.506  1.00  0.00     0.029 A 
ATOM     13  C   UNL     1      24.385 -10.599  24.439  1.00  0.00     0.062 A 
ATOM     14  C   UNL     1      25.569 -10.598  23.690  1.00  0.00     0.162 A 
ATOM     15  C   UNL     1      25.234  -8.778  25.791  1.00  0.00     0.062 A 
ATOM     16  C   UNL     1      26.590  -9.688  23.992  1.00  0.00     0.200 A 
ATOM     17  C   UNL     1      26.420  -8.772  25.044  1.00  0.00     0.162 A 
BRANCH  14  18
ATOM     18  O   UNL     1      25.738 -11.500  22.641  1.00  0.00    -0.504 OA
ATOM     19  H   UNL     1      25.342 -12.432  22.673  1.00  0.00     0.293 HD
ENDBRANCH  14  18
BRANCH  16  20
ATOM     20  O   UNL     1      27.763  -9.704  23.237  1.00  0.00    -0.502 OA
ATOM     21  H   UNL     1      28.044 -10.512  22.696  1.00  0.00     0.293 HD
ENDBRANCH  16  20
BRANCH  17  22
ATOM     22  O   UNL     1      27.429  -7.855  25.340  1.00  0.00    -0.504 OA
ATOM     23  H   UNL     1      28.178  -7.661  24.686  1.00  0.00     0.293 HD
ENDBRANCH  17  22
ENDBRANCH   1  12
BRANCH   2  24
ATOM     24  O   UNL     1      24.001  -8.741  28.231  1.00  0.00    -0.502 OA
ATOM     25  H   UNL     1      24.778  -8.323  27.736  1.00  0.00     0.293 HD
ENDBRANCH   2  24
BRANCH   6  26
ATOM     26  O   UNL     1      18.804  -9.148  29.322  1.00  0.00    -0.507 OA
ATOM     27  H   UNL     1      18.795  -9.617  30.215  1.00  0.00     0.293 HD
ENDBRANCH   6  26
BRANCH   8  28
ATOM     28  O   UNL     1      17.316 -11.556  25.442  1.00  0.00    -0.508 OA
ATOM     29  H   UNL     1      17.191 -11.412  24.447  1.00  0.00     0.293 HD
ENDBRANCH   8  28
TORSDOF 7
ENDMDL
MODEL 3
REMARK VINA RESULT:    -6.584      9.538     11.878
REMARK INTER + INTRA:          -8.477
REMARK INTER:                  -8.403
REMARK INTRA:                  -0.074
REMARK UNBOUND:                -0.354
REMARK SMILES O=c1c(O)c(-c2cc(O)c(O)c(O)c2)oc2cc(O)cc(O)c12
REMARK SMILES IDX 5 1 3 2 2 3 1 4 23 5 21 6 20 7 18 8 17 9 16 10 15 11 6 12
REMARK SMILES IDX 7 13 8 14 14 15 10 16 12 17 9 18 11 20 13 22 4 24 22 26
REMARK SMILES IDX 19 28
REMARK H PARENT 9 19 11 21 13 23 4 25 22 27 19 29
REMARK Flexibility Score: inf
ROOT
ATOM      1  C   UNL     1      26.064  -1.477  30.358  1.00  0.00     0.180 A 
ATOM      2  C   UNL     1      27.168  -0.761  30.851  1.00  0.00     0.208 A 
ATOM      3  C   UNL     1      27.567  -0.956  32.184  1.00  0.00     0.238 A 
ATOM      4  O   UNL     1      28.589  -0.353  32.603  1.00  0.00    -0.285 OA
ATOM      5  C   UNL     1      26.847  -1.851  33.011  1.00  0.00     0.111 A 
ATOM      6  C   UNL     1      27.137  -2.095  34.386  1.00  0.00     0.134 A 
ATOM      7  C   UNL     1      26.442  -3.099  35.072  1.00  0.00     0.093 A 
ATOM      8  C   UNL     1      25.421  -3.820  34.449  1.00  0.00     0.123 A 
ATOM      9  C   UNL     1      25.090  -3.549  33.124  1.00  0.00     0.094 A 
ATOM     10  C   UNL     1      25.791  -2.579  32.404  1.00  0.00     0.146 A 
ATOM     11  O   UNL     1      25.450  -2.358  31.139  1.00  0.00    -0.452 OA
ENDROOT
BRANCH   1  12
ATOM     12  C   UNL     1      25.569  -1.306  28.973  1.00  0.00     0.029 A 
ATOM     13  C   UNL     1      26.439  -1.536  27.896  1.00  0.00     0.062 A 
ATOM     14  C   UNL     1      25.989  -1.401  26.575  1.00  0.00     0.162 A 
ATOM     15  C   UNL     1      24.229  -0.975  28.711  1.00  0.00     0.062 A 
ATOM     16  C   UNL     1      24.658  -1.050  26.321  1.00  0.00     0.200 A 
ATOM     17  C   UNL     1      23.774  -0.840  27.392  1.00  0.00     0.162 A 
BRANCH  14  18
ATOM     18  O   UNL     1      26.861  -1.617  25.510  1.00  0.00    -0.504 OA
ATOM     19  H   UNL     1      27.421  -2.459  25.444  1.00  0.00     0.293 HD
ENDBRANCH  14  18
BRANCH  16  20
ATOM     20  O   UNL     1      24.229  -0.918  25.001  1.00  0.00    -0.502 OA
ATOM     21  H   UNL     1      23.266  -1.073  24.728  1.00  0.00     0.293 HD
ENDBRANCH  16  20
BRANCH  17  22
ATOM     22  O   UNL     1      22.443  -0.503  27.143  1.00  0.00    -0.504 OA
ATOM     23  H   UNL     1      21.678  -1.049  27.521  1.00  0.00     0.293 HD
ENDBRANCH  17  22
ENDBRANCH   1  12
BRANCH   2  24
ATOM     24  O   UNL     1      27.879   0.102  30.012  1.00  0.00    -0.502 OA
ATOM     25  H   UNL     1      28.145   1.037  30.292  1.00  0.00     0.293 HD
ENDBRANCH   2  24
BRANCH   6  26
ATOM     26  O   UNL     1      28.074  -1.367  35.128  1.00  0.00    -0.507 OA
ATOM     27  H   UNL     1      28.761  -1.775  35.743  1.00  0.00     0.293 HD
ENDBRANCH   6  26
BRANCH   8  28
ATOM     28  O   UNL     1      24.723  -4.807  35.143  1.00  0.00    -0.508 OA
ATOM     29  H   UNL     1      23.954  -5.311  34.716  1.00  0.00     0.293 HD
ENDBRANCH   8  28
TORSDOF 7
ENDMDL
MODEL 4
REMARK VINA RESULT:    -6.546      9.539     11.831
REMARK INTER + INTRA:          -8.431
REMARK INTER:                  -8.354
REMARK INTRA:                  -0.077
REMARK UNBOUND:                -0.354
REMARK SMILES O=c1c(O)c(-c2cc(O)c(O)c(O)c2)oc2cc(O)cc(O)c12
REMARK SMILES IDX 5 1 3 2 2 3 1 4 23 5 21 6 20 7 18 8 17 9 16 10 15 11 6 12
REMARK SMILES IDX 7 13 8 14 14 15 10 16 12 17 9 18 11 20 13 22 4 24 22 26
REMARK SMILES IDX 19 28
REMARK H PARENT 9 19 11 21 13 23 4 25 22 27 19 29
REMARK Flexibility Score: inf
ROOT
ATOM      1  C   UNL     1      26.104  -1.553  30.318  1.00  0.00     0.180 A 
ATOM      2  C   UNL     1      27.200  -0.826  30.814  1.00  0.00     0.208 A 
ATOM      3  C   UNL     1      27.583  -1.001  32.154  1.00  0.00     0.238 A 
ATOM      4  O   UNL     1      28.597  -0.389  32.577  1.00  0.00    -0.285 OA
ATOM      5  C   UNL     1      26.855  -1.886  32.985  1.00  0.00     0.111 A 
ATOM      6  C   UNL     1      27.128  -2.109  34.367  1.00  0.00     0.134 A 
ATOM      7  C   UNL     1      26.427  -3.105  35.059  1.00  0.00     0.093 A 
ATOM      8  C   UNL     1      25.416  -3.839  34.434  1.00  0.00     0.123 A 
ATOM      9  C   UNL     1      25.101  -3.588  33.101  1.00  0.00     0.094 A 
ATOM     10  C   UNL     1      25.808  -2.626  32.375  1.00  0.00     0.146 A 
ATOM     11  O   UNL     1      25.483  -2.424  31.104  1.00  0.00    -0.452 OA
ENDROOT
BRANCH   1  12
ATOM     12  C   UNL     1      25.627  -1.404  28.924  1.00  0.00     0.029 A 
ATOM     13  C   UNL     1      24.298  -1.015  28.687  1.00  0.00     0.062 A 
ATOM     14  C   UNL     1      23.828  -0.847  27.378  1.00  0.00     0.162 A 
ATOM     15  C   UNL     1      26.491  -1.588  27.831  1.00  0.00     0.062 A 
ATOM     16  C   UNL     1      24.689  -1.053  26.292  1.00  0.00     0.200 A 
ATOM     17  C   UNL     1      26.025  -1.420  26.520  1.00  0.00     0.162 A 
BRANCH  14  18
ATOM     18  O   UNL     1      22.505  -0.475  27.148  1.00  0.00    -0.504 OA
ATOM     19  H   UNL     1      21.995  -0.800  26.335  1.00  0.00     0.293 HD
ENDBRANCH  14  18
BRANCH  16  20
ATOM     20  O   UNL     1      24.202  -0.883  24.996  1.00  0.00    -0.502 OA
ATOM     21  H   UNL     1      24.273  -0.001  24.504  1.00  0.00     0.293 HD
ENDBRANCH  16  20
BRANCH  17  22
ATOM     22  O   UNL     1      26.889  -1.612  25.441  1.00  0.00    -0.504 OA
ATOM     23  H   UNL     1      27.082  -0.871  24.778  1.00  0.00     0.293 HD
ENDBRANCH  17  22
ENDBRANCH   1  12
BRANCH   2  24
ATOM     24  O   UNL     1      27.919   0.027  29.971  1.00  0.00    -0.502 OA
ATOM     25  H   UNL     1      28.199   0.958  30.250  1.00  0.00     0.293 HD
ENDBRANCH   2  24
BRANCH   6  26
ATOM     26  O   UNL     1      28.053  -1.368  35.110  1.00  0.00    -0.507 OA
ATOM     27  H   UNL     1      27.916  -1.069  36.064  1.00  0.00     0.293 HD
ENDBRANCH   6  26
BRANCH   8  28
ATOM     28  O   UNL     1      24.712  -4.817  35.133  1.00  0.00    -0.508 OA
ATOM     29  H   UNL     1      24.003  -5.384  34.681  1.00  0.00     0.293 HD
ENDBRANCH   8  28
TORSDOF 7
ENDMDL
MODEL 5
REMARK VINA RESULT:    -6.437      3.479      5.682
REMARK INTER + INTRA:          -8.296
REMARK INTER:                  -7.990
REMARK INTRA:                  -0.307
REMARK UNBOUND:                -0.354
REMARK SMILES O=c1c(O)c(-c2cc(O)c(O)c(O)c2)oc2cc(O)cc(O)c12
REMARK SMILES IDX 5 1 3 2 2 3 1 4 23 5 21 6 20 7 18 8 17 9 16 10 15 11 6 12
REMARK SMILES IDX 7 13 8 14 14 15 10 16 12 17 9 18 11 20 13 22 4 24 22 26
REMARK SMILES IDX 19 28
REMARK H PARENT 9 19 11 21 13 23 4 25 22 27 19 29
REMARK Flexibility Score: inf
ROOT
ATOM      1  C   UNL     1      16.771  -9.558  27.820  1.00  0.00     0.180 A 
ATOM      2  C   UNL     1      17.172 -10.186  26.628  1.00  0.00     0.208 A 
ATOM      3  C   UNL     1      18.544 -10.305  26.348  1.00  0.00     0.238 A 
ATOM      4  O   UNL     1      18.897 -10.915  25.306  1.00  0.00    -0.285 OA
ATOM      5  C   UNL     1      19.496  -9.781  27.255  1.00  0.00     0.111 A 
ATOM      6  C   UNL     1      20.908  -9.809  27.054  1.00  0.00     0.134 A 
ATOM      7  C   UNL     1      21.761  -9.379  28.078  1.00  0.00     0.093 A 
ATOM      8  C   UNL     1      21.249  -8.860  29.270  1.00  0.00     0.123 A 
ATOM      9  C   UNL     1      19.872  -8.773  29.452  1.00  0.00     0.094 A 
ATOM     10  C   UNL     1      18.996  -9.228  28.463  1.00  0.00     0.146 A 
ATOM     11  O   UNL     1      17.690  -9.136  28.681  1.00  0.00    -0.452 OA
ENDROOT
BRANCH   1  12
ATOM     12  C   UNL     1      15.345  -9.373  28.172  1.00  0.00     0.029 A 
ATOM     13  C   UNL     1      14.741  -8.122  27.971  1.00  0.00     0.062 A 
ATOM     14  C   UNL     1      13.387  -7.928  28.276  1.00  0.00     0.162 A 
ATOM     15  C   UNL     1      14.566 -10.440  28.650  1.00  0.00     0.062 A 
ATOM     16  C   UNL     1      12.621  -8.989  28.773  1.00  0.00     0.200 A 
ATOM     17  C   UNL     1      13.211 -10.251  28.956  1.00  0.00     0.162 A 
BRANCH  14  18
ATOM     18  O   UNL     1      12.796  -6.680  28.087  1.00  0.00    -0.504 OA
ATOM     19  H   UNL     1      12.701  -6.016  28.848  1.00  0.00     0.293 HD
ENDBRANCH  14  18
BRANCH  16  20
ATOM     20  O   UNL     1      11.276  -8.776  29.074  1.00  0.00    -0.502 OA
ATOM     21  H   UNL     1      10.562  -9.465  28.872  1.00  0.00     0.293 HD
ENDBRANCH  16  20
BRANCH  17  22
ATOM     22  O   UNL     1      12.448 -11.314  29.438  1.00  0.00    -0.504 OA
ATOM     23  H   UNL     1      11.510 -11.176  29.794  1.00  0.00     0.293 HD
ENDBRANCH  17  22
ENDBRANCH   1  12
BRANCH   2  24
ATOM     24  O   UNL     1      16.217 -10.715  25.756  1.00  0.00    -0.502 OA
ATOM     25  H   UNL     1      15.824 -11.640  25.876  1.00  0.00     0.293 HD
ENDBRANCH   2  24
BRANCH   6  26
ATOM     26  O   UNL     1      21.519 -10.223  25.866  1.00  0.00    -0.507 OA
ATOM     27  H   UNL     1      21.741 -11.180  25.637  1.00  0.00     0.293 HD
ENDBRANCH   6  26
BRANCH   8  28
ATOM     28  O   UNL     1      22.105  -8.420  30.278  1.00  0.00    -0.508 OA
ATOM     29  H   UNL     1      22.463  -7.472  30.292  1.00  0.00     0.293 HD
ENDBRANCH   8  28
TORSDOF 7
ENDMDL
MODEL 6
REMARK VINA RESULT:    -6.382      3.194      5.728
REMARK INTER + INTRA:          -8.229
REMARK INTER:                  -7.885
REMARK INTRA:                  -0.344
REMARK UNBOUND:                -0.354
REMARK SMILES O=c1c(O)c(-c2cc(O)c(O)c(O)c2)oc2cc(O)cc(O)c12
REMARK SMILES IDX 5 1 3 2 2 3 1 4 23 5 21 6 20 7 18 8 17 9 16 10 15 11 6 12
REMARK SMILES IDX 7 13 8 14 14 15 10 16 12 17 9 18 11 20 13 22 4 24 22 26
REMARK SMILES IDX 19 28
REMARK H PARENT 9 19 11 21 13 23 4 25 22 27 19 29
REMARK Flexibility Score: inf
ROOT
ATOM      1  C   UNL     1      16.825  -9.447  27.949  1.00  0.00     0.180 A 
ATOM      2  C   UNL     1      16.834 -10.385  26.903  1.00  0.00     0.208 A 
ATOM      3  C   UNL     1      18.061 -10.754  26.328  1.00  0.00     0.238 A 
ATOM      4  O   UNL     1      18.067 -11.634  25.429  1.00  0.00    -0.285 OA
ATOM      5  C   UNL     1      19.262 -10.167  26.794  1.00  0.00     0.111 A 
ATOM      6  C   UNL     1      20.557 -10.435  26.258  1.00  0.00     0.134 A 
ATOM      7  C   UNL     1      21.689  -9.897  26.883  1.00  0.00     0.093 A 
ATOM      8  C   UNL     1      21.567  -9.047  27.985  1.00  0.00     0.123 A 
ATOM      9  C   UNL     1      20.304  -8.732  28.480  1.00  0.00     0.094 A 
ATOM     10  C   UNL     1      19.158  -9.282  27.899  1.00  0.00     0.146 A 
ATOM     11  O   UNL     1      17.974  -8.964  28.408  1.00  0.00    -0.452 OA
ENDROOT
BRANCH   1  12
ATOM     12  C   UNL     1      15.570  -8.990  28.588  1.00  0.00     0.029 A 
ATOM     13  C   UNL     1      15.210  -9.501  29.845  1.00  0.00     0.062 A 
ATOM     14  C   UNL     1      14.037  -9.069  30.480  1.00  0.00     0.162 A 
ATOM     15  C   UNL     1      14.757  -8.014  27.988  1.00  0.00     0.062 A 
ATOM     16  C   UNL     1      13.221  -8.110  29.867  1.00  0.00     0.200 A 
ATOM     17  C   UNL     1      13.584  -7.578  28.619  1.00  0.00     0.162 A 
BRANCH  14  18
ATOM     18  O   UNL     1      13.678  -9.589  31.722  1.00  0.00    -0.504 OA
ATOM     19  H   UNL     1      12.982  -9.139  32.305  1.00  0.00     0.293 HD
ENDBRANCH  14  18
BRANCH  16  20
ATOM     20  O   UNL     1      12.056  -7.695  30.513  1.00  0.00    -0.502 OA
ATOM     21  H   UNL     1      11.602  -8.259  31.220  1.00  0.00     0.293 HD
ENDBRANCH  16  20
BRANCH  17  22
ATOM     22  O   UNL     1      12.780  -6.613  28.012  1.00  0.00    -0.504 OA
ATOM     23  H   UNL     1      12.063  -6.864  27.343  1.00  0.00     0.293 HD
ENDBRANCH  17  22
ENDBRANCH   1  12
BRANCH   2  24
ATOM     24  O   UNL     1      15.639 -10.969  26.472  1.00  0.00    -0.502 OA
ATOM     25  H   UNL     1      15.363 -11.905  26.740  1.00  0.00     0.293 HD
ENDBRANCH   2  24
BRANCH   6  26
ATOM     26  O   UNL     1      20.782 -11.196  25.106  1.00  0.00    -0.507 OA
ATOM     27  H   UNL     1      20.484 -10.935  24.178  1.00  0.00     0.293 HD
ENDBRANCH   6  26
BRANCH   8  28
ATOM     28  O   UNL     1      22.697  -8.504  28.592  1.00  0.00    -0.508 OA
ATOM     29  H   UNL     1      23.090  -7.621  28.286  1.00  0.00     0.293 HD
ENDBRANCH   8  28
TORSDOF 7
ENDMDL
MODEL 7
REMARK VINA RESULT:    -6.344      1.456      6.899
REMARK INTER + INTRA:          -8.182
REMARK INTER:                  -8.508
REMARK INTRA:                   0.326
REMARK UNBOUND:                -0.354
REMARK SMILES O=c1c(O)c(-c2cc(O)c(O)c(O)c2)oc2cc(O)cc(O)c12
REMARK SMILES IDX 5 1 3 2 2 3 1 4 23 5 21 6 20 7 18 8 17 9 16 10 15 11 6 12
REMARK SMILES IDX 7 13 8 14 14 15 10 16 12 17 9 18 11 20 13 22 4 24 22 26
REMARK SMILES IDX 19 28
REMARK H PARENT 9 19 11 21 13 23 4 25 22 27 19 29
REMARK Flexibility Score: inf
ROOT
ATOM      1  C   UNL     1      22.743 -10.011  25.819  1.00  0.00     0.180 A 
ATOM      2  C   UNL     1      21.595 -10.565  25.230  1.00  0.00     0.208 A 
ATOM      3  C   UNL     1      20.401 -10.605  25.970  1.00  0.00     0.238 A 
ATOM      4  O   UNL     1      19.363 -11.054  25.417  1.00  0.00    -0.285 OA
ATOM      5  C   UNL     1      20.376 -10.108  27.295  1.00  0.00     0.111 A 
ATOM      6  C   UNL     1      19.234 -10.136  28.149  1.00  0.00     0.134 A 
ATOM      7  C   UNL     1      19.287  -9.496  29.394  1.00  0.00     0.093 A 
ATOM      8  C   UNL     1      20.462  -8.888  29.842  1.00  0.00     0.123 A 
ATOM      9  C   UNL     1      21.600  -8.906  29.039  1.00  0.00     0.094 A 
ATOM     10  C   UNL     1      21.567  -9.505  27.777  1.00  0.00     0.146 A 
ATOM     11  O   UNL     1      22.671  -9.492  27.039  1.00  0.00    -0.452 OA
ENDROOT
BRANCH   1  12
ATOM     12  C   UNL     1      24.043  -9.955  25.112  1.00  0.00     0.029 A 
ATOM     13  C   UNL     1      25.046  -9.091  25.577  1.00  0.00     0.062 A 
ATOM     14  C   UNL     1      26.292  -9.035  24.938  1.00  0.00     0.162 A 
ATOM     15  C   UNL     1      24.315 -10.792  24.016  1.00  0.00     0.062 A 
ATOM     16  C   UNL     1      26.550  -9.857  23.833  1.00  0.00     0.200 A 
ATOM     17  C   UNL     1      25.560 -10.741  23.374  1.00  0.00     0.162 A 
BRANCH  14  18
ATOM     18  O   UNL     1      27.279  -8.165  25.396  1.00  0.00    -0.504 OA
ATOM     19  H   UNL     1      27.374  -7.940  26.380  1.00  0.00     0.293 HD
ENDBRANCH  14  18
BRANCH  16  20
ATOM     20  O   UNL     1      27.795  -9.786  23.208  1.00  0.00    -0.502 OA
ATOM     21  H   UNL     1      28.458 -10.550  23.238  1.00  0.00     0.293 HD
ENDBRANCH  16  20
BRANCH  17  22
ATOM     22  O   UNL     1      25.818 -11.570  22.283  1.00  0.00    -0.504 OA
ATOM     23  H   UNL     1      25.409 -11.394  21.373  1.00  0.00     0.293 HD
ENDBRANCH  17  22
ENDBRANCH   1  12
BRANCH   2  24
ATOM     24  O   UNL     1      21.635 -11.032  23.913  1.00  0.00    -0.502 OA
ATOM     25  H   UNL     1      20.833 -11.450  23.459  1.00  0.00     0.293 HD
ENDBRANCH   2  24
BRANCH   6  26
ATOM     26  O   UNL     1      18.041 -10.796  27.837  1.00  0.00    -0.507 OA
ATOM     27  H   UNL     1      17.439 -10.558  27.063  1.00  0.00     0.293 HD
ENDBRANCH   6  26
BRANCH   8  28
ATOM     28  O   UNL     1      20.511  -8.267  31.088  1.00  0.00    -0.508 OA
ATOM     29  H   UNL     1      20.686  -7.273  31.178  1.00  0.00     0.293 HD
ENDBRANCH   8  28
TORSDOF 7
ENDMDL
MODEL 8
REMARK VINA RESULT:    -6.256      2.317      7.540
REMARK INTER + INTRA:          -8.073
REMARK INTER:                  -7.725
REMARK INTRA:                  -0.348
REMARK UNBOUND:                -0.354
REMARK SMILES O=c1c(O)c(-c2cc(O)c(O)c(O)c2)oc2cc(O)cc(O)c12
REMARK SMILES IDX 5 1 3 2 2 3 1 4 23 5 21 6 20 7 18 8 17 9 16 10 15 11 6 12
REMARK SMILES IDX 7 13 8 14 14 15 10 16 12 17 9 18 11 20 13 22 4 24 22 26
REMARK SMILES IDX 19 28
REMARK H PARENT 9 19 11 21 13 23 4 25 22 27 19 29
REMARK Flexibility Score: inf
ROOT
ATOM      1  C   UNL     1      20.887  -8.661  27.515  1.00  0.00     0.180 A 
ATOM      2  C   UNL     1      20.732  -8.835  28.901  1.00  0.00     0.208 A 
ATOM      3  C   UNL     1      19.464  -9.166  29.409  1.00  0.00     0.238 A 
ATOM      4  O   UNL     1      19.344  -9.373  30.645  1.00  0.00    -0.285 OA
ATOM      5  C   UNL     1      18.366  -9.304  28.527  1.00  0.00     0.111 A 
ATOM      6  C   UNL     1      17.031  -9.596  28.936  1.00  0.00     0.134 A 
ATOM      7  C   UNL     1      16.049  -9.839  27.967  1.00  0.00     0.093 A 
ATOM      8  C   UNL     1      16.341  -9.734  26.605  1.00  0.00     0.123 A 
ATOM      9  C   UNL     1      17.627  -9.390  26.197  1.00  0.00     0.094 A 
ATOM     10  C   UNL     1      18.636  -9.178  27.140  1.00  0.00     0.146 A 
ATOM     11  O   UNL     1      19.851  -8.862  26.708  1.00  0.00    -0.452 OA
ENDROOT
BRANCH   1  12
ATOM     12  C   UNL     1      22.184  -8.287  26.908  1.00  0.00     0.029 A 
ATOM     13  C   UNL     1      22.479  -6.932  26.690  1.00  0.00     0.062 A 
ATOM     14  C   UNL     1      23.709  -6.552  26.136  1.00  0.00     0.162 A 
ATOM     15  C   UNL     1      23.152  -9.257  26.598  1.00  0.00     0.062 A 
ATOM     16  C   UNL     1      24.662  -7.524  25.809  1.00  0.00     0.200 A 
ATOM     17  C   UNL     1      24.384  -8.881  26.044  1.00  0.00     0.162 A 
BRANCH  14  18
ATOM     18  O   UNL     1      23.991  -5.206  25.909  1.00  0.00    -0.504 OA
ATOM     19  H   UNL     1      23.440  -4.468  26.334  1.00  0.00     0.293 HD
ENDBRANCH  14  18
BRANCH  16  20
ATOM     20  O   UNL     1      25.879  -7.126  25.256  1.00  0.00    -0.502 OA
ATOM     21  H   UNL     1      25.994  -6.235  24.790  1.00  0.00     0.293 HD
ENDBRANCH  16  20
BRANCH  17  22
ATOM     22  O   UNL     1      25.336  -9.851  25.733  1.00  0.00    -0.504 OA
ATOM     23  H   UNL     1      26.303  -9.608  25.552  1.00  0.00     0.293 HD
ENDBRANCH  17  22
ENDBRANCH   1  12
BRANCH   2  24
ATOM     24  O   UNL     1      21.834  -8.715  29.753  1.00  0.00    -0.502 OA
ATOM     25  H   UNL     1      22.521  -7.980  29.653  1.00  0.00     0.293 HD
ENDBRANCH   2  24
BRANCH   6  26
ATOM     26  O   UNL     1      16.613  -9.635  30.270  1.00  0.00    -0.507 OA
ATOM     27  H   UNL     1      16.316 -10.468  30.755  1.00  0.00     0.293 HD
ENDBRANCH   6  26
BRANCH   8  28
ATOM     28  O   UNL     1      15.355  -9.962  25.647  1.00  0.00    -0.508 OA
ATOM     29  H   UNL     1      14.540  -9.364  25.573  1.00  0.00     0.293 HD
ENDBRANCH   8  28
TORSDOF 7
ENDMDL
