MODEL 1
REMARK VINA RESULT:    -5.394      0.000      0.000
REMARK INTER + INTRA:          -6.844
REMARK INTER:                  -6.498
REMARK INTRA:                  -0.346
REMARK UNBOUND:                -0.346
REMARK SMILES Oc1cc(O)c2c(c1)O[C@@H](c1ccc(O)c(O)c1)[C@H](O)C2
REMARK SMILES IDX 21 1 19 2 10 3 9 4 7 5 8 6 2 7 3 8 4 9 6 10 20 11 11 13
REMARK SMILES IDX 18 14 12 15 16 16 13 17 14 18 17 19 15 21 5 23 1 25
REMARK H PARENT 20 12 17 20 15 22 5 24 1 26
REMARK Flexibility Score: inf
ROOT
ATOM      1  C   UNL     1     -17.671 -10.282 -30.271  1.00  0.00     0.079 C 
ATOM      2  C   UNL     1     -16.766  -9.270 -31.000  1.00  0.00     0.164 C 
ATOM      3  C   UNL     1     -15.348  -9.291 -30.396  1.00  0.00     0.232 C 
ATOM      4  O   UNL     1     -14.820 -10.615 -30.455  1.00  0.00    -0.482 OA
ATOM      5  C   UNL     1     -15.609 -11.747 -30.224  1.00  0.00     0.131 A 
ATOM      6  C   UNL     1     -14.987 -12.994 -30.112  1.00  0.00     0.093 A 
ATOM      7  C   UNL     1     -15.748 -14.141 -29.866  1.00  0.00     0.122 A 
ATOM      8  C   UNL     1     -17.134 -14.038 -29.721  1.00  0.00     0.092 A 
ATOM      9  C   UNL     1     -17.773 -12.798 -29.830  1.00  0.00     0.126 A 
ATOM     10  C   UNL     1     -17.014 -11.639 -30.122  1.00  0.00     0.039 A 
ENDROOT
BRANCH   2  11
ATOM     11  O   UNL     1     -17.327  -7.982 -30.951  1.00  0.00    -0.389 OA
ATOM     12  H   UNL     1     -18.190  -8.046 -30.463  1.00  0.00     0.211 HD
ENDBRANCH   2  11
BRANCH   3  13
ATOM     13  C   UNL     1     -14.429  -8.342 -31.130  1.00  0.00    -0.001 A 
ATOM     14  C   UNL     1     -14.290  -8.428 -32.525  1.00  0.00     0.057 A 
ATOM     15  C   UNL     1     -13.666  -7.398 -30.422  1.00  0.00     0.012 A 
ATOM     16  C   UNL     1     -13.417  -7.569 -33.207  1.00  0.00     0.157 A 
ATOM     17  C   UNL     1     -12.796  -6.541 -31.101  1.00  0.00     0.050 A 
ATOM     18  C   UNL     1     -12.670  -6.622 -32.494  1.00  0.00     0.157 A 
BRANCH  16  19
ATOM     19  O   UNL     1     -13.285  -7.652 -34.593  1.00  0.00    -0.504 OA
ATOM     20  H   UNL     1     -12.596  -7.104 -35.093  1.00  0.00     0.293 HD
ENDBRANCH  16  19
BRANCH  18  21
ATOM     21  O   UNL     1     -11.804  -5.770 -33.176  1.00  0.00    -0.504 OA
ATOM     22  H   UNL     1     -11.462  -4.914 -32.755  1.00  0.00     0.293 HD
ENDBRANCH  18  21
ENDBRANCH   3  13
BRANCH   9  23
ATOM     23  O   UNL     1     -19.155 -12.753 -29.632  1.00  0.00    -0.507 OA
ATOM     24  H   UNL     1     -19.820 -13.202 -30.247  1.00  0.00     0.293 HD
ENDBRANCH   9  23
BRANCH   7  25
ATOM     25  O   UNL     1     -15.136 -15.389 -29.754  1.00  0.00    -0.508 OA
ATOM     26  H   UNL     1     -14.170 -15.530 -30.025  1.00  0.00     0.293 HD
ENDBRANCH   7  25
TORSDOF 6
ENDMDL
MODEL 2
REMARK VINA RESULT:    -5.014      2.285      7.011
REMARK INTER + INTRA:          -6.386
REMARK INTER:                  -6.094
REMARK INTRA:                  -0.292
REMARK UNBOUND:                -0.346
REMARK SMILES Oc1cc(O)c2c(c1)O[C@@H](c1ccc(O)c(O)c1)[C@H](O)C2
REMARK SMILES IDX 21 1 19 2 10 3 9 4 7 5 8 6 2 7 3 8 4 9 6 10 20 11 11 13
REMARK SMILES IDX 18 14 12 15 16 16 13 17 14 18 17 19 15 21 5 23 1 25
REMARK H PARENT 20 12 17 20 15 22 5 24 1 26
REMARK Flexibility Score: inf
ROOT
ATOM      1  C   UNL     1     -19.364  -8.025 -31.085  1.00  0.00     0.079 C 
ATOM      2  C   UNL     1     -19.085  -9.327 -30.310  1.00  0.00     0.164 C 
ATOM      3  C   UNL     1     -18.093 -10.210 -31.092  1.00  0.00     0.232 C 
ATOM      4  O   UNL     1     -16.897  -9.478 -31.350  1.00  0.00    -0.482 OA
ATOM      5  C   UNL     1     -16.907  -8.118 -31.678  1.00  0.00     0.131 A 
ATOM      6  C   UNL     1     -15.720  -7.515 -32.101  1.00  0.00     0.093 A 
ATOM      7  C   UNL     1     -15.702  -6.161 -32.451  1.00  0.00     0.122 A 
ATOM      8  C   UNL     1     -16.880  -5.411 -32.386  1.00  0.00     0.092 A 
ATOM      9  C   UNL     1     -18.078  -5.999 -31.965  1.00  0.00     0.126 A 
ATOM     10  C   UNL     1     -18.093  -7.358 -31.569  1.00  0.00     0.039 A 
ENDROOT
BRANCH   2  11
ATOM     11  O   UNL     1     -20.284 -10.011 -30.044  1.00  0.00    -0.389 OA
ATOM     12  H   UNL     1     -20.436  -9.983 -29.062  1.00  0.00     0.211 HD
ENDBRANCH   2  11
BRANCH   3  13
ATOM     13  C   UNL     1     -17.764 -11.471 -30.326  1.00  0.00    -0.001 A 
ATOM     14  C   UNL     1     -18.420 -12.676 -30.631  1.00  0.00     0.057 A 
ATOM     15  C   UNL     1     -16.839 -11.442 -29.270  1.00  0.00     0.012 A 
ATOM     16  C   UNL     1     -18.139 -13.841 -29.904  1.00  0.00     0.157 A 
ATOM     17  C   UNL     1     -16.559 -12.604 -28.545  1.00  0.00     0.050 A 
ATOM     18  C   UNL     1     -17.205 -13.806 -28.861  1.00  0.00     0.157 A 
BRANCH  16  19
ATOM     19  O   UNL     1     -18.786 -15.038 -30.212  1.00  0.00    -0.504 OA
ATOM     20  H   UNL     1     -18.345 -15.746 -30.786  1.00  0.00     0.293 HD
ENDBRANCH  16  19
BRANCH  18  21
ATOM     21  O   UNL     1     -16.928 -14.967 -28.142  1.00  0.00    -0.504 OA
ATOM     22  H   UNL     1     -17.275 -15.871 -28.442  1.00  0.00     0.293 HD
ENDBRANCH  18  21
ENDBRANCH   3  13
BRANCH   9  23
ATOM     23  O   UNL     1     -19.230  -5.210 -31.964  1.00  0.00    -0.507 OA
ATOM     24  H   UNL     1     -19.672  -4.873 -31.119  1.00  0.00     0.293 HD
ENDBRANCH   9  23
BRANCH   7  25
ATOM     25  O   UNL     1     -14.522  -5.550 -32.872  1.00  0.00    -0.508 OA
ATOM     26  H   UNL     1     -14.518  -4.611 -33.250  1.00  0.00     0.293 HD
ENDBRANCH   7  25
TORSDOF 6
ENDMDL
MODEL 3
REMARK VINA RESULT:    -4.985      2.811      7.117
REMARK INTER + INTRA:          -6.352
REMARK INTER:                  -6.263
REMARK INTRA:                  -0.088
REMARK UNBOUND:                -0.346
REMARK SMILES Oc1cc(O)c2c(c1)O[C@@H](c1ccc(O)c(O)c1)[C@H](O)C2
REMARK SMILES IDX 21 1 19 2 10 3 9 4 7 5 8 6 2 7 3 8 4 9 6 10 20 11 11 13
REMARK SMILES IDX 18 14 12 15 16 16 13 17 14 18 17 19 15 21 5 23 1 25
REMARK H PARENT 20 12 17 20 15 22 5 24 1 26
REMARK Flexibility Score: inf
ROOT
ATOM      1  C   UNL     1     -14.794  -6.647 -32.742  1.00  0.00     0.079 C 
ATOM      2  C   UNL     1     -14.868  -8.136 -32.350  1.00  0.00     0.164 C 
ATOM      3  C   UNL     1     -15.388  -8.282 -30.906  1.00  0.00     0.232 C 
ATOM      4  O   UNL     1     -16.654  -7.637 -30.784  1.00  0.00    -0.482 OA
ATOM      5  C   UNL     1     -16.945  -6.429 -31.428  1.00  0.00     0.131 A 
ATOM      6  C   UNL     1     -18.132  -5.762 -31.113  1.00  0.00     0.093 A 
ATOM      7  C   UNL     1     -18.442  -4.546 -31.729  1.00  0.00     0.122 A 
ATOM      8  C   UNL     1     -17.557  -3.991 -32.657  1.00  0.00     0.092 A 
ATOM      9  C   UNL     1     -16.364  -4.644 -32.984  1.00  0.00     0.126 A 
ATOM     10  C   UNL     1     -16.064  -5.897 -32.396  1.00  0.00     0.039 A 
ENDROOT
BRANCH   2  11
ATOM     11  O   UNL     1     -13.614  -8.752 -32.510  1.00  0.00    -0.389 OA
ATOM     12  H   UNL     1     -13.238  -8.910 -31.604  1.00  0.00     0.211 HD
ENDBRANCH   2  11
BRANCH   3  13
ATOM     13  C   UNL     1     -15.517  -9.737 -30.518  1.00  0.00    -0.001 A 
ATOM     14  C   UNL     1     -16.780 -10.352 -30.489  1.00  0.00     0.057 A 
ATOM     15  C   UNL     1     -14.386 -10.475 -30.133  1.00  0.00     0.012 A 
ATOM     16  C   UNL     1     -16.909 -11.693 -30.101  1.00  0.00     0.157 A 
ATOM     17  C   UNL     1     -14.514 -11.812 -29.748  1.00  0.00     0.050 A 
ATOM     18  C   UNL     1     -15.773 -12.425 -29.733  1.00  0.00     0.157 A 
BRANCH  16  19
ATOM     19  O   UNL     1     -18.162 -12.304 -30.079  1.00  0.00    -0.504 OA
ATOM     20  H   UNL     1     -18.680 -12.481 -30.931  1.00  0.00     0.293 HD
ENDBRANCH  16  19
BRANCH  18  21
ATOM     21  O   UNL     1     -15.906 -13.759 -29.349  1.00  0.00    -0.504 OA
ATOM     22  H   UNL     1     -16.218 -14.469 -30.002  1.00  0.00     0.293 HD
ENDBRANCH  18  21
ENDBRANCH   3  13
BRANCH   9  23
ATOM     23  O   UNL     1     -15.499  -4.018 -33.884  1.00  0.00    -0.507 OA
ATOM     24  H   UNL     1     -15.313  -3.024 -33.877  1.00  0.00     0.293 HD
ENDBRANCH   9  23
BRANCH   7  25
ATOM     25  O   UNL     1     -19.625  -3.875 -31.422  1.00  0.00    -0.508 OA
ATOM     26  H   UNL     1     -20.530  -4.267 -31.654  1.00  0.00     0.293 HD
ENDBRANCH   7  25
TORSDOF 6
ENDMDL
MODEL 4
REMARK VINA RESULT:    -4.948      2.897      6.644
REMARK INTER + INTRA:          -6.307
REMARK INTER:                  -5.959
REMARK INTRA:                  -0.347
REMARK UNBOUND:                -0.346
REMARK SMILES Oc1cc(O)c2c(c1)O[C@@H](c1ccc(O)c(O)c1)[C@H](O)C2
REMARK SMILES IDX 21 1 19 2 10 3 9 4 7 5 8 6 2 7 3 8 4 9 6 10 20 11 11 13
REMARK SMILES IDX 18 14 12 15 16 16 13 17 14 18 17 19 15 21 5 23 1 25
REMARK H PARENT 20 12 17 20 15 22 5 24 1 26
REMARK Flexibility Score: inf
ROOT
ATOM      1  C   UNL     1     -13.829  -5.884 -32.528  1.00  0.00     0.079 C 
ATOM      2  C   UNL     1     -13.315  -7.222 -31.963  1.00  0.00     0.164 C 
ATOM      3  C   UNL     1     -13.867  -7.448 -30.541  1.00  0.00     0.232 C 
ATOM      4  O   UNL     1     -15.293  -7.394 -30.565  1.00  0.00    -0.482 OA
ATOM      5  C   UNL     1     -15.994  -6.486 -31.366  1.00  0.00     0.131 A 
ATOM      6  C   UNL     1     -17.376  -6.361 -31.197  1.00  0.00     0.093 A 
ATOM      7  C   UNL     1     -18.101  -5.451 -31.972  1.00  0.00     0.122 A 
ATOM      8  C   UNL     1     -17.440  -4.656 -32.912  1.00  0.00     0.092 A 
ATOM      9  C   UNL     1     -16.058  -4.767 -33.095  1.00  0.00     0.126 A 
ATOM     10  C   UNL     1     -15.323  -5.717 -32.344  1.00  0.00     0.039 A 
ENDROOT
BRANCH   2  11
ATOM     11  O   UNL     1     -11.910  -7.259 -31.981  1.00  0.00    -0.389 OA
ATOM     12  H   UNL     1     -11.596  -6.516 -32.560  1.00  0.00     0.211 HD
ENDBRANCH   2  11
BRANCH   3  13
ATOM     13  C   UNL     1     -13.417  -8.779 -29.986  1.00  0.00    -0.001 A 
ATOM     14  C   UNL     1     -14.023  -9.969 -30.423  1.00  0.00     0.057 A 
ATOM     15  C   UNL     1     -12.425  -8.840 -28.994  1.00  0.00     0.012 A 
ATOM     16  C   UNL     1     -13.629 -11.205 -29.890  1.00  0.00     0.157 A 
ATOM     17  C   UNL     1     -12.032 -10.071 -28.462  1.00  0.00     0.050 A 
ATOM     18  C   UNL     1     -12.630 -11.256 -28.910  1.00  0.00     0.157 A 
BRANCH  16  19
ATOM     19  O   UNL     1     -14.228 -12.385 -30.328  1.00  0.00    -0.504 OA
ATOM     20  H   UNL     1     -15.230 -12.456 -30.456  1.00  0.00     0.293 HD
ENDBRANCH  16  19
BRANCH  18  21
ATOM     21  O   UNL     1     -12.241 -12.486 -28.384  1.00  0.00    -0.504 OA
ATOM     22  H   UNL     1     -11.289 -12.654 -28.075  1.00  0.00     0.293 HD
ENDBRANCH  18  21
ENDBRANCH   3  13
BRANCH   9  23
ATOM     23  O   UNL     1     -15.447  -3.915 -34.017  1.00  0.00    -0.507 OA
ATOM     24  H   UNL     1     -15.948  -3.204 -34.534  1.00  0.00     0.293 HD
ENDBRANCH   9  23
BRANCH   7  25
ATOM     25  O   UNL     1     -19.480  -5.322 -31.812  1.00  0.00    -0.508 OA
ATOM     26  H   UNL     1     -19.875  -4.722 -31.097  1.00  0.00     0.293 HD
ENDBRANCH   7  25
TORSDOF 6
ENDMDL
MODEL 5
REMARK VINA RESULT:    -4.937      4.653      9.518
REMARK INTER + INTRA:          -6.293
REMARK INTER:                  -6.322
REMARK INTRA:                   0.029
REMARK UNBOUND:                -0.346
REMARK SMILES Oc1cc(O)c2c(c1)O[C@@H](c1ccc(O)c(O)c1)[C@H](O)C2
REMARK SMILES IDX 21 1 19 2 10 3 9 4 7 5 8 6 2 7 3 8 4 9 6 10 20 11 11 13
REMARK SMILES IDX 18 14 12 15 16 16 13 17 14 18 17 19 15 21 5 23 1 25
REMARK H PARENT 20 12 17 20 15 22 5 24 1 26
REMARK Flexibility Score: inf
ROOT
ATOM      1  C   UNL     1      -7.761  -6.334 -29.751  1.00  0.00     0.079 C 
ATOM      2  C   UNL     1      -9.139  -6.931 -30.094  1.00  0.00     0.164 C 
ATOM      3  C   UNL     1      -9.986  -5.904 -30.873  1.00  0.00     0.232 C 
ATOM      4  O   UNL     1      -9.281  -5.487 -32.040  1.00  0.00    -0.482 OA
ATOM      5  C   UNL     1      -7.897  -5.280 -32.046  1.00  0.00     0.131 A 
ATOM      6  C   UNL     1      -7.305  -4.692 -33.167  1.00  0.00     0.093 A 
ATOM      7  C   UNL     1      -5.926  -4.460 -33.196  1.00  0.00     0.122 A 
ATOM      8  C   UNL     1      -5.140  -4.808 -32.095  1.00  0.00     0.092 A 
ATOM      9  C   UNL     1      -5.715  -5.398 -30.964  1.00  0.00     0.126 A 
ATOM     10  C   UNL     1      -7.104  -5.675 -30.946  1.00  0.00     0.039 A 
ENDROOT
BRANCH   2  11
ATOM     11  O   UNL     1      -9.796  -7.361 -28.928  1.00  0.00    -0.389 OA
ATOM     12  H   UNL     1     -10.722  -7.618 -29.181  1.00  0.00     0.211 HD
ENDBRANCH   2  11
BRANCH   3  13
ATOM     13  C   UNL     1     -11.324  -6.487 -31.266  1.00  0.00    -0.001 A 
ATOM     14  C   UNL     1     -11.617  -6.737 -32.617  1.00  0.00     0.057 A 
ATOM     15  C   UNL     1     -12.306  -6.737 -30.293  1.00  0.00     0.012 A 
ATOM     16  C   UNL     1     -12.868  -7.250 -32.989  1.00  0.00     0.157 A 
ATOM     17  C   UNL     1     -13.552  -7.249 -30.664  1.00  0.00     0.050 A 
ATOM     18  C   UNL     1     -13.836  -7.509 -32.011  1.00  0.00     0.157 A 
BRANCH  16  19
ATOM     19  O   UNL     1     -13.155  -7.504 -34.330  1.00  0.00    -0.504 OA
ATOM     20  H   UNL     1     -12.454  -7.392 -35.053  1.00  0.00     0.293 HD
ENDBRANCH  16  19
BRANCH  18  21
ATOM     21  O   UNL     1     -15.077  -8.021 -32.386  1.00  0.00    -0.504 OA
ATOM     22  H   UNL     1     -15.414  -7.947 -33.339  1.00  0.00     0.293 HD
ENDBRANCH  18  21
ENDBRANCH   3  13
BRANCH   9  23
ATOM     23  O   UNL     1      -4.885  -5.682 -29.878  1.00  0.00    -0.507 OA
ATOM     24  H   UNL     1      -5.215  -6.109 -29.023  1.00  0.00     0.293 HD
ENDBRANCH   9  23
BRANCH   7  25
ATOM     25  O   UNL     1      -5.328  -3.875 -34.311  1.00  0.00    -0.508 OA
ATOM     26  H   UNL     1      -4.323  -3.881 -34.435  1.00  0.00     0.293 HD
ENDBRANCH   7  25
TORSDOF 6
ENDMDL
MODEL 6
REMARK VINA RESULT:    -4.929      5.002      7.735
REMARK INTER + INTRA:          -6.284
REMARK INTER:                  -6.228
REMARK INTRA:                  -0.056
REMARK UNBOUND:                -0.346
REMARK SMILES Oc1cc(O)c2c(c1)O[C@@H](c1ccc(O)c(O)c1)[C@H](O)C2
REMARK SMILES IDX 21 1 19 2 10 3 9 4 7 5 8 6 2 7 3 8 4 9 6 10 20 11 11 13
REMARK SMILES IDX 18 14 12 15 16 16 13 17 14 18 17 19 15 21 5 23 1 25
REMARK H PARENT 20 12 17 20 15 22 5 24 1 26
REMARK Flexibility Score: inf
ROOT
ATOM      1  C   UNL     1     -11.766  -7.335 -29.817  1.00  0.00     0.079 C 
ATOM      2  C   UNL     1     -10.307  -6.845 -29.741  1.00  0.00     0.164 C 
ATOM      3  C   UNL     1      -9.784  -6.511 -31.152  1.00  0.00     0.232 C 
ATOM      4  O   UNL     1     -10.637  -5.547 -31.765  1.00  0.00    -0.482 OA
ATOM      5  C   UNL     1     -12.027  -5.571 -31.610  1.00  0.00     0.131 A 
ATOM      6  C   UNL     1     -12.811  -4.715 -32.388  1.00  0.00     0.093 A 
ATOM      7  C   UNL     1     -14.204  -4.727 -32.266  1.00  0.00     0.122 A 
ATOM      8  C   UNL     1     -14.815  -5.606 -31.368  1.00  0.00     0.092 A 
ATOM      9  C   UNL     1     -14.047  -6.471 -30.581  1.00  0.00     0.126 A 
ATOM     10  C   UNL     1     -12.634  -6.433 -30.669  1.00  0.00     0.039 A 
ENDROOT
BRANCH   2  11
ATOM     11  O   UNL     1      -9.496  -7.802 -29.105  1.00  0.00    -0.389 OA
ATOM     12  H   UNL     1      -8.556  -7.485 -29.159  1.00  0.00     0.211 HD
ENDBRANCH   2  11
BRANCH   3  13
ATOM     13  C   UNL     1      -8.370  -5.979 -31.097  1.00  0.00    -0.001 A 
ATOM     14  C   UNL     1      -7.515  -6.128 -32.202  1.00  0.00     0.057 A 
ATOM     15  C   UNL     1      -7.880  -5.375 -29.927  1.00  0.00     0.012 A 
ATOM     16  C   UNL     1      -6.194  -5.662 -32.145  1.00  0.00     0.157 A 
ATOM     17  C   UNL     1      -6.564  -4.909 -29.871  1.00  0.00     0.050 A 
ATOM     18  C   UNL     1      -5.718  -5.049 -30.979  1.00  0.00     0.157 A 
BRANCH  16  19
ATOM     19  O   UNL     1      -5.347  -5.806 -33.245  1.00  0.00    -0.504 OA
ATOM     20  H   UNL     1      -5.094  -6.718 -33.603  1.00  0.00     0.293 HD
ENDBRANCH  16  19
BRANCH  18  21
ATOM     21  O   UNL     1      -4.405  -4.586 -30.928  1.00  0.00    -0.504 OA
ATOM     22  H   UNL     1      -3.918  -4.469 -30.047  1.00  0.00     0.293 HD
ENDBRANCH  18  21
ENDBRANCH   3  13
BRANCH   9  23
ATOM     23  O   UNL     1     -14.716  -7.357 -29.735  1.00  0.00    -0.507 OA
ATOM     24  H   UNL     1     -14.522  -8.349 -29.703  1.00  0.00     0.293 HD
ENDBRANCH   9  23
BRANCH   7  25
ATOM     25  O   UNL     1     -14.993  -3.875 -33.038  1.00  0.00    -0.508 OA
ATOM     26  H   UNL     1     -15.997  -3.829 -32.915  1.00  0.00     0.293 HD
ENDBRANCH   7  25
TORSDOF 6
ENDMDL
MODEL 7
REMARK VINA RESULT:    -4.702      3.468      5.642
REMARK INTER + INTRA:          -6.010
REMARK INTER:                  -5.689
REMARK INTRA:                  -0.321
REMARK UNBOUND:                -0.346
REMARK SMILES Oc1cc(O)c2c(c1)O[C@@H](c1ccc(O)c(O)c1)[C@H](O)C2
REMARK SMILES IDX 21 1 19 2 10 3 9 4 7 5 8 6 2 7 3 8 4 9 6 10 20 11 11 13
REMARK SMILES IDX 18 14 12 15 16 16 13 17 14 18 17 19 15 21 5 23 1 25
REMARK H PARENT 20 12 17 20 15 22 5 24 1 26
REMARK Flexibility Score: inf
ROOT
ATOM      1  C   UNL     1     -15.947  -8.744 -31.985  1.00  0.00     0.079 C 
ATOM      2  C   UNL     1     -14.515  -8.459 -31.494  1.00  0.00     0.164 C 
ATOM      3  C   UNL     1     -13.981  -7.162 -32.132  1.00  0.00     0.232 C 
ATOM      4  O   UNL     1     -14.867  -6.082 -31.840  1.00  0.00    -0.482 OA
ATOM      5  C   UNL     1     -16.257  -6.238 -31.825  1.00  0.00     0.131 A 
ATOM      6  C   UNL     1     -17.064  -5.103 -31.720  1.00  0.00     0.093 A 
ATOM      7  C   UNL     1     -18.458  -5.226 -31.718  1.00  0.00     0.122 A 
ATOM      8  C   UNL     1     -19.044  -6.489 -31.830  1.00  0.00     0.092 A 
ATOM      9  C   UNL     1     -18.251  -7.637 -31.937  1.00  0.00     0.126 A 
ATOM     10  C   UNL     1     -16.840  -7.523 -31.897  1.00  0.00     0.039 A 
ENDROOT
BRANCH   2  11
ATOM     11  O   UNL     1     -13.673  -9.552 -31.766  1.00  0.00    -0.389 OA
ATOM     12  H   UNL     1     -14.250 -10.336 -31.962  1.00  0.00     0.211 HD
ENDBRANCH   2  11
BRANCH   3  13
ATOM     13  C   UNL     1     -12.595  -6.835 -31.624  1.00  0.00    -0.001 A 
ATOM     14  C   UNL     1     -12.328  -6.837 -30.244  1.00  0.00     0.057 A 
ATOM     15  C   UNL     1     -11.573  -6.477 -32.519  1.00  0.00     0.012 A 
ATOM     16  C   UNL     1     -11.052  -6.506 -29.767  1.00  0.00     0.157 A 
ATOM     17  C   UNL     1     -10.301  -6.148 -32.043  1.00  0.00     0.050 A 
ATOM     18  C   UNL     1     -10.036  -6.164 -30.668  1.00  0.00     0.157 A 
BRANCH  16  19
ATOM     19  O   UNL     1     -10.788  -6.515 -28.397  1.00  0.00    -0.504 OA
ATOM     20  H   UNL     1     -11.291  -7.124 -27.764  1.00  0.00     0.293 HD
ENDBRANCH  16  19
BRANCH  18  21
ATOM     21  O   UNL     1      -8.769  -5.837 -30.188  1.00  0.00    -0.504 OA
ATOM     22  H   UNL     1      -8.627  -5.062 -29.550  1.00  0.00     0.293 HD
ENDBRANCH  18  21
ENDBRANCH   3  13
BRANCH   9  23
ATOM     23  O   UNL     1     -18.895  -8.867 -32.092  1.00  0.00    -0.507 OA
ATOM     24  H   UNL     1     -19.768  -9.098 -31.638  1.00  0.00     0.293 HD
ENDBRANCH   9  23
BRANCH   7  25
ATOM     25  O   UNL     1     -19.270  -4.098 -31.611  1.00  0.00    -0.508 OA
ATOM     26  H   UNL     1     -20.133  -4.116 -31.081  1.00  0.00     0.293 HD
ENDBRANCH   7  25
TORSDOF 6
ENDMDL
MODEL 8
REMARK VINA RESULT:    -4.683      2.165      3.989
REMARK INTER + INTRA:          -5.988
REMARK INTER:                  -5.658
REMARK INTRA:                  -0.330
REMARK UNBOUND:                -0.346
REMARK SMILES Oc1cc(O)c2c(c1)O[C@@H](c1ccc(O)c(O)c1)[C@H](O)C2
REMARK SMILES IDX 21 1 19 2 10 3 9 4 7 5 8 6 2 7 3 8 4 9 6 10 20 11 11 13
REMARK SMILES IDX 18 14 12 15 16 16 13 17 14 18 17 19 15 21 5 23 1 25
REMARK H PARENT 20 12 17 20 15 22 5 24 1 26
REMARK Flexibility Score: inf
ROOT
ATOM      1  C   UNL     1     -16.158 -10.614 -30.502  1.00  0.00     0.079 C 
ATOM      2  C   UNL     1     -14.975  -9.629 -30.570  1.00  0.00     0.164 C 
ATOM      3  C   UNL     1     -15.041  -8.806 -31.871  1.00  0.00     0.232 C 
ATOM      4  O   UNL     1     -16.297  -8.135 -31.953  1.00  0.00    -0.482 OA
ATOM      5  C   UNL     1     -17.492  -8.730 -31.535  1.00  0.00     0.131 A 
ATOM      6  C   UNL     1     -18.702  -8.091 -31.818  1.00  0.00     0.093 A 
ATOM      7  C   UNL     1     -19.914  -8.669 -31.426  1.00  0.00     0.122 A 
ATOM      8  C   UNL     1     -19.914  -9.895 -30.757  1.00  0.00     0.092 A 
ATOM      9  C   UNL     1     -18.713 -10.550 -30.465  1.00  0.00     0.126 A 
ATOM     10  C   UNL     1     -17.481  -9.949 -30.821  1.00  0.00     0.039 A 
ENDROOT
BRANCH   2  11
ATOM     11  O   UNL     1     -13.753 -10.315 -30.456  1.00  0.00    -0.389 OA
ATOM     12  H   UNL     1     -13.181  -9.810 -29.819  1.00  0.00     0.211 HD
ENDBRANCH   2  11
BRANCH   3  13
ATOM     13  C   UNL     1     -13.918  -7.796 -31.935  1.00  0.00    -0.001 A 
ATOM     14  C   UNL     1     -13.680  -6.934 -30.852  1.00  0.00     0.057 A 
ATOM     15  C   UNL     1     -13.134  -7.674 -33.095  1.00  0.00     0.012 A 
ATOM     16  C   UNL     1     -12.658  -5.975 -30.918  1.00  0.00     0.157 A 
ATOM     17  C   UNL     1     -12.116  -6.719 -33.160  1.00  0.00     0.050 A 
ATOM     18  C   UNL     1     -11.873  -5.870 -32.073  1.00  0.00     0.157 A 
BRANCH  16  19
ATOM     19  O   UNL     1     -12.419  -5.124 -29.840  1.00  0.00    -0.504 OA
ATOM     20  H   UNL     1     -13.054  -4.370 -29.609  1.00  0.00     0.293 HD
ENDBRANCH  16  19
BRANCH  18  21
ATOM     21  O   UNL     1     -10.858  -4.917 -32.134  1.00  0.00    -0.504 OA
ATOM     22  H   UNL     1     -10.653  -4.310 -31.348  1.00  0.00     0.293 HD
ENDBRANCH  18  21
ENDBRANCH   3  13
BRANCH   9  23
ATOM     23  O   UNL     1     -18.780 -11.794 -29.834  1.00  0.00    -0.507 OA
ATOM     24  H   UNL     1     -19.539 -12.447 -29.973  1.00  0.00     0.293 HD
ENDBRANCH   9  23
BRANCH   7  25
ATOM     25  O   UNL     1     -21.125  -8.036 -31.704  1.00  0.00    -0.508 OA
ATOM     26  H   UNL     1     -21.881  -8.024 -31.030  1.00  0.00     0.293 HD
ENDBRANCH   7  25
TORSDOF 6
ENDMDL
