MODEL 1
REMARK VINA RESULT:    -4.875      0.000      0.000
REMARK INTER + INTRA:          -5.469
REMARK INTER:                  -5.445
REMARK INTRA:                  -0.024
REMARK UNBOUND:                -0.024
REMARK SMILES O=C([O-])c1ccccc1C(=O)[O-]
REMARK SMILES IDX 4 1 9 2 5 3 8 4 6 5 7 6 2 7 1 8 3 9 10 10 11 11 12 12
REMARK H PARENT
REMARK Flexibility Score: inf
ROOT
ATOM      1  C   UNL     1       7.719   4.095  27.484  1.00  0.00     0.006 A 
ATOM      2  C   UNL     1       8.397   3.223  28.380  1.00  0.00     0.006 A 
ATOM      3  C   UNL     1       6.459   3.717  26.984  1.00  0.00     0.010 A 
ATOM      4  C   UNL     1       7.821   1.977  28.690  1.00  0.00     0.010 A 
ATOM      5  C   UNL     1       5.896   2.485  27.323  1.00  0.00     0.001 A 
ATOM      6  C   UNL     1       6.581   1.613  28.165  1.00  0.00     0.001 A 
ENDROOT
BRANCH   1   7
ATOM      7  C   UNL     1       8.313   5.359  26.995  1.00  0.00     0.072 C 
ATOM      8  O   UNL     1       7.885   6.467  27.417  1.00  0.00    -0.545 OA
ATOM      9  O   UNL     1       9.301   5.347  26.017  1.00  0.00    -0.545 OA
ENDBRANCH   1   7
BRANCH   2  10
ATOM     10  C   UNL     1       9.659   3.592  29.063  1.00  0.00     0.072 C 
ATOM     11  O   UNL     1       9.716   3.660  30.319  1.00  0.00    -0.545 OA
ATOM     12  O   UNL     1      10.817   3.800  28.322  1.00  0.00    -0.545 OA
ENDBRANCH   2  10
TORSDOF 2
ENDMDL
MODEL 2
REMARK VINA RESULT:    -4.786      0.437      3.024
REMARK INTER + INTRA:          -5.369
REMARK INTER:                  -5.306
REMARK INTRA:                  -0.064
REMARK UNBOUND:                -0.024
REMARK SMILES O=C([O-])c1ccccc1C(=O)[O-]
REMARK SMILES IDX 4 1 9 2 5 3 8 4 6 5 7 6 2 7 1 8 3 9 10 10 11 11 12 12
REMARK H PARENT
REMARK Flexibility Score: inf
ROOT
ATOM      1  C   UNL     1       8.100   3.004  28.611  1.00  0.00     0.006 A 
ATOM      2  C   UNL     1       7.574   3.854  27.598  1.00  0.00     0.006 A 
ATOM      3  C   UNL     1       7.429   1.804  28.912  1.00  0.00     0.010 A 
ATOM      4  C   UNL     1       6.363   3.506  26.972  1.00  0.00     0.010 A 
ATOM      5  C   UNL     1       6.241   1.467  28.262  1.00  0.00     0.001 A 
ATOM      6  C   UNL     1       5.704   2.321  27.303  1.00  0.00     0.001 A 
ENDROOT
BRANCH   1   7
ATOM      7  C   UNL     1       9.289   3.361  29.416  1.00  0.00     0.072 C 
ATOM      8  O   UNL     1       9.167   3.637  30.640  1.00  0.00    -0.545 OA
ATOM      9  O   UNL     1      10.542   3.463  28.824  1.00  0.00    -0.545 OA
ENDBRANCH   1   7
BRANCH   2  10
ATOM     10  C   UNL     1       8.278   5.066  27.117  1.00  0.00     0.072 C 
ATOM     11  O   UNL     1       9.225   4.976  26.292  1.00  0.00    -0.545 OA
ATOM     12  O   UNL     1       7.853   6.326  27.522  1.00  0.00    -0.545 OA
ENDBRANCH   2  10
TORSDOF 2
ENDMDL
MODEL 3
REMARK VINA RESULT:    -4.781      0.328      3.036
REMARK INTER + INTRA:          -5.363
REMARK INTER:                  -5.405
REMARK INTRA:                   0.042
REMARK UNBOUND:                -0.024
REMARK SMILES O=C([O-])c1ccccc1C(=O)[O-]
REMARK SMILES IDX 4 1 9 2 5 3 8 4 6 5 7 6 2 7 1 8 3 9 10 10 11 11 12 12
REMARK H PARENT
REMARK Flexibility Score: inf
ROOT
ATOM      1  C   UNL     1       8.501   2.998  28.550  1.00  0.00     0.006 A 
ATOM      2  C   UNL     1       7.790   3.821  27.632  1.00  0.00     0.006 A 
ATOM      3  C   UNL     1       7.974   1.738  28.888  1.00  0.00     0.010 A 
ATOM      4  C   UNL     1       6.547   3.382  27.139  1.00  0.00     0.010 A 
ATOM      5  C   UNL     1       6.750   1.312  28.370  1.00  0.00     0.001 A 
ATOM      6  C   UNL     1       6.033   2.138  27.507  1.00  0.00     0.001 A 
ENDROOT
BRANCH   1   7
ATOM      7  C   UNL     1       9.743   3.440  29.223  1.00  0.00     0.072 C 
ATOM      8  O   UNL     1      10.775   3.696  28.547  1.00  0.00    -0.545 OA
ATOM      9  O   UNL     1       9.810   3.513  30.610  1.00  0.00    -0.545 OA
ENDBRANCH   1   7
BRANCH   2  10
ATOM     10  C   UNL     1       8.329   5.099  27.112  1.00  0.00     0.072 C 
ATOM     11  O   UNL     1       7.938   6.201  27.580  1.00  0.00    -0.545 OA
ATOM     12  O   UNL     1       9.327   5.093  26.143  1.00  0.00    -0.545 OA
ENDBRANCH   2  10
TORSDOF 2
ENDMDL
MODEL 4
REMARK VINA RESULT:    -4.747      8.166      9.953
REMARK INTER + INTRA:          -5.325
REMARK INTER:                  -5.104
REMARK INTRA:                  -0.221
REMARK UNBOUND:                -0.024
REMARK SMILES O=C([O-])c1ccccc1C(=O)[O-]
REMARK SMILES IDX 4 1 9 2 5 3 8 4 6 5 7 6 2 7 1 8 3 9 10 10 11 11 12 12
REMARK H PARENT
REMARK Flexibility Score: inf
ROOT
ATOM      1  C   UNL     1      15.679   2.722  33.485  1.00  0.00     0.006 A 
ATOM      2  C   UNL     1      16.486   2.206  32.433  1.00  0.00     0.006 A 
ATOM      3  C   UNL     1      16.294   3.110  34.690  1.00  0.00     0.010 A 
ATOM      4  C   UNL     1      17.866   2.036  32.648  1.00  0.00     0.010 A 
ATOM      5  C   UNL     1      17.668   2.953  34.874  1.00  0.00     0.001 A 
ATOM      6  C   UNL     1      18.450   2.406  33.860  1.00  0.00     0.001 A 
ENDROOT
BRANCH   1   7
ATOM      7  C   UNL     1      14.204   2.804  33.395  1.00  0.00     0.072 C 
ATOM      8  O   UNL     1      13.494   1.808  33.698  1.00  0.00    -0.545 OA
ATOM      9  O   UNL     1      13.585   3.952  32.914  1.00  0.00    -0.545 OA
ENDBRANCH   1   7
BRANCH   2  10
ATOM     10  C   UNL     1      15.953   1.900  31.085  1.00  0.00     0.072 C 
ATOM     11  O   UNL     1      15.723   0.712  30.738  1.00  0.00    -0.545 OA
ATOM     12  O   UNL     1      15.634   2.933  30.209  1.00  0.00    -0.545 OA
ENDBRANCH   2  10
TORSDOF 2
ENDMDL
MODEL 5
REMARK VINA RESULT:    -4.731      8.146      9.892
REMARK INTER + INTRA:          -5.308
REMARK INTER:                  -5.095
REMARK INTRA:                  -0.213
REMARK UNBOUND:                -0.024
REMARK SMILES O=C([O-])c1ccccc1C(=O)[O-]
REMARK SMILES IDX 4 1 9 2 5 3 8 4 6 5 7 6 2 7 1 8 3 9 10 10 11 11 12 12
REMARK H PARENT
REMARK Flexibility Score: inf
ROOT
ATOM      1  C   UNL     1      16.432   2.251  32.431  1.00  0.00     0.006 A 
ATOM      2  C   UNL     1      15.634   2.766  33.491  1.00  0.00     0.006 A 
ATOM      3  C   UNL     1      17.813   2.079  32.636  1.00  0.00     0.010 A 
ATOM      4  C   UNL     1      16.257   3.150  34.693  1.00  0.00     0.010 A 
ATOM      5  C   UNL     1      18.407   2.446  33.845  1.00  0.00     0.001 A 
ATOM      6  C   UNL     1      17.633   2.991  34.866  1.00  0.00     0.001 A 
ENDROOT
BRANCH   1   7
ATOM      7  C   UNL     1      15.883   1.953  31.089  1.00  0.00     0.072 C 
ATOM      8  O   UNL     1      15.730   0.759  30.717  1.00  0.00    -0.545 OA
ATOM      9  O   UNL     1      15.592   2.980  30.198  1.00  0.00    -0.545 OA
ENDBRANCH   1   7
BRANCH   2  10
ATOM     10  C   UNL     1      14.157   2.855  33.418  1.00  0.00     0.072 C 
ATOM     11  O   UNL     1      13.435   1.884  33.765  1.00  0.00    -0.545 OA
ATOM     12  O   UNL     1      13.549   4.043  33.028  1.00  0.00    -0.545 OA
ENDBRANCH   2  10
TORSDOF 2
ENDMDL
MODEL 6
REMARK VINA RESULT:    -4.667      1.460      2.141
REMARK INTER + INTRA:          -5.237
REMARK INTER:                  -5.064
REMARK INTRA:                  -0.172
REMARK UNBOUND:                -0.024
REMARK SMILES O=C([O-])c1ccccc1C(=O)[O-]
REMARK SMILES IDX 4 1 9 2 5 3 8 4 6 5 7 6 2 7 1 8 3 9 10 10 11 11 12 12
REMARK H PARENT
REMARK Flexibility Score: inf
ROOT
ATOM      1  C   UNL     1       6.892   3.061  27.641  1.00  0.00     0.006 A 
ATOM      2  C   UNL     1       7.114   1.977  28.536  1.00  0.00     0.006 A 
ATOM      3  C   UNL     1       5.681   3.120  26.926  1.00  0.00     0.010 A 
ATOM      4  C   UNL     1       6.147   0.960  28.633  1.00  0.00     0.010 A 
ATOM      5  C   UNL     1       4.725   2.111  27.055  1.00  0.00     0.001 A 
ATOM      6  C   UNL     1       4.963   1.028  27.898  1.00  0.00     0.001 A 
ENDROOT
BRANCH   1   7
ATOM      7  C   UNL     1       7.912   4.098  27.372  1.00  0.00     0.072 C 
ATOM      8  O   UNL     1       8.804   3.901  26.504  1.00  0.00    -0.545 OA
ATOM      9  O   UNL     1       7.944   5.272  28.116  1.00  0.00    -0.545 OA
ENDBRANCH   1   7
BRANCH   2  10
ATOM     10  C   UNL     1       8.292   1.900  29.430  1.00  0.00     0.072 C 
ATOM     11  O   UNL     1       9.181   1.026  29.250  1.00  0.00    -0.545 OA
ATOM     12  O   UNL     1       8.465   2.840  30.440  1.00  0.00    -0.545 OA
ENDBRANCH   2  10
TORSDOF 2
ENDMDL
MODEL 7
REMARK VINA RESULT:    -4.627      1.976      3.678
REMARK INTER + INTRA:          -5.192
REMARK INTER:                  -5.057
REMARK INTRA:                  -0.136
REMARK UNBOUND:                -0.024
REMARK SMILES O=C([O-])c1ccccc1C(=O)[O-]
REMARK SMILES IDX 4 1 9 2 5 3 8 4 6 5 7 6 2 7 1 8 3 9 10 10 11 11 12 12
REMARK H PARENT
REMARK Flexibility Score: inf
ROOT
ATOM      1  C   UNL     1       7.977   2.017  28.782  1.00  0.00     0.006 A 
ATOM      2  C   UNL     1       8.740   3.206  28.943  1.00  0.00     0.006 A 
ATOM      3  C   UNL     1       6.893   2.016  27.884  1.00  0.00     0.010 A 
ATOM      4  C   UNL     1       8.352   4.368  28.251  1.00  0.00     0.010 A 
ATOM      5  C   UNL     1       6.539   3.175  27.190  1.00  0.00     0.001 A 
ATOM      6  C   UNL     1       7.260   4.350  27.382  1.00  0.00     0.001 A 
ENDROOT
BRANCH   1   7
ATOM      7  C   UNL     1       8.228   0.792  29.574  1.00  0.00     0.072 C 
ATOM      8  O   UNL     1       8.897  -0.156  29.082  1.00  0.00    -0.545 OA
ATOM      9  O   UNL     1       7.676   0.640  30.841  1.00  0.00    -0.545 OA
ENDBRANCH   1   7
BRANCH   2  10
ATOM     10  C   UNL     1       9.976   3.266  29.758  1.00  0.00     0.072 C 
ATOM     11  O   UNL     1      11.096   3.461  29.217  1.00  0.00    -0.545 OA
ATOM     12  O   UNL     1       9.902   3.177  31.144  1.00  0.00    -0.545 OA
ENDBRANCH   2  10
TORSDOF 2
ENDMDL
MODEL 8
REMARK VINA RESULT:    -4.572      1.964      3.301
REMARK INTER + INTRA:          -5.131
REMARK INTER:                  -5.019
REMARK INTRA:                  -0.112
REMARK UNBOUND:                -0.024
REMARK SMILES O=C([O-])c1ccccc1C(=O)[O-]
REMARK SMILES IDX 4 1 9 2 5 3 8 4 6 5 7 6 2 7 1 8 3 9 10 10 11 11 12 12
REMARK H PARENT
REMARK Flexibility Score: inf
ROOT
ATOM      1  C   UNL     1       8.771   3.239  28.909  1.00  0.00     0.006 A 
ATOM      2  C   UNL     1       8.020   2.036  28.797  1.00  0.00     0.006 A 
ATOM      3  C   UNL     1       8.363   4.370  28.177  1.00  0.00     0.010 A 
ATOM      4  C   UNL     1       6.930   1.988  27.908  1.00  0.00     0.010 A 
ATOM      5  C   UNL     1       7.264   4.307  27.318  1.00  0.00     0.001 A 
ATOM      6  C   UNL     1       6.557   3.116  27.176  1.00  0.00     0.001 A 
ENDROOT
BRANCH   1   7
ATOM      7  C   UNL     1      10.011   3.336  29.710  1.00  0.00     0.072 C 
ATOM      8  O   UNL     1      11.129   3.447  29.139  1.00  0.00    -0.545 OA
ATOM      9  O   UNL     1       9.969   3.238  31.096  1.00  0.00    -0.545 OA
ENDBRANCH   1   7
BRANCH   2  10
ATOM     10  C   UNL     1       8.288   0.838  29.627  1.00  0.00     0.072 C 
ATOM     11  O   UNL     1       7.798   0.731  30.782  1.00  0.00    -0.545 OA
ATOM     12  O   UNL     1       9.033  -0.216  29.110  1.00  0.00    -0.545 OA
ENDBRANCH   2  10
TORSDOF 2
ENDMDL
MODEL 9
REMARK VINA RESULT:    -4.477      3.149      4.613
REMARK INTER + INTRA:          -5.025
REMARK INTER:                  -4.842
REMARK INTRA:                  -0.183
REMARK UNBOUND:                -0.024
REMARK SMILES O=C([O-])c1ccccc1C(=O)[O-]
REMARK SMILES IDX 4 1 9 2 5 3 8 4 6 5 7 6 2 7 1 8 3 9 10 10 11 11 12 12
REMARK H PARENT
REMARK Flexibility Score: inf
ROOT
ATOM      1  C   UNL     1       8.245   1.939  28.951  1.00  0.00     0.006 A 
ATOM      2  C   UNL     1       6.924   1.911  28.423  1.00  0.00     0.006 A 
ATOM      3  C   UNL     1       9.094   3.008  28.610  1.00  0.00     0.010 A 
ATOM      4  C   UNL     1       6.524   2.916  27.524  1.00  0.00     0.010 A 
ATOM      5  C   UNL     1       8.669   4.008  27.733  1.00  0.00     0.001 A 
ATOM      6  C   UNL     1       7.391   3.955  27.183  1.00  0.00     0.001 A 
ENDROOT
BRANCH   1   7
ATOM      7  C   UNL     1       8.794   0.851  29.791  1.00  0.00     0.072 C 
ATOM      8  O   UNL     1       8.990   1.037  31.022  1.00  0.00    -0.545 OA
ATOM      9  O   UNL     1       9.164  -0.364  29.226  1.00  0.00    -0.545 OA
ENDBRANCH   1   7
BRANCH   2  10
ATOM     10  C   UNL     1       5.916   0.904  28.830  1.00  0.00     0.072 C 
ATOM     11  O   UNL     1       5.559  -0.007  28.037  1.00  0.00    -0.545 OA
ATOM     12  O   UNL     1       5.400   0.915  30.121  1.00  0.00    -0.545 OA
ENDBRANCH   2  10
TORSDOF 2
ENDMDL
