MODEL 1
REMARK VINA RESULT:    -3.599      0.000      0.000
REMARK INTER + INTRA:          -5.810
REMARK INTER:                  -5.493
REMARK INTRA:                  -0.317
REMARK UNBOUND:                -0.317
REMARK SMILES CC1=CCC[C@@H](C)C(=O)C[C@@H](C(C)C)C(=O)C1
REMARK SMILES IDX 8 1 9 2 6 3 7 4 5 5 4 6 3 7 2 8 1 9 10 11 11 12 15 13 16 14
REMARK SMILES IDX 17 15 12 17 13 18 14 19
REMARK H PARENT
REMARK Flexibility Score: 70.00
ROOT
ATOM      1  C   UNL     1      14.719  -7.983  12.381  1.00  0.00     0.136 C 
ATOM      2  O   UNL     1      13.967  -8.936  12.529  1.00  0.00    -0.299 OA
ENDROOT
BRANCH   1   3
ATOM      3  C   UNL     1      14.114  -6.584  12.452  1.00  0.00     0.053 C 
ATOM      4  C   UNL     1      14.982  -5.454  11.877  1.00  0.00     0.016 C 
BRANCH   3   5
ATOM      5  C   UNL     1      13.596  -6.240  13.870  1.00  0.00     0.015 C 
BRANCH   5   6
ATOM      6  C   UNL     1      14.339  -5.107  14.601  1.00  0.00     0.028 C 
BRANCH   6   7
ATOM      7  C   UNL     1      15.351  -5.597  15.608  1.00  0.00    -0.028 C 
ATOM      8  C   UNL     1      16.656  -5.943  15.426  1.00  0.00    -0.070 CG0
ATOM      9  C   UNL     1      17.384  -6.445  16.652  1.00  0.00     0.039 C 
ATOM     10  G   UNL     1      17.518  -5.727  14.183  1.00  0.00     0.000 G0
ENDBRANCH   6   7
ENDBRANCH   5   6
ENDBRANCH   3   5
ENDBRANCH   1   3
BRANCH   1  11
ATOM     11  C   UNL     1      16.174  -8.273  12.080  1.00  0.00     0.087 C 
BRANCH  11  12
ATOM     12  C   UNL     1      17.083  -8.193  13.338  1.00  0.00     0.066 C 
BRANCH  12  13
ATOM     13  C   UNL     1      17.921  -6.919  13.352  1.00  0.00     0.140 C 
ATOM     14  O   UNL     1      18.841  -6.805  12.555  1.00  0.00    -0.299 OA
BRANCH  13  15
ATOM     15  C   UNL     1      17.513  -5.719  14.167  1.00  0.00     0.106 CG0
ATOM     16  G   UNL     1      16.659  -5.954  15.413  1.00  0.00     0.000 G0
ENDBRANCH  13  15
ENDBRANCH  12  13
BRANCH  12  17
ATOM     17  C   UNL     1      18.009  -9.446  13.475  1.00  0.00    -0.006 C 
ATOM     18  C   UNL     1      18.488  -9.637  14.928  1.00  0.00     0.008 C 
ATOM     19  C   UNL     1      17.317 -10.741  13.010  1.00  0.00     0.008 C 
ENDBRANCH  12  17
ENDBRANCH  11  12
ENDBRANCH   1  11
TORSDOF 1
ENDMDL
MODEL 2
REMARK VINA RESULT:    -2.995      2.107      5.029
REMARK INTER + INTRA:          -4.887
REMARK INTER:                  -4.829
REMARK INTRA:                  -0.059
REMARK UNBOUND:                -0.317
REMARK SMILES CC1=CCC[C@@H](C)C(=O)C[C@@H](C(C)C)C(=O)C1
REMARK SMILES IDX 8 1 9 2 6 3 7 4 5 5 4 6 3 7 2 8 1 9 10 11 11 12 15 13 16 14
REMARK SMILES IDX 17 15 12 17 13 18 14 19
REMARK H PARENT
REMARK Flexibility Score: 70.00
ROOT
ATOM      1  C   UNL     1      17.813  -7.523  13.786  1.00  0.00     0.136 C 
ATOM      2  O   UNL     1      18.634  -7.248  12.922  1.00  0.00    -0.299 OA
ENDROOT
BRANCH   1   3
ATOM      3  C   UNL     1      17.734  -8.973  14.255  1.00  0.00     0.053 C 
ATOM      4  C   UNL     1      18.807  -9.406  15.265  1.00  0.00     0.016 C 
BRANCH   3   5
ATOM      5  C   UNL     1      17.630  -9.966  13.071  1.00  0.00     0.015 C 
BRANCH   5   6
ATOM      6  C   UNL     1      16.594  -9.615  11.988  1.00  0.00     0.028 C 
BRANCH   6   7
ATOM      7  C   UNL     1      15.189 -10.047  12.330  1.00  0.00    -0.028 C 
ATOM      8  C   UNL     1      14.074  -9.291  12.529  1.00  0.00    -0.070 CG0
ATOM      9  C   UNL     1      12.821 -10.046  12.909  1.00  0.00     0.039 C 
ATOM     10  G   UNL     1      13.892  -7.799  12.251  1.00  0.00     0.000 G0
ENDBRANCH   6   7
ENDBRANCH   5   6
ENDBRANCH   3   5
ENDBRANCH   1   3
BRANCH   1  11
ATOM     11  C   UNL     1      16.902  -6.414  14.272  1.00  0.00     0.087 C 
BRANCH  11  12
ATOM     12  C   UNL     1      15.394  -6.775  14.160  1.00  0.00     0.066 C 
BRANCH  12  13
ATOM     13  C   UNL     1      14.923  -6.805  12.710  1.00  0.00     0.140 C 
ATOM     14  O   UNL     1      15.534  -6.151  11.876  1.00  0.00    -0.299 OA
BRANCH  13  15
ATOM     15  C   UNL     1      13.871  -7.777  12.245  1.00  0.00     0.106 CG0
ATOM     16  G   UNL     1      14.079  -9.260  12.549  1.00  0.00     0.000 G0
ENDBRANCH  13  15
ENDBRANCH  12  13
BRANCH  12  17
ATOM     17  C   UNL     1      14.496  -5.805  14.997  1.00  0.00    -0.006 C 
ATOM     18  C   UNL     1      15.140  -5.476  16.359  1.00  0.00     0.008 C 
ATOM     19  C   UNL     1      14.206  -4.486  14.257  1.00  0.00     0.008 C 
ENDBRANCH  12  17
ENDBRANCH  11  12
ENDBRANCH   1  11
TORSDOF 1
ENDMDL
MODEL 3
REMARK VINA RESULT:    -2.558      1.633      2.564
REMARK INTER + INTRA:          -4.221
REMARK INTER:                  -4.459
REMARK INTRA:                   0.238
REMARK UNBOUND:                -0.317
REMARK SMILES CC1=CCC[C@@H](C)C(=O)C[C@@H](C(C)C)C(=O)C1
REMARK SMILES IDX 8 1 9 2 6 3 7 4 5 5 4 6 3 7 2 8 1 9 10 11 11 12 15 13 16 14
REMARK SMILES IDX 17 15 12 17 13 18 14 19
REMARK H PARENT
REMARK Flexibility Score: 70.00
ROOT
ATOM      1  C   UNL     1      13.748  -7.241  12.992  1.00  0.00     0.136 C 
ATOM      2  O   UNL     1      13.001  -7.935  13.668  1.00  0.00    -0.299 OA
ENDROOT
BRANCH   1   3
ATOM      3  C   UNL     1      13.738  -5.735  13.239  1.00  0.00     0.053 C 
ATOM      4  C   UNL     1      13.993  -4.856  12.006  1.00  0.00     0.016 C 
BRANCH   3   5
ATOM      5  C   UNL     1      14.646  -5.331  14.427  1.00  0.00     0.015 C 
BRANCH   5   6
ATOM      6  C   UNL     1      15.881  -6.219  14.661  1.00  0.00     0.028 C 
BRANCH   6   7
ATOM      7  C   UNL     1      17.146  -5.675  14.043  1.00  0.00    -0.028 C 
ATOM      8  C   UNL     1      17.824  -6.100  12.941  1.00  0.00    -0.070 CG0
ATOM      9  C   UNL     1      19.098  -5.353  12.619  1.00  0.00     0.039 C 
ATOM     10  G   UNL     1      17.370  -7.122  11.898  1.00  0.00     0.000 G0
ENDBRANCH   6   7
ENDBRANCH   5   6
ENDBRANCH   3   5
ENDBRANCH   1   3
BRANCH   1  11
ATOM     11  C   UNL     1      14.573  -7.928  11.924  1.00  0.00     0.087 C 
BRANCH  11  12
ATOM     12  C   UNL     1      15.571  -8.971  12.505  1.00  0.00     0.066 C 
BRANCH  12  13
ATOM     13  C   UNL     1      17.019  -8.529  12.327  1.00  0.00     0.140 C 
ATOM     14  O   UNL     1      17.906  -9.370  12.383  1.00  0.00    -0.299 OA
BRANCH  13  15
ATOM     15  C   UNL     1      17.366  -7.135  11.875  1.00  0.00     0.106 CG0
ATOM     16  G   UNL     1      17.828  -6.131  12.931  1.00  0.00     0.000 G0
ENDBRANCH  13  15
ENDBRANCH  12  13
BRANCH  12  17
ATOM     17  C   UNL     1      15.361 -10.392  11.886  1.00  0.00    -0.006 C 
ATOM     18  C   UNL     1      16.211 -11.453  12.612  1.00  0.00     0.008 C 
ATOM     19  C   UNL     1      13.886 -10.835  11.916  1.00  0.00     0.008 C 
ENDBRANCH  12  17
ENDBRANCH  11  12
ENDBRANCH   1  11
TORSDOF 1
ENDMDL
MODEL 4
REMARK VINA RESULT:    -2.082      2.124      4.588
REMARK INTER + INTRA:          -3.495
REMARK INTER:                  -3.241
REMARK INTRA:                  -0.254
REMARK UNBOUND:                -0.317
REMARK SMILES CC1=CCC[C@@H](C)C(=O)C[C@@H](C(C)C)C(=O)C1
REMARK SMILES IDX 8 1 9 2 6 3 7 4 5 5 4 6 3 7 2 8 1 9 10 11 11 12 15 13 16 14
REMARK SMILES IDX 17 15 12 17 13 18 14 19
REMARK H PARENT
REMARK Flexibility Score: 70.00
ROOT
ATOM      1  C   UNL     1      17.694  -6.991  14.285  1.00  0.00     0.136 C 
ATOM      2  O   UNL     1      17.788  -8.013  14.951  1.00  0.00    -0.299 OA
ENDROOT
BRANCH   1   3
ATOM      3  C   UNL     1      18.273  -7.007  12.873  1.00  0.00     0.053 C 
ATOM      4  C   UNL     1      18.594  -5.632  12.269  1.00  0.00     0.016 C 
BRANCH   3   5
ATOM      5  C   UNL     1      17.431  -7.874  11.904  1.00  0.00     0.015 C 
BRANCH   5   6
ATOM      6  C   UNL     1      15.907  -7.835  12.120  1.00  0.00     0.028 C 
BRANCH   6   7
ATOM      7  C   UNL     1      15.296  -6.474  11.885  1.00  0.00    -0.028 C 
ATOM      8  C   UNL     1      14.375  -5.799  12.626  1.00  0.00    -0.070 CG0
ATOM      9  C   UNL     1      13.936  -4.461  12.076  1.00  0.00     0.039 C 
ATOM     10  G   UNL     1      13.861  -6.144  14.023  1.00  0.00     0.000 G0
ENDBRANCH   6   7
ENDBRANCH   5   6
ENDBRANCH   3   5
ENDBRANCH   1   3
BRANCH   1  11
ATOM     11  C   UNL     1      17.067  -5.778  14.940  1.00  0.00     0.087 C 
BRANCH  11  12
ATOM     12  C   UNL     1      15.828  -6.130  15.810  1.00  0.00     0.066 C 
BRANCH  12  13
ATOM     13  C   UNL     1      14.546  -5.532  15.240  1.00  0.00     0.140 C 
ATOM     14  O   UNL     1      14.166  -4.445  15.650  1.00  0.00    -0.299 OA
BRANCH  13  15
ATOM     15  C   UNL     1      13.861  -6.139  14.044  1.00  0.00     0.106 CG0
ATOM     16  G   UNL     1      14.393  -5.786  12.656  1.00  0.00     0.000 G0
ENDBRANCH  13  15
ENDBRANCH  12  13
BRANCH  12  17
ATOM     17  C   UNL     1      16.012  -5.688  17.299  1.00  0.00    -0.006 C 
ATOM     18  C   UNL     1      15.816  -6.872  18.267  1.00  0.00     0.008 C 
ATOM     19  C   UNL     1      17.396  -5.062  17.560  1.00  0.00     0.008 C 
ENDBRANCH  12  17
ENDBRANCH  11  12
ENDBRANCH   1  11
TORSDOF 1
ENDMDL
MODEL 5
REMARK VINA RESULT:    -1.058      2.012      4.406
REMARK INTER + INTRA:          -1.932
REMARK INTER:                  -2.831
REMARK INTRA:                   0.899
REMARK UNBOUND:                -0.317
REMARK SMILES CC1=CCC[C@@H](C)C(=O)C[C@@H](C(C)C)C(=O)C1
REMARK SMILES IDX 8 1 9 2 6 3 7 4 5 5 4 6 3 7 2 8 1 9 10 11 11 12 15 13 16 14
REMARK SMILES IDX 17 15 12 17 13 18 14 19
REMARK H PARENT
REMARK Flexibility Score: 70.00
ROOT
ATOM      1  C   UNL     1      15.727  -5.827  15.425  1.00  0.00     0.136 C 
ATOM      2  O   UNL     1      14.821  -5.295  16.051  1.00  0.00    -0.299 OA
ENDROOT
BRANCH   1   3
ATOM      3  C   UNL     1      16.654  -6.773  16.184  1.00  0.00     0.053 C 
ATOM      4  C   UNL     1      16.975  -6.373  17.631  1.00  0.00     0.016 C 
BRANCH   3   5
ATOM      5  C   UNL     1      17.939  -7.100  15.383  1.00  0.00     0.015 C 
BRANCH   5   6
ATOM      6  C   UNL     1      18.438  -8.553  15.477  1.00  0.00     0.028 C 
BRANCH   6   7
ATOM      7  C   UNL     1      17.898  -9.450  14.389  1.00  0.00    -0.028 C 
ATOM      8  C   UNL     1      17.720  -9.193  13.063  1.00  0.00    -0.070 CG0
ATOM      9  C   UNL     1      17.105 -10.308  12.249  1.00  0.00     0.039 C 
ATOM     10  G   UNL     1      18.220  -7.987  12.268  1.00  0.00     0.000 G0
ENDBRANCH   6   7
ENDBRANCH   5   6
ENDBRANCH   3   5
ENDBRANCH   1   3
BRANCH   1  11
ATOM     11  C   UNL     1      15.891  -5.454  13.967  1.00  0.00     0.087 C 
BRANCH  11  12
ATOM     12  C   UNL     1      16.031  -6.692  13.035  1.00  0.00     0.066 C 
BRANCH  12  13
ATOM     13  C   UNL     1      17.382  -6.719  12.329  1.00  0.00     0.140 C 
ATOM     14  O   UNL     1      17.882  -5.664  11.965  1.00  0.00    -0.299 OA
BRANCH  13  15
ATOM     15  C   UNL     1      18.208  -7.977  12.261  1.00  0.00     0.106 CG0
ATOM     16  G   UNL     1      17.732  -9.193  13.056  1.00  0.00     0.000 G0
ENDBRANCH  13  15
ENDBRANCH  12  13
BRANCH  12  17
ATOM     17  C   UNL     1      14.874  -6.771  11.987  1.00  0.00    -0.006 C 
ATOM     18  C   UNL     1      13.999  -8.022  12.207  1.00  0.00     0.008 C 
ATOM     19  C   UNL     1      13.968  -5.525  12.015  1.00  0.00     0.008 C 
ENDBRANCH  12  17
ENDBRANCH  11  12
ENDBRANCH   1  11
TORSDOF 1
ENDMDL
