MODEL 1
REMARK VINA RESULT:    -5.180      0.000      0.000
REMARK INTER + INTRA:          -5.833
REMARK INTER:                  -5.634
REMARK INTRA:                  -0.199
REMARK UNBOUND:                -0.199
REMARK SMILES Cc1ccc(C(C)C)c(O)c1
REMARK SMILES IDX 1 1 2 2 11 3 9 4 5 5 4 6 3 7 10 8 6 10 7 11 8 12
REMARK H PARENT 10 9
REMARK Flexibility Score: inf
ROOT
ATOM      1  C   UNL     1       3.289  -8.020  26.429  1.00  0.00     0.044 C 
ATOM      2  C   UNL     1       2.749  -6.932  25.548  1.00  0.00    -0.047 A 
ATOM      3  C   UNL     1       3.437  -6.557  24.387  1.00  0.00     0.049 A 
ATOM      4  C   UNL     1       2.920  -5.567  23.538  1.00  0.00     0.119 A 
ATOM      5  C   UNL     1       1.690  -4.945  23.845  1.00  0.00    -0.004 A 
ATOM      6  C   UNL     1       0.998  -5.344  25.005  1.00  0.00     0.008 A 
ATOM      7  C   UNL     1       1.519  -6.331  25.843  1.00  0.00     0.004 A 
ENDROOT
BRANCH   4   8
ATOM      8  O   UNL     1       3.629  -5.206  22.392  1.00  0.00    -0.508 OA
ATOM      9  H   UNL     1       3.614  -5.777  21.554  1.00  0.00     0.293 HD
ENDBRANCH   4   8
BRANCH   5  10
ATOM     10  C   UNL     1       1.108  -3.868  22.939  1.00  0.00     0.017 C 
ATOM     11  C   UNL     1       0.660  -2.646  23.751  1.00  0.00     0.012 C 
ATOM     12  C   UNL     1      -0.046  -4.422  22.094  1.00  0.00     0.012 C 
ENDBRANCH   5  10
TORSDOF 2
ENDMDL
MODEL 2
REMARK VINA RESULT:    -4.991      1.744      2.486
REMARK INTER + INTRA:          -5.628
REMARK INTER:                  -5.428
REMARK INTRA:                  -0.200
REMARK UNBOUND:                -0.199
REMARK SMILES Cc1ccc(C(C)C)c(O)c1
REMARK SMILES IDX 1 1 2 2 11 3 9 4 5 5 4 6 3 7 10 8 6 10 7 11 8 12
REMARK H PARENT 10 9
REMARK Flexibility Score: inf
ROOT
ATOM      1  C   UNL     1       3.026  -7.437  26.001  1.00  0.00     0.044 C 
ATOM      2  C   UNL     1       2.511  -6.368  25.082  1.00  0.00    -0.047 A 
ATOM      3  C   UNL     1       1.427  -5.570  25.466  1.00  0.00     0.049 A 
ATOM      4  C   UNL     1       0.963  -4.543  24.630  1.00  0.00     0.119 A 
ATOM      5  C   UNL     1       1.597  -4.300  23.391  1.00  0.00    -0.004 A 
ATOM      6  C   UNL     1       2.699  -5.098  23.025  1.00  0.00     0.008 A 
ATOM      7  C   UNL     1       3.154  -6.116  23.864  1.00  0.00     0.004 A 
ENDROOT
BRANCH   4   8
ATOM      8  O   UNL     1      -0.125  -3.768  25.032  1.00  0.00    -0.508 OA
ATOM      9  H   UNL     1      -0.084  -3.179  25.857  1.00  0.00     0.293 HD
ENDBRANCH   4   8
BRANCH   5  10
ATOM     10  C   UNL     1       1.112  -3.193  22.465  1.00  0.00     0.017 C 
ATOM     11  C   UNL     1       0.190  -3.749  21.373  1.00  0.00     0.012 C 
ATOM     12  C   UNL     1       2.293  -2.429  21.854  1.00  0.00     0.012 C 
ENDBRANCH   5  10
TORSDOF 2
ENDMDL
MODEL 3
REMARK VINA RESULT:    -4.973      3.597      5.385
REMARK INTER + INTRA:          -5.609
REMARK INTER:                  -5.424
REMARK INTRA:                  -0.185
REMARK UNBOUND:                -0.199
REMARK SMILES Cc1ccc(C(C)C)c(O)c1
REMARK SMILES IDX 1 1 2 2 11 3 9 4 5 5 4 6 3 7 10 8 6 10 7 11 8 12
REMARK H PARENT 10 9
REMARK Flexibility Score: inf
ROOT
ATOM      1  C   UNL     1      -0.079  -4.498  23.072  1.00  0.00     0.044 C 
ATOM      2  C   UNL     1       0.541  -3.402  22.256  1.00  0.00    -0.047 A 
ATOM      3  C   UNL     1       0.369  -3.373  20.867  1.00  0.00     0.049 A 
ATOM      4  C   UNL     1       0.914  -2.331  20.101  1.00  0.00     0.119 A 
ATOM      5  C   UNL     1       1.636  -1.293  20.731  1.00  0.00    -0.004 A 
ATOM      6  C   UNL     1       1.786  -1.324  22.131  1.00  0.00     0.008 A 
ATOM      7  C   UNL     1       1.239  -2.364  22.885  1.00  0.00     0.004 A 
ENDROOT
BRANCH   4   8
ATOM      8  O   UNL     1       0.735  -2.329  18.717  1.00  0.00    -0.508 OA
ATOM      9  H   UNL     1       0.261  -3.089  18.240  1.00  0.00     0.293 HD
ENDBRANCH   4   8
BRANCH   5  10
ATOM     10  C   UNL     1       2.237  -0.152  19.921  1.00  0.00     0.017 C 
ATOM     11  C   UNL     1       3.629  -0.523  19.393  1.00  0.00     0.012 C 
ATOM     12  C   UNL     1       2.286   1.141  20.744  1.00  0.00     0.012 C 
ENDBRANCH   5  10
TORSDOF 2
ENDMDL
MODEL 4
REMARK VINA RESULT:    -4.842      1.810      4.498
REMARK INTER + INTRA:          -5.466
REMARK INTER:                  -5.356
REMARK INTRA:                  -0.110
REMARK UNBOUND:                -0.199
REMARK SMILES Cc1ccc(C(C)C)c(O)c1
REMARK SMILES IDX 1 1 2 2 11 3 9 4 5 5 4 6 3 7 10 8 6 10 7 11 8 12
REMARK H PARENT 10 9
REMARK Flexibility Score: inf
ROOT
ATOM      1  C   UNL     1       0.143  -3.772  21.763  1.00  0.00     0.044 C 
ATOM      2  C   UNL     1       0.973  -4.425  22.828  1.00  0.00    -0.047 A 
ATOM      3  C   UNL     1       0.436  -4.654  24.101  1.00  0.00     0.049 A 
ATOM      4  C   UNL     1       1.192  -5.298  25.091  1.00  0.00     0.119 A 
ATOM      5  C   UNL     1       2.506  -5.732  24.807  1.00  0.00    -0.004 A 
ATOM      6  C   UNL     1       3.029  -5.514  23.517  1.00  0.00     0.008 A 
ATOM      7  C   UNL     1       2.268  -4.873  22.537  1.00  0.00     0.004 A 
ENDROOT
BRANCH   4   8
ATOM      8  O   UNL     1       0.637  -5.506  26.354  1.00  0.00    -0.508 OA
ATOM      9  H   UNL     1       0.274  -6.410  26.634  1.00  0.00     0.293 HD
ENDBRANCH   4   8
BRANCH   5  10
ATOM     10  C   UNL     1       3.348  -6.433  25.864  1.00  0.00     0.017 C 
ATOM     11  C   UNL     1       4.841  -6.358  25.523  1.00  0.00     0.012 C 
ATOM     12  C   UNL     1       2.898  -7.887  26.052  1.00  0.00     0.012 C 
ENDBRANCH   5  10
TORSDOF 2
ENDMDL
MODEL 5
REMARK VINA RESULT:    -4.793      3.609      6.277
REMARK INTER + INTRA:          -5.413
REMARK INTER:                  -5.218
REMARK INTRA:                  -0.194
REMARK UNBOUND:                -0.199
REMARK SMILES Cc1ccc(C(C)C)c(O)c1
REMARK SMILES IDX 1 1 2 2 11 3 9 4 5 5 4 6 3 7 10 8 6 10 7 11 8 12
REMARK H PARENT 10 9
REMARK Flexibility Score: inf
ROOT
ATOM      1  C   UNL     1       2.497   1.633  19.854  1.00  0.00     0.044 C 
ATOM      2  C   UNL     1       2.179   0.238  20.306  1.00  0.00    -0.047 A 
ATOM      3  C   UNL     1       2.115  -0.807  19.376  1.00  0.00     0.049 A 
ATOM      4  C   UNL     1       1.855  -2.121  19.795  1.00  0.00     0.119 A 
ATOM      5  C   UNL     1       1.665  -2.401  21.166  1.00  0.00    -0.004 A 
ATOM      6  C   UNL     1       1.751  -1.344  22.093  1.00  0.00     0.008 A 
ATOM      7  C   UNL     1       2.011  -0.040  21.668  1.00  0.00     0.004 A 
ENDROOT
BRANCH   4   8
ATOM      8  O   UNL     1       1.789  -3.143  18.848  1.00  0.00    -0.508 OA
ATOM      9  H   UNL     1       2.624  -3.597  18.494  1.00  0.00     0.293 HD
ENDBRANCH   4   8
BRANCH   5  10
ATOM     10  C   UNL     1       1.382  -3.818  21.645  1.00  0.00     0.017 C 
ATOM     11  C   UNL     1      -0.125  -4.107  21.657  1.00  0.00     0.012 C 
ATOM     12  C   UNL     1       2.002  -4.068  23.026  1.00  0.00     0.012 C 
ENDBRANCH   5  10
TORSDOF 2
ENDMDL
MODEL 6
REMARK VINA RESULT:    -4.627     13.530     15.095
REMARK INTER + INTRA:          -5.232
REMARK INTER:                  -5.165
REMARK INTRA:                  -0.068
REMARK UNBOUND:                -0.199
REMARK SMILES Cc1ccc(C(C)C)c(O)c1
REMARK SMILES IDX 1 1 2 2 11 3 9 4 5 5 4 6 3 7 10 8 6 10 7 11 8 12
REMARK H PARENT 10 9
REMARK Flexibility Score: inf
ROOT
ATOM      1  C   UNL     1      17.502  -7.028  23.139  1.00  0.00     0.044 C 
ATOM      2  C   UNL     1      16.988  -7.090  24.547  1.00  0.00    -0.047 A 
ATOM      3  C   UNL     1      17.883  -7.101  25.625  1.00  0.00     0.049 A 
ATOM      4  C   UNL     1      17.411  -7.121  26.946  1.00  0.00     0.119 A 
ATOM      5  C   UNL     1      16.021  -7.120  27.199  1.00  0.00    -0.004 A 
ATOM      6  C   UNL     1      15.131  -7.089  26.108  1.00  0.00     0.008 A 
ATOM      7  C   UNL     1      15.611  -7.068  24.796  1.00  0.00     0.004 A 
ENDROOT
BRANCH   4   8
ATOM      8  O   UNL     1      18.322  -7.141  28.001  1.00  0.00    -0.508 OA
ATOM      9  H   UNL     1      18.767  -6.294  28.337  1.00  0.00     0.293 HD
ENDBRANCH   4   8
BRANCH   5  10
ATOM     10  C   UNL     1      15.484  -7.141  28.624  1.00  0.00     0.017 C 
ATOM     11  C   UNL     1      14.003  -7.539  28.650  1.00  0.00     0.012 C 
ATOM     12  C   UNL     1      15.704  -5.791  29.317  1.00  0.00     0.012 C 
ENDBRANCH   5  10
TORSDOF 2
ENDMDL
MODEL 7
REMARK VINA RESULT:    -4.604     14.369     15.930
REMARK INTER + INTRA:          -5.207
REMARK INTER:                  -5.007
REMARK INTRA:                  -0.200
REMARK UNBOUND:                -0.199
REMARK SMILES Cc1ccc(C(C)C)c(O)c1
REMARK SMILES IDX 1 1 2 2 11 3 9 4 5 5 4 6 3 7 10 8 6 10 7 11 8 12
REMARK H PARENT 10 9
REMARK Flexibility Score: inf
ROOT
ATOM      1  C   UNL     1       6.883   6.818  28.936  1.00  0.00     0.044 C 
ATOM      2  C   UNL     1       7.737   7.463  27.884  1.00  0.00    -0.047 A 
ATOM      3  C   UNL     1       7.144   8.126  26.803  1.00  0.00     0.049 A 
ATOM      4  C   UNL     1       7.934   8.764  25.835  1.00  0.00     0.119 A 
ATOM      5  C   UNL     1       9.342   8.750  25.950  1.00  0.00    -0.004 A 
ATOM      6  C   UNL     1       9.926   8.096  27.053  1.00  0.00     0.008 A 
ATOM      7  C   UNL     1       9.132   7.465  28.012  1.00  0.00     0.004 A 
ENDROOT
BRANCH   4   8
ATOM      8  O   UNL     1       7.319   9.410  24.762  1.00  0.00    -0.508 OA
ATOM      9  H   UNL     1       6.787   8.899  24.066  1.00  0.00     0.293 HD
ENDBRANCH   4   8
BRANCH   5  10
ATOM     10  C   UNL     1      10.221   9.435  24.913  1.00  0.00     0.017 C 
ATOM     11  C   UNL     1      10.681   8.444  23.837  1.00  0.00     0.012 C 
ATOM     12  C   UNL     1      11.420  10.125  25.575  1.00  0.00     0.012 C 
ENDBRANCH   5  10
TORSDOF 2
ENDMDL
MODEL 8
REMARK VINA RESULT:    -4.604      3.063      4.835
REMARK INTER + INTRA:          -5.206
REMARK INTER:                  -5.007
REMARK INTRA:                  -0.200
REMARK UNBOUND:                -0.199
REMARK SMILES Cc1ccc(C(C)C)c(O)c1
REMARK SMILES IDX 1 1 2 2 11 3 9 4 5 5 4 6 3 7 10 8 6 10 7 11 8 12
REMARK H PARENT 10 9
REMARK Flexibility Score: inf
ROOT
ATOM      1  C   UNL     1       4.419  -3.778  18.731  1.00  0.00     0.044 C 
ATOM      2  C   UNL     1       3.390  -3.680  19.818  1.00  0.00    -0.047 A 
ATOM      3  C   UNL     1       2.115  -3.171  19.540  1.00  0.00     0.049 A 
ATOM      4  C   UNL     1       1.135  -3.110  20.542  1.00  0.00     0.119 A 
ATOM      5  C   UNL     1       1.426  -3.573  21.844  1.00  0.00    -0.004 A 
ATOM      6  C   UNL     1       2.706  -4.100  22.107  1.00  0.00     0.008 A 
ATOM      7  C   UNL     1       3.674  -4.159  21.103  1.00  0.00     0.004 A 
ENDROOT
BRANCH   4   8
ATOM      8  O   UNL     1      -0.124  -2.591  20.241  1.00  0.00    -0.508 OA
ATOM      9  H   UNL     1      -0.763  -2.287  20.967  1.00  0.00     0.293 HD
ENDBRANCH   4   8
BRANCH   5  10
ATOM     10  C   UNL     1       0.380  -3.517  22.949  1.00  0.00     0.017 C 
ATOM     11  C   UNL     1       0.644  -2.344  23.901  1.00  0.00     0.012 C 
ATOM     12  C   UNL     1       0.315  -4.845  23.714  1.00  0.00     0.012 C 
ENDBRANCH   5  10
TORSDOF 2
ENDMDL
MODEL 9
REMARK VINA RESULT:    -4.590      4.426      7.134
REMARK INTER + INTRA:          -5.192
REMARK INTER:                  -4.995
REMARK INTRA:                  -0.197
REMARK UNBOUND:                -0.199
REMARK SMILES Cc1ccc(C(C)C)c(O)c1
REMARK SMILES IDX 1 1 2 2 11 3 9 4 5 5 4 6 3 7 10 8 6 10 7 11 8 12
REMARK H PARENT 10 9
REMARK Flexibility Score: inf
ROOT
ATOM      1  C   UNL     1       2.779   2.452  19.282  1.00  0.00     0.044 C 
ATOM      2  C   UNL     1       2.434   1.141  19.924  1.00  0.00    -0.047 A 
ATOM      3  C   UNL     1       1.964   1.102  21.242  1.00  0.00     0.049 A 
ATOM      4  C   UNL     1       1.604  -0.116  21.838  1.00  0.00     0.119 A 
ATOM      5  C   UNL     1       1.705  -1.319  21.103  1.00  0.00    -0.004 A 
ATOM      6  C   UNL     1       2.162  -1.265  19.772  1.00  0.00     0.008 A 
ATOM      7  C   UNL     1       2.516  -0.047  19.187  1.00  0.00     0.004 A 
ENDROOT
BRANCH   4   8
ATOM      8  O   UNL     1       1.146  -0.129  23.155  1.00  0.00    -0.508 OA
ATOM      9  H   UNL     1       0.311  -0.636  23.424  1.00  0.00     0.293 HD
ENDBRANCH   4   8
BRANCH   5  10
ATOM     10  C   UNL     1       1.322  -2.654  21.727  1.00  0.00     0.017 C 
ATOM     11  C   UNL     1       2.544  -3.568  21.872  1.00  0.00     0.012 C 
ATOM     12  C   UNL     1       0.212  -3.340  20.921  1.00  0.00     0.012 C 
ENDBRANCH   5  10
TORSDOF 2
ENDMDL
