MODEL 1
REMARK VINA RESULT:    -4.160      0.000      0.000
REMARK INTER + INTRA:          -5.456
REMARK INTER:                  -5.376
REMARK INTRA:                  -0.080
REMARK UNBOUND:                -0.080
REMARK SMILES CCCCCCC(=O)[O-]
REMARK SMILES IDX 5 1 6 2 7 3 8 4 9 5 4 6 3 7 2 8 1 9
REMARK H PARENT
REMARK Flexibility Score: inf
ROOT
ATOM      1  C   UNL     1      24.694   5.937  18.706  1.00  0.00     0.006 C 
ENDROOT
BRANCH   1   2
ATOM      2  C   UNL     1      26.125   5.449  18.447  1.00  0.00     0.053 C 
BRANCH   2   3
ATOM      3  C   UNL     1      26.162   3.989  18.116  1.00  0.00     0.041 C 
ATOM      4  O   UNL     1      27.164   3.292  18.431  1.00  0.00    -0.550 OA
ATOM      5  O   UNL     1      25.105   3.404  17.432  1.00  0.00    -0.550 OA
ENDBRANCH   2   3
ENDBRANCH   1   2
BRANCH   1   6
ATOM      6  C   UNL     1      24.638   7.026  19.788  1.00  0.00     0.000 C 
BRANCH   6   7
ATOM      7  C   UNL     1      23.214   7.580  19.935  1.00  0.00    -0.000 C 
BRANCH   7   8
ATOM      8  C   UNL     1      23.099   9.045  19.484  1.00  0.00    -0.003 C 
ATOM      9  C   UNL     1      21.993   9.804  20.215  1.00  0.00     0.004 C 
ENDBRANCH   7   8
ENDBRANCH   6   7
ENDBRANCH   1   6
TORSDOF 5
ENDMDL
MODEL 2
REMARK VINA RESULT:    -4.105      3.796      5.693
REMARK INTER + INTRA:          -5.385
REMARK INTER:                  -5.197
REMARK INTRA:                  -0.187
REMARK UNBOUND:                -0.080
REMARK SMILES CCCCCCC(=O)[O-]
REMARK SMILES IDX 5 1 6 2 7 3 8 4 9 5 4 6 3 7 2 8 1 9
REMARK H PARENT
REMARK Flexibility Score: inf
ROOT
ATOM      1  C   UNL     1      23.815   7.649  19.419  1.00  0.00     0.006 C 
ENDROOT
BRANCH   1   2
ATOM      2  C   UNL     1      22.555   7.789  20.282  1.00  0.00     0.053 C 
BRANCH   2   3
ATOM      3  C   UNL     1      22.066   9.205  20.326  1.00  0.00     0.041 C 
ATOM      4  O   UNL     1      22.738  10.125  19.788  1.00  0.00    -0.550 OA
ATOM      5  O   UNL     1      20.886   9.512  20.989  1.00  0.00    -0.550 OA
ENDBRANCH   2   3
ENDBRANCH   1   2
BRANCH   1   6
ATOM      6  C   UNL     1      25.024   7.160  20.230  1.00  0.00     0.000 C 
BRANCH   6   7
ATOM      7  C   UNL     1      25.866   6.168  19.415  1.00  0.00    -0.000 C 
BRANCH   7   8
ATOM      8  C   UNL     1      25.007   5.237  18.545  1.00  0.00    -0.003 C 
ATOM      9  C   UNL     1      25.788   4.037  18.012  1.00  0.00     0.004 C 
ENDBRANCH   7   8
ENDBRANCH   6   7
ENDBRANCH   1   6
TORSDOF 5
ENDMDL
MODEL 3
REMARK VINA RESULT:    -3.696     11.403     12.189
REMARK INTER + INTRA:          -4.856
REMARK INTER:                  -4.730
REMARK INTRA:                  -0.126
REMARK UNBOUND:                -0.080
REMARK SMILES CCCCCCC(=O)[O-]
REMARK SMILES IDX 5 1 6 2 7 3 8 4 9 5 4 6 3 7 2 8 1 9
REMARK H PARENT
REMARK Flexibility Score: inf
ROOT
ATOM      1  C   UNL     1      20.387   2.234   8.845  1.00  0.00     0.006 C 
ENDROOT
BRANCH   1   2
ATOM      2  C   UNL     1      19.923   3.514   8.137  1.00  0.00     0.053 C 
BRANCH   2   3
ATOM      3  C   UNL     1      21.047   4.489   7.963  1.00  0.00     0.041 C 
ATOM      4  O   UNL     1      20.822   5.641   7.505  1.00  0.00    -0.550 OA
ATOM      5  O   UNL     1      22.347   4.115   8.275  1.00  0.00    -0.550 OA
ENDBRANCH   2   3
ENDBRANCH   1   2
BRANCH   1   6
ATOM      6  C   UNL     1      19.256   1.204   8.983  1.00  0.00     0.000 C 
BRANCH   6   7
ATOM      7  C   UNL     1      18.048   1.810   9.713  1.00  0.00    -0.000 C 
BRANCH   7   8
ATOM      8  C   UNL     1      17.500   0.888  10.814  1.00  0.00    -0.003 C 
ATOM      9  C   UNL     1      17.186   1.636  12.109  1.00  0.00     0.004 C 
ENDBRANCH   7   8
ENDBRANCH   6   7
ENDBRANCH   1   6
TORSDOF 5
ENDMDL
MODEL 4
REMARK VINA RESULT:    -3.683     12.108     12.939
REMARK INTER + INTRA:          -4.839
REMARK INTER:                  -4.761
REMARK INTRA:                  -0.078
REMARK UNBOUND:                -0.080
REMARK SMILES CCCCCCC(=O)[O-]
REMARK SMILES IDX 5 1 6 2 7 3 8 4 9 5 4 6 3 7 2 8 1 9
REMARK H PARENT
REMARK Flexibility Score: inf
ROOT
ATOM      1  C   UNL     1      18.811  -0.018  10.773  1.00  0.00     0.006 C 
ENDROOT
BRANCH   1   2
ATOM      2  C   UNL     1      18.631   1.265   9.952  1.00  0.00     0.053 C 
BRANCH   2   3
ATOM      3  C   UNL     1      17.297   1.900  10.198  1.00  0.00     0.041 C 
ATOM      4  O   UNL     1      16.875   2.807   9.432  1.00  0.00    -0.550 OA
ATOM      5  O   UNL     1      16.535   1.514  11.293  1.00  0.00    -0.550 OA
ENDBRANCH   2   3
ENDBRANCH   1   2
BRANCH   1   6
ATOM      6  C   UNL     1      20.209  -0.628  10.601  1.00  0.00     0.000 C 
BRANCH   6   7
ATOM      7  C   UNL     1      20.215  -2.110  11.003  1.00  0.00    -0.000 C 
BRANCH   7   8
ATOM      8  C   UNL     1      21.407  -2.475  11.902  1.00  0.00    -0.003 C 
ATOM      9  C   UNL     1      21.192  -3.779  12.668  1.00  0.00     0.004 C 
ENDBRANCH   7   8
ENDBRANCH   6   7
ENDBRANCH   1   6
TORSDOF 5
ENDMDL
MODEL 5
REMARK VINA RESULT:    -3.681     11.365     12.369
REMARK INTER + INTRA:          -4.838
REMARK INTER:                  -4.728
REMARK INTRA:                  -0.109
REMARK UNBOUND:                -0.080
REMARK SMILES CCCCCCC(=O)[O-]
REMARK SMILES IDX 5 1 6 2 7 3 8 4 9 5 4 6 3 7 2 8 1 9
REMARK H PARENT
REMARK Flexibility Score: inf
ROOT
ATOM      1  C   UNL     1      19.559   3.428   8.185  1.00  0.00     0.006 C 
ENDROOT
BRANCH   1   2
ATOM      2  C   UNL     1      19.392   2.087   8.912  1.00  0.00     0.053 C 
BRANCH   2   3
ATOM      3  C   UNL     1      18.032   1.953   9.524  1.00  0.00     0.041 C 
ATOM      4  O   UNL     1      17.113   2.757   9.212  1.00  0.00    -0.550 OA
ATOM      5  O   UNL     1      17.787   0.960  10.464  1.00  0.00    -0.550 OA
ENDBRANCH   2   3
ENDBRANCH   1   2
BRANCH   1   6
ATOM      6  C   UNL     1      21.006   3.938   8.231  1.00  0.00     0.000 C 
BRANCH   6   7
ATOM      7  C   UNL     1      21.148   5.257   7.458  1.00  0.00    -0.000 C 
BRANCH   7   8
ATOM      8  C   UNL     1      22.615   5.642   7.208  1.00  0.00    -0.003 C 
ATOM      9  C   UNL     1      23.533   5.256   8.367  1.00  0.00     0.004 C 
ENDBRANCH   7   8
ENDBRANCH   6   7
ENDBRANCH   1   6
TORSDOF 5
ENDMDL
MODEL 6
REMARK VINA RESULT:    -3.658      2.886      5.609
REMARK INTER + INTRA:          -4.807
REMARK INTER:                  -4.700
REMARK INTRA:                  -0.107
REMARK UNBOUND:                -0.080
REMARK SMILES CCCCCCC(=O)[O-]
REMARK SMILES IDX 5 1 6 2 7 3 8 4 9 5 4 6 3 7 2 8 1 9
REMARK H PARENT
REMARK Flexibility Score: inf
ROOT
ATOM      1  C   UNL     1      25.772   5.530  18.263  1.00  0.00     0.006 C 
ENDROOT
BRANCH   1   2
ATOM      2  C   UNL     1      24.392   5.990  18.750  1.00  0.00     0.053 C 
BRANCH   2   3
ATOM      3  C   UNL     1      24.492   7.163  19.678  1.00  0.00     0.041 C 
ATOM      4  O   UNL     1      25.381   7.192  20.570  1.00  0.00    -0.550 OA
ATOM      5  O   UNL     1      23.583   8.208  19.578  1.00  0.00    -0.550 OA
ENDBRANCH   2   3
ENDBRANCH   1   2
BRANCH   1   6
ATOM      6  C   UNL     1      25.952   4.010  18.378  1.00  0.00     0.000 C 
BRANCH   6   7
ATOM      7  C   UNL     1      25.241   3.285  17.225  1.00  0.00    -0.000 C 
BRANCH   7   8
ATOM      8  C   UNL     1      26.141   2.248  16.535  1.00  0.00    -0.003 C 
ATOM      9  C   UNL     1      25.508   1.661  15.274  1.00  0.00     0.004 C 
ENDBRANCH   7   8
ENDBRANCH   6   7
ENDBRANCH   1   6
TORSDOF 5
ENDMDL
MODEL 7
REMARK VINA RESULT:    -3.609     10.075     11.276
REMARK INTER + INTRA:          -4.744
REMARK INTER:                  -4.466
REMARK INTRA:                  -0.277
REMARK UNBOUND:                -0.080
REMARK SMILES CCCCCCC(=O)[O-]
REMARK SMILES IDX 5 1 6 2 7 3 8 4 9 5 4 6 3 7 2 8 1 9
REMARK H PARENT
REMARK Flexibility Score: inf
ROOT
ATOM      1  C   UNL     1      23.522  -4.305  19.899  1.00  0.00     0.006 C 
ENDROOT
BRANCH   1   2
ATOM      2  C   UNL     1      24.213  -5.643  19.607  1.00  0.00     0.053 C 
BRANCH   2   3
ATOM      3  C   UNL     1      23.546  -6.378  18.484  1.00  0.00     0.041 C 
ATOM      4  O   UNL     1      23.281  -7.605  18.598  1.00  0.00    -0.550 OA
ATOM      5  O   UNL     1      23.249  -5.717  17.300  1.00  0.00    -0.550 OA
ENDBRANCH   2   3
ENDBRANCH   1   2
BRANCH   1   6
ATOM      6  C   UNL     1      22.451  -4.430  20.992  1.00  0.00     0.000 C 
BRANCH   6   7
ATOM      7  C   UNL     1      21.228  -3.561  20.665  1.00  0.00    -0.000 C 
BRANCH   7   8
ATOM      8  C   UNL     1      20.964  -3.457  19.154  1.00  0.00    -0.003 C 
ATOM      9  C   UNL     1      20.379  -2.105  18.748  1.00  0.00     0.004 C 
ENDBRANCH   7   8
ENDBRANCH   6   7
ENDBRANCH   1   6
TORSDOF 5
ENDMDL
MODEL 8
REMARK VINA RESULT:    -3.572     11.440     12.275
REMARK INTER + INTRA:          -4.696
REMARK INTER:                  -4.362
REMARK INTRA:                  -0.334
REMARK UNBOUND:                -0.080
REMARK SMILES CCCCCCC(=O)[O-]
REMARK SMILES IDX 5 1 6 2 7 3 8 4 9 5 4 6 3 7 2 8 1 9
REMARK H PARENT
REMARK Flexibility Score: inf
ROOT
ATOM      1  C   UNL     1      24.463  -5.560  19.368  1.00  0.00     0.006 C 
ENDROOT
BRANCH   1   2
ATOM      2  C   UNL     1      23.623  -6.428  18.422  1.00  0.00     0.053 C 
BRANCH   2   3
ATOM      3  C   UNL     1      23.256  -7.738  19.051  1.00  0.00     0.041 C 
ATOM      4  O   UNL     1      22.421  -7.777  19.994  1.00  0.00    -0.550 OA
ATOM      5  O   UNL     1      23.860  -8.911  18.618  1.00  0.00    -0.550 OA
ENDBRANCH   2   3
ENDBRANCH   1   2
BRANCH   1   6
ATOM      6  C   UNL     1      23.747  -4.255  19.748  1.00  0.00     0.000 C 
BRANCH   6   7
ATOM      7  C   UNL     1      22.436  -4.101  18.965  1.00  0.00    -0.000 C 
BRANCH   7   8
ATOM      8  C   UNL     1      21.252  -3.712  19.864  1.00  0.00    -0.003 C 
ATOM      9  C   UNL     1      21.466  -4.104  21.326  1.00  0.00     0.004 C 
ENDBRANCH   7   8
ENDBRANCH   6   7
ENDBRANCH   1   6
TORSDOF 5
ENDMDL
MODEL 9
REMARK VINA RESULT:    -3.542     10.327     11.075
REMARK INTER + INTRA:          -4.657
REMARK INTER:                  -4.478
REMARK INTRA:                  -0.179
REMARK UNBOUND:                -0.080
REMARK SMILES CCCCCCC(=O)[O-]
REMARK SMILES IDX 5 1 6 2 7 3 8 4 9 5 4 6 3 7 2 8 1 9
REMARK H PARENT
REMARK Flexibility Score: inf
ROOT
ATOM      1  C   UNL     1      23.417  -4.693  18.584  1.00  0.00     0.006 C 
ENDROOT
BRANCH   1   2
ATOM      2  C   UNL     1      23.105  -4.766  20.084  1.00  0.00     0.053 C 
BRANCH   2   3
ATOM      3  C   UNL     1      21.802  -4.105  20.413  1.00  0.00     0.041 C 
ATOM      4  O   UNL     1      21.085  -3.623  19.496  1.00  0.00    -0.550 OA
ATOM      5  O   UNL     1      21.395  -3.991  21.736  1.00  0.00    -0.550 OA
ENDBRANCH   2   3
ENDBRANCH   1   2
BRANCH   1   6
ATOM      6  C   UNL     1      24.631  -3.801  18.285  1.00  0.00     0.000 C 
BRANCH   6   7
ATOM      7  C   UNL     1      25.521  -3.651  19.528  1.00  0.00    -0.000 C 
BRANCH   7   8
ATOM      8  C   UNL     1      26.917  -3.104  19.192  1.00  0.00    -0.003 C 
ATOM      9  C   UNL     1      27.812  -2.973  20.424  1.00  0.00     0.004 C 
ENDBRANCH   7   8
ENDBRANCH   6   7
ENDBRANCH   1   6
TORSDOF 5
ENDMDL
