MODEL 1
REMARK VINA RESULT:    -3.844      0.000      0.000
REMARK INTER + INTRA:          -5.848
REMARK INTER:                  -5.417
REMARK INTRA:                  -0.431
REMARK UNBOUND:                -0.431
REMARK SMILES CCCCCCCCC(=O)[O-]
REMARK SMILES IDX 6 1 7 2 8 3 9 4 10 5 11 6 5 7 4 8 3 9 2 10 1 11
REMARK H PARENT
REMARK Flexibility Score: inf
ROOT
ATOM      1  C   UNL     1      25.587 -13.137  -0.593  1.00  0.00     0.000 C 
ENDROOT
BRANCH   1   2
ATOM      2  C   UNL     1      26.718 -13.868  -1.329  1.00  0.00     0.006 C 
BRANCH   2   3
ATOM      3  C   UNL     1      28.077 -13.549  -0.701  1.00  0.00     0.053 C 
BRANCH   3   4
ATOM      4  C   UNL     1      28.194 -14.183   0.649  1.00  0.00     0.041 C 
ATOM      5  O   UNL     1      28.399 -13.472   1.667  1.00  0.00    -0.550 OA
ATOM      6  O   UNL     1      28.124 -15.565   0.776  1.00  0.00    -0.550 OA
ENDBRANCH   3   4
ENDBRANCH   2   3
ENDBRANCH   1   2
BRANCH   1   7
ATOM      7  C   UNL     1      24.216 -13.537  -1.158  1.00  0.00     0.000 C 
BRANCH   7   8
ATOM      8  C   UNL     1      24.321 -14.284  -2.497  1.00  0.00    -0.000 C 
BRANCH   8   9
ATOM      9  C   UNL     1      23.365 -15.487  -2.581  1.00  0.00    -0.000 C 
BRANCH   9  10
ATOM     10  C   UNL     1      23.712 -16.437  -3.737  1.00  0.00    -0.003 C 
ATOM     11  C   UNL     1      25.172 -16.893  -3.711  1.00  0.00     0.004 C 
ENDBRANCH   9  10
ENDBRANCH   8   9
ENDBRANCH   7   8
ENDBRANCH   1   7
TORSDOF 7
ENDMDL
MODEL 2
REMARK VINA RESULT:    -3.746      2.953      5.561
REMARK INTER + INTRA:          -5.710
REMARK INTER:                  -5.319
REMARK INTRA:                  -0.391
REMARK UNBOUND:                -0.431
REMARK SMILES CCCCCCCCC(=O)[O-]
REMARK SMILES IDX 6 1 7 2 8 3 9 4 10 5 11 6 5 7 4 8 3 9 2 10 1 11
REMARK H PARENT
REMARK Flexibility Score: inf
ROOT
ATOM      1  C   UNL     1      25.638 -13.138  -0.696  1.00  0.00     0.000 C 
ENDROOT
BRANCH   1   2
ATOM      2  C   UNL     1      24.279 -13.668  -1.170  1.00  0.00     0.006 C 
BRANCH   2   3
ATOM      3  C   UNL     1      24.356 -14.162  -2.617  1.00  0.00     0.053 C 
BRANCH   3   4
ATOM      4  C   UNL     1      23.624 -15.459  -2.768  1.00  0.00     0.041 C 
ATOM      5  O   UNL     1      23.873 -16.217  -3.742  1.00  0.00    -0.550 OA
ATOM      6  O   UNL     1      22.632 -15.806  -1.859  1.00  0.00    -0.550 OA
ENDBRANCH   3   4
ENDBRANCH   2   3
ENDBRANCH   1   2
BRANCH   1   7
ATOM      7  C   UNL     1      26.789 -13.894  -1.378  1.00  0.00     0.000 C 
BRANCH   7   8
ATOM      8  C   UNL     1      28.111 -13.790  -0.599  1.00  0.00    -0.000 C 
BRANCH   8   9
ATOM      9  C   UNL     1      28.043 -14.481   0.774  1.00  0.00    -0.000 C 
BRANCH   9  10
ATOM     10  C   UNL     1      28.804 -13.705   1.861  1.00  0.00    -0.003 C 
ATOM     11  C   UNL     1      29.457 -12.429   1.331  1.00  0.00     0.004 C 
ENDBRANCH   9  10
ENDBRANCH   8   9
ENDBRANCH   7   8
ENDBRANCH   1   7
TORSDOF 7
ENDMDL
MODEL 3
REMARK VINA RESULT:    -3.685      1.468      2.076
REMARK INTER + INTRA:          -5.623
REMARK INTER:                  -5.269
REMARK INTRA:                  -0.354
REMARK UNBOUND:                -0.431
REMARK SMILES CCCCCCCCC(=O)[O-]
REMARK SMILES IDX 6 1 7 2 8 3 9 4 10 5 11 6 5 7 4 8 3 9 2 10 1 11
REMARK H PARENT
REMARK Flexibility Score: inf
ROOT
ATOM      1  C   UNL     1      26.721 -13.793  -1.116  1.00  0.00     0.000 C 
ENDROOT
BRANCH   1   2
ATOM      2  C   UNL     1      27.953 -13.634  -0.215  1.00  0.00     0.006 C 
BRANCH   2   3
ATOM      3  C   UNL     1      28.121 -14.847   0.704  1.00  0.00     0.053 C 
BRANCH   3   4
ATOM      4  C   UNL     1      29.152 -15.782   0.155  1.00  0.00     0.041 C 
ATOM      5  O   UNL     1      30.235 -15.963   0.770  1.00  0.00    -0.550 OA
ATOM      6  O   UNL     1      28.936 -16.416  -1.063  1.00  0.00    -0.550 OA
ENDBRANCH   3   4
ENDBRANCH   2   3
ENDBRANCH   1   2
BRANCH   1   7
ATOM      7  C   UNL     1      25.485 -13.141  -0.476  1.00  0.00     0.000 C 
BRANCH   7   8
ATOM      8  C   UNL     1      24.174 -13.557  -1.161  1.00  0.00    -0.000 C 
BRANCH   8   9
ATOM      9  C   UNL     1      24.381 -13.991  -2.622  1.00  0.00    -0.000 C 
BRANCH   9  10
ATOM     10  C   UNL     1      23.610 -15.274  -2.970  1.00  0.00    -0.003 C 
ATOM     11  C   UNL     1      22.839 -15.843  -1.779  1.00  0.00     0.004 C 
ENDBRANCH   9  10
ENDBRANCH   8   9
ENDBRANCH   7   8
ENDBRANCH   1   7
TORSDOF 7
ENDMDL
MODEL 4
REMARK VINA RESULT:    -3.651      0.977      1.911
REMARK INTER + INTRA:          -5.577
REMARK INTER:                  -5.224
REMARK INTRA:                  -0.353
REMARK UNBOUND:                -0.431
REMARK SMILES CCCCCCCCC(=O)[O-]
REMARK SMILES IDX 6 1 7 2 8 3 9 4 10 5 11 6 5 7 4 8 3 9 2 10 1 11
REMARK H PARENT
REMARK Flexibility Score: inf
ROOT
ATOM      1  C   UNL     1      26.847 -13.943  -1.399  1.00  0.00     0.000 C 
ENDROOT
BRANCH   1   2
ATOM      2  C   UNL     1      28.058 -14.376  -0.564  1.00  0.00     0.006 C 
BRANCH   2   3
ATOM      3  C   UNL     1      28.751 -13.166   0.069  1.00  0.00     0.053 C 
BRANCH   3   4
ATOM      4  C   UNL     1      29.019 -13.415   1.520  1.00  0.00     0.041 C 
ATOM      5  O   UNL     1      28.727 -14.525   2.037  1.00  0.00    -0.550 OA
ATOM      6  O   UNL     1      29.545 -12.402   2.313  1.00  0.00    -0.550 OA
ENDBRANCH   3   4
ENDBRANCH   2   3
ENDBRANCH   1   2
BRANCH   1   7
ATOM      7  C   UNL     1      25.830 -13.181  -0.536  1.00  0.00     0.000 C 
BRANCH   7   8
ATOM      8  C   UNL     1      24.374 -13.491  -0.921  1.00  0.00    -0.000 C 
BRANCH   8   9
ATOM      9  C   UNL     1      24.260 -14.191  -2.287  1.00  0.00    -0.000 C 
BRANCH   9  10
ATOM     10  C   UNL     1      23.166 -15.270  -2.306  1.00  0.00    -0.003 C 
ATOM     11  C   UNL     1      23.523 -16.459  -3.199  1.00  0.00     0.004 C 
ENDBRANCH   9  10
ENDBRANCH   8   9
ENDBRANCH   7   8
ENDBRANCH   1   7
TORSDOF 7
ENDMDL
MODEL 5
REMARK VINA RESULT:    -3.637      2.971      5.230
REMARK INTER + INTRA:          -5.556
REMARK INTER:                  -5.147
REMARK INTRA:                  -0.409
REMARK UNBOUND:                -0.431
REMARK SMILES CCCCCCCCC(=O)[O-]
REMARK SMILES IDX 6 1 7 2 8 3 9 4 10 5 11 6 5 7 4 8 3 9 2 10 1 11
REMARK H PARENT
REMARK Flexibility Score: inf
ROOT
ATOM      1  C   UNL     1      25.639 -13.149  -0.697  1.00  0.00     0.000 C 
ENDROOT
BRANCH   1   2
ATOM      2  C   UNL     1      24.229 -13.658  -1.027  1.00  0.00     0.006 C 
BRANCH   2   3
ATOM      3  C   UNL     1      24.106 -14.009  -2.512  1.00  0.00     0.053 C 
BRANCH   3   4
ATOM      4  C   UNL     1      23.406 -15.321  -2.684  1.00  0.00     0.041 C 
ATOM      5  O   UNL     1      22.638 -15.752  -1.785  1.00  0.00    -0.550 OA
ATOM      6  O   UNL     1      23.642 -16.090  -3.817  1.00  0.00    -0.550 OA
ENDBRANCH   3   4
ENDBRANCH   2   3
ENDBRANCH   1   2
BRANCH   1   7
ATOM      7  C   UNL     1      26.702 -13.928  -1.486  1.00  0.00     0.000 C 
BRANCH   7   8
ATOM      8  C   UNL     1      28.134 -13.606  -1.029  1.00  0.00    -0.000 C 
BRANCH   8   9
ATOM      9  C   UNL     1      28.233 -13.372   0.488  1.00  0.00    -0.000 C 
BRANCH   9  10
ATOM     10  C   UNL     1      28.494 -14.671   1.268  1.00  0.00    -0.003 C 
ATOM     11  C   UNL     1      29.300 -15.692   0.465  1.00  0.00     0.004 C 
ENDBRANCH   9  10
ENDBRANCH   8   9
ENDBRANCH   7   8
ENDBRANCH   1   7
TORSDOF 7
ENDMDL
MODEL 6
REMARK VINA RESULT:    -3.615     12.810     14.483
REMARK INTER + INTRA:          -5.525
REMARK INTER:                  -5.050
REMARK INTRA:                  -0.475
REMARK UNBOUND:                -0.431
REMARK SMILES CCCCCCCCC(=O)[O-]
REMARK SMILES IDX 6 1 7 2 8 3 9 4 10 5 11 6 5 7 4 8 3 9 2 10 1 11
REMARK H PARENT
REMARK Flexibility Score: inf
ROOT
ATOM      1  C   UNL     1      25.756 -14.863  15.079  1.00  0.00     0.000 C 
ENDROOT
BRANCH   1   2
ATOM      2  C   UNL     1      27.008 -14.236  14.452  1.00  0.00     0.006 C 
BRANCH   2   3
ATOM      3  C   UNL     1      26.783 -13.927  12.969  1.00  0.00     0.053 C 
BRANCH   3   4
ATOM      4  C   UNL     1      27.719 -12.853  12.510  1.00  0.00     0.041 C 
ATOM      5  O   UNL     1      28.429 -12.232  13.344  1.00  0.00    -0.550 OA
ATOM      6  O   UNL     1      27.769 -12.504  11.166  1.00  0.00    -0.550 OA
ENDBRANCH   3   4
ENDBRANCH   2   3
ENDBRANCH   1   2
BRANCH   1   7
ATOM      7  C   UNL     1      24.505 -14.538  14.250  1.00  0.00     0.000 C 
BRANCH   7   8
ATOM      8  C   UNL     1      23.400 -15.596  14.402  1.00  0.00    -0.000 C 
BRANCH   8   9
ATOM      9  C   UNL     1      22.874 -16.100  13.047  1.00  0.00    -0.000 C 
BRANCH   9  10
ATOM     10  C   UNL     1      23.541 -15.394  11.856  1.00  0.00    -0.003 C 
ATOM     11  C   UNL     1      23.312 -16.123  10.532  1.00  0.00     0.004 C 
ENDBRANCH   9  10
ENDBRANCH   8   9
ENDBRANCH   7   8
ENDBRANCH   1   7
TORSDOF 7
ENDMDL
MODEL 7
REMARK VINA RESULT:    -3.531      2.960      5.849
REMARK INTER + INTRA:          -5.407
REMARK INTER:                  -5.120
REMARK INTRA:                  -0.287
REMARK UNBOUND:                -0.431
REMARK SMILES CCCCCCCCC(=O)[O-]
REMARK SMILES IDX 6 1 7 2 8 3 9 4 10 5 11 6 5 7 4 8 3 9 2 10 1 11
REMARK H PARENT
REMARK Flexibility Score: inf
ROOT
ATOM      1  C   UNL     1      26.404 -13.875  -1.338  1.00  0.00     0.000 C 
ENDROOT
BRANCH   1   2
ATOM      2  C   UNL     1      24.934 -13.527  -1.068  1.00  0.00     0.006 C 
BRANCH   2   3
ATOM      3  C   UNL     1      24.105 -13.613  -2.352  1.00  0.00     0.053 C 
BRANCH   3   4
ATOM      4  C   UNL     1      23.663 -15.021  -2.598  1.00  0.00     0.041 C 
ATOM      5  O   UNL     1      22.795 -15.552  -1.855  1.00  0.00    -0.550 OA
ATOM      6  O   UNL     1      24.246 -15.764  -3.617  1.00  0.00    -0.550 OA
ENDBRANCH   3   4
ENDBRANCH   2   3
ENDBRANCH   1   2
BRANCH   1   7
ATOM      7  C   UNL     1      27.292 -13.464  -0.154  1.00  0.00     0.000 C 
BRANCH   7   8
ATOM      8  C   UNL     1      27.837 -14.671   0.626  1.00  0.00    -0.000 C 
BRANCH   8   9
ATOM      9  C   UNL     1      28.988 -14.292   1.574  1.00  0.00    -0.000 C 
BRANCH   9  10
ATOM     10  C   UNL     1      29.514 -12.870   1.322  1.00  0.00    -0.003 C 
ATOM     11  C   UNL     1      29.650 -12.053   2.608  1.00  0.00     0.004 C 
ENDBRANCH   9  10
ENDBRANCH   8   9
ENDBRANCH   7   8
ENDBRANCH   1   7
TORSDOF 7
ENDMDL
MODEL 8
REMARK VINA RESULT:    -3.490      1.675      3.281
REMARK INTER + INTRA:          -5.350
REMARK INTER:                  -4.748
REMARK INTRA:                  -0.602
REMARK UNBOUND:                -0.431
REMARK SMILES CCCCCCCCC(=O)[O-]
REMARK SMILES IDX 6 1 7 2 8 3 9 4 10 5 11 6 5 7 4 8 3 9 2 10 1 11
REMARK H PARENT
REMARK Flexibility Score: inf
ROOT
ATOM      1  C   UNL     1      25.586 -16.951  -3.836  1.00  0.00     0.000 C 
ENDROOT
BRANCH   1   2
ATOM      2  C   UNL     1      26.736 -15.940  -3.732  1.00  0.00     0.006 C 
BRANCH   2   3
ATOM      3  C   UNL     1      27.777 -16.397  -2.707  1.00  0.00     0.053 C 
BRANCH   3   4
ATOM      4  C   UNL     1      28.130 -15.275  -1.782  1.00  0.00     0.041 C 
ATOM      5  O   UNL     1      28.067 -14.082  -2.180  1.00  0.00    -0.550 OA
ATOM      6  O   UNL     1      28.575 -15.549  -0.495  1.00  0.00    -0.550 OA
ENDBRANCH   3   4
ENDBRANCH   2   3
ENDBRANCH   1   2
BRANCH   1   7
ATOM      7  C   UNL     1      24.242 -16.235  -4.038  1.00  0.00     0.000 C 
BRANCH   7   8
ATOM      8  C   UNL     1      23.227 -16.554  -2.929  1.00  0.00    -0.000 C 
BRANCH   8   9
ATOM      9  C   UNL     1      23.009 -15.372  -1.969  1.00  0.00    -0.000 C 
BRANCH   9  10
ATOM     10  C   UNL     1      23.811 -14.126  -2.376  1.00  0.00    -0.003 C 
ATOM     11  C   UNL     1      24.709 -13.607  -1.253  1.00  0.00     0.004 C 
ENDBRANCH   9  10
ENDBRANCH   8   9
ENDBRANCH   7   8
ENDBRANCH   1   7
TORSDOF 7
ENDMDL
MODEL 9
REMARK VINA RESULT:    -3.355      1.748      2.887
REMARK INTER + INTRA:          -5.159
REMARK INTER:                  -4.505
REMARK INTRA:                  -0.654
REMARK UNBOUND:                -0.431
REMARK SMILES CCCCCCCCC(=O)[O-]
REMARK SMILES IDX 6 1 7 2 8 3 9 4 10 5 11 6 5 7 4 8 3 9 2 10 1 11
REMARK H PARENT
REMARK Flexibility Score: inf
ROOT
ATOM      1  C   UNL     1      27.760 -16.346  -2.736  1.00  0.00     0.000 C 
ENDROOT
BRANCH   1   2
ATOM      2  C   UNL     1      28.011 -15.293  -1.648  1.00  0.00     0.006 C 
BRANCH   2   3
ATOM      3  C   UNL     1      27.060 -14.104  -1.804  1.00  0.00     0.053 C 
BRANCH   3   4
ATOM      4  C   UNL     1      26.614 -13.610  -0.464  1.00  0.00     0.041 C 
ATOM      5  O   UNL     1      27.383 -13.691   0.530  1.00  0.00    -0.550 OA
ATOM      6  O   UNL     1      25.329 -13.105  -0.302  1.00  0.00    -0.550 OA
ENDBRANCH   3   4
ENDBRANCH   2   3
ENDBRANCH   1   2
BRANCH   1   7
ATOM      7  C   UNL     1      26.593 -15.928  -3.644  1.00  0.00     0.000 C 
BRANCH   7   8
ATOM      8  C   UNL     1      25.453 -16.958  -3.656  1.00  0.00    -0.000 C 
BRANCH   8   9
ATOM      9  C   UNL     1      24.079 -16.316  -3.919  1.00  0.00    -0.000 C 
BRANCH   9  10
ATOM     10  C   UNL     1      23.641 -15.377  -2.783  1.00  0.00    -0.003 C 
ATOM     11  C   UNL     1      23.452 -13.934  -3.249  1.00  0.00     0.004 C 
ENDBRANCH   9  10
ENDBRANCH   8   9
ENDBRANCH   7   8
ENDBRANCH   1   7
TORSDOF 7
ENDMDL
