MODEL 1
REMARK VINA RESULT:    -5.776      0.000      0.000
REMARK INTER + INTRA:          -6.529
REMARK INTER:                  -6.789
REMARK INTRA:                   0.260
REMARK UNBOUND:                 0.260
REMARK SMILES O=c1c(O)c(-c2ccc(O)cc2)oc2cc(O)cc(O)c12
REMARK SMILES IDX 5 1 3 2 2 3 1 4 21 5 19 6 18 7 16 8 15 9 14 10 13 11 6 12
REMARK SMILES IDX 7 13 8 14 9 15 12 16 11 17 10 18 4 20 20 22 17 24
REMARK H PARENT 10 19 4 21 20 23 17 25
REMARK Flexibility Score: inf
ROOT
ATOM      1  C   UNL     1      18.003  40.580   5.870  1.00  0.00     0.180 A 
ATOM      2  C   UNL     1      18.307  41.041   4.576  1.00  0.00     0.208 A 
ATOM      3  C   UNL     1      19.315  40.394   3.843  1.00  0.00     0.238 A 
ATOM      4  O   UNL     1      19.620  40.844   2.708  1.00  0.00    -0.285 OA
ATOM      5  C   UNL     1      19.996  39.287   4.405  1.00  0.00     0.111 A 
ATOM      6  C   UNL     1      21.006  38.532   3.737  1.00  0.00     0.134 A 
ATOM      7  C   UNL     1      21.703  37.539   4.436  1.00  0.00     0.093 A 
ATOM      8  C   UNL     1      21.381  37.230   5.761  1.00  0.00     0.123 A 
ATOM      9  C   UNL     1      20.356  37.921   6.402  1.00  0.00     0.094 A 
ATOM     10  C   UNL     1      19.666  38.942   5.742  1.00  0.00     0.146 A 
ATOM     11  O   UNL     1      18.704  39.582   6.394  1.00  0.00    -0.452 OA
ENDROOT
BRANCH   1  12
ATOM     12  C   UNL     1      16.936  41.194   6.693  1.00  0.00     0.021 A 
ATOM     13  C   UNL     1      16.663  42.572   6.632  1.00  0.00     0.016 A 
ATOM     14  C   UNL     1      15.635  43.125   7.401  1.00  0.00     0.047 A 
ATOM     15  C   UNL     1      14.857  42.305   8.229  1.00  0.00     0.115 A 
ATOM     16  C   UNL     1      16.138  40.376   7.511  1.00  0.00     0.016 A 
ATOM     17  C   UNL     1      15.111  40.931   8.279  1.00  0.00     0.047 A 
BRANCH  15  18
ATOM     18  O   UNL     1      13.829  42.844   9.001  1.00  0.00    -0.508 OA
ATOM     19  H   UNL     1      12.929  42.385   9.077  1.00  0.00     0.293 HD
ENDBRANCH  15  18
ENDBRANCH   1  12
BRANCH   2  20
ATOM     20  O   UNL     1      17.638  42.148   4.048  1.00  0.00    -0.502 OA
ATOM     21  H   UNL     1      16.649  42.134   3.832  1.00  0.00     0.293 HD
ENDBRANCH   2  20
BRANCH   6  22
ATOM     22  O   UNL     1      21.341  38.698   2.390  1.00  0.00    -0.507 OA
ATOM     23  H   UNL     1      22.145  38.282   1.943  1.00  0.00     0.293 HD
ENDBRANCH   6  22
BRANCH   8  24
ATOM     24  O   UNL     1      22.068  36.231   6.445  1.00  0.00    -0.508 OA
ATOM     25  H   UNL     1      23.038  36.346   6.718  1.00  0.00     0.293 HD
ENDBRANCH   8  24
TORSDOF 5
ENDMDL
MODEL 2
REMARK VINA RESULT:    -5.772      3.615      5.893
REMARK INTER + INTRA:          -6.524
REMARK INTER:                  -6.247
REMARK INTRA:                  -0.277
REMARK UNBOUND:                 0.260
REMARK SMILES O=c1c(O)c(-c2ccc(O)cc2)oc2cc(O)cc(O)c12
REMARK SMILES IDX 5 1 3 2 2 3 1 4 21 5 19 6 18 7 16 8 15 9 14 10 13 11 6 12
REMARK SMILES IDX 7 13 8 14 9 15 12 16 11 17 10 18 4 20 20 22 17 24
REMARK H PARENT 10 19 4 21 20 23 17 25
REMARK Flexibility Score: inf
ROOT
ATOM      1  C   UNL     1      20.938  39.558   4.903  1.00  0.00     0.180 A 
ATOM      2  C   UNL     1      20.597  40.418   5.962  1.00  0.00     0.208 A 
ATOM      3  C   UNL     1      20.561  39.907   7.269  1.00  0.00     0.238 A 
ATOM      4  O   UNL     1      20.202  40.668   8.205  1.00  0.00    -0.285 OA
ATOM      5  C   UNL     1      20.881  38.548   7.504  1.00  0.00     0.111 A 
ATOM      6  C   UNL     1      20.916  37.935   8.792  1.00  0.00     0.134 A 
ATOM      7  C   UNL     1      21.118  36.553   8.894  1.00  0.00     0.093 A 
ATOM      8  C   UNL     1      21.351  35.773   7.758  1.00  0.00     0.123 A 
ATOM      9  C   UNL     1      21.379  36.373   6.502  1.00  0.00     0.094 A 
ATOM     10  C   UNL     1      21.145  37.744   6.365  1.00  0.00     0.146 A 
ATOM     11  O   UNL     1      21.169  38.273   5.148  1.00  0.00    -0.452 OA
ENDROOT
BRANCH   1  12
ATOM     12  C   UNL     1      21.023  40.029   3.502  1.00  0.00     0.021 A 
ATOM     13  C   UNL     1      22.155  40.713   3.024  1.00  0.00     0.016 A 
ATOM     14  C   UNL     1      22.222  41.127   1.691  1.00  0.00     0.047 A 
ATOM     15  C   UNL     1      21.164  40.851   0.814  1.00  0.00     0.115 A 
ATOM     16  C   UNL     1      19.976  39.738   2.610  1.00  0.00     0.016 A 
ATOM     17  C   UNL     1      20.045  40.154   1.278  1.00  0.00     0.047 A 
BRANCH  15  18
ATOM     18  O   UNL     1      21.219  41.258  -0.517  1.00  0.00    -0.508 OA
ATOM     19  H   UNL     1      22.103  41.432  -0.981  1.00  0.00     0.293 HD
ENDBRANCH  15  18
ENDBRANCH   1  12
BRANCH   2  20
ATOM     20  O   UNL     1      20.264  41.750   5.705  1.00  0.00    -0.502 OA
ATOM     21  H   UNL     1      20.963  42.474   5.589  1.00  0.00     0.293 HD
ENDBRANCH   2  20
BRANCH   6  22
ATOM     22  O   UNL     1      20.786  38.636   9.994  1.00  0.00    -0.507 OA
ATOM     23  H   UNL     1      21.367  39.414  10.272  1.00  0.00     0.293 HD
ENDBRANCH   6  22
BRANCH   8  24
ATOM     24  O   UNL     1      21.567  34.402   7.869  1.00  0.00    -0.508 OA
ATOM     25  H   UNL     1      21.884  33.849   7.080  1.00  0.00     0.293 HD
ENDBRANCH   8  24
TORSDOF 5
ENDMDL
MODEL 3
REMARK VINA RESULT:    -5.568      2.128      6.282
REMARK INTER + INTRA:          -6.285
REMARK INTER:                  -6.288
REMARK INTRA:                   0.003
REMARK UNBOUND:                 0.260
REMARK SMILES O=c1c(O)c(-c2ccc(O)cc2)oc2cc(O)cc(O)c12
REMARK SMILES IDX 5 1 3 2 2 3 1 4 21 5 19 6 18 7 16 8 15 9 14 10 13 11 6 12
REMARK SMILES IDX 7 13 8 14 9 15 12 16 11 17 10 18 4 20 20 22 17 24
REMARK H PARENT 10 19 4 21 20 23 17 25
REMARK Flexibility Score: inf
ROOT
ATOM      1  C   UNL     1      20.691  38.019   6.403  1.00  0.00     0.180 A 
ATOM      2  C   UNL     1      21.100  38.050   5.058  1.00  0.00     0.208 A 
ATOM      3  C   UNL     1      20.538  39.006   4.197  1.00  0.00     0.238 A 
ATOM      4  O   UNL     1      20.868  38.994   2.983  1.00  0.00    -0.285 OA
ATOM      5  C   UNL     1      19.587  39.930   4.695  1.00  0.00     0.111 A 
ATOM      6  C   UNL     1      18.984  40.966   3.922  1.00  0.00     0.134 A 
ATOM      7  C   UNL     1      17.959  41.739   4.483  1.00  0.00     0.093 A 
ATOM      8  C   UNL     1      17.562  41.554   5.810  1.00  0.00     0.123 A 
ATOM      9  C   UNL     1      18.187  40.585   6.590  1.00  0.00     0.094 A 
ATOM     10  C   UNL     1      19.188  39.774   6.048  1.00  0.00     0.146 A 
ATOM     11  O   UNL     1      19.749  38.855   6.823  1.00  0.00    -0.452 OA
ENDROOT
BRANCH   1  12
ATOM     12  C   UNL     1      21.257  37.057   7.376  1.00  0.00     0.021 A 
ATOM     13  C   UNL     1      21.818  37.487   8.593  1.00  0.00     0.016 A 
ATOM     14  C   UNL     1      22.325  36.558   9.506  1.00  0.00     0.047 A 
ATOM     15  C   UNL     1      22.265  35.188   9.222  1.00  0.00     0.115 A 
ATOM     16  C   UNL     1      21.183  35.679   7.110  1.00  0.00     0.016 A 
ATOM     17  C   UNL     1      21.691  34.753   8.024  1.00  0.00     0.047 A 
BRANCH  15  18
ATOM     18  O   UNL     1      22.767  34.252  10.125  1.00  0.00    -0.508 OA
ATOM     19  H   UNL     1      22.155  33.738  10.748  1.00  0.00     0.293 HD
ENDBRANCH  15  18
ENDBRANCH   1  12
BRANCH   2  20
ATOM     20  O   UNL     1      22.024  37.116   4.583  1.00  0.00    -0.502 OA
ATOM     21  H   UNL     1      22.996  37.348   4.414  1.00  0.00     0.293 HD
ENDBRANCH   2  20
BRANCH   6  22
ATOM     22  O   UNL     1      19.369  41.294   2.619  1.00  0.00    -0.507 OA
ATOM     23  H   UNL     1      19.678  42.208   2.324  1.00  0.00     0.293 HD
ENDBRANCH   6  22
BRANCH   8  24
ATOM     24  O   UNL     1      16.552  42.337   6.366  1.00  0.00    -0.508 OA
ATOM     25  H   UNL     1      16.621  42.698   7.311  1.00  0.00     0.293 HD
ENDBRANCH   8  24
TORSDOF 5
ENDMDL
MODEL 4
REMARK VINA RESULT:    -5.551      3.240      6.585
REMARK INTER + INTRA:          -6.264
REMARK INTER:                  -6.186
REMARK INTRA:                  -0.078
REMARK UNBOUND:                 0.260
REMARK SMILES O=c1c(O)c(-c2ccc(O)cc2)oc2cc(O)cc(O)c12
REMARK SMILES IDX 5 1 3 2 2 3 1 4 21 5 19 6 18 7 16 8 15 9 14 10 13 11 6 12
REMARK SMILES IDX 7 13 8 14 9 15 12 16 11 17 10 18 4 20 20 22 17 24
REMARK H PARENT 10 19 4 21 20 23 17 25
REMARK Flexibility Score: inf
ROOT
ATOM      1  C   UNL     1      20.374  40.771   2.007  1.00  0.00     0.180 A 
ATOM      2  C   UNL     1      19.456  41.473   2.808  1.00  0.00     0.208 A 
ATOM      3  C   UNL     1      19.219  41.031   4.119  1.00  0.00     0.238 A 
ATOM      4  O   UNL     1      18.356  41.631   4.813  1.00  0.00    -0.285 OA
ATOM      5  C   UNL     1      19.914  39.903   4.620  1.00  0.00     0.111 A 
ATOM      6  C   UNL     1      19.782  39.393   5.946  1.00  0.00     0.134 A 
ATOM      7  C   UNL     1      20.419  38.194   6.291  1.00  0.00     0.093 A 
ATOM      8  C   UNL     1      21.236  37.524   5.377  1.00  0.00     0.123 A 
ATOM      9  C   UNL     1      21.419  38.046   4.099  1.00  0.00     0.094 A 
ATOM     10  C   UNL     1      20.767  39.221   3.713  1.00  0.00     0.146 A 
ATOM     11  O   UNL     1      20.960  39.678   2.483  1.00  0.00    -0.452 OA
ENDROOT
BRANCH   1  12
ATOM     12  C   UNL     1      20.695  41.191   0.624  1.00  0.00     0.021 A 
ATOM     13  C   UNL     1      19.704  41.258  -0.372  1.00  0.00     0.016 A 
ATOM     14  C   UNL     1      20.028  41.681  -1.664  1.00  0.00     0.047 A 
ATOM     15  C   UNL     1      21.342  42.056  -1.974  1.00  0.00     0.115 A 
ATOM     16  C   UNL     1      22.006  41.589   0.309  1.00  0.00     0.016 A 
ATOM     17  C   UNL     1      22.327  42.011  -0.984  1.00  0.00     0.047 A 
BRANCH  15  18
ATOM     18  O   UNL     1      21.676  42.479  -3.259  1.00  0.00    -0.508 OA
ATOM     19  H   UNL     1      21.146  43.202  -3.732  1.00  0.00     0.293 HD
ENDBRANCH  15  18
ENDBRANCH   1  12
BRANCH   2  20
ATOM     20  O   UNL     1      18.765  42.571   2.288  1.00  0.00    -0.502 OA
ATOM     21  H   UNL     1      18.965  43.523   2.570  1.00  0.00     0.293 HD
ENDBRANCH   2  20
BRANCH   6  22
ATOM     22  O   UNL     1      19.065  40.033   6.961  1.00  0.00    -0.507 OA
ATOM     23  H   UNL     1      19.450  40.724   7.588  1.00  0.00     0.293 HD
ENDBRANCH   6  22
BRANCH   8  24
ATOM     24  O   UNL     1      21.879  36.340   5.733  1.00  0.00    -0.508 OA
ATOM     25  H   UNL     1      22.507  36.296   6.528  1.00  0.00     0.293 HD
ENDBRANCH   8  24
TORSDOF 5
ENDMDL
MODEL 5
REMARK VINA RESULT:    -5.435      2.871      5.777
REMARK INTER + INTRA:          -6.129
REMARK INTER:                  -6.226
REMARK INTRA:                   0.097
REMARK UNBOUND:                 0.260
REMARK SMILES O=c1c(O)c(-c2ccc(O)cc2)oc2cc(O)cc(O)c12
REMARK SMILES IDX 5 1 3 2 2 3 1 4 21 5 19 6 18 7 16 8 15 9 14 10 13 11 6 12
REMARK SMILES IDX 7 13 8 14 9 15 12 16 11 17 10 18 4 20 20 22 17 24
REMARK H PARENT 10 19 4 21 20 23 17 25
REMARK Flexibility Score: inf
ROOT
ATOM      1  C   UNL     1      20.558  38.841   6.286  1.00  0.00     0.180 A 
ATOM      2  C   UNL     1      19.499  39.732   6.543  1.00  0.00     0.208 A 
ATOM      3  C   UNL     1      19.089  40.612   5.528  1.00  0.00     0.238 A 
ATOM      4  O   UNL     1      18.179  41.443   5.781  1.00  0.00    -0.285 OA
ATOM      5  C   UNL     1      19.731  40.581   4.266  1.00  0.00     0.111 A 
ATOM      6  C   UNL     1      19.371  41.398   3.154  1.00  0.00     0.134 A 
ATOM      7  C   UNL     1      20.158  41.376   1.996  1.00  0.00     0.093 A 
ATOM      8  C   UNL     1      21.254  40.516   1.887  1.00  0.00     0.123 A 
ATOM      9  C   UNL     1      21.578  39.670   2.945  1.00  0.00     0.094 A 
ATOM     10  C   UNL     1      20.832  39.696   4.128  1.00  0.00     0.146 A 
ATOM     11  O   UNL     1      21.182  38.882   5.115  1.00  0.00    -0.452 OA
ENDROOT
BRANCH   1  12
ATOM     12  C   UNL     1      21.028  37.867   7.297  1.00  0.00     0.021 A 
ATOM     13  C   UNL     1      21.257  38.246   8.632  1.00  0.00     0.016 A 
ATOM     14  C   UNL     1      21.678  37.302   9.573  1.00  0.00     0.047 A 
ATOM     15  C   UNL     1      21.863  35.965   9.196  1.00  0.00     0.115 A 
ATOM     16  C   UNL     1      21.197  36.520   6.932  1.00  0.00     0.016 A 
ATOM     17  C   UNL     1      21.619  35.579   7.875  1.00  0.00     0.047 A 
BRANCH  15  18
ATOM     18  O   UNL     1      22.283  35.016  10.125  1.00  0.00    -0.508 OA
ATOM     19  H   UNL     1      22.924  35.255  10.872  1.00  0.00     0.293 HD
ENDBRANCH  15  18
ENDBRANCH   1  12
BRANCH   2  20
ATOM     20  O   UNL     1      18.895  39.761   7.802  1.00  0.00    -0.502 OA
ATOM     21  H   UNL     1      17.891  39.831   7.922  1.00  0.00     0.293 HD
ENDBRANCH   2  20
BRANCH   6  22
ATOM     22  O   UNL     1      18.243  42.224   3.125  1.00  0.00    -0.507 OA
ATOM     23  H   UNL     1      18.074  42.988   3.762  1.00  0.00     0.293 HD
ENDBRANCH   6  22
BRANCH   8  24
ATOM     24  O   UNL     1      22.024  40.488   0.726  1.00  0.00    -0.508 OA
ATOM     25  H   UNL     1      22.937  40.048   0.706  1.00  0.00     0.293 HD
ENDBRANCH   8  24
TORSDOF 5
ENDMDL
MODEL 6
REMARK VINA RESULT:    -5.326      3.262      6.473
REMARK INTER + INTRA:          -6.000
REMARK INTER:                  -5.705
REMARK INTRA:                  -0.295
REMARK UNBOUND:                 0.260
REMARK SMILES O=c1c(O)c(-c2ccc(O)cc2)oc2cc(O)cc(O)c12
REMARK SMILES IDX 5 1 3 2 2 3 1 4 21 5 19 6 18 7 16 8 15 9 14 10 13 11 6 12
REMARK SMILES IDX 7 13 8 14 9 15 12 16 11 17 10 18 4 20 20 22 17 24
REMARK H PARENT 10 19 4 21 20 23 17 25
REMARK Flexibility Score: inf
ROOT
ATOM      1  C   UNL     1      21.001  39.300   4.743  1.00  0.00     0.180 A 
ATOM      2  C   UNL     1      21.375  37.990   5.091  1.00  0.00     0.208 A 
ATOM      3  C   UNL     1      21.262  37.583   6.430  1.00  0.00     0.238 A 
ATOM      4  O   UNL     1      21.649  36.428   6.745  1.00  0.00    -0.285 OA
ATOM      5  C   UNL     1      20.762  38.485   7.401  1.00  0.00     0.111 A 
ATOM      6  C   UNL     1      20.567  38.166   8.778  1.00  0.00     0.134 A 
ATOM      7  C   UNL     1      20.190  39.174   9.674  1.00  0.00     0.093 A 
ATOM      8  C   UNL     1      19.938  40.475   9.230  1.00  0.00     0.123 A 
ATOM      9  C   UNL     1      20.067  40.781   7.877  1.00  0.00     0.094 A 
ATOM     10  C   UNL     1      20.477  39.805   6.965  1.00  0.00     0.146 A 
ATOM     11  O   UNL     1      20.598  40.142   5.687  1.00  0.00    -0.452 OA
ENDROOT
BRANCH   1  12
ATOM     12  C   UNL     1      21.068  39.794   3.348  1.00  0.00     0.021 A 
ATOM     13  C   UNL     1      20.012  39.582   2.443  1.00  0.00     0.016 A 
ATOM     14  C   UNL     1      20.088  40.078   1.138  1.00  0.00     0.047 A 
ATOM     15  C   UNL     1      21.213  40.804   0.726  1.00  0.00     0.115 A 
ATOM     16  C   UNL     1      22.183  40.541   2.932  1.00  0.00     0.016 A 
ATOM     17  C   UNL     1      22.257  41.035   1.627  1.00  0.00     0.047 A 
BRANCH  15  18
ATOM     18  O   UNL     1      21.300  41.303  -0.572  1.00  0.00    -0.508 OA
ATOM     19  H   UNL     1      20.618  41.057  -1.280  1.00  0.00     0.293 HD
ENDBRANCH  15  18
ENDBRANCH   1  12
BRANCH   2  20
ATOM     20  O   UNL     1      21.886  37.124   4.121  1.00  0.00    -0.502 OA
ATOM     21  H   UNL     1      22.185  37.445   3.208  1.00  0.00     0.293 HD
ENDBRANCH   2  20
BRANCH   6  22
ATOM     22  O   UNL     1      20.703  36.880   9.309  1.00  0.00    -0.507 OA
ATOM     23  H   UNL     1      20.249  36.056   8.942  1.00  0.00     0.293 HD
ENDBRANCH   6  22
BRANCH   8  24
ATOM     24  O   UNL     1      19.548  41.469  10.125  1.00  0.00    -0.508 OA
ATOM     25  H   UNL     1      18.664  41.422  10.617  1.00  0.00     0.293 HD
ENDBRANCH   8  24
TORSDOF 5
ENDMDL
MODEL 7
REMARK VINA RESULT:    -5.086      2.485      5.685
REMARK INTER + INTRA:          -5.718
REMARK INTER:                  -5.482
REMARK INTRA:                  -0.236
REMARK UNBOUND:                 0.260
REMARK SMILES O=c1c(O)c(-c2ccc(O)cc2)oc2cc(O)cc(O)c12
REMARK SMILES IDX 5 1 3 2 2 3 1 4 21 5 19 6 18 7 16 8 15 9 14 10 13 11 6 12
REMARK SMILES IDX 7 13 8 14 9 15 12 16 11 17 10 18 4 20 20 22 17 24
REMARK H PARENT 10 19 4 21 20 23 17 25
REMARK Flexibility Score: inf
ROOT
ATOM      1  C   UNL     1      19.343  40.468   4.803  1.00  0.00     0.180 A 
ATOM      2  C   UNL     1      18.106  40.889   5.323  1.00  0.00     0.208 A 
ATOM      3  C   UNL     1      17.832  40.675   6.683  1.00  0.00     0.238 A 
ATOM      4  O   UNL     1      16.703  41.004   7.132  1.00  0.00    -0.285 OA
ATOM      5  C   UNL     1      18.803  40.058   7.510  1.00  0.00     0.111 A 
ATOM      6  C   UNL     1      18.648  39.830   8.910  1.00  0.00     0.134 A 
ATOM      7  C   UNL     1      19.619  39.095   9.601  1.00  0.00     0.093 A 
ATOM      8  C   UNL     1      20.772  38.637   8.956  1.00  0.00     0.123 A 
ATOM      9  C   UNL     1      20.960  38.908   7.603  1.00  0.00     0.094 A 
ATOM     10  C   UNL     1      19.991  39.608   6.878  1.00  0.00     0.146 A 
ATOM     11  O   UNL     1      20.206  39.834   5.588  1.00  0.00    -0.452 OA
ENDROOT
BRANCH   1  12
ATOM     12  C   UNL     1      19.714  40.682   3.385  1.00  0.00     0.021 A 
ATOM     13  C   UNL     1      20.055  41.958   2.900  1.00  0.00     0.016 A 
ATOM     14  C   UNL     1      20.425  42.131   1.563  1.00  0.00     0.047 A 
ATOM     15  C   UNL     1      20.473  41.030   0.698  1.00  0.00     0.115 A 
ATOM     16  C   UNL     1      19.785  39.580   2.515  1.00  0.00     0.016 A 
ATOM     17  C   UNL     1      20.155  39.756   1.179  1.00  0.00     0.047 A 
BRANCH  15  18
ATOM     18  O   UNL     1      20.840  41.189  -0.637  1.00  0.00    -0.508 OA
ATOM     19  H   UNL     1      21.649  40.717  -1.022  1.00  0.00     0.293 HD
ENDBRANCH  15  18
ENDBRANCH   1  12
BRANCH   2  20
ATOM     20  O   UNL     1      17.154  41.475   4.486  1.00  0.00    -0.502 OA
ATOM     21  H   UNL     1      17.387  42.207   3.825  1.00  0.00     0.293 HD
ENDBRANCH   2  20
BRANCH   6  22
ATOM     22  O   UNL     1      17.582  40.321   9.668  1.00  0.00    -0.507 OA
ATOM     23  H   UNL     1      16.978  39.754  10.244  1.00  0.00     0.293 HD
ENDBRANCH   6  22
BRANCH   8  24
ATOM     24  O   UNL     1      21.740  37.920   9.654  1.00  0.00    -0.508 OA
ATOM     25  H   UNL     1      22.645  37.714   9.245  1.00  0.00     0.293 HD
ENDBRANCH   8  24
TORSDOF 5
ENDMDL
MODEL 8
REMARK VINA RESULT:    -4.983      2.941      6.713
REMARK INTER + INTRA:          -5.597
REMARK INTER:                  -5.414
REMARK INTRA:                  -0.184
REMARK UNBOUND:                 0.260
REMARK SMILES O=c1c(O)c(-c2ccc(O)cc2)oc2cc(O)cc(O)c12
REMARK SMILES IDX 5 1 3 2 2 3 1 4 21 5 19 6 18 7 16 8 15 9 14 10 13 11 6 12
REMARK SMILES IDX 7 13 8 14 9 15 12 16 11 17 10 18 4 20 20 22 17 24
REMARK H PARENT 10 19 4 21 20 23 17 25
REMARK Flexibility Score: inf
ROOT
ATOM      1  C   UNL     1      21.094  40.174   3.002  1.00  0.00     0.180 A 
ATOM      2  C   UNL     1      21.619  38.903   3.297  1.00  0.00     0.208 A 
ATOM      3  C   UNL     1      21.400  38.355   4.571  1.00  0.00     0.238 A 
ATOM      4  O   UNL     1      21.917  37.241   4.847  1.00  0.00    -0.285 OA
ATOM      5  C   UNL     1      20.647  39.077   5.529  1.00  0.00     0.111 A 
ATOM      6  C   UNL     1      20.330  38.600   6.836  1.00  0.00     0.134 A 
ATOM      7  C   UNL     1      19.691  39.452   7.746  1.00  0.00     0.093 A 
ATOM      8  C   UNL     1      19.300  40.741   7.373  1.00  0.00     0.123 A 
ATOM      9  C   UNL     1      19.552  41.193   6.080  1.00  0.00     0.094 A 
ATOM     10  C   UNL     1      20.220  40.379   5.161  1.00  0.00     0.146 A 
ATOM     11  O   UNL     1      20.449  40.854   3.943  1.00  0.00    -0.452 OA
ENDROOT
BRANCH   1  12
ATOM     12  C   UNL     1      21.261  40.806   1.673  1.00  0.00     0.021 A 
ATOM     13  C   UNL     1      22.514  41.268   1.232  1.00  0.00     0.016 A 
ATOM     14  C   UNL     1      22.651  41.839  -0.037  1.00  0.00     0.047 A 
ATOM     15  C   UNL     1      21.541  41.943  -0.885  1.00  0.00     0.115 A 
ATOM     16  C   UNL     1      20.157  40.895   0.807  1.00  0.00     0.016 A 
ATOM     17  C   UNL     1      20.297  41.467  -0.460  1.00  0.00     0.047 A 
BRANCH  15  18
ATOM     18  O   UNL     1      21.665  42.510  -2.152  1.00  0.00    -0.508 OA
ATOM     19  H   UNL     1      22.193  43.363  -2.300  1.00  0.00     0.293 HD
ENDBRANCH  15  18
ENDBRANCH   1  12
BRANCH   2  20
ATOM     20  O   UNL     1      22.377  38.217   2.344  1.00  0.00    -0.502 OA
ATOM     21  H   UNL     1      22.692  37.264   2.483  1.00  0.00     0.293 HD
ENDBRANCH   2  20
BRANCH   6  22
ATOM     22  O   UNL     1      20.594  37.301   7.279  1.00  0.00    -0.507 OA
ATOM     23  H   UNL     1      20.096  36.478   6.974  1.00  0.00     0.293 HD
ENDBRANCH   6  22
BRANCH   8  24
ATOM     24  O   UNL     1      18.651  41.577   8.278  1.00  0.00    -0.508 OA
ATOM     25  H   UNL     1      17.701  41.395   8.582  1.00  0.00     0.293 HD
ENDBRANCH   8  24
TORSDOF 5
ENDMDL
