MODEL 1
REMARK VINA RESULT:    -4.724      0.000      0.000
REMARK INTER + INTRA:          -5.098
REMARK INTER:                  -5.000
REMARK INTRA:                  -0.097
REMARK UNBOUND:                -0.097
REMARK SMILES C=C(C)[C@H]1CC=C(C)C(=O)C1
REMARK SMILES IDX 8 1 7 2 6 3 5 4 4 5 11 6 9 7 10 8 2 9 1 10 3 11
REMARK H PARENT
REMARK Flexibility Score: inf
ROOT
ATOM      1  C   UNL     1      75.219  74.300  78.073  1.00  0.00     0.048 C 
ATOM      2  C   UNL     1      75.001  74.352  76.586  1.00  0.00    -0.012 C 
ATOM      3  C   UNL     1      73.845  73.910  76.063  1.00  0.00    -0.019 C 
ATOM      4  C   UNL     1      73.582  73.922  74.581  1.00  0.00     0.036 C 
ATOM      5  C   UNL     1      74.284  75.115  73.904  1.00  0.00     0.025 C 
ATOM      6  C   UNL     1      75.789  75.103  74.228  1.00  0.00     0.089 C 
ATOM      7  C   UNL     1      76.009  75.006  75.714  1.00  0.00     0.158 C 
ATOM      8  O   UNL     1      77.078  75.455  76.207  1.00  0.00    -0.295 OA
ENDROOT
BRANCH   5   9
ATOM      9  C   UNL     1      74.040  75.126  72.401  1.00  0.00    -0.077 C 
ATOM     10  C   UNL     1      74.850  75.827  71.592  1.00  0.00     0.008 C 
ATOM     11  C   UNL     1      72.895  74.359  71.785  1.00  0.00     0.039 C 
ENDBRANCH   5   9
TORSDOF 1
ENDMDL
MODEL 2
REMARK VINA RESULT:    -3.753      1.643      2.416
REMARK INTER + INTRA:          -4.069
REMARK INTER:                  -3.977
REMARK INTRA:                  -0.093
REMARK UNBOUND:                -0.097
REMARK SMILES C=C(C)[C@H]1CC=C(C)C(=O)C1
REMARK SMILES IDX 8 1 7 2 6 3 5 4 4 5 11 6 9 7 10 8 2 9 1 10 3 11
REMARK H PARENT
REMARK Flexibility Score: inf
ROOT
ATOM      1  C   UNL     1      74.986  74.222  77.967  1.00  0.00     0.048 C 
ATOM      2  C   UNL     1      74.945  74.504  76.490  1.00  0.00    -0.012 C 
ATOM      3  C   UNL     1      76.052  74.934  75.860  1.00  0.00    -0.019 C 
ATOM      4  C   UNL     1      76.062  75.250  74.388  1.00  0.00     0.036 C 
ATOM      5  C   UNL     1      75.088  74.335  73.620  1.00  0.00     0.025 C 
ATOM      6  C   UNL     1      73.676  74.428  74.226  1.00  0.00     0.089 C 
ATOM      7  C   UNL     1      73.722  74.189  75.710  1.00  0.00     0.158 C 
ATOM      8  O   UNL     1      72.694  73.752  76.294  1.00  0.00    -0.295 OA
ENDROOT
BRANCH   5   9
ATOM      9  C   UNL     1      75.076  74.659  72.131  1.00  0.00    -0.077 C 
ATOM     10  C   UNL     1      74.548  73.788  71.257  1.00  0.00     0.008 C 
ATOM     11  C   UNL     1      75.650  75.951  71.604  1.00  0.00     0.039 C 
ENDBRANCH   5   9
TORSDOF 1
ENDMDL
MODEL 3
REMARK VINA RESULT:    -3.441      8.483      9.550
REMARK INTER + INTRA:          -3.740
REMARK INTER:                  -3.649
REMARK INTRA:                  -0.091
REMARK UNBOUND:                -0.097
REMARK SMILES C=C(C)[C@H]1CC=C(C)C(=O)C1
REMARK SMILES IDX 8 1 7 2 6 3 5 4 4 5 11 6 9 7 10 8 2 9 1 10 3 11
REMARK H PARENT
REMARK Flexibility Score: inf
ROOT
ATOM      1  C   UNL     1      73.065  69.761  82.498  1.00  0.00     0.048 C 
ATOM      2  C   UNL     1      73.630  71.140  82.701  1.00  0.00    -0.012 C 
ATOM      3  C   UNL     1      72.961  72.211  82.239  1.00  0.00    -0.019 C 
ATOM      4  C   UNL     1      73.490  73.612  82.398  1.00  0.00     0.036 C 
ATOM      5  C   UNL     1      74.294  73.755  83.705  1.00  0.00     0.025 C 
ATOM      6  C   UNL     1      75.414  72.701  83.762  1.00  0.00     0.089 C 
ATOM      7  C   UNL     1      74.857  71.325  83.516  1.00  0.00     0.158 C 
ATOM      8  O   UNL     1      75.465  70.324  83.981  1.00  0.00    -0.295 OA
ENDROOT
BRANCH   5   9
ATOM      9  C   UNL     1      74.849  75.164  83.866  1.00  0.00    -0.077 C 
ATOM     10  C   UNL     1      74.021  76.189  84.124  1.00  0.00     0.008 C 
ATOM     11  C   UNL     1      76.327  75.446  83.742  1.00  0.00     0.039 C 
ENDBRANCH   5   9
TORSDOF 1
ENDMDL
MODEL 4
REMARK VINA RESULT:    -3.318      9.375     10.108
REMARK INTER + INTRA:          -3.609
REMARK INTER:                  -3.515
REMARK INTRA:                  -0.094
REMARK UNBOUND:                -0.097
REMARK SMILES C=C(C)[C@H]1CC=C(C)C(=O)C1
REMARK SMILES IDX 8 1 7 2 6 3 5 4 4 5 11 6 9 7 10 8 2 9 1 10 3 11
REMARK H PARENT
REMARK Flexibility Score: inf
ROOT
ATOM      1  C   UNL     1      71.577  68.483  82.259  1.00  0.00     0.048 C 
ATOM      2  C   UNL     1      72.259  69.742  82.719  1.00  0.00    -0.012 C 
ATOM      3  C   UNL     1      73.461  70.074  82.216  1.00  0.00    -0.019 C 
ATOM      4  C   UNL     1      74.196  71.313  82.655  1.00  0.00     0.036 C 
ATOM      5  C   UNL     1      73.211  72.443  83.012  1.00  0.00     0.025 C 
ATOM      6  C   UNL     1      72.203  71.959  84.069  1.00  0.00     0.089 C 
ATOM      7  C   UNL     1      71.551  70.676  83.630  1.00  0.00     0.158 C 
ATOM      8  O   UNL     1      70.409  70.383  84.075  1.00  0.00    -0.295 OA
ENDROOT
BRANCH   5   9
ATOM      9  C   UNL     1      73.944  73.695  83.476  1.00  0.00    -0.077 C 
ATOM     10  C   UNL     1      73.267  74.837  83.672  1.00  0.00     0.008 C 
ATOM     11  C   UNL     1      75.432  73.687  83.725  1.00  0.00     0.039 C 
ENDBRANCH   5   9
TORSDOF 1
ENDMDL
MODEL 5
REMARK VINA RESULT:    -3.298      8.773      9.275
REMARK INTER + INTRA:          -3.588
REMARK INTER:                  -3.491
REMARK INTRA:                  -0.097
REMARK UNBOUND:                -0.097
REMARK SMILES C=C(C)[C@H]1CC=C(C)C(=O)C1
REMARK SMILES IDX 8 1 7 2 6 3 5 4 4 5 11 6 9 7 10 8 2 9 1 10 3 11
REMARK H PARENT
REMARK Flexibility Score: inf
ROOT
ATOM      1  C   UNL     1      74.473  77.028  84.119  1.00  0.00     0.048 C 
ATOM      2  C   UNL     1      74.148  75.570  83.940  1.00  0.00    -0.012 C 
ATOM      3  C   UNL     1      72.877  75.149  84.054  1.00  0.00    -0.019 C 
ATOM      4  C   UNL     1      72.499  73.699  83.903  1.00  0.00     0.036 C 
ATOM      5  C   UNL     1      73.419  72.990  82.892  1.00  0.00     0.025 C 
ATOM      6  C   UNL     1      74.894  73.168  83.295  1.00  0.00     0.089 C 
ATOM      7  C   UNL     1      75.210  74.622  83.517  1.00  0.00     0.158 C 
ATOM      8  O   UNL     1      76.396  75.022  83.375  1.00  0.00    -0.295 OA
ENDROOT
BRANCH   5   9
ATOM      9  C   UNL     1      73.057  71.518  82.746  1.00  0.00    -0.077 C 
ATOM     10  C   UNL     1      73.906  70.673  82.140  1.00  0.00     0.008 C 
ATOM     11  C   UNL     1      71.752  70.974  83.273  1.00  0.00     0.039 C 
ENDBRANCH   5   9
TORSDOF 1
ENDMDL
MODEL 6
REMARK VINA RESULT:    -3.219      9.031      9.540
REMARK INTER + INTRA:          -3.504
REMARK INTER:                  -3.407
REMARK INTRA:                  -0.097
REMARK UNBOUND:                -0.097
REMARK SMILES C=C(C)[C@H]1CC=C(C)C(=O)C1
REMARK SMILES IDX 8 1 7 2 6 3 5 4 4 5 11 6 9 7 10 8 2 9 1 10 3 11
REMARK H PARENT
REMARK Flexibility Score: inf
ROOT
ATOM      1  C   UNL     1      74.888  72.753  84.125  1.00  0.00     0.048 C 
ATOM      2  C   UNL     1      75.235  74.207  83.954  1.00  0.00    -0.012 C 
ATOM      3  C   UNL     1      76.522  74.578  83.841  1.00  0.00    -0.019 C 
ATOM      4  C   UNL     1      76.926  76.021  83.687  1.00  0.00     0.036 C 
ATOM      5  C   UNL     1      75.861  76.813  82.905  1.00  0.00     0.025 C 
ATOM      6  C   UNL     1      74.484  76.663  83.574  1.00  0.00     0.089 C 
ATOM      7  C   UNL     1      74.154  75.210  83.785  1.00  0.00     0.158 C 
ATOM      8  O   UNL     1      72.946  74.858  83.855  1.00  0.00    -0.295 OA
ENDROOT
BRANCH   5   9
ATOM      9  C   UNL     1      76.252  78.278  82.760  1.00  0.00    -0.077 C 
ATOM     10  C   UNL     1      75.338  79.183  82.375  1.00  0.00     0.008 C 
ATOM     11  C   UNL     1      77.658  78.748  83.041  1.00  0.00     0.039 C 
ENDBRANCH   5   9
TORSDOF 1
ENDMDL
MODEL 7
REMARK VINA RESULT:    -3.124      9.016      9.929
REMARK INTER + INTRA:          -3.404
REMARK INTER:                  -3.309
REMARK INTRA:                  -0.095
REMARK UNBOUND:                -0.097
REMARK SMILES C=C(C)[C@H]1CC=C(C)C(=O)C1
REMARK SMILES IDX 8 1 7 2 6 3 5 4 4 5 11 6 9 7 10 8 2 9 1 10 3 11
REMARK H PARENT
REMARK Flexibility Score: inf
ROOT
ATOM      1  C   UNL     1      77.420  80.087  83.178  1.00  0.00     0.048 C 
ATOM      2  C   UNL     1      76.644  78.799  83.189  1.00  0.00    -0.012 C 
ATOM      3  C   UNL     1      77.241  77.655  82.810  1.00  0.00    -0.019 C 
ATOM      4  C   UNL     1      76.505  76.341  82.785  1.00  0.00     0.036 C 
ATOM      5  C   UNL     1      75.441  76.281  83.897  1.00  0.00     0.025 C 
ATOM      6  C   UNL     1      74.487  77.484  83.790  1.00  0.00     0.089 C 
ATOM      7  C   UNL     1      75.264  78.772  83.735  1.00  0.00     0.158 C 
ATOM      8  O   UNL     1      74.716  79.837  84.124  1.00  0.00    -0.295 OA
ENDROOT
BRANCH   5   9
ATOM      9  C   UNL     1      74.678  74.963  83.868  1.00  0.00    -0.077 C 
ATOM     10  C   UNL     1      75.333  73.811  83.655  1.00  0.00     0.008 C 
ATOM     11  C   UNL     1      73.185  74.915  84.075  1.00  0.00     0.039 C 
ENDBRANCH   5   9
TORSDOF 1
ENDMDL
MODEL 8
REMARK VINA RESULT:    -3.027      9.290     10.166
REMARK INTER + INTRA:          -3.302
REMARK INTER:                  -3.204
REMARK INTRA:                  -0.098
REMARK UNBOUND:                -0.097
REMARK SMILES C=C(C)[C@H]1CC=C(C)C(=O)C1
REMARK SMILES IDX 8 1 7 2 6 3 5 4 4 5 11 6 9 7 10 8 2 9 1 10 3 11
REMARK H PARENT
REMARK Flexibility Score: inf
ROOT
ATOM      1  C   UNL     1      74.808  73.331  83.461  1.00  0.00     0.048 C 
ATOM      2  C   UNL     1      73.840  72.180  83.482  1.00  0.00    -0.012 C 
ATOM      3  C   UNL     1      72.526  72.414  83.637  1.00  0.00    -0.019 C 
ATOM      4  C   UNL     1      71.516  71.298  83.683  1.00  0.00     0.036 C 
ATOM      5  C   UNL     1      71.952  70.120  82.793  1.00  0.00     0.025 C 
ATOM      6  C   UNL     1      73.362  69.645  83.186  1.00  0.00     0.089 C 
ATOM      7  C   UNL     1      74.323  70.803  83.208  1.00  0.00     0.158 C 
ATOM      8  O   UNL     1      75.551  70.587  83.026  1.00  0.00    -0.295 OA
ENDROOT
BRANCH   5   9
ATOM      9  C   UNL     1      70.946  68.977  82.848  1.00  0.00    -0.077 C 
ATOM     10  C   UNL     1      71.354  67.712  82.661  1.00  0.00     0.008 C 
ATOM     11  C   UNL     1      69.482  69.231  83.112  1.00  0.00     0.039 C 
ENDBRANCH   5   9
TORSDOF 1
ENDMDL
MODEL 9
REMARK VINA RESULT:    -2.956      9.050      9.625
REMARK INTER + INTRA:          -3.226
REMARK INTER:                  -3.129
REMARK INTRA:                  -0.098
REMARK UNBOUND:                -0.097
REMARK SMILES C=C(C)[C@H]1CC=C(C)C(=O)C1
REMARK SMILES IDX 8 1 7 2 6 3 5 4 4 5 11 6 9 7 10 8 2 9 1 10 3 11
REMARK H PARENT
REMARK Flexibility Score: inf
ROOT
ATOM      1  C   UNL     1      77.613  78.711  83.226  1.00  0.00     0.048 C 
ATOM      2  C   UNL     1      76.751  77.512  83.512  1.00  0.00    -0.012 C 
ATOM      3  C   UNL     1      75.414  77.612  83.416  1.00  0.00    -0.019 C 
ATOM      4  C   UNL     1      74.503  76.448  83.709  1.00  0.00     0.036 C 
ATOM      5  C   UNL     1      75.170  75.114  83.326  1.00  0.00     0.025 C 
ATOM      6  C   UNL     1      76.534  74.976  84.026  1.00  0.00     0.089 C 
ATOM      7  C   UNL     1      77.381  76.195  83.777  1.00  0.00     0.158 C 
ATOM      8  O   UNL     1      78.636  76.092  83.832  1.00  0.00    -0.295 OA
ENDROOT
BRANCH   5   9
ATOM      9  C   UNL     1      74.265  73.929  83.636  1.00  0.00    -0.077 C 
ATOM     10  C   UNL     1      74.794  72.713  83.842  1.00  0.00     0.008 C 
ATOM     11  C   UNL     1      72.766  74.086  83.721  1.00  0.00     0.039 C 
ENDBRANCH   5   9
TORSDOF 1
ENDMDL
