MODEL 1
REMARK VINA RESULT:    -3.919      0.000      0.000
REMARK INTER + INTRA:          -9.361
REMARK INTER:                  -7.127
REMARK INTRA:                  -2.235
REMARK UNBOUND:                -2.235
REMARK SMILES CCCCCCCCCCCCCCCC(=O)[O-]
REMARK SMILES IDX 9 1 10 2 11 3 12 4 13 5 14 6 15 7 16 8 17 9 18 10 8 11 7 12
REMARK SMILES IDX 6 13 5 14 4 15 3 16 2 17 1 18
REMARK H PARENT
REMARK Flexibility Score: inf
ROOT
ATOM      1  C   UNL     1     -25.263   2.284 -19.814  1.00  0.00     0.000 C 
ENDROOT
BRANCH   1   2
ATOM      2  C   UNL     1     -26.599   2.936 -20.203  1.00  0.00     0.000 C 
BRANCH   2   3
ATOM      3  C   UNL     1     -27.815   2.149 -19.685  1.00  0.00     0.000 C 
BRANCH   3   4
ATOM      4  C   UNL     1     -28.669   1.548 -20.817  1.00  0.00     0.000 C 
BRANCH   4   5
ATOM      5  C   UNL     1     -28.562   0.021 -20.981  1.00  0.00     0.000 C 
BRANCH   5   6
ATOM      6  C   UNL     1     -27.797  -0.398 -22.247  1.00  0.00     0.006 C 
BRANCH   6   7
ATOM      7  C   UNL     1     -27.326  -1.851 -22.141  1.00  0.00     0.053 C 
BRANCH   7   8
ATOM      8  C   UNL     1     -26.417  -2.193 -23.281  1.00  0.00     0.041 C 
ATOM      9  O   UNL     1     -25.516  -1.383 -23.637  1.00  0.00    -0.550 OA
ATOM     10  O   UNL     1     -26.607  -3.370 -23.990  1.00  0.00    -0.550 OA
ENDBRANCH   7   8
ENDBRANCH   6   7
ENDBRANCH   5   6
ENDBRANCH   4   5
ENDBRANCH   3   4
ENDBRANCH   2   3
ENDBRANCH   1   2
BRANCH   1  11
ATOM     11  C   UNL     1     -24.856   1.141 -20.764  1.00  0.00     0.000 C 
BRANCH  11  12
ATOM     12  C   UNL     1     -24.775  -0.222 -20.057  1.00  0.00    -0.000 C 
BRANCH  12  13
ATOM     13  C   UNL     1     -25.185  -0.149 -18.575  1.00  0.00    -0.000 C 
BRANCH  13  14
ATOM     14  C   UNL     1     -24.000  -0.364 -17.615  1.00  0.00    -0.000 C 
BRANCH  14  15
ATOM     15  C   UNL     1     -22.647  -0.626 -18.304  1.00  0.00    -0.000 C 
BRANCH  15  16
ATOM     16  C   UNL     1     -21.641   0.522 -18.102  1.00  0.00    -0.000 C 
BRANCH  16  17
ATOM     17  C   UNL     1     -21.185   1.144 -19.432  1.00  0.00    -0.003 C 
ATOM     18  C   UNL     1     -21.673   2.584 -19.609  1.00  0.00     0.004 C 
ENDBRANCH  16  17
ENDBRANCH  15  16
ENDBRANCH  14  15
ENDBRANCH  13  14
ENDBRANCH  12  13
ENDBRANCH  11  12
ENDBRANCH   1  11
TORSDOF 14
ENDMDL
MODEL 2
REMARK VINA RESULT:    -3.799      2.190      4.207
REMARK INTER + INTRA:          -9.143
REMARK INTER:                  -6.964
REMARK INTRA:                  -2.179
REMARK UNBOUND:                -2.235
REMARK SMILES CCCCCCCCCCCCCCCC(=O)[O-]
REMARK SMILES IDX 9 1 10 2 11 3 12 4 13 5 14 6 15 7 16 8 17 9 18 10 8 11 7 12
REMARK SMILES IDX 6 13 5 14 4 15 3 16 2 17 1 18
REMARK H PARENT
REMARK Flexibility Score: inf
ROOT
ATOM      1  C   UNL     1     -23.175  -1.516 -21.052  1.00  0.00     0.000 C 
ENDROOT
BRANCH   1   2
ATOM      2  C   UNL     1     -22.490  -2.839 -21.430  1.00  0.00     0.000 C 
BRANCH   2   3
ATOM      3  C   UNL     1     -22.111  -2.904 -22.920  1.00  0.00     0.000 C 
BRANCH   3   4
ATOM      4  C   UNL     1     -23.123  -2.181 -23.829  1.00  0.00     0.000 C 
BRANCH   4   5
ATOM      5  C   UNL     1     -24.217  -3.077 -24.437  1.00  0.00     0.000 C 
BRANCH   5   6
ATOM      6  C   UNL     1     -25.638  -2.659 -24.026  1.00  0.00     0.006 C 
BRANCH   6   7
ATOM      7  C   UNL     1     -26.255  -3.690 -23.079  1.00  0.00     0.053 C 
BRANCH   7   8
ATOM      8  C   UNL     1     -27.729  -3.463 -22.942  1.00  0.00     0.041 C 
ATOM      9  O   UNL     1     -28.219  -2.324 -23.179  1.00  0.00    -0.550 OA
ATOM     10  O   UNL     1     -28.550  -4.486 -22.489  1.00  0.00    -0.550 OA
ENDBRANCH   7   8
ENDBRANCH   6   7
ENDBRANCH   5   6
ENDBRANCH   4   5
ENDBRANCH   3   4
ENDBRANCH   2   3
ENDBRANCH   1   2
BRANCH   1  11
ATOM     11  C   UNL     1     -24.519  -1.724 -20.329  1.00  0.00     0.000 C 
BRANCH  11  12
ATOM     12  C   UNL     1     -25.596  -0.720 -20.773  1.00  0.00    -0.000 C 
BRANCH  12  13
ATOM     13  C   UNL     1     -25.004   0.619 -21.247  1.00  0.00    -0.000 C 
BRANCH  13  14
ATOM     14  C   UNL     1     -25.116   1.731 -20.188  1.00  0.00    -0.000 C 
BRANCH  14  15
ATOM     15  C   UNL     1     -23.778   2.169 -19.564  1.00  0.00    -0.000 C 
BRANCH  15  16
ATOM     16  C   UNL     1     -23.263   1.184 -18.499  1.00  0.00    -0.000 C 
BRANCH  16  17
ATOM     17  C   UNL     1     -21.733   1.041 -18.519  1.00  0.00    -0.003 C 
ATOM     18  C   UNL     1     -21.106   1.592 -19.802  1.00  0.00     0.004 C 
ENDBRANCH  16  17
ENDBRANCH  15  16
ENDBRANCH  14  15
ENDBRANCH  13  14
ENDBRANCH  12  13
ENDBRANCH  11  12
ENDBRANCH   1  11
TORSDOF 14
ENDMDL
MODEL 3
REMARK VINA RESULT:    -3.796      5.153      7.816
REMARK INTER + INTRA:          -9.138
REMARK INTER:                  -7.673
REMARK INTRA:                  -1.465
REMARK UNBOUND:                -2.235
REMARK SMILES CCCCCCCCCCCCCCCC(=O)[O-]
REMARK SMILES IDX 9 1 10 2 11 3 12 4 13 5 14 6 15 7 16 8 17 9 18 10 8 11 7 12
REMARK SMILES IDX 6 13 5 14 4 15 3 16 2 17 1 18
REMARK H PARENT
REMARK Flexibility Score: inf
ROOT
ATOM      1  C   UNL     1     -22.815  -2.567 -24.862  1.00  0.00     0.000 C 
ENDROOT
BRANCH   1   2
ATOM      2  C   UNL     1     -21.744  -1.516 -24.526  1.00  0.00     0.000 C 
BRANCH   2   3
ATOM      3  C   UNL     1     -20.822  -1.959 -23.376  1.00  0.00     0.000 C 
BRANCH   3   4
ATOM      4  C   UNL     1     -21.175  -3.354 -22.826  1.00  0.00     0.000 C 
BRANCH   4   5
ATOM      5  C   UNL     1     -21.893  -3.360 -21.465  1.00  0.00     0.000 C 
BRANCH   5   6
ATOM      6  C   UNL     1     -21.222  -4.279 -20.432  1.00  0.00     0.006 C 
BRANCH   6   7
ATOM      7  C   UNL     1     -20.150  -5.149 -21.093  1.00  0.00     0.053 C 
BRANCH   7   8
ATOM      8  C   UNL     1     -19.395  -5.929 -20.062  1.00  0.00     0.041 C 
ATOM      9  O   UNL     1     -19.070  -5.386 -18.969  1.00  0.00    -0.550 OA
ATOM     10  O   UNL     1     -18.991  -7.228 -20.333  1.00  0.00    -0.550 OA
ENDBRANCH   7   8
ENDBRANCH   6   7
ENDBRANCH   5   6
ENDBRANCH   4   5
ENDBRANCH   3   4
ENDBRANCH   2   3
ENDBRANCH   1   2
BRANCH   1  11
ATOM     11  C   UNL     1     -24.212  -1.951 -25.066  1.00  0.00     0.000 C 
BRANCH  11  12
ATOM     12  C   UNL     1     -25.297  -2.641 -24.221  1.00  0.00    -0.000 C 
BRANCH  12  13
ATOM     13  C   UNL     1     -24.755  -3.837 -23.418  1.00  0.00    -0.000 C 
BRANCH  13  14
ATOM     14  C   UNL     1     -25.551  -4.100 -22.126  1.00  0.00    -0.000 C 
BRANCH  14  15
ATOM     15  C   UNL     1     -26.137  -2.841 -21.458  1.00  0.00    -0.000 C 
BRANCH  15  16
ATOM     16  C   UNL     1     -27.646  -2.962 -21.175  1.00  0.00    -0.000 C 
BRANCH  16  17
ATOM     17  C   UNL     1     -28.315  -4.063 -22.013  1.00  0.00    -0.003 C 
ATOM     18  C   UNL     1     -28.878  -3.539 -23.336  1.00  0.00     0.004 C 
ENDBRANCH  16  17
ENDBRANCH  15  16
ENDBRANCH  14  15
ENDBRANCH  13  14
ENDBRANCH  12  13
ENDBRANCH  11  12
ENDBRANCH   1  11
TORSDOF 14
ENDMDL
MODEL 4
REMARK VINA RESULT:    -3.750      3.420      6.757
REMARK INTER + INTRA:          -9.054
REMARK INTER:                  -6.638
REMARK INTRA:                  -2.416
REMARK UNBOUND:                -2.235
REMARK SMILES CCCCCCCCCCCCCCCC(=O)[O-]
REMARK SMILES IDX 9 1 10 2 11 3 12 4 13 5 14 6 15 7 16 8 17 9 18 10 8 11 7 12
REMARK SMILES IDX 6 13 5 14 4 15 3 16 2 17 1 18
REMARK H PARENT
REMARK Flexibility Score: inf
ROOT
ATOM      1  C   UNL     1     -21.256  -1.744 -23.870  1.00  0.00     0.000 C 
ENDROOT
BRANCH   1   2
ATOM      2  C   UNL     1     -20.978  -3.025 -23.067  1.00  0.00     0.000 C 
BRANCH   2   3
ATOM      3  C   UNL     1     -21.889  -3.159 -21.834  1.00  0.00     0.000 C 
BRANCH   3   4
ATOM      4  C   UNL     1     -22.593  -1.841 -21.460  1.00  0.00     0.000 C 
BRANCH   4   5
ATOM      5  C   UNL     1     -23.302  -1.840 -20.094  1.00  0.00     0.000 C 
BRANCH   5   6
ATOM      6  C   UNL     1     -24.646  -1.096 -20.112  1.00  0.00     0.006 C 
BRANCH   6   7
ATOM      7  C   UNL     1     -24.632   0.028 -21.151  1.00  0.00     0.053 C 
BRANCH   7   8
ATOM      8  C   UNL     1     -24.731   1.365 -20.482  1.00  0.00     0.041 C 
ATOM      9  O   UNL     1     -25.798   2.033 -20.557  1.00  0.00    -0.550 OA
ATOM     10  O   UNL     1     -23.625   1.900 -19.836  1.00  0.00    -0.550 OA
ENDBRANCH   7   8
ENDBRANCH   6   7
ENDBRANCH   5   6
ENDBRANCH   4   5
ENDBRANCH   3   4
ENDBRANCH   2   3
ENDBRANCH   1   2
BRANCH   1  11
ATOM     11  C   UNL     1     -21.772  -2.031 -25.293  1.00  0.00     0.000 C 
BRANCH  11  12
ATOM     12  C   UNL     1     -23.194  -2.617 -25.305  1.00  0.00    -0.000 C 
BRANCH  12  13
ATOM     13  C   UNL     1     -24.253  -1.621 -24.797  1.00  0.00    -0.000 C 
BRANCH  13  14
ATOM     14  C   UNL     1     -25.374  -2.301 -23.990  1.00  0.00    -0.000 C 
BRANCH  14  15
ATOM     15  C   UNL     1     -25.049  -3.724 -23.498  1.00  0.00    -0.000 C 
BRANCH  15  16
ATOM     16  C   UNL     1     -25.856  -4.125 -22.249  1.00  0.00    -0.000 C 
BRANCH  16  17
ATOM     17  C   UNL     1     -27.153  -3.314 -22.103  1.00  0.00    -0.003 C 
ATOM     18  C   UNL     1     -28.398  -4.119 -22.485  1.00  0.00     0.004 C 
ENDBRANCH  16  17
ENDBRANCH  15  16
ENDBRANCH  14  15
ENDBRANCH  13  14
ENDBRANCH  12  13
ENDBRANCH  11  12
ENDBRANCH   1  11
TORSDOF 14
ENDMDL
MODEL 5
REMARK VINA RESULT:    -3.736      3.557      5.276
REMARK INTER + INTRA:          -9.029
REMARK INTER:                  -7.017
REMARK INTRA:                  -2.012
REMARK UNBOUND:                -2.235
REMARK SMILES CCCCCCCCCCCCCCCC(=O)[O-]
REMARK SMILES IDX 9 1 10 2 11 3 12 4 13 5 14 6 15 7 16 8 17 9 18 10 8 11 7 12
REMARK SMILES IDX 6 13 5 14 4 15 3 16 2 17 1 18
REMARK H PARENT
REMARK Flexibility Score: inf
ROOT
ATOM      1  C   UNL     1     -23.949   0.480 -23.082  1.00  0.00     0.000 C 
ENDROOT
BRANCH   1   2
ATOM      2  C   UNL     1     -24.555  -0.890 -22.741  1.00  0.00     0.000 C 
BRANCH   2   3
ATOM      3  C   UNL     1     -25.069  -1.636 -23.985  1.00  0.00     0.000 C 
BRANCH   3   4
ATOM      4  C   UNL     1     -24.137  -2.780 -24.429  1.00  0.00     0.000 C 
BRANCH   4   5
ATOM      5  C   UNL     1     -22.988  -2.364 -25.365  1.00  0.00     0.000 C 
BRANCH   5   6
ATOM      6  C   UNL     1     -21.615  -2.364 -24.674  1.00  0.00     0.006 C 
BRANCH   6   7
ATOM      7  C   UNL     1     -21.684  -3.092 -23.328  1.00  0.00     0.053 C 
BRANCH   7   8
ATOM      8  C   UNL     1     -20.317  -3.515 -22.888  1.00  0.00     0.041 C 
ATOM      9  O   UNL     1     -19.294  -3.019 -23.436  1.00  0.00    -0.550 OA
ATOM     10  O   UNL     1     -20.173  -4.503 -21.925  1.00  0.00    -0.550 OA
ENDBRANCH   7   8
ENDBRANCH   6   7
ENDBRANCH   5   6
ENDBRANCH   4   5
ENDBRANCH   3   4
ENDBRANCH   2   3
ENDBRANCH   1   2
BRANCH   1  11
ATOM     11  C   UNL     1     -22.468   0.597 -22.675  1.00  0.00     0.000 C 
BRANCH  11  12
ATOM     12  C   UNL     1     -22.183   0.006 -21.284  1.00  0.00    -0.000 C 
BRANCH  12  13
ATOM     13  C   UNL     1     -21.529   1.020 -20.329  1.00  0.00    -0.000 C 
BRANCH  13  14
ATOM     14  C   UNL     1     -22.212   1.071 -18.950  1.00  0.00    -0.000 C 
BRANCH  14  15
ATOM     15  C   UNL     1     -23.534   1.861 -18.910  1.00  0.00    -0.000 C 
BRANCH  15  16
ATOM     16  C   UNL     1     -24.775   0.950 -18.898  1.00  0.00    -0.000 C 
BRANCH  16  17
ATOM     17  C   UNL     1     -25.800   1.339 -19.976  1.00  0.00    -0.003 C 
ATOM     18  C   UNL     1     -25.976   2.854 -20.106  1.00  0.00     0.004 C 
ENDBRANCH  16  17
ENDBRANCH  15  16
ENDBRANCH  14  15
ENDBRANCH  13  14
ENDBRANCH  12  13
ENDBRANCH  11  12
ENDBRANCH   1  11
TORSDOF 14
ENDMDL
MODEL 6
REMARK VINA RESULT:    -3.724      2.458      5.676
REMARK INTER + INTRA:          -9.006
REMARK INTER:                  -7.121
REMARK INTRA:                  -1.886
REMARK UNBOUND:                -2.235
REMARK SMILES CCCCCCCCCCCCCCCC(=O)[O-]
REMARK SMILES IDX 9 1 10 2 11 3 12 4 13 5 14 6 15 7 16 8 17 9 18 10 8 11 7 12
REMARK SMILES IDX 6 13 5 14 4 15 3 16 2 17 1 18
REMARK H PARENT
REMARK Flexibility Score: inf
ROOT
ATOM      1  C   UNL     1     -29.023   0.990 -20.283  1.00  0.00     0.000 C 
ENDROOT
BRANCH   1   2
ATOM      2  C   UNL     1     -28.880   2.244 -21.159  1.00  0.00     0.000 C 
BRANCH   2   3
ATOM      3  C   UNL     1     -28.069   3.357 -20.471  1.00  0.00     0.000 C 
BRANCH   3   4
ATOM      4  C   UNL     1     -26.562   3.282 -20.781  1.00  0.00     0.000 C 
BRANCH   4   5
ATOM      5  C   UNL     1     -25.690   2.692 -19.657  1.00  0.00     0.000 C 
BRANCH   5   6
ATOM      6  C   UNL     1     -24.673   1.656 -20.163  1.00  0.00     0.006 C 
BRANCH   6   7
ATOM      7  C   UNL     1     -23.347   1.784 -19.409  1.00  0.00     0.053 C 
BRANCH   7   8
ATOM      8  C   UNL     1     -22.191   1.615 -20.346  1.00  0.00     0.041 C 
ATOM      9  O   UNL     1     -21.027   1.940 -19.980  1.00  0.00    -0.550 OA
ATOM     10  O   UNL     1     -22.408   1.167 -21.641  1.00  0.00    -0.550 OA
ENDBRANCH   7   8
ENDBRANCH   6   7
ENDBRANCH   5   6
ENDBRANCH   4   5
ENDBRANCH   3   4
ENDBRANCH   2   3
ENDBRANCH   1   2
BRANCH   1  11
ATOM     11  C   UNL     1     -28.182  -0.195 -20.793  1.00  0.00     0.000 C 
BRANCH  11  12
ATOM     12  C   UNL     1     -27.652   0.021 -22.221  1.00  0.00    -0.000 C 
BRANCH  12  13
ATOM     13  C   UNL     1     -26.371  -0.783 -22.508  1.00  0.00    -0.000 C 
BRANCH  13  14
ATOM     14  C   UNL     1     -25.995  -1.739 -21.361  1.00  0.00    -0.000 C 
BRANCH  14  15
ATOM     15  C   UNL     1     -26.187  -3.235 -21.676  1.00  0.00    -0.000 C 
BRANCH  15  16
ATOM     16  C   UNL     1     -27.485  -3.810 -21.081  1.00  0.00    -0.000 C 
BRANCH  16  17
ATOM     17  C   UNL     1     -28.388  -4.450 -22.148  1.00  0.00    -0.003 C 
ATOM     18  C   UNL     1     -28.746  -3.481 -23.277  1.00  0.00     0.004 C 
ENDBRANCH  16  17
ENDBRANCH  15  16
ENDBRANCH  14  15
ENDBRANCH  13  14
ENDBRANCH  12  13
ENDBRANCH  11  12
ENDBRANCH   1  11
TORSDOF 14
ENDMDL
MODEL 7
REMARK VINA RESULT:    -3.708      2.691      3.983
REMARK INTER + INTRA:          -8.978
REMARK INTER:                  -6.894
REMARK INTRA:                  -2.084
REMARK UNBOUND:                -2.235
REMARK SMILES CCCCCCCCCCCCCCCC(=O)[O-]
REMARK SMILES IDX 9 1 10 2 11 3 12 4 13 5 14 6 15 7 16 8 17 9 18 10 8 11 7 12
REMARK SMILES IDX 6 13 5 14 4 15 3 16 2 17 1 18
REMARK H PARENT
REMARK Flexibility Score: inf
ROOT
ATOM      1  C   UNL     1     -22.516   1.802 -20.143  1.00  0.00     0.000 C 
ENDROOT
BRANCH   1   2
ATOM      2  C   UNL     1     -23.671   2.270 -19.244  1.00  0.00     0.000 C 
BRANCH   2   3
ATOM      3  C   UNL     1     -25.034   2.215 -19.957  1.00  0.00     0.000 C 
BRANCH   3   4
ATOM      4  C   UNL     1     -25.492   0.777 -20.268  1.00  0.00     0.000 C 
BRANCH   4   5
ATOM      5  C   UNL     1     -26.645   0.252 -19.393  1.00  0.00     0.000 C 
BRANCH   5   6
ATOM      6  C   UNL     1     -27.741  -0.459 -20.202  1.00  0.00     0.006 C 
BRANCH   6   7
ATOM      7  C   UNL     1     -28.381   0.498 -21.210  1.00  0.00     0.053 C 
BRANCH   7   8
ATOM      8  C   UNL     1     -29.217   1.522 -20.506  1.00  0.00     0.041 C 
ATOM      9  O   UNL     1     -30.329   1.197 -20.007  1.00  0.00    -0.550 OA
ATOM     10  O   UNL     1     -28.800   2.846 -20.461  1.00  0.00    -0.550 OA
ENDBRANCH   7   8
ENDBRANCH   6   7
ENDBRANCH   5   6
ENDBRANCH   4   5
ENDBRANCH   3   4
ENDBRANCH   2   3
ENDBRANCH   1   2
BRANCH   1  11
ATOM     11  C   UNL     1     -21.296   1.310 -19.342  1.00  0.00     0.000 C 
BRANCH  11  12
ATOM     12  C   UNL     1     -21.677   0.741 -17.964  1.00  0.00    -0.000 C 
BRANCH  12  13
ATOM     13  C   UNL     1     -21.753  -0.796 -17.956  1.00  0.00    -0.000 C 
BRANCH  13  14
ATOM     14  C   UNL     1     -23.180  -1.326 -18.190  1.00  0.00    -0.000 C 
BRANCH  14  15
ATOM     15  C   UNL     1     -23.286  -2.476 -19.209  1.00  0.00    -0.000 C 
BRANCH  15  16
ATOM     16  C   UNL     1     -23.485  -1.979 -20.653  1.00  0.00    -0.000 C 
BRANCH  16  17
ATOM     17  C   UNL     1     -22.258  -2.245 -21.540  1.00  0.00    -0.003 C 
ATOM     18  C   UNL     1     -21.864  -1.029 -22.383  1.00  0.00     0.004 C 
ENDBRANCH  16  17
ENDBRANCH  15  16
ENDBRANCH  14  15
ENDBRANCH  13  14
ENDBRANCH  12  13
ENDBRANCH  11  12
ENDBRANCH   1  11
TORSDOF 14
ENDMDL
MODEL 8
REMARK VINA RESULT:    -3.664      2.894      5.656
REMARK INTER + INTRA:          -8.897
REMARK INTER:                  -7.391
REMARK INTRA:                  -1.506
REMARK UNBOUND:                -2.235
REMARK SMILES CCCCCCCCCCCCCCCC(=O)[O-]
REMARK SMILES IDX 9 1 10 2 11 3 12 4 13 5 14 6 15 7 16 8 17 9 18 10 8 11 7 12
REMARK SMILES IDX 6 13 5 14 4 15 3 16 2 17 1 18
REMARK H PARENT
REMARK Flexibility Score: inf
ROOT
ATOM      1  C   UNL     1     -23.802  -0.682 -19.872  1.00  0.00     0.000 C 
ENDROOT
BRANCH   1   2
ATOM      2  C   UNL     1     -23.537   0.827 -19.755  1.00  0.00     0.000 C 
BRANCH   2   3
ATOM      3  C   UNL     1     -24.598   1.550 -18.907  1.00  0.00     0.000 C 
BRANCH   3   4
ATOM      4  C   UNL     1     -25.389   2.604 -19.706  1.00  0.00     0.000 C 
BRANCH   4   5
ATOM      5  C   UNL     1     -26.540   2.050 -20.565  1.00  0.00     0.000 C 
BRANCH   5   6
ATOM      6  C   UNL     1     -27.912   2.623 -20.178  1.00  0.00     0.006 C 
BRANCH   6   7
ATOM      7  C   UNL     1     -29.041   1.728 -20.696  1.00  0.00     0.053 C 
BRANCH   7   8
ATOM      8  C   UNL     1     -29.784   1.104 -19.555  1.00  0.00     0.041 C 
ATOM      9  O   UNL     1     -31.045   1.121 -19.536  1.00  0.00    -0.550 OA
ATOM     10  O   UNL     1     -29.084   0.566 -18.484  1.00  0.00    -0.550 OA
ENDBRANCH   7   8
ENDBRANCH   6   7
ENDBRANCH   5   6
ENDBRANCH   4   5
ENDBRANCH   3   4
ENDBRANCH   2   3
ENDBRANCH   1   2
BRANCH   1  11
ATOM     11  C   UNL     1     -25.144  -1.103 -19.244  1.00  0.00     0.000 C 
BRANCH  11  12
ATOM     12  C   UNL     1     -26.170  -1.575 -20.288  1.00  0.00    -0.000 C 
BRANCH  12  13
ATOM     13  C   UNL     1     -27.313  -2.399 -19.670  1.00  0.00    -0.000 C 
BRANCH  13  14
ATOM     14  C   UNL     1     -27.106  -3.917 -19.821  1.00  0.00    -0.000 C 
BRANCH  14  15
ATOM     15  C   UNL     1     -27.039  -4.421 -21.275  1.00  0.00    -0.000 C 
BRANCH  15  16
ATOM     16  C   UNL     1     -28.404  -4.378 -21.987  1.00  0.00    -0.000 C 
BRANCH  16  17
ATOM     17  C   UNL     1     -28.352  -3.602 -23.312  1.00  0.00    -0.003 C 
ATOM     18  C   UNL     1     -26.921  -3.315 -23.773  1.00  0.00     0.004 C 
ENDBRANCH  16  17
ENDBRANCH  15  16
ENDBRANCH  14  15
ENDBRANCH  13  14
ENDBRANCH  12  13
ENDBRANCH  11  12
ENDBRANCH   1  11
TORSDOF 14
ENDMDL
MODEL 9
REMARK VINA RESULT:    -3.634      2.778      4.355
REMARK INTER + INTRA:          -8.843
REMARK INTER:                  -6.849
REMARK INTRA:                  -1.994
REMARK UNBOUND:                -2.235
REMARK SMILES CCCCCCCCCCCCCCCC(=O)[O-]
REMARK SMILES IDX 9 1 10 2 11 3 12 4 13 5 14 6 15 7 16 8 17 9 18 10 8 11 7 12
REMARK SMILES IDX 6 13 5 14 4 15 3 16 2 17 1 18
REMARK H PARENT
REMARK Flexibility Score: inf
ROOT
ATOM      1  C   UNL     1     -25.708  -4.495 -21.250  1.00  0.00     0.000 C 
ENDROOT
BRANCH   1   2
ATOM      2  C   UNL     1     -27.110  -4.138 -21.768  1.00  0.00     0.000 C 
BRANCH   2   3
ATOM      3  C   UNL     1     -27.098  -3.679 -23.237  1.00  0.00     0.000 C 
BRANCH   3   4
ATOM      4  C   UNL     1     -26.896  -2.159 -23.390  1.00  0.00     0.000 C 
BRANCH   4   5
ATOM      5  C   UNL     1     -25.462  -1.719 -23.734  1.00  0.00     0.000 C 
BRANCH   5   6
ATOM      6  C   UNL     1     -24.651  -2.811 -24.451  1.00  0.00     0.006 C 
BRANCH   6   7
ATOM      7  C   UNL     1     -23.305  -3.032 -23.757  1.00  0.00     0.053 C 
BRANCH   7   8
ATOM      8  C   UNL     1     -22.288  -2.053 -24.256  1.00  0.00     0.041 C 
ATOM      9  O   UNL     1     -21.641  -2.294 -25.312  1.00  0.00    -0.550 OA
ATOM     10  O   UNL     1     -22.007  -0.910 -23.520  1.00  0.00    -0.550 OA
ENDBRANCH   7   8
ENDBRANCH   6   7
ENDBRANCH   5   6
ENDBRANCH   4   5
ENDBRANCH   3   4
ENDBRANCH   2   3
ENDBRANCH   1   2
BRANCH   1  11
ATOM     11  C   UNL     1     -25.276  -3.632 -20.049  1.00  0.00     0.000 C 
BRANCH  11  12
ATOM     12  C   UNL     1     -26.137  -2.368 -19.883  1.00  0.00    -0.000 C 
BRANCH  12  13
ATOM     13  C   UNL     1     -25.313  -1.071 -19.960  1.00  0.00    -0.000 C 
BRANCH  13  14
ATOM     14  C   UNL     1     -23.838  -1.321 -20.326  1.00  0.00    -0.000 C 
BRANCH  14  15
ATOM     15  C   UNL     1     -22.833  -1.051 -19.190  1.00  0.00    -0.000 C 
BRANCH  15  16
ATOM     16  C   UNL     1     -22.903   0.393 -18.660  1.00  0.00    -0.000 C 
BRANCH  16  17
ATOM     17  C   UNL     1     -21.560   1.130 -18.780  1.00  0.00    -0.003 C 
ATOM     18  C   UNL     1     -21.593   2.256 -19.816  1.00  0.00     0.004 C 
ENDBRANCH  16  17
ENDBRANCH  15  16
ENDBRANCH  14  15
ENDBRANCH  13  14
ENDBRANCH  12  13
ENDBRANCH  11  12
ENDBRANCH   1  11
TORSDOF 14
ENDMDL
