MODEL 1
REMARK VINA RESULT:    -3.705      0.000      0.000
REMARK INTER + INTRA:          -8.097
REMARK INTER:                  -6.521
REMARK INTRA:                  -1.576
REMARK UNBOUND:                -1.576
REMARK SMILES CCCCCCC=CCCCCCCCC(=O)[O-]
REMARK SMILES IDX 10 1 11 2 12 3 13 4 14 5 15 6 16 7 17 8 18 9 9 10 8 11 7 12
REMARK SMILES IDX 6 13 5 14 4 15 3 16 2 17 1 18
REMARK H PARENT
REMARK Flexibility Score: inf
ROOT
ATOM      1  C   UNL     1      32.845   7.772 -29.438  1.00  0.00     0.004 C 
ENDROOT
BRANCH   1   2
ATOM      2  C   UNL     1      32.734   8.596 -28.142  1.00  0.00     0.000 C 
BRANCH   2   3
ATOM      3  C   UNL     1      32.808  10.125 -28.331  1.00  0.00     0.000 C 
BRANCH   3   4
ATOM      4  C   UNL     1      33.728  10.863 -27.340  1.00  0.00     0.000 C 
BRANCH   4   5
ATOM      5  C   UNL     1      32.950  11.695 -26.308  1.00  0.00     0.006 C 
BRANCH   5   6
ATOM      6  C   UNL     1      33.280  11.283 -24.868  1.00  0.00     0.053 C 
BRANCH   6   7
ATOM      7  C   UNL     1      32.892   9.861 -24.598  1.00  0.00     0.041 C 
ATOM      8  O   UNL     1      31.678   9.542 -24.499  1.00  0.00    -0.550 OA
ATOM      9  O   UNL     1      33.874   8.894 -24.421  1.00  0.00    -0.550 OA
ENDBRANCH   6   7
ENDBRANCH   5   6
ENDBRANCH   4   5
ENDBRANCH   3   4
ENDBRANCH   2   3
ENDBRANCH   1   2
BRANCH   1  10
ATOM     10  C   UNL     1      33.276   8.616 -30.646  1.00  0.00     0.027 C 
BRANCH  10  11
ATOM     11  C   UNL     1      34.191   7.835 -31.549  1.00  0.00    -0.031 C 
ATOM     12  C   UNL     1      35.012   6.891 -31.064  1.00  0.00    -0.031 C 
BRANCH  12  13
ATOM     13  C   UNL     1      35.975   6.148 -31.951  1.00  0.00     0.027 C 
BRANCH  13  14
ATOM     14  C   UNL     1      35.289   5.643 -33.226  1.00  0.00     0.004 C 
BRANCH  14  15
ATOM     15  C   UNL     1      34.548   4.314 -32.997  1.00  0.00     0.000 C 
BRANCH  15  16
ATOM     16  C   UNL     1      33.020   4.480 -33.006  1.00  0.00    -0.000 C 
BRANCH  16  17
ATOM     17  C   UNL     1      32.399   4.306 -31.613  1.00  0.00    -0.003 C 
ATOM     18  C   UNL     1      33.372   3.613 -30.662  1.00  0.00     0.004 C 
ENDBRANCH  16  17
ENDBRANCH  15  16
ENDBRANCH  14  15
ENDBRANCH  13  14
ENDBRANCH  12  13
ENDBRANCH  10  11
ENDBRANCH   1  10
TORSDOF 13
ENDMDL
MODEL 2
REMARK VINA RESULT:    -3.700     14.524     16.596
REMARK INTER + INTRA:          -8.087
REMARK INTER:                  -5.634
REMARK INTRA:                  -2.453
REMARK UNBOUND:                -1.576
REMARK SMILES CCCCCCC=CCCCCCCCC(=O)[O-]
REMARK SMILES IDX 10 1 11 2 12 3 13 4 14 5 15 6 16 7 17 8 18 9 9 10 8 11 7 12
REMARK SMILES IDX 6 13 5 14 4 15 3 16 2 17 1 18
REMARK H PARENT
REMARK Flexibility Score: inf
ROOT
ATOM      1  C   UNL     1      24.885  -3.683 -26.445  1.00  0.00     0.004 C 
ENDROOT
BRANCH   1   2
ATOM      2  C   UNL     1      24.297  -3.332 -27.824  1.00  0.00     0.000 C 
BRANCH   2   3
ATOM      3  C   UNL     1      25.318  -2.824 -28.862  1.00  0.00     0.000 C 
BRANCH   3   4
ATOM      4  C   UNL     1      25.207  -3.466 -30.257  1.00  0.00     0.000 C 
BRANCH   4   5
ATOM      5  C   UNL     1      23.987  -4.393 -30.393  1.00  0.00     0.006 C 
BRANCH   5   6
ATOM      6  C   UNL     1      24.198  -5.470 -31.464  1.00  0.00     0.053 C 
BRANCH   6   7
ATOM      7  C   UNL     1      24.347  -4.868 -32.829  1.00  0.00     0.041 C 
ATOM      8  O   UNL     1      25.382  -5.090 -33.511  1.00  0.00    -0.550 OA
ATOM      9  O   UNL     1      23.358  -4.031 -33.331  1.00  0.00    -0.550 OA
ENDBRANCH   6   7
ENDBRANCH   5   6
ENDBRANCH   4   5
ENDBRANCH   3   4
ENDBRANCH   2   3
ENDBRANCH   1   2
BRANCH   1  10
ATOM     10  C   UNL     1      24.107  -4.798 -25.731  1.00  0.00     0.027 C 
BRANCH  10  11
ATOM     11  C   UNL     1      23.875  -5.966 -26.650  1.00  0.00    -0.031 C 
ATOM     12  C   UNL     1      24.781  -6.949 -26.771  1.00  0.00    -0.031 C 
BRANCH  12  13
ATOM     13  C   UNL     1      24.586  -8.090 -27.734  1.00  0.00     0.027 C 
BRANCH  13  14
ATOM     14  C   UNL     1      25.319  -7.839 -29.057  1.00  0.00     0.004 C 
BRANCH  14  15
ATOM     15  C   UNL     1      26.840  -7.709 -28.861  1.00  0.00     0.000 C 
BRANCH  15  16
ATOM     16  C   UNL     1      27.387  -6.363 -29.362  1.00  0.00    -0.000 C 
BRANCH  16  17
ATOM     17  C   UNL     1      27.752  -5.411 -28.215  1.00  0.00    -0.003 C 
ATOM     18  C   UNL     1      28.347  -6.176 -27.035  1.00  0.00     0.004 C 
ENDBRANCH  16  17
ENDBRANCH  15  16
ENDBRANCH  14  15
ENDBRANCH  13  14
ENDBRANCH  12  13
ENDBRANCH  10  11
ENDBRANCH   1  10
TORSDOF 13
ENDMDL
MODEL 3
REMARK VINA RESULT:    -3.683     14.258     16.488
REMARK INTER + INTRA:          -8.058
REMARK INTER:                  -5.683
REMARK INTRA:                  -2.375
REMARK UNBOUND:                -1.576
REMARK SMILES CCCCCCC=CCCCCCCCC(=O)[O-]
REMARK SMILES IDX 10 1 11 2 12 3 13 4 14 5 15 6 16 7 17 8 18 9 9 10 8 11 7 12
REMARK SMILES IDX 6 13 5 14 4 15 3 16 2 17 1 18
REMARK H PARENT
REMARK Flexibility Score: inf
ROOT
ATOM      1  C   UNL     1      25.685  -3.288 -29.361  1.00  0.00     0.004 C 
ENDROOT
BRANCH   1   2
ATOM      2  C   UNL     1      24.217  -3.728 -29.227  1.00  0.00     0.000 C 
BRANCH   2   3
ATOM      3  C   UNL     1      23.772  -4.833 -30.207  1.00  0.00     0.000 C 
BRANCH   3   4
ATOM      4  C   UNL     1      24.786  -5.171 -31.316  1.00  0.00     0.000 C 
BRANCH   4   5
ATOM      5  C   UNL     1      24.149  -5.212 -32.715  1.00  0.00     0.006 C 
BRANCH   5   6
ATOM      6  C   UNL     1      24.390  -3.914 -33.496  1.00  0.00     0.053 C 
BRANCH   6   7
ATOM      7  C   UNL     1      25.490  -4.072 -34.502  1.00  0.00     0.041 C 
ATOM      8  O   UNL     1      25.886  -3.082 -35.172  1.00  0.00    -0.550 OA
ATOM      9  O   UNL     1      26.053  -5.323 -34.725  1.00  0.00    -0.550 OA
ENDBRANCH   6   7
ENDBRANCH   5   6
ENDBRANCH   4   5
ENDBRANCH   3   4
ENDBRANCH   2   3
ENDBRANCH   1   2
BRANCH   1  10
ATOM     10  C   UNL     1      26.432  -3.285 -28.018  1.00  0.00     0.027 C 
BRANCH  10  11
ATOM     11  C   UNL     1      27.225  -4.551 -27.841  1.00  0.00    -0.031 C 
ATOM     12  C   UNL     1      27.482  -5.365 -28.876  1.00  0.00    -0.031 C 
BRANCH  12  13
ATOM     13  C   UNL     1      28.221  -6.664 -28.696  1.00  0.00     0.027 C 
BRANCH  13  14
ATOM     14  C   UNL     1      27.273  -7.796 -28.283  1.00  0.00     0.004 C 
BRANCH  14  15
ATOM     15  C   UNL     1      26.008  -7.841 -29.159  1.00  0.00     0.000 C 
BRANCH  15  16
ATOM     16  C   UNL     1      24.715  -7.878 -28.329  1.00  0.00    -0.000 C 
BRANCH  16  17
ATOM     17  C   UNL     1      24.933  -7.426 -26.878  1.00  0.00    -0.003 C 
ATOM     18  C   UNL     1      24.105  -6.183 -26.561  1.00  0.00     0.004 C 
ENDBRANCH  16  17
ENDBRANCH  15  16
ENDBRANCH  14  15
ENDBRANCH  13  14
ENDBRANCH  12  13
ENDBRANCH  10  11
ENDBRANCH   1  10
TORSDOF 13
ENDMDL
MODEL 4
REMARK VINA RESULT:    -3.606      3.652      7.575
REMARK INTER + INTRA:          -7.921
REMARK INTER:                  -6.443
REMARK INTRA:                  -1.478
REMARK UNBOUND:                -1.576
REMARK SMILES CCCCCCC=CCCCCCCCC(=O)[O-]
REMARK SMILES IDX 10 1 11 2 12 3 13 4 14 5 15 6 16 7 17 8 18 9 9 10 8 11 7 12
REMARK SMILES IDX 6 13 5 14 4 15 3 16 2 17 1 18
REMARK H PARENT
REMARK Flexibility Score: inf
ROOT
ATOM      1  C   UNL     1      33.153   8.314 -29.340  1.00  0.00     0.004 C 
ENDROOT
BRANCH   1   2
ATOM      2  C   UNL     1      33.051   7.707 -30.750  1.00  0.00     0.000 C 
BRANCH   2   3
ATOM      3  C   UNL     1      34.382   7.621 -31.525  1.00  0.00     0.000 C 
BRANCH   3   4
ATOM      4  C   UNL     1      35.443   6.694 -30.902  1.00  0.00     0.000 C 
BRANCH   4   5
ATOM      5  C   UNL     1      35.303   5.233 -31.362  1.00  0.00     0.006 C 
BRANCH   5   6
ATOM      6  C   UNL     1      35.032   5.127 -32.869  1.00  0.00     0.053 C 
BRANCH   6   7
ATOM      7  C   UNL     1      33.802   4.319 -33.151  1.00  0.00     0.041 C 
ATOM      8  O   UNL     1      32.666   4.759 -32.834  1.00  0.00    -0.550 OA
ATOM      9  O   UNL     1      33.914   3.061 -33.732  1.00  0.00    -0.550 OA
ENDBRANCH   6   7
ENDBRANCH   5   6
ENDBRANCH   4   5
ENDBRANCH   3   4
ENDBRANCH   2   3
ENDBRANCH   1   2
BRANCH   1  10
ATOM     10  C   UNL     1      32.746   9.795 -29.298  1.00  0.00     0.027 C 
BRANCH  10  11
ATOM     11  C   UNL     1      32.522  10.252 -27.883  1.00  0.00    -0.031 C 
ATOM     12  C   UNL     1      33.527  10.737 -27.138  1.00  0.00    -0.031 C 
BRANCH  12  13
ATOM     13  C   UNL     1      33.324  11.138 -25.701  1.00  0.00     0.027 C 
BRANCH  13  14
ATOM     14  C   UNL     1      33.920  10.102 -24.740  1.00  0.00     0.004 C 
BRANCH  14  15
ATOM     15  C   UNL     1      32.933   8.962 -24.433  1.00  0.00     0.000 C 
BRANCH  15  16
ATOM     16  C   UNL     1      33.574   7.572 -24.575  1.00  0.00    -0.000 C 
BRANCH  16  17
ATOM     17  C   UNL     1      33.168   6.866 -25.876  1.00  0.00    -0.003 C 
ATOM     18  C   UNL     1      31.676   7.038 -26.151  1.00  0.00     0.004 C 
ENDBRANCH  16  17
ENDBRANCH  15  16
ENDBRANCH  14  15
ENDBRANCH  13  14
ENDBRANCH  12  13
ENDBRANCH  10  11
ENDBRANCH   1  10
TORSDOF 13
ENDMDL
MODEL 5
REMARK VINA RESULT:    -3.602     14.394     16.331
REMARK INTER + INTRA:          -7.914
REMARK INTER:                  -5.920
REMARK INTRA:                  -1.995
REMARK UNBOUND:                -1.576
REMARK SMILES CCCCCCC=CCCCCCCCC(=O)[O-]
REMARK SMILES IDX 10 1 11 2 12 3 13 4 14 5 15 6 16 7 17 8 18 9 9 10 8 11 7 12
REMARK SMILES IDX 6 13 5 14 4 15 3 16 2 17 1 18
REMARK H PARENT
REMARK Flexibility Score: inf
ROOT
ATOM      1  C   UNL     1      24.712  -4.946 -27.437  1.00  0.00     0.004 C 
ENDROOT
BRANCH   1   2
ATOM      2  C   UNL     1      23.897  -6.246 -27.311  1.00  0.00     0.000 C 
BRANCH   2   3
ATOM      3  C   UNL     1      24.714  -7.547 -27.448  1.00  0.00     0.000 C 
BRANCH   3   4
ATOM      4  C   UNL     1      25.127  -7.911 -28.886  1.00  0.00     0.000 C 
BRANCH   4   5
ATOM      5  C   UNL     1      26.647  -8.087 -29.044  1.00  0.00     0.006 C 
BRANCH   5   6
ATOM      6  C   UNL     1      27.359  -6.751 -29.292  1.00  0.00     0.053 C 
BRANCH   6   7
ATOM      7  C   UNL     1      28.459  -6.521 -28.300  1.00  0.00     0.041 C 
ATOM      8  O   UNL     1      29.633  -6.295 -28.695  1.00  0.00    -0.550 OA
ATOM      9  O   UNL     1      28.192  -6.592 -26.938  1.00  0.00    -0.550 OA
ENDBRANCH   6   7
ENDBRANCH   5   6
ENDBRANCH   4   5
ENDBRANCH   3   4
ENDBRANCH   2   3
ENDBRANCH   1   2
BRANCH   1  10
ATOM     10  C   UNL     1      24.163  -4.001 -28.515  1.00  0.00     0.027 C 
BRANCH  10  11
ATOM     11  C   UNL     1      23.846  -4.751 -29.779  1.00  0.00    -0.031 C 
ATOM     12  C   UNL     1      24.673  -4.719 -30.836  1.00  0.00    -0.031 C 
BRANCH  12  13
ATOM     13  C   UNL     1      24.335  -5.416 -32.127  1.00  0.00     0.027 C 
BRANCH  13  14
ATOM     14  C   UNL     1      24.910  -4.668 -33.336  1.00  0.00     0.004 C 
BRANCH  14  15
ATOM     15  C   UNL     1      23.900  -3.674 -33.936  1.00  0.00     0.000 C 
BRANCH  15  16
ATOM     16  C   UNL     1      24.399  -2.222 -33.886  1.00  0.00    -0.000 C 
BRANCH  16  17
ATOM     17  C   UNL     1      24.038  -1.518 -32.570  1.00  0.00    -0.003 C 
ATOM     18  C   UNL     1      22.602  -1.832 -32.157  1.00  0.00     0.004 C 
ENDBRANCH  16  17
ENDBRANCH  15  16
ENDBRANCH  14  15
ENDBRANCH  13  14
ENDBRANCH  12  13
ENDBRANCH  10  11
ENDBRANCH   1  10
TORSDOF 13
ENDMDL
MODEL 6
REMARK VINA RESULT:    -3.574      6.545     10.648
REMARK INTER + INTRA:          -7.865
REMARK INTER:                  -6.410
REMARK INTRA:                  -1.455
REMARK UNBOUND:                -1.576
REMARK SMILES CCCCCCC=CCCCCCCCC(=O)[O-]
REMARK SMILES IDX 10 1 11 2 12 3 13 4 14 5 15 6 16 7 17 8 18 9 9 10 8 11 7 12
REMARK SMILES IDX 6 13 5 14 4 15 3 16 2 17 1 18
REMARK H PARENT
REMARK Flexibility Score: inf
ROOT
ATOM      1  C   UNL     1      32.292   2.000 -34.447  1.00  0.00     0.004 C 
ENDROOT
BRANCH   1   2
ATOM      2  C   UNL     1      32.885   0.580 -34.490  1.00  0.00     0.000 C 
BRANCH   2   3
ATOM      3  C   UNL     1      33.966   0.354 -35.567  1.00  0.00     0.000 C 
BRANCH   3   4
ATOM      4  C   UNL     1      33.576  -0.625 -36.690  1.00  0.00     0.000 C 
BRANCH   4   5
ATOM      5  C   UNL     1      33.237   0.086 -38.011  1.00  0.00     0.006 C 
BRANCH   5   6
ATOM      6  C   UNL     1      31.797  -0.191 -38.461  1.00  0.00     0.053 C 
BRANCH   6   7
ATOM      7  C   UNL     1      30.992   1.072 -38.538  1.00  0.00     0.041 C 
ATOM      8  O   UNL     1      30.921   1.715 -39.617  1.00  0.00    -0.550 OA
ATOM      9  O   UNL     1      30.350   1.556 -37.404  1.00  0.00    -0.550 OA
ENDBRANCH   6   7
ENDBRANCH   5   6
ENDBRANCH   4   5
ENDBRANCH   3   4
ENDBRANCH   2   3
ENDBRANCH   1   2
BRANCH   1  10
ATOM     10  C   UNL     1      32.204   2.566 -33.022  1.00  0.00     0.027 C 
BRANCH  10  11
ATOM     11  C   UNL     1      33.021   3.822 -32.890  1.00  0.00    -0.031 C 
ATOM     12  C   UNL     1      34.258   3.907 -33.403  1.00  0.00    -0.031 C 
BRANCH  12  13
ATOM     13  C   UNL     1      35.107   5.138 -33.222  1.00  0.00     0.027 C 
BRANCH  13  14
ATOM     14  C   UNL     1      34.421   6.163 -32.310  1.00  0.00     0.004 C 
BRANCH  14  15
ATOM     15  C   UNL     1      35.308   6.560 -31.117  1.00  0.00     0.000 C 
BRANCH  15  16
ATOM     16  C   UNL     1      35.554   5.393 -30.149  1.00  0.00    -0.000 C 
BRANCH  16  17
ATOM     17  C   UNL     1      34.255   4.853 -29.533  1.00  0.00    -0.003 C 
ATOM     18  C   UNL     1      34.294   3.332 -29.416  1.00  0.00     0.004 C 
ENDBRANCH  16  17
ENDBRANCH  15  16
ENDBRANCH  14  15
ENDBRANCH  13  14
ENDBRANCH  12  13
ENDBRANCH  10  11
ENDBRANCH   1  10
TORSDOF 13
ENDMDL
MODEL 7
REMARK VINA RESULT:    -3.541      7.085     11.446
REMARK INTER + INTRA:          -7.808
REMARK INTER:                  -6.980
REMARK INTRA:                  -0.828
REMARK UNBOUND:                -1.576
REMARK SMILES CCCCCCC=CCCCCCCCC(=O)[O-]
REMARK SMILES IDX 10 1 11 2 12 3 13 4 14 5 15 6 16 7 17 8 18 9 9 10 8 11 7 12
REMARK SMILES IDX 6 13 5 14 4 15 3 16 2 17 1 18
REMARK H PARENT
REMARK Flexibility Score: inf
ROOT
ATOM      1  C   UNL     1      33.862  -0.038 -35.554  1.00  0.00     0.004 C 
ENDROOT
BRANCH   1   2
ATOM      2  C   UNL     1      33.519  -0.912 -36.773  1.00  0.00     0.000 C 
BRANCH   2   3
ATOM      3  C   UNL     1      33.298  -0.140 -38.091  1.00  0.00     0.000 C 
BRANCH   3   4
ATOM      4  C   UNL     1      31.850  -0.141 -38.615  1.00  0.00     0.000 C 
BRANCH   4   5
ATOM      5  C   UNL     1      31.286   1.276 -38.814  1.00  0.00     0.006 C 
BRANCH   5   6
ATOM      6  C   UNL     1      29.979   1.268 -39.618  1.00  0.00     0.053 C 
BRANCH   6   7
ATOM      7  C   UNL     1      29.125   2.456 -39.292  1.00  0.00     0.041 C 
ATOM      8  O   UNL     1      29.287   3.543 -39.905  1.00  0.00    -0.550 OA
ATOM      9  O   UNL     1      28.174   2.371 -38.282  1.00  0.00    -0.550 OA
ENDBRANCH   6   7
ENDBRANCH   5   6
ENDBRANCH   4   5
ENDBRANCH   3   4
ENDBRANCH   2   3
ENDBRANCH   1   2
BRANCH   1  10
ATOM     10  C   UNL     1      32.680   0.824 -35.086  1.00  0.00     0.027 C 
BRANCH  10  11
ATOM     11  C   UNL     1      33.155   1.986 -34.256  1.00  0.00    -0.031 C 
ATOM     12  C   UNL     1      32.310   2.946 -33.851  1.00  0.00    -0.031 C 
BRANCH  12  13
ATOM     13  C   UNL     1      32.788   4.144 -33.074  1.00  0.00     0.027 C 
BRANCH  13  14
ATOM     14  C   UNL     1      34.309   4.115 -32.878  1.00  0.00     0.004 C 
BRANCH  14  15
ATOM     15  C   UNL     1      34.967   5.451 -33.266  1.00  0.00     0.000 C 
BRANCH  15  16
ATOM     16  C   UNL     1      35.749   6.083 -32.103  1.00  0.00    -0.000 C 
BRANCH  16  17
ATOM     17  C   UNL     1      35.055   7.330 -31.535  1.00  0.00    -0.003 C 
ATOM     18  C   UNL     1      33.878   6.943 -30.642  1.00  0.00     0.004 C 
ENDBRANCH  16  17
ENDBRANCH  15  16
ENDBRANCH  14  15
ENDBRANCH  13  14
ENDBRANCH  12  13
ENDBRANCH  10  11
ENDBRANCH   1  10
TORSDOF 13
ENDMDL
MODEL 8
REMARK VINA RESULT:    -3.537      4.933      7.603
REMARK INTER + INTRA:          -7.800
REMARK INTER:                  -6.412
REMARK INTRA:                  -1.388
REMARK UNBOUND:                -1.576
REMARK SMILES CCCCCCC=CCCCCCCCC(=O)[O-]
REMARK SMILES IDX 10 1 11 2 12 3 13 4 14 5 15 6 16 7 17 8 18 9 9 10 8 11 7 12
REMARK SMILES IDX 6 13 5 14 4 15 3 16 2 17 1 18
REMARK H PARENT
REMARK Flexibility Score: inf
ROOT
ATOM      1  C   UNL     1      32.542   2.377 -33.691  1.00  0.00     0.004 C 
ENDROOT
BRANCH   1   2
ATOM      2  C   UNL     1      32.868   3.754 -33.086  1.00  0.00     0.000 C 
BRANCH   2   3
ATOM      3  C   UNL     1      34.328   4.219 -33.264  1.00  0.00     0.000 C 
BRANCH   3   4
ATOM      4  C   UNL     1      34.945   4.922 -32.040  1.00  0.00     0.000 C 
BRANCH   4   5
ATOM      5  C   UNL     1      35.046   6.447 -32.216  1.00  0.00     0.006 C 
BRANCH   5   6
ATOM      6  C   UNL     1      34.444   7.206 -31.026  1.00  0.00     0.053 C 
BRANCH   6   7
ATOM      7  C   UNL     1      33.091   6.674 -30.661  1.00  0.00     0.041 C 
ATOM      8  O   UNL     1      32.107   6.867 -31.422  1.00  0.00    -0.550 OA
ATOM      9  O   UNL     1      32.912   5.996 -29.462  1.00  0.00    -0.550 OA
ENDBRANCH   6   7
ENDBRANCH   5   6
ENDBRANCH   4   5
ENDBRANCH   3   4
ENDBRANCH   2   3
ENDBRANCH   1   2
BRANCH   1  10
ATOM     10  C   UNL     1      33.797   1.602 -34.120  1.00  0.00     0.027 C 
BRANCH  10  11
ATOM     11  C   UNL     1      33.430   0.383 -34.921  1.00  0.00    -0.031 C 
ATOM     12  C   UNL     1      34.025   0.112 -36.093  1.00  0.00    -0.031 C 
BRANCH  12  13
ATOM     13  C   UNL     1      33.620  -1.072 -36.930  1.00  0.00     0.027 C 
BRANCH  13  14
ATOM     14  C   UNL     1      33.316  -0.658 -38.376  1.00  0.00     0.004 C 
BRANCH  14  15
ATOM     15  C   UNL     1      31.805  -0.539 -38.638  1.00  0.00     0.000 C 
BRANCH  15  16
ATOM     16  C   UNL     1      31.314   0.918 -38.614  1.00  0.00    -0.000 C 
BRANCH  16  17
ATOM     17  C   UNL     1      30.739   1.323 -37.249  1.00  0.00    -0.003 C 
ATOM     18  C   UNL     1      30.038   0.145 -36.577  1.00  0.00     0.004 C 
ENDBRANCH  16  17
ENDBRANCH  15  16
ENDBRANCH  14  15
ENDBRANCH  13  14
ENDBRANCH  12  13
ENDBRANCH  10  11
ENDBRANCH   1  10
TORSDOF 13
ENDMDL
MODEL 9
REMARK VINA RESULT:    -3.515     14.836     16.775
REMARK INTER + INTRA:          -7.761
REMARK INTER:                  -5.930
REMARK INTRA:                  -1.831
REMARK UNBOUND:                -1.576
REMARK SMILES CCCCCCC=CCCCCCCCC(=O)[O-]
REMARK SMILES IDX 10 1 11 2 12 3 13 4 14 5 15 6 16 7 17 8 18 9 9 10 8 11 7 12
REMARK SMILES IDX 6 13 5 14 4 15 3 16 2 17 1 18
REMARK H PARENT
REMARK Flexibility Score: inf
ROOT
ATOM      1  C   UNL     1      24.368  -4.231 -30.416  1.00  0.00     0.004 C 
ENDROOT
BRANCH   1   2
ATOM      2  C   UNL     1      24.061  -5.362 -31.414  1.00  0.00     0.000 C 
BRANCH   2   3
ATOM      3  C   UNL     1      24.641  -5.161 -32.830  1.00  0.00     0.000 C 
BRANCH   3   4
ATOM      4  C   UNL     1      24.018  -4.006 -33.635  1.00  0.00     0.000 C 
BRANCH   4   5
ATOM      5  C   UNL     1      25.060  -3.201 -34.429  1.00  0.00     0.006 C 
BRANCH   5   6
ATOM      6  C   UNL     1      26.339  -4.008 -34.684  1.00  0.00     0.053 C 
BRANCH   6   7
ATOM      7  C   UNL     1      26.671  -4.068 -36.145  1.00  0.00     0.041 C 
ATOM      8  O   UNL     1      26.701  -5.174 -36.745  1.00  0.00    -0.550 OA
ATOM      9  O   UNL     1      26.983  -2.902 -36.834  1.00  0.00    -0.550 OA
ENDBRANCH   6   7
ENDBRANCH   5   6
ENDBRANCH   4   5
ENDBRANCH   3   4
ENDBRANCH   2   3
ENDBRANCH   1   2
BRANCH   1  10
ATOM     10  C   UNL     1      25.844  -3.808 -30.429  1.00  0.00     0.027 C 
BRANCH  10  11
ATOM     11  C   UNL     1      26.632  -4.574 -29.401  1.00  0.00    -0.031 C 
ATOM     12  C   UNL     1      27.041  -5.831 -29.630  1.00  0.00    -0.031 C 
BRANCH  12  13
ATOM     13  C   UNL     1      27.776  -6.627 -28.584  1.00  0.00     0.027 C 
BRANCH  13  14
ATOM     14  C   UNL     1      27.112  -7.988 -28.345  1.00  0.00     0.004 C 
BRANCH  14  15
ATOM     15  C   UNL     1      25.668  -8.029 -28.875  1.00  0.00     0.000 C 
BRANCH  15  16
ATOM     16  C   UNL     1      24.624  -7.926 -27.752  1.00  0.00    -0.000 C 
BRANCH  16  17
ATOM     17  C   UNL     1      23.859  -6.596 -27.778  1.00  0.00    -0.003 C 
ATOM     18  C   UNL     1      24.221  -5.731 -26.573  1.00  0.00     0.004 C 
ENDBRANCH  16  17
ENDBRANCH  15  16
ENDBRANCH  14  15
ENDBRANCH  13  14
ENDBRANCH  12  13
ENDBRANCH  10  11
ENDBRANCH   1  10
TORSDOF 13
ENDMDL
