MODEL 1
REMARK VINA RESULT:    14.486      0.000      0.000
REMARK INTER + INTRA:          27.219
REMARK INTER:                  22.954
REMARK INTRA:                   4.264
REMARK UNBOUND:                 4.264
REMARK SMILES C[C@@H]1O[C@H](O[C@@H]2[C@H](Oc3cc(O)c4c(c3)O[C@@H](c3ccc(O)cc3)CC4=O)O[C@H](CO)[C@@H](O)[C@H]2O)[C@@H](O)[C@H](O)[C@@H]1O
REMARK SMILES IDX 6 1 34 2 32 3 29 4 28 5 7 6 5 7 4 8 1 9 2 10 40 11 3 12
REMARK SMILES IDX 38 13 36 14 41 15 39 17 37 19 35 21 8 23 9 24 10 25 15 26
REMARK SMILES IDX 11 27 14 28 13 29 16 30 26 31 17 32 27 33 25 34 12 35 18 37
REMARK SMILES IDX 19 38 24 39 20 40 23 41 21 42 22 43 33 45 30 47 31 48
REMARK H PARENT 41 16 39 18 37 20 35 22 12 36 22 44 33 46 31 49
REMARK Flexibility Score: inf
ROOT
ATOM      1  C   UNL     1       7.473 -32.208  15.435  1.00  0.00     0.221 C 
ATOM      2  C   UNL     1       8.045 -32.132  14.016  1.00  0.00     0.181 C 
ATOM      3  C   UNL     1       7.013 -32.573  12.975  1.00  0.00     0.177 C 
ATOM      4  C   UNL     1       6.382 -33.933  13.341  1.00  0.00     0.179 C 
ATOM      5  O   UNL     1       5.899 -33.994  14.671  1.00  0.00    -0.332 OA
ATOM      6  C   UNL     1       6.830 -33.600  15.670  1.00  0.00     0.339 C 
ENDROOT
BRANCH   1   7
ATOM      7  O   UNL     1       8.560 -31.951  16.317  1.00  0.00    -0.337 OA
BRANCH   7   8
ATOM      8  C   UNL     1       8.569 -30.666  16.928  1.00  0.00     0.282 C 
ATOM      9  C   UNL     1       7.617 -32.945  18.814  1.00  0.00     0.041 C 
ATOM     10  C   UNL     1       7.890 -31.453  19.079  1.00  0.00     0.150 C 
ATOM     11  C   UNL     1       9.284 -31.159  19.694  1.00  0.00     0.174 C 
ATOM     12  O   UNL     1       7.588 -30.628  17.955  1.00  0.00    -0.344 OA
ATOM     13  C   UNL     1      10.397 -31.131  18.632  1.00  0.00     0.179 C 
ATOM     14  C   UNL     1       9.967 -30.232  17.468  1.00  0.00     0.202 C 
BRANCH  11  15
ATOM     15  O   UNL     1       9.587 -32.090  20.703  1.00  0.00    -0.388 OA
ATOM     16  H   UNL     1       8.738 -32.262  21.194  1.00  0.00     0.211 HD
ENDBRANCH  11  15
BRANCH  13  17
ATOM     17  O   UNL     1      10.673 -32.427  18.171  1.00  0.00    -0.387 OA
ATOM     18  H   UNL     1      11.635 -32.454  17.928  1.00  0.00     0.211 HD
ENDBRANCH  13  17
BRANCH  14  19
ATOM     19  O   UNL     1       9.991 -28.887  17.900  1.00  0.00    -0.385 OA
ATOM     20  H   UNL     1      10.931 -28.571  17.989  1.00  0.00     0.211 HD
ENDBRANCH  14  19
ENDBRANCH   7   8
ENDBRANCH   1   7
BRANCH   2  21
ATOM     21  O   UNL     1       8.452 -30.814  13.743  1.00  0.00    -0.387 OA
ATOM     22  H   UNL     1       9.441 -30.819  13.652  1.00  0.00     0.211 HD
ENDBRANCH   2  21
BRANCH   6  23
ATOM     23  O   UNL     1       7.834 -34.595  15.873  1.00  0.00    -0.462 OA
BRANCH  23  24
ATOM     24  C   UNL     1       9.076 -34.627  15.223  1.00  0.00     0.130 A 
ATOM     25  C   UNL     1       9.614 -35.806  14.673  1.00  0.00     0.093 A 
ATOM     26  C   UNL     1       9.803 -33.439  15.137  1.00  0.00     0.094 A 
ATOM     27  C   UNL     1      10.884 -35.802  14.078  1.00  0.00     0.133 A 
ATOM     28  C   UNL     1      11.067 -33.420  14.545  1.00  0.00     0.138 A 
ATOM     29  C   UNL     1      11.627 -34.603  14.026  1.00  0.00     0.102 A 
ATOM     30  O   UNL     1      11.782 -32.220  14.494  1.00  0.00    -0.484 OA
ATOM     31  C   UNL     1      13.005 -34.536  13.485  1.00  0.00     0.174 C 
ATOM     32  C   UNL     1      12.939 -32.054  13.670  1.00  0.00     0.211 C 
ATOM     33  O   UNL     1      13.518 -35.515  12.877  1.00  0.00    -0.294 OA
ATOM     34  C   UNL     1      13.832 -33.305  13.728  1.00  0.00     0.131 C 
BRANCH  27  35
ATOM     35  O   UNL     1      11.405 -36.984  13.552  1.00  0.00    -0.507 OA
ATOM     36  H   UNL     1      12.393 -37.083  13.343  1.00  0.00     0.293 HD
ENDBRANCH  27  35
BRANCH  32  37
ATOM     37  C   UNL     1      13.709 -30.830  14.105  1.00  0.00    -0.007 A 
ATOM     38  C   UNL     1      13.972 -30.604  15.466  1.00  0.00     0.011 A 
ATOM     39  C   UNL     1      14.126 -29.878  13.160  1.00  0.00     0.011 A 
ATOM     40  C   UNL     1      14.659 -29.457  15.874  1.00  0.00     0.046 A 
ATOM     41  C   UNL     1      14.820 -28.734  13.566  1.00  0.00     0.046 A 
ATOM     42  C   UNL     1      15.086 -28.519  14.923  1.00  0.00     0.115 A 
BRANCH  42  43
ATOM     43  O   UNL     1      15.774 -27.372  15.315  1.00  0.00    -0.508 OA
ATOM     44  H   UNL     1      15.320 -26.464  15.339  1.00  0.00     0.293 HD
ENDBRANCH  42  43
ENDBRANCH  32  37
ENDBRANCH  23  24
ENDBRANCH   6  23
BRANCH   3  45
ATOM     45  O   UNL     1       5.993 -31.606  12.886  1.00  0.00    -0.387 OA
ATOM     46  H   UNL     1       6.303 -30.911  12.256  1.00  0.00     0.211 HD
ENDBRANCH   3  45
BRANCH   4  47
ATOM     47  C   UNL     1       7.201 -35.178  12.932  1.00  0.00     0.191 C 
BRANCH  47  48
ATOM     48  O   UNL     1       6.486 -36.367  13.110  1.00  0.00    -0.394 OA
ATOM     49  H   UNL     1       6.814 -36.994  12.411  1.00  0.00     0.210 HD
ENDBRANCH  47  48
ENDBRANCH   4  47
TORSDOF 14
ENDMDL
MODEL 2
REMARK VINA RESULT:    16.916      1.694      4.971
REMARK INTER + INTRA:          31.070
REMARK INTER:                  25.769
REMARK INTRA:                   5.301
REMARK UNBOUND:                 4.264
REMARK SMILES C[C@@H]1O[C@H](O[C@@H]2[C@H](Oc3cc(O)c4c(c3)O[C@@H](c3ccc(O)cc3)CC4=O)O[C@H](CO)[C@@H](O)[C@H]2O)[C@@H](O)[C@H](O)[C@@H]1O
REMARK SMILES IDX 6 1 34 2 32 3 29 4 28 5 7 6 5 7 4 8 1 9 2 10 40 11 3 12
REMARK SMILES IDX 38 13 36 14 41 15 39 17 37 19 35 21 8 23 9 24 10 25 15 26
REMARK SMILES IDX 11 27 14 28 13 29 16 30 26 31 17 32 27 33 25 34 12 35 18 37
REMARK SMILES IDX 19 38 24 39 20 40 23 41 21 42 22 43 33 45 30 47 31 48
REMARK H PARENT 41 16 39 18 37 20 35 22 12 36 22 44 33 46 31 49
REMARK Flexibility Score: inf
ROOT
ATOM      1  C   UNL     1       8.192 -33.413  16.737  1.00  0.00     0.221 C 
ATOM      2  C   UNL     1       9.576 -33.261  17.375  1.00  0.00     0.181 C 
ATOM      3  C   UNL     1       9.510 -32.435  18.662  1.00  0.00     0.177 C 
ATOM      4  C   UNL     1       8.752 -31.109  18.447  1.00  0.00     0.179 C 
ATOM      5  O   UNL     1       7.494 -31.270  17.818  1.00  0.00    -0.332 OA
ATOM      6  C   UNL     1       7.513 -32.024  16.614  1.00  0.00     0.339 C 
ENDROOT
BRANCH   1   7
ATOM      7  O   UNL     1       8.400 -34.036  15.475  1.00  0.00    -0.337 OA
BRANCH   7   8
ATOM      8  C   UNL     1       8.982 -35.333  15.514  1.00  0.00     0.282 C 
ATOM      9  C   UNL     1       5.875 -35.353  15.505  1.00  0.00     0.041 C 
ATOM     10  C   UNL     1       6.899 -36.500  15.426  1.00  0.00     0.150 C 
ATOM     11  C   UNL     1       7.176 -37.010  13.986  1.00  0.00     0.174 C 
ATOM     12  O   UNL     1       8.090 -36.228  16.163  1.00  0.00    -0.344 OA
ATOM     13  C   UNL     1       8.179 -36.118  13.234  1.00  0.00     0.179 C 
ATOM     14  C   UNL     1       9.409 -35.878  14.116  1.00  0.00     0.202 C 
BRANCH  11  15
ATOM     15  O   UNL     1       5.977 -37.125  13.262  1.00  0.00    -0.388 OA
ATOM     16  H   UNL     1       5.798 -38.099  13.164  1.00  0.00     0.211 HD
ENDBRANCH  11  15
BRANCH  13  17
ATOM     17  O   UNL     1       7.587 -34.895  12.881  1.00  0.00    -0.387 OA
ATOM     18  H   UNL     1       7.623 -34.310  13.683  1.00  0.00     0.211 HD
ENDBRANCH  13  17
BRANCH  14  19
ATOM     19  O   UNL     1      10.148 -37.080  14.200  1.00  0.00    -0.385 OA
ATOM     20  H   UNL     1       9.582 -37.851  13.930  1.00  0.00     0.211 HD
ENDBRANCH  14  19
ENDBRANCH   7   8
ENDBRANCH   1   7
BRANCH   2  21
ATOM     21  O   UNL     1      10.105 -34.532  17.660  1.00  0.00    -0.387 OA
ATOM     22  H   UNL     1      10.643 -34.816  16.875  1.00  0.00     0.211 HD
ENDBRANCH   2  21
BRANCH   6  23
ATOM     23  O   UNL     1       8.079 -31.277  15.536  1.00  0.00    -0.462 OA
BRANCH  23  24
ATOM     24  C   UNL     1       9.354 -31.491  14.993  1.00  0.00     0.130 A 
ATOM     25  C   UNL     1       9.695 -32.669  14.301  1.00  0.00     0.093 A 
ATOM     26  C   UNL     1      10.317 -30.496  15.165  1.00  0.00     0.094 A 
ATOM     27  C   UNL     1      10.999 -32.863  13.820  1.00  0.00     0.133 A 
ATOM     28  C   UNL     1      11.617 -30.675  14.690  1.00  0.00     0.138 A 
ATOM     29  C   UNL     1      11.975 -31.866  14.028  1.00  0.00     0.102 A 
ATOM     30  O   UNL     1      12.567 -29.670  14.898  1.00  0.00    -0.484 OA
ATOM     31  C   UNL     1      13.390 -32.030  13.621  1.00  0.00     0.174 C 
ATOM     32  C   UNL     1      13.820 -29.650  14.210  1.00  0.00     0.211 C 
ATOM     33  O   UNL     1      13.755 -33.001  12.902  1.00  0.00    -0.294 OA
ATOM     34  C   UNL     1      14.421 -31.064  14.131  1.00  0.00     0.131 C 
BRANCH  27  35
ATOM     35  O   UNL     1      11.320 -34.042  13.149  1.00  0.00    -0.507 OA
ATOM     36  H   UNL     1      12.057 -34.657  13.477  1.00  0.00     0.293 HD
ENDBRANCH  27  35
BRANCH  32  37
ATOM     37  C   UNL     1      14.772 -28.705  14.904  1.00  0.00    -0.007 A 
ATOM     38  C   UNL     1      15.256 -29.002  16.188  1.00  0.00     0.011 A 
ATOM     39  C   UNL     1      15.144 -27.494  14.296  1.00  0.00     0.011 A 
ATOM     40  C   UNL     1      16.114 -28.115  16.845  1.00  0.00     0.046 A 
ATOM     41  C   UNL     1      16.008 -26.610  14.948  1.00  0.00     0.046 A 
ATOM     42  C   UNL     1      16.494 -26.916  16.224  1.00  0.00     0.115 A 
BRANCH  42  43
ATOM     43  O   UNL     1      17.350 -26.023  16.866  1.00  0.00    -0.508 OA
ATOM     44  H   UNL     1      17.413 -25.051  16.579  1.00  0.00     0.293 HD
ENDBRANCH  42  43
ENDBRANCH  32  37
ENDBRANCH  23  24
ENDBRANCH   6  23
BRANCH   3  45
ATOM     45  O   UNL     1       8.854 -33.178  19.663  1.00  0.00    -0.387 OA
ATOM     46  H   UNL     1       8.695 -34.084  19.299  1.00  0.00     0.211 HD
ENDBRANCH   3  45
BRANCH   4  47
ATOM     47  C   UNL     1       9.589 -29.954  17.851  1.00  0.00     0.191 C 
BRANCH  47  48
ATOM     48  O   UNL     1      10.965 -30.190  17.945  1.00  0.00    -0.394 OA
ATOM     49  H   UNL     1      11.095 -30.744  18.760  1.00  0.00     0.210 HD
ENDBRANCH  47  48
ENDBRANCH   4  47
TORSDOF 14
ENDMDL
