MODEL 1
REMARK VINA RESULT:    -0.238      0.000      0.000
REMARK INTER + INTRA:          -1.744
REMARK INTER:                  -0.517
REMARK INTRA:                  -1.227
REMARK UNBOUND:                -1.227
REMARK SMILES CCCCCCCCCCCCCCCCCCCCCC(=O)[O-]
REMARK SMILES IDX 12 1 11 2 10 3 9 4 8 5 7 6 6 7 5 8 4 9 3 10 2 11 1 12 13 13
REMARK SMILES IDX 14 14 15 15 16 16 17 17 18 18 19 19 20 20 21 21 22 22 23 23
REMARK SMILES IDX 24 24
REMARK H PARENT
REMARK Flexibility Score: inf
ROOT
ATOM      1  C   UNL     1      40.207  42.236  19.682  1.00  0.00     0.000 C 
ENDROOT
BRANCH   1   2
ATOM      2  C   UNL     1      39.855  41.814  18.242  1.00  0.00     0.000 C 
BRANCH   2   3
ATOM      3  C   UNL     1      41.012  41.159  17.465  1.00  0.00     0.000 C 
BRANCH   3   4
ATOM      4  C   UNL     1      40.618  39.832  16.781  1.00  0.00    -0.000 C 
BRANCH   4   5
ATOM      5  C   UNL     1      40.573  38.653  17.770  1.00  0.00    -0.000 C 
BRANCH   5   6
ATOM      6  C   UNL     1      40.038  37.363  17.112  1.00  0.00    -0.000 C 
BRANCH   6   7
ATOM      7  C   UNL     1      40.309  36.088  17.929  1.00  0.00    -0.000 C 
BRANCH   7   8
ATOM      8  C   UNL     1      39.340  35.921  19.111  1.00  0.00    -0.000 C 
BRANCH   8   9
ATOM      9  C   UNL     1      38.205  36.960  19.107  1.00  0.00    -0.000 C 
BRANCH   9  10
ATOM     10  C   UNL     1      37.665  37.355  20.497  1.00  0.00    -0.000 C 
BRANCH  10  11
ATOM     11  C   UNL     1      37.746  38.855  20.828  1.00  0.00    -0.003 C 
ATOM     12  C   UNL     1      37.295  39.746  19.671  1.00  0.00     0.004 C 
ENDBRANCH  10  11
ENDBRANCH   9  10
ENDBRANCH   8   9
ENDBRANCH   7   8
ENDBRANCH   6   7
ENDBRANCH   5   6
ENDBRANCH   4   5
ENDBRANCH   3   4
ENDBRANCH   2   3
ENDBRANCH   1   2
BRANCH   1  13
ATOM     13  C   UNL     1      41.125  43.471  19.793  1.00  0.00     0.000 C 
BRANCH  13  14
ATOM     14  C   UNL     1      41.120  44.165  21.168  1.00  0.00     0.000 C 
BRANCH  14  15
ATOM     15  C   UNL     1      40.983  45.695  21.061  1.00  0.00     0.000 C 
BRANCH  15  16
ATOM     16  C   UNL     1      40.141  46.303  22.193  1.00  0.00     0.000 C 
BRANCH  16  17
ATOM     17  C   UNL     1      40.293  45.538  23.519  1.00  0.00     0.000 C 
BRANCH  17  18
ATOM     18  C   UNL     1      38.946  45.058  24.085  1.00  0.00     0.000 C 
BRANCH  18  19
ATOM     19  C   UNL     1      37.751  45.937  23.656  1.00  0.00     0.000 C 
BRANCH  19  20
ATOM     20  C   UNL     1      36.773  46.193  24.816  1.00  0.00     0.006 C 
BRANCH  20  21
ATOM     21  C   UNL     1      35.481  46.877  24.346  1.00  0.00     0.053 C 
BRANCH  21  22
ATOM     22  C   UNL     1      34.277  46.307  25.032  1.00  0.00     0.041 C 
ATOM     23  O   UNL     1      34.029  46.604  26.232  1.00  0.00    -0.550 OA
ATOM     24  O   UNL     1      33.405  45.483  24.332  1.00  0.00    -0.550 OA
ENDBRANCH  21  22
ENDBRANCH  20  21
ENDBRANCH  19  20
ENDBRANCH  18  19
ENDBRANCH  17  18
ENDBRANCH  16  17
ENDBRANCH  15  16
ENDBRANCH  14  15
ENDBRANCH  13  14
ENDBRANCH   1  13
TORSDOF 20
ENDMDL
MODEL 2
REMARK VINA RESULT:     1.317      3.660      9.466
REMARK INTER + INTRA:           1.629
REMARK INTER:                   2.803
REMARK INTRA:                  -1.173
REMARK UNBOUND:                -1.227
REMARK SMILES CCCCCCCCCCCCCCCCCCCCCC(=O)[O-]
REMARK SMILES IDX 12 1 11 2 10 3 9 4 8 5 7 6 6 7 5 8 4 9 3 10 2 11 1 12 13 13
REMARK SMILES IDX 14 14 15 15 16 16 17 17 18 18 19 19 20 20 21 21 22 22 23 23
REMARK SMILES IDX 24 24
REMARK H PARENT
REMARK Flexibility Score: inf
ROOT
ATOM      1  C   UNL     1      40.412  44.981  23.727  1.00  0.00     0.000 C 
ENDROOT
BRANCH   1   2
ATOM      2  C   UNL     1      39.195  44.664  24.617  1.00  0.00     0.000 C 
BRANCH   2   3
ATOM      3  C   UNL     1      38.482  45.901  25.195  1.00  0.00     0.000 C 
BRANCH   3   4
ATOM      4  C   UNL     1      36.977  45.956  24.857  1.00  0.00    -0.000 C 
BRANCH   4   5
ATOM      5  C   UNL     1      36.714  46.487  23.437  1.00  0.00    -0.000 C 
BRANCH   5   6
ATOM      6  C   UNL     1      35.443  47.361  23.370  1.00  0.00    -0.000 C 
BRANCH   6   7
ATOM      7  C   UNL     1      34.213  46.631  22.802  1.00  0.00    -0.000 C 
BRANCH   7   8
ATOM      8  C   UNL     1      33.731  45.484  23.705  1.00  0.00    -0.000 C 
BRANCH   8   9
ATOM      9  C   UNL     1      32.913  45.976  24.913  1.00  0.00    -0.000 C 
BRANCH   9  10
ATOM     10  C   UNL     1      33.741  46.532  26.090  1.00  0.00    -0.000 C 
BRANCH  10  11
ATOM     11  C   UNL     1      33.121  47.741  26.812  1.00  0.00    -0.003 C 
ATOM     12  C   UNL     1      33.424  49.069  26.119  1.00  0.00     0.004 C 
ENDBRANCH  10  11
ENDBRANCH   9  10
ENDBRANCH   8   9
ENDBRANCH   7   8
ENDBRANCH   6   7
ENDBRANCH   5   6
ENDBRANCH   4   5
ENDBRANCH   3   4
ENDBRANCH   2   3
ENDBRANCH   1   2
BRANCH   1  13
ATOM     13  C   UNL     1      40.073  45.599  22.355  1.00  0.00     0.000 C 
BRANCH  13  14
ATOM     14  C   UNL     1      41.121  45.354  21.253  1.00  0.00     0.000 C 
BRANCH  14  15
ATOM     15  C   UNL     1      41.118  43.902  20.742  1.00  0.00     0.000 C 
BRANCH  15  16
ATOM     16  C   UNL     1      41.065  43.806  19.209  1.00  0.00     0.000 C 
BRANCH  16  17
ATOM     17  C   UNL     1      41.125  42.354  18.706  1.00  0.00     0.000 C 
BRANCH  17  18
ATOM     18  C   UNL     1      40.079  41.448  19.377  1.00  0.00     0.000 C 
BRANCH  18  19
ATOM     19  C   UNL     1      39.094  40.802  18.378  1.00  0.00     0.000 C 
BRANCH  19  20
ATOM     20  C   UNL     1      37.953  40.054  19.090  1.00  0.00     0.006 C 
BRANCH  20  21
ATOM     21  C   UNL     1      38.475  39.049  20.125  1.00  0.00     0.053 C 
BRANCH  21  22
ATOM     22  C   UNL     1      38.724  37.705  19.510  1.00  0.00     0.041 C 
ATOM     23  O   UNL     1      37.980  36.728  19.796  1.00  0.00    -0.550 OA
ATOM     24  O   UNL     1      39.748  37.544  18.587  1.00  0.00    -0.550 OA
ENDBRANCH  21  22
ENDBRANCH  20  21
ENDBRANCH  19  20
ENDBRANCH  18  19
ENDBRANCH  17  18
ENDBRANCH  16  17
ENDBRANCH  15  16
ENDBRANCH  14  15
ENDBRANCH  13  14
ENDBRANCH   1  13
TORSDOF 20
ENDMDL
MODEL 3
REMARK VINA RESULT:     2.217      1.667      3.876
REMARK INTER + INTRA:           3.583
REMARK INTER:                   2.645
REMARK INTRA:                   0.938
REMARK UNBOUND:                -1.227
REMARK SMILES CCCCCCCCCCCCCCCCCCCCCC(=O)[O-]
REMARK SMILES IDX 12 1 11 2 10 3 9 4 8 5 7 6 6 7 5 8 4 9 3 10 2 11 1 12 13 13
REMARK SMILES IDX 14 14 15 15 16 16 17 17 18 18 19 19 20 20 21 21 22 22 23 23
REMARK SMILES IDX 24 24
REMARK H PARENT
REMARK Flexibility Score: inf
ROOT
ATOM      1  C   UNL     1      41.084  45.859  22.789  1.00  0.00     0.000 C 
ENDROOT
BRANCH   1   2
ATOM      2  C   UNL     1      41.125  45.535  21.283  1.00  0.00     0.000 C 
BRANCH   2   3
ATOM      3  C   UNL     1      41.124  44.031  20.950  1.00  0.00     0.000 C 
BRANCH   3   4
ATOM      4  C   UNL     1      41.084  43.739  19.435  1.00  0.00    -0.000 C 
BRANCH   4   5
ATOM      5  C   UNL     1      40.716  42.276  19.130  1.00  0.00    -0.000 C 
BRANCH   5   6
ATOM      6  C   UNL     1      41.106  41.867  17.693  1.00  0.00    -0.000 C 
BRANCH   6   7
ATOM      7  C   UNL     1      41.116  40.346  17.459  1.00  0.00    -0.000 C 
BRANCH   7   8
ATOM      8  C   UNL     1      39.705  39.759  17.291  1.00  0.00    -0.000 C 
BRANCH   8   9
ATOM      9  C   UNL     1      39.201  39.039  18.555  1.00  0.00    -0.000 C 
BRANCH   9  10
ATOM     10  C   UNL     1      37.747  39.357  18.961  1.00  0.00    -0.000 C 
BRANCH  10  11
ATOM     11  C   UNL     1      37.500  39.465  20.476  1.00  0.00    -0.003 C 
ATOM     12  C   UNL     1      37.795  38.164  21.223  1.00  0.00     0.004 C 
ENDBRANCH  10  11
ENDBRANCH   9  10
ENDBRANCH   8   9
ENDBRANCH   7   8
ENDBRANCH   6   7
ENDBRANCH   5   6
ENDBRANCH   4   5
ENDBRANCH   3   4
ENDBRANCH   2   3
ENDBRANCH   1   2
BRANCH   1  13
ATOM     13  C   UNL     1      40.015  45.090  23.593  1.00  0.00     0.000 C 
BRANCH  13  14
ATOM     14  C   UNL     1      38.823  45.939  24.073  1.00  0.00     0.000 C 
BRANCH  14  15
ATOM     15  C   UNL     1      37.757  45.106  24.806  1.00  0.00     0.000 C 
BRANCH  15  16
ATOM     16  C   UNL     1      36.364  45.754  24.775  1.00  0.00     0.000 C 
BRANCH  16  17
ATOM     17  C   UNL     1      36.240  46.838  23.692  1.00  0.00     0.000 C 
BRANCH  17  18
ATOM     18  C   UNL     1      34.809  46.968  23.142  1.00  0.00     0.000 C 
BRANCH  18  19
ATOM     19  C   UNL     1      33.893  45.788  23.531  1.00  0.00     0.000 C 
BRANCH  19  20
ATOM     20  C   UNL     1      33.284  45.964  24.933  1.00  0.00     0.006 C 
BRANCH  20  21
ATOM     21  C   UNL     1      34.201  46.765  25.868  1.00  0.00     0.053 C 
BRANCH  21  22
ATOM     22  C   UNL     1      33.412  47.644  26.790  1.00  0.00     0.041 C 
ATOM     23  O   UNL     1      33.183  47.279  27.975  1.00  0.00    -0.550 OA
ATOM     24  O   UNL     1      32.969  48.886  26.355  1.00  0.00    -0.550 OA
ENDBRANCH  21  22
ENDBRANCH  20  21
ENDBRANCH  19  20
ENDBRANCH  18  19
ENDBRANCH  17  18
ENDBRANCH  16  17
ENDBRANCH  15  16
ENDBRANCH  14  15
ENDBRANCH  13  14
ENDBRANCH   1  13
TORSDOF 20
ENDMDL
