MODEL 1
REMARK VINA RESULT:    -2.697      0.000      0.000
REMARK INTER + INTRA:          -4.789
REMARK INTER:                  -4.590
REMARK INTRA:                  -0.199
REMARK UNBOUND:                -0.199
REMARK SMILES CCCCCCCCCCCCCC(=O)[O-]
REMARK SMILES IDX 8 1 9 2 10 3 11 4 12 5 13 6 14 7 15 8 16 9 7 10 6 11 5 12
REMARK SMILES IDX 4 13 3 14 2 15 1 16
REMARK H PARENT
REMARK Flexibility Score: inf
ROOT
ATOM      1  C   UNL     1      45.592 -23.612   0.442  1.00  0.00     0.000 C 
ENDROOT
BRANCH   1   2
ATOM      2  C   UNL     1      46.050 -23.782  -1.017  1.00  0.00     0.000 C 
BRANCH   2   3
ATOM      3  C   UNL     1      45.237 -24.796  -1.845  1.00  0.00     0.000 C 
BRANCH   3   4
ATOM      4  C   UNL     1      45.945 -25.328  -3.108  1.00  0.00     0.000 C 
BRANCH   4   5
ATOM      5  C   UNL     1      46.097 -24.302  -4.249  1.00  0.00     0.006 C 
BRANCH   5   6
ATOM      6  C   UNL     1      45.041 -24.425  -5.359  1.00  0.00     0.053 C 
BRANCH   6   7
ATOM      7  C   UNL     1      45.595 -24.064  -6.703  1.00  0.00     0.041 C 
ATOM      8  O   UNL     1      45.750 -24.951  -7.583  1.00  0.00    -0.550 OA
ATOM      9  O   UNL     1      45.973 -22.755  -6.973  1.00  0.00    -0.550 OA
ENDBRANCH   6   7
ENDBRANCH   5   6
ENDBRANCH   4   5
ENDBRANCH   3   4
ENDBRANCH   2   3
ENDBRANCH   1   2
BRANCH   1  10
ATOM     10  C   UNL     1      46.125 -24.719   1.368  1.00  0.00     0.000 C 
BRANCH  10  11
ATOM     11  C   UNL     1      45.590 -26.111   0.992  1.00  0.00    -0.000 C 
BRANCH  11  12
ATOM     12  C   UNL     1      46.061 -27.210   1.958  1.00  0.00    -0.000 C 
BRANCH  12  13
ATOM     13  C   UNL     1      45.187 -27.238   3.220  1.00  0.00    -0.000 C 
BRANCH  13  14
ATOM     14  C   UNL     1      46.005 -27.469   4.501  1.00  0.00    -0.000 C 
BRANCH  14  15
ATOM     15  C   UNL     1      45.953 -26.270   5.460  1.00  0.00    -0.003 C 
ATOM     16  C   UNL     1      45.971 -26.729   6.916  1.00  0.00     0.004 C 
ENDBRANCH  14  15
ENDBRANCH  13  14
ENDBRANCH  12  13
ENDBRANCH  11  12
ENDBRANCH  10  11
ENDBRANCH   1  10
TORSDOF 12
ENDMDL
MODEL 2
REMARK VINA RESULT:    -2.657      1.083      2.266
REMARK INTER + INTRA:          -4.720
REMARK INTER:                  -4.423
REMARK INTRA:                  -0.297
REMARK UNBOUND:                -0.199
REMARK SMILES CCCCCCCCCCCCCC(=O)[O-]
REMARK SMILES IDX 8 1 9 2 10 3 11 4 12 5 13 6 14 7 15 8 16 9 7 10 6 11 5 12
REMARK SMILES IDX 4 13 3 14 2 15 1 16
REMARK H PARENT
REMARK Flexibility Score: inf
ROOT
ATOM      1  C   UNL     1      45.317 -26.186   1.239  1.00  0.00     0.000 C 
ENDROOT
BRANCH   1   2
ATOM      2  C   UNL     1      46.124 -25.587   0.073  1.00  0.00     0.000 C 
BRANCH   2   3
ATOM      3  C   UNL     1      45.281 -24.957  -1.053  1.00  0.00     0.000 C 
BRANCH   3   4
ATOM      4  C   UNL     1      46.056 -24.029  -2.010  1.00  0.00     0.000 C 
BRANCH   4   5
ATOM      5  C   UNL     1      45.916 -24.372  -3.506  1.00  0.00     0.006 C 
BRANCH   5   6
ATOM      6  C   UNL     1      46.089 -23.173  -4.451  1.00  0.00     0.053 C 
BRANCH   6   7
ATOM      7  C   UNL     1      45.660 -23.495  -5.850  1.00  0.00     0.041 C 
ATOM      8  O   UNL     1      45.834 -22.658  -6.774  1.00  0.00    -0.550 OA
ATOM      9  O   UNL     1      45.036 -24.705  -6.127  1.00  0.00    -0.550 OA
ENDBRANCH   6   7
ENDBRANCH   5   6
ENDBRANCH   4   5
ENDBRANCH   3   4
ENDBRANCH   2   3
ENDBRANCH   1   2
BRANCH   1  10
ATOM     10  C   UNL     1      46.070 -27.309   1.973  1.00  0.00     0.000 C 
BRANCH  10  11
ATOM     11  C   UNL     1      45.465 -27.624   3.350  1.00  0.00    -0.000 C 
BRANCH  11  12
ATOM     12  C   UNL     1      45.930 -26.647   4.442  1.00  0.00    -0.000 C 
BRANCH  12  13
ATOM     13  C   UNL     1      46.125 -27.376   5.780  1.00  0.00    -0.000 C 
BRANCH  13  14
ATOM     14  C   UNL     1      46.039 -26.429   6.988  1.00  0.00    -0.000 C 
BRANCH  14  15
ATOM     15  C   UNL     1      45.759 -27.172   8.303  1.00  0.00    -0.003 C 
ATOM     16  C   UNL     1      45.848 -28.684   8.109  1.00  0.00     0.004 C 
ENDBRANCH  14  15
ENDBRANCH  13  14
ENDBRANCH  12  13
ENDBRANCH  11  12
ENDBRANCH  10  11
ENDBRANCH   1  10
TORSDOF 12
ENDMDL
MODEL 3
REMARK VINA RESULT:    -2.607      1.762      2.406
REMARK INTER + INTRA:          -4.635
REMARK INTER:                  -4.183
REMARK INTRA:                  -0.451
REMARK UNBOUND:                -0.199
REMARK SMILES CCCCCCCCCCCCCC(=O)[O-]
REMARK SMILES IDX 8 1 9 2 10 3 11 4 12 5 13 6 14 7 15 8 16 9 7 10 6 11 5 12
REMARK SMILES IDX 4 13 3 14 2 15 1 16
REMARK H PARENT
REMARK Flexibility Score: inf
ROOT
ATOM      1  C   UNL     1      45.703 -23.499  -1.421  1.00  0.00     0.000 C 
ENDROOT
BRANCH   1   2
ATOM      2  C   UNL     1      45.096 -24.537  -2.382  1.00  0.00     0.000 C 
BRANCH   2   3
ATOM      3  C   UNL     1      46.084 -25.150  -3.394  1.00  0.00     0.000 C 
BRANCH   3   4
ATOM      4  C   UNL     1      45.433 -25.808  -4.627  1.00  0.00     0.000 C 
BRANCH   4   5
ATOM      5  C   UNL     1      46.125 -25.500  -5.971  1.00  0.00     0.006 C 
BRANCH   5   6
ATOM      6  C   UNL     1      45.312 -24.597  -6.911  1.00  0.00     0.053 C 
BRANCH   6   7
ATOM      7  C   UNL     1      45.765 -23.170  -6.849  1.00  0.00     0.041 C 
ATOM      8  O   UNL     1      45.937 -22.515  -7.910  1.00  0.00    -0.550 OA
ATOM      9  O   UNL     1      46.032 -22.576  -5.622  1.00  0.00    -0.550 OA
ENDBRANCH   6   7
ENDBRANCH   5   6
ENDBRANCH   4   5
ENDBRANCH   3   4
ENDBRANCH   2   3
ENDBRANCH   1   2
BRANCH   1  10
ATOM     10  C   UNL     1      45.262 -23.706   0.038  1.00  0.00     0.000 C 
BRANCH  10  11
ATOM     11  C   UNL     1      45.986 -24.882   0.713  1.00  0.00    -0.000 C 
BRANCH  11  12
ATOM     12  C   UNL     1      45.191 -25.476   1.886  1.00  0.00    -0.000 C 
BRANCH  12  13
ATOM     13  C   UNL     1      45.922 -26.688   2.484  1.00  0.00    -0.000 C 
BRANCH  13  14
ATOM     14  C   UNL     1      45.174 -28.009   2.243  1.00  0.00    -0.000 C 
BRANCH  14  15
ATOM     15  C   UNL     1      46.125 -29.194   2.018  1.00  0.00    -0.003 C 
ATOM     16  C   UNL     1      45.934 -30.263   3.092  1.00  0.00     0.004 C 
ENDBRANCH  14  15
ENDBRANCH  13  14
ENDBRANCH  12  13
ENDBRANCH  11  12
ENDBRANCH  10  11
ENDBRANCH   1  10
TORSDOF 12
ENDMDL
MODEL 4
REMARK VINA RESULT:    -2.515      2.172      3.967
REMARK INTER + INTRA:          -4.478
REMARK INTER:                  -4.132
REMARK INTRA:                  -0.346
REMARK UNBOUND:                -0.199
REMARK SMILES CCCCCCCCCCCCCC(=O)[O-]
REMARK SMILES IDX 8 1 9 2 10 3 11 4 12 5 13 6 14 7 15 8 16 9 7 10 6 11 5 12
REMARK SMILES IDX 4 13 3 14 2 15 1 16
REMARK H PARENT
REMARK Flexibility Score: inf
ROOT
ATOM      1  C   UNL     1      44.792 -26.944   2.997  1.00  0.00     0.000 C 
ENDROOT
BRANCH   1   2
ATOM      2  C   UNL     1      44.902 -26.347   1.583  1.00  0.00     0.000 C 
BRANCH   2   3
ATOM      3  C   UNL     1      45.826 -25.119   1.460  1.00  0.00     0.000 C 
BRANCH   3   4
ATOM      4  C   UNL     1      45.600 -24.252   0.205  1.00  0.00     0.000 C 
BRANCH   4   5
ATOM      5  C   UNL     1      46.125 -24.861  -1.111  1.00  0.00     0.006 C 
BRANCH   5   6
ATOM      6  C   UNL     1      45.914 -23.977  -2.349  1.00  0.00     0.053 C 
BRANCH   6   7
ATOM      7  C   UNL     1      45.804 -24.786  -3.605  1.00  0.00     0.041 C 
ATOM      8  O   UNL     1      45.906 -24.228  -4.728  1.00  0.00    -0.550 OA
ATOM      9  O   UNL     1      45.553 -26.151  -3.535  1.00  0.00    -0.550 OA
ENDBRANCH   6   7
ENDBRANCH   5   6
ENDBRANCH   4   5
ENDBRANCH   3   4
ENDBRANCH   2   3
ENDBRANCH   1   2
BRANCH   1  10
ATOM     10  C   UNL     1      45.984 -26.574   3.896  1.00  0.00     0.000 C 
BRANCH  10  11
ATOM     11  C   UNL     1      45.607 -26.522   5.385  1.00  0.00    -0.000 C 
BRANCH  11  12
ATOM     12  C   UNL     1      46.125 -27.736   6.172  1.00  0.00    -0.000 C 
BRANCH  12  13
ATOM     13  C   UNL     1      45.882 -27.555   7.678  1.00  0.00    -0.000 C 
BRANCH  13  14
ATOM     14  C   UNL     1      45.947 -28.881   8.452  1.00  0.00    -0.000 C 
BRANCH  14  15
ATOM     15  C   UNL     1      45.993 -28.676   9.974  1.00  0.00    -0.003 C 
ATOM     16  C   UNL     1      44.679 -29.101  10.625  1.00  0.00     0.004 C 
ENDBRANCH  14  15
ENDBRANCH  13  14
ENDBRANCH  12  13
ENDBRANCH  11  12
ENDBRANCH  10  11
ENDBRANCH   1  10
TORSDOF 12
ENDMDL
MODEL 5
REMARK VINA RESULT:    -2.347      3.827      8.836
REMARK INTER + INTRA:          -4.193
REMARK INTER:                  -3.614
REMARK INTRA:                  -0.580
REMARK UNBOUND:                -0.199
REMARK SMILES CCCCCCCCCCCCCC(=O)[O-]
REMARK SMILES IDX 8 1 9 2 10 3 11 4 12 5 13 6 14 7 15 8 16 9 7 10 6 11 5 12
REMARK SMILES IDX 4 13 3 14 2 15 1 16
REMARK H PARENT
REMARK Flexibility Score: inf
ROOT
ATOM      1  C   UNL     1      44.613 -25.153  -2.131  1.00  0.00     0.000 C 
ENDROOT
BRANCH   1   2
ATOM      2  C   UNL     1      44.245 -24.120  -1.051  1.00  0.00     0.000 C 
BRANCH   2   3
ATOM      3  C   UNL     1      45.439 -23.379  -0.418  1.00  0.00     0.000 C 
BRANCH   3   4
ATOM      4  C   UNL     1      45.996 -24.016   0.871  1.00  0.00     0.000 C 
BRANCH   4   5
ATOM      5  C   UNL     1      46.091 -25.554   0.848  1.00  0.00     0.006 C 
BRANCH   5   6
ATOM      6  C   UNL     1      45.315 -26.256   1.973  1.00  0.00     0.053 C 
BRANCH   6   7
ATOM      7  C   UNL     1      45.743 -27.681   2.147  1.00  0.00     0.041 C 
ATOM      8  O   UNL     1      45.902 -28.157   3.301  1.00  0.00    -0.550 OA
ATOM      9  O   UNL     1      46.001 -28.472   1.035  1.00  0.00    -0.550 OA
ENDBRANCH   6   7
ENDBRANCH   5   6
ENDBRANCH   4   5
ENDBRANCH   3   4
ENDBRANCH   2   3
ENDBRANCH   1   2
BRANCH   1  10
ATOM     10  C   UNL     1      46.045 -24.973  -2.664  1.00  0.00     0.000 C 
BRANCH  10  11
ATOM     11  C   UNL     1      46.120 -25.062  -4.197  1.00  0.00    -0.000 C 
BRANCH  11  12
ATOM     12  C   UNL     1      46.088 -23.682  -4.875  1.00  0.00    -0.000 C 
BRANCH  12  13
ATOM     13  C   UNL     1      45.343 -23.750  -6.215  1.00  0.00    -0.000 C 
BRANCH  13  14
ATOM     14  C   UNL     1      45.962 -22.834  -7.284  1.00  0.00    -0.000 C 
BRANCH  14  15
ATOM     15  C   UNL     1      46.089 -23.524  -8.651  1.00  0.00    -0.003 C 
ATOM     16  C   UNL     1      46.107 -25.043  -8.500  1.00  0.00     0.004 C 
ENDBRANCH  14  15
ENDBRANCH  13  14
ENDBRANCH  12  13
ENDBRANCH  11  12
ENDBRANCH  10  11
ENDBRANCH   1  10
TORSDOF 12
ENDMDL
MODEL 6
REMARK VINA RESULT:    -2.143      4.220      9.032
REMARK INTER + INTRA:          -3.845
REMARK INTER:                  -3.320
REMARK INTRA:                  -0.525
REMARK UNBOUND:                -0.199
REMARK SMILES CCCCCCCCCCCCCC(=O)[O-]
REMARK SMILES IDX 8 1 9 2 10 3 11 4 12 5 13 6 14 7 15 8 16 9 7 10 6 11 5 12
REMARK SMILES IDX 4 13 3 14 2 15 1 16
REMARK H PARENT
REMARK Flexibility Score: inf
ROOT
ATOM      1  C   UNL     1      44.708 -24.770  -1.071  1.00  0.00     0.000 C 
ENDROOT
BRANCH   1   2
ATOM      2  C   UNL     1      45.184 -23.640  -0.140  1.00  0.00     0.000 C 
BRANCH   2   3
ATOM      3  C   UNL     1      45.672 -24.098   1.249  1.00  0.00     0.000 C 
BRANCH   3   4
ATOM      4  C   UNL     1      46.123 -25.570   1.332  1.00  0.00     0.000 C 
BRANCH   4   5
ATOM      5  C   UNL     1      45.180 -26.497   2.125  1.00  0.00     0.006 C 
BRANCH   5   6
ATOM      6  C   UNL     1      45.865 -27.285   3.252  1.00  0.00     0.053 C 
BRANCH   6   7
ATOM      7  C   UNL     1      45.660 -28.762   3.109  1.00  0.00     0.041 C 
ATOM      8  O   UNL     1      45.993 -29.540   4.040  1.00  0.00    -0.550 OA
ATOM      9  O   UNL     1      45.134 -29.282   1.933  1.00  0.00    -0.550 OA
ENDBRANCH   6   7
ENDBRANCH   5   6
ENDBRANCH   4   5
ENDBRANCH   3   4
ENDBRANCH   2   3
ENDBRANCH   1   2
BRANCH   1  10
ATOM     10  C   UNL     1      45.696 -25.057  -2.214  1.00  0.00     0.000 C 
BRANCH  10  11
ATOM     11  C   UNL     1      45.885 -23.851  -3.149  1.00  0.00    -0.000 C 
BRANCH  11  12
ATOM     12  C   UNL     1      46.125 -24.263  -4.610  1.00  0.00    -0.000 C 
BRANCH  12  13
ATOM     13  C   UNL     1      46.103 -23.036  -5.534  1.00  0.00    -0.000 C 
BRANCH  13  14
ATOM     14  C   UNL     1      45.838 -23.405  -7.003  1.00  0.00    -0.000 C 
BRANCH  14  15
ATOM     15  C   UNL     1      45.932 -24.917  -7.258  1.00  0.00    -0.003 C 
ATOM     16  C   UNL     1      45.874 -25.226  -8.752  1.00  0.00     0.004 C 
ENDBRANCH  14  15
ENDBRANCH  13  14
ENDBRANCH  12  13
ENDBRANCH  11  12
ENDBRANCH  10  11
ENDBRANCH   1  10
TORSDOF 12
ENDMDL
MODEL 7
REMARK VINA RESULT:    -1.767      5.019      9.291
REMARK INTER + INTRA:          -3.206
REMARK INTER:                  -2.952
REMARK INTRA:                  -0.254
REMARK UNBOUND:                -0.199
REMARK SMILES CCCCCCCCCCCCCC(=O)[O-]
REMARK SMILES IDX 8 1 9 2 10 3 11 4 12 5 13 6 14 7 15 8 16 9 7 10 6 11 5 12
REMARK SMILES IDX 4 13 3 14 2 15 1 16
REMARK H PARENT
REMARK Flexibility Score: inf
ROOT
ATOM      1  C   UNL     1      45.172 -25.209   0.501  1.00  0.00     0.000 C 
ENDROOT
BRANCH   1   2
ATOM      2  C   UNL     1      46.098 -26.245   1.163  1.00  0.00     0.000 C 
BRANCH   2   3
ATOM      3  C   UNL     1      45.429 -27.134   2.230  1.00  0.00     0.000 C 
BRANCH   3   4
ATOM      4  C   UNL     1      45.045 -26.412   3.537  1.00  0.00     0.000 C 
BRANCH   4   5
ATOM      5  C   UNL     1      46.125 -26.437   4.637  1.00  0.00     0.006 C 
BRANCH   5   6
ATOM      6  C   UNL     1      45.716 -27.190   5.912  1.00  0.00     0.053 C 
BRANCH   6   7
ATOM      7  C   UNL     1      45.848 -28.674   5.755  1.00  0.00     0.041 C 
ATOM      8  O   UNL     1      45.743 -29.428   6.757  1.00  0.00    -0.550 OA
ATOM      9  O   UNL     1      46.123 -29.221   4.508  1.00  0.00    -0.550 OA
ENDBRANCH   6   7
ENDBRANCH   5   6
ENDBRANCH   4   5
ENDBRANCH   3   4
ENDBRANCH   2   3
ENDBRANCH   1   2
BRANCH   1  10
ATOM     10  C   UNL     1      45.946 -24.066  -0.180  1.00  0.00     0.000 C 
BRANCH  10  11
ATOM     11  C   UNL     1      45.861 -24.128  -1.713  1.00  0.00    -0.000 C 
BRANCH  11  12
ATOM     12  C   UNL     1      44.599 -24.849  -2.211  1.00  0.00    -0.000 C 
BRANCH  12  13
ATOM     13  C   UNL     1      44.839 -25.484  -3.588  1.00  0.00    -0.000 C 
BRANCH  13  14
ATOM     14  C   UNL     1      45.836 -24.685  -4.443  1.00  0.00    -0.000 C 
BRANCH  14  15
ATOM     15  C   UNL     1      45.813 -25.101  -5.922  1.00  0.00    -0.003 C 
ATOM     16  C   UNL     1      45.848 -23.880  -6.836  1.00  0.00     0.004 C 
ENDBRANCH  14  15
ENDBRANCH  13  14
ENDBRANCH  12  13
ENDBRANCH  11  12
ENDBRANCH  10  11
ENDBRANCH   1  10
TORSDOF 12
ENDMDL
MODEL 8
REMARK VINA RESULT:    -1.502      4.285      8.654
REMARK INTER + INTRA:          -2.755
REMARK INTER:                  -2.506
REMARK INTRA:                  -0.248
REMARK UNBOUND:                -0.199
REMARK SMILES CCCCCCCCCCCCCC(=O)[O-]
REMARK SMILES IDX 8 1 9 2 10 3 11 4 12 5 13 6 14 7 15 8 16 9 7 10 6 11 5 12
REMARK SMILES IDX 4 13 3 14 2 15 1 16
REMARK H PARENT
REMARK Flexibility Score: inf
ROOT
ATOM      1  C   UNL     1      44.261 -23.902  -1.174  1.00  0.00     0.000 C 
ENDROOT
BRANCH   1   2
ATOM      2  C   UNL     1      44.732 -23.166   0.093  1.00  0.00     0.000 C 
BRANCH   2   3
ATOM      3  C   UNL     1      45.935 -23.805   0.815  1.00  0.00     0.000 C 
BRANCH   3   4
ATOM      4  C   UNL     1      46.025 -25.340   0.702  1.00  0.00     0.000 C 
BRANCH   4   5
ATOM      5  C   UNL     1      46.125 -26.087   2.048  1.00  0.00     0.006 C 
BRANCH   5   6
ATOM      6  C   UNL     1      44.965 -27.056   2.324  1.00  0.00     0.053 C 
BRANCH   6   7
ATOM      7  C   UNL     1      45.436 -28.326   2.964  1.00  0.00     0.041 C 
ATOM      8  O   UNL     1      46.010 -28.296   4.083  1.00  0.00    -0.550 OA
ATOM      9  O   UNL     1      45.271 -29.540   2.307  1.00  0.00    -0.550 OA
ENDBRANCH   6   7
ENDBRANCH   5   6
ENDBRANCH   4   5
ENDBRANCH   3   4
ENDBRANCH   2   3
ENDBRANCH   1   2
BRANCH   1  10
ATOM     10  C   UNL     1      45.407 -24.181  -2.162  1.00  0.00     0.000 C 
BRANCH  10  11
ATOM     11  C   UNL     1      45.318 -25.582  -2.790  1.00  0.00    -0.000 C 
BRANCH  11  12
ATOM     12  C   UNL     1      46.124 -25.702  -4.093  1.00  0.00    -0.000 C 
BRANCH  12  13
ATOM     13  C   UNL     1      45.670 -24.649  -5.115  1.00  0.00    -0.000 C 
BRANCH  13  14
ATOM     14  C   UNL     1      46.107 -24.988  -6.549  1.00  0.00    -0.000 C 
BRANCH  14  15
ATOM     15  C   UNL     1      45.556 -23.997  -7.585  1.00  0.00    -0.003 C 
ATOM     16  C   UNL     1      46.073 -22.585  -7.323  1.00  0.00     0.004 C 
ENDBRANCH  14  15
ENDBRANCH  13  14
ENDBRANCH  12  13
ENDBRANCH  11  12
ENDBRANCH  10  11
ENDBRANCH   1  10
TORSDOF 12
ENDMDL
MODEL 9
REMARK VINA RESULT:    -1.078      1.707      2.163
REMARK INTER + INTRA:          -2.033
REMARK INTER:                  -1.424
REMARK INTRA:                  -0.610
REMARK UNBOUND:                -0.199
REMARK SMILES CCCCCCCCCCCCCC(=O)[O-]
REMARK SMILES IDX 8 1 9 2 10 3 11 4 12 5 13 6 14 7 15 8 16 9 7 10 6 11 5 12
REMARK SMILES IDX 4 13 3 14 2 15 1 16
REMARK H PARENT
REMARK Flexibility Score: inf
ROOT
ATOM      1  C   UNL     1      44.439 -24.564  -1.532  1.00  0.00     0.000 C 
ENDROOT
BRANCH   1   2
ATOM      2  C   UNL     1      45.132 -23.190  -1.550  1.00  0.00     0.000 C 
BRANCH   2   3
ATOM      3  C   UNL     1      45.984 -22.903  -2.802  1.00  0.00     0.000 C 
BRANCH   3   4
ATOM      4  C   UNL     1      46.125 -24.084  -3.784  1.00  0.00     0.000 C 
BRANCH   4   5
ATOM      5  C   UNL     1      46.017 -23.708  -5.275  1.00  0.00     0.006 C 
BRANCH   5   6
ATOM      6  C   UNL     1      46.059 -24.905  -6.237  1.00  0.00     0.053 C 
BRANCH   6   7
ATOM      7  C   UNL     1      45.974 -24.477  -7.670  1.00  0.00     0.041 C 
ATOM      8  O   UNL     1      45.911 -25.339  -8.585  1.00  0.00    -0.550 OA
ATOM      9  O   UNL     1      45.999 -23.127  -7.997  1.00  0.00    -0.550 OA
ENDBRANCH   6   7
ENDBRANCH   5   6
ENDBRANCH   4   5
ENDBRANCH   3   4
ENDBRANCH   2   3
ENDBRANCH   1   2
BRANCH   1  10
ATOM     10  C   UNL     1      44.805 -25.401  -0.294  1.00  0.00     0.000 C 
BRANCH  10  11
ATOM     11  C   UNL     1      45.515 -24.573   0.789  1.00  0.00    -0.000 C 
BRANCH  11  12
ATOM     12  C   UNL     1      45.963 -25.423   1.989  1.00  0.00    -0.000 C 
BRANCH  12  13
ATOM     13  C   UNL     1      46.107 -26.899   1.589  1.00  0.00    -0.000 C 
BRANCH  13  14
ATOM     14  C   UNL     1      45.453 -27.853   2.602  1.00  0.00    -0.000 C 
BRANCH  14  15
ATOM     15  C   UNL     1      46.123 -29.235   2.630  1.00  0.00    -0.003 C 
ATOM     16  C   UNL     1      46.085 -29.835   4.033  1.00  0.00     0.004 C 
ENDBRANCH  14  15
ENDBRANCH  13  14
ENDBRANCH  12  13
ENDBRANCH  11  12
ENDBRANCH  10  11
ENDBRANCH   1  10
TORSDOF 12
ENDMDL
