MODEL 1
REMARK VINA RESULT:    -3.725      0.000      0.000
REMARK INTER + INTRA:          -4.322
REMARK INTER:                  -4.269
REMARK INTRA:                  -0.053
REMARK UNBOUND:                -0.053
REMARK SMILES COc1cc(C=O)ccc1O
REMARK SMILES IDX 3 1 10 2 9 3 8 4 5 5 4 6 2 7 1 8 11 9 6 11 7 12
REMARK H PARENT 11 10
REMARK Flexibility Score: inf
ROOT
ATOM      1  C   UNL     1      -8.033  -2.056  -8.060  1.00  0.00     0.161 A 
ATOM      2  C   UNL     1      -8.598  -2.503  -9.264  1.00  0.00     0.157 A 
ATOM      3  C   UNL     1      -8.719  -1.628 -10.350  1.00  0.00     0.051 A 
ATOM      4  C   UNL     1      -8.280  -0.306 -10.244  1.00  0.00     0.015 A 
ATOM      5  C   UNL     1      -7.714   0.157  -9.049  1.00  0.00     0.018 A 
ATOM      6  C   UNL     1      -7.592  -0.721  -7.957  1.00  0.00     0.062 A 
ENDROOT
BRANCH   1   7
ATOM      7  O   UNL     1      -7.929  -2.964  -6.994  1.00  0.00    -0.493 OA
ATOM      8  C   UNL     1      -7.064  -2.798  -5.876  1.00  0.00     0.278 C 
ENDBRANCH   1   7
BRANCH   2   9
ATOM      9  O   UNL     1      -9.037  -3.821  -9.372  1.00  0.00    -0.504 OA
ATOM     10  H   UNL     1      -9.766  -4.188  -8.773  1.00  0.00     0.293 HD
ENDBRANCH   2   9
BRANCH   5  11
ATOM     11  C   UNL     1      -7.256   1.556  -8.956  1.00  0.00     0.260 C 
ATOM     12  O   UNL     1      -6.059   1.833  -8.676  1.00  0.00    -0.298 OA
ENDBRANCH   5  11
TORSDOF 3
ENDMDL
MODEL 2
REMARK VINA RESULT:    -3.569      1.097      2.796
REMARK INTER + INTRA:          -4.143
REMARK INTER:                  -4.095
REMARK INTRA:                  -0.048
REMARK UNBOUND:                -0.053
REMARK SMILES COc1cc(C=O)ccc1O
REMARK SMILES IDX 3 1 10 2 9 3 8 4 5 5 4 6 2 7 1 8 11 9 6 11 7 12
REMARK H PARENT 11 10
REMARK Flexibility Score: inf
ROOT
ATOM      1  C   UNL     1      -8.541  -2.055 -10.165  1.00  0.00     0.161 A 
ATOM      2  C   UNL     1      -8.499  -2.773  -8.961  1.00  0.00     0.157 A 
ATOM      3  C   UNL     1      -8.070  -2.148  -7.784  1.00  0.00     0.051 A 
ATOM      4  C   UNL     1      -7.680  -0.807  -7.800  1.00  0.00     0.015 A 
ATOM      5  C   UNL     1      -7.716  -0.074  -8.994  1.00  0.00     0.018 A 
ATOM      6  C   UNL     1      -8.148  -0.702 -10.176  1.00  0.00     0.062 A 
ENDROOT
BRANCH   1   7
ATOM      7  O   UNL     1      -8.978  -2.718 -11.323  1.00  0.00    -0.493 OA
ATOM      8  C   UNL     1      -8.126  -3.422 -12.219  1.00  0.00     0.278 C 
ENDBRANCH   1   7
BRANCH   2   9
ATOM      9  O   UNL     1      -8.886  -4.113  -8.943  1.00  0.00    -0.504 OA
ATOM     10  H   UNL     1      -9.787  -4.408  -9.298  1.00  0.00     0.293 HD
ENDBRANCH   2   9
BRANCH   5  11
ATOM     11  C   UNL     1      -7.302   1.342  -8.990  1.00  0.00     0.260 C 
ATOM     12  O   UNL     1      -6.117   1.673  -8.720  1.00  0.00    -0.298 OA
ENDBRANCH   5  11
TORSDOF 3
ENDMDL
MODEL 3
REMARK VINA RESULT:    -3.455     11.204     12.496
REMARK INTER + INTRA:          -4.012
REMARK INTER:                  -3.950
REMARK INTRA:                  -0.062
REMARK UNBOUND:                -0.053
REMARK SMILES COc1cc(C=O)ccc1O
REMARK SMILES IDX 3 1 10 2 9 3 8 4 5 5 4 6 2 7 1 8 11 9 6 11 7 12
REMARK H PARENT 11 10
REMARK Flexibility Score: inf
ROOT
ATOM      1  C   UNL     1      -8.544   0.128 -19.704  1.00  0.00     0.161 A 
ATOM      2  C   UNL     1      -8.575  -1.205 -20.141  1.00  0.00     0.157 A 
ATOM      3  C   UNL     1      -8.784  -1.495 -21.495  1.00  0.00     0.051 A 
ATOM      4  C   UNL     1      -8.963  -0.463 -22.418  1.00  0.00     0.015 A 
ATOM      5  C   UNL     1      -8.934   0.874 -22.000  1.00  0.00     0.018 A 
ATOM      6  C   UNL     1      -8.725   1.166 -20.640  1.00  0.00     0.062 A 
ENDROOT
BRANCH   1   7
ATOM      7  O   UNL     1      -8.332   0.378 -18.339  1.00  0.00    -0.493 OA
ATOM      8  C   UNL     1      -8.934   1.443 -17.612  1.00  0.00     0.278 C 
ENDBRANCH   1   7
BRANCH   2   9
ATOM      9  O   UNL     1      -8.398  -2.236 -19.220  1.00  0.00    -0.504 OA
ATOM     10  H   UNL     1      -8.370  -2.058 -18.224  1.00  0.00     0.293 HD
ENDBRANCH   2   9
BRANCH   5  11
ATOM     11  C   UNL     1      -9.125   1.950 -22.991  1.00  0.00     0.260 C 
ATOM     12  O   UNL     1      -8.832   1.777 -24.204  1.00  0.00    -0.298 OA
ENDBRANCH   5  11
TORSDOF 3
ENDMDL
MODEL 4
REMARK VINA RESULT:    -3.423      1.620      3.815
REMARK INTER + INTRA:          -3.976
REMARK INTER:                  -3.909
REMARK INTRA:                  -0.067
REMARK UNBOUND:                -0.053
REMARK SMILES COc1cc(C=O)ccc1O
REMARK SMILES IDX 3 1 10 2 9 3 8 4 5 5 4 6 2 7 1 8 11 9 6 11 7 12
REMARK H PARENT 11 10
REMARK Flexibility Score: inf
ROOT
ATOM      1  C   UNL     1      -7.998  -0.437  -8.620  1.00  0.00     0.161 A 
ATOM      2  C   UNL     1      -8.658  -0.852  -9.786  1.00  0.00     0.157 A 
ATOM      3  C   UNL     1      -9.001  -2.198  -9.960  1.00  0.00     0.051 A 
ATOM      4  C   UNL     1      -8.687  -3.138  -8.976  1.00  0.00     0.015 A 
ATOM      5  C   UNL     1      -8.028  -2.742  -7.804  1.00  0.00     0.018 A 
ATOM      6  C   UNL     1      -7.685  -1.390  -7.629  1.00  0.00     0.062 A 
ENDROOT
BRANCH   1   7
ATOM      7  O   UNL     1      -7.673   0.921  -8.483  1.00  0.00    -0.493 OA
ATOM      8  C   UNL     1      -6.405   1.483  -8.804  1.00  0.00     0.278 C 
ENDBRANCH   1   7
BRANCH   2   9
ATOM      9  O   UNL     1      -8.971   0.085 -10.771  1.00  0.00    -0.504 OA
ATOM     10  H   UNL     1      -9.433  -0.184 -11.631  1.00  0.00     0.293 HD
ENDBRANCH   2   9
BRANCH   5  11
ATOM     11  C   UNL     1      -7.707  -3.750  -6.775  1.00  0.00     0.260 C 
ATOM     12  O   UNL     1      -6.546  -3.842  -6.295  1.00  0.00    -0.298 OA
ENDBRANCH   5  11
TORSDOF 3
ENDMDL
MODEL 5
REMARK VINA RESULT:    -3.297     11.249     12.825
REMARK INTER + INTRA:          -3.832
REMARK INTER:                  -3.825
REMARK INTRA:                  -0.006
REMARK UNBOUND:                -0.053
REMARK SMILES COc1cc(C=O)ccc1O
REMARK SMILES IDX 3 1 10 2 9 3 8 4 5 5 4 6 2 7 1 8 11 9 6 11 7 12
REMARK H PARENT 11 10
REMARK Flexibility Score: inf
ROOT
ATOM      1  C   UNL     1      -8.438  -0.092 -19.866  1.00  0.00     0.161 A 
ATOM      2  C   UNL     1      -8.649   1.228 -20.293  1.00  0.00     0.157 A 
ATOM      3  C   UNL     1      -8.943   1.494 -21.636  1.00  0.00     0.051 A 
ATOM      4  C   UNL     1      -9.027   0.450 -22.559  1.00  0.00     0.015 A 
ATOM      5  C   UNL     1      -8.820  -0.875 -22.151  1.00  0.00     0.018 A 
ATOM      6  C   UNL     1      -8.525  -1.142 -20.802  1.00  0.00     0.062 A 
ENDROOT
BRANCH   1   7
ATOM      7  O   UNL     1      -8.147  -0.317 -18.512  1.00  0.00    -0.493 OA
ATOM      8  C   UNL     1      -9.124  -0.407 -17.481  1.00  0.00     0.278 C 
ENDBRANCH   1   7
BRANCH   2   9
ATOM      9  O   UNL     1      -8.564   2.271 -19.372  1.00  0.00    -0.504 OA
ATOM     10  H   UNL     1      -7.702   2.783 -19.230  1.00  0.00     0.293 HD
ENDBRANCH   2   9
BRANCH   5  11
ATOM     11  C   UNL     1      -8.914  -1.964 -23.141  1.00  0.00     0.260 C 
ATOM     12  O   UNL     1      -8.383  -1.858 -24.278  1.00  0.00    -0.298 OA
ENDBRANCH   5  11
TORSDOF 3
ENDMDL
MODEL 6
REMARK VINA RESULT:    -3.207      1.949      4.052
REMARK INTER + INTRA:          -3.728
REMARK INTER:                  -3.660
REMARK INTRA:                  -0.068
REMARK UNBOUND:                -0.053
REMARK SMILES COc1cc(C=O)ccc1O
REMARK SMILES IDX 3 1 10 2 9 3 8 4 5 5 4 6 2 7 1 8 11 9 6 11 7 12
REMARK H PARENT 11 10
REMARK Flexibility Score: inf
ROOT
ATOM      1  C   UNL     1      -8.249  -1.332  -9.206  1.00  0.00     0.161 A 
ATOM      2  C   UNL     1      -8.230  -2.329  -8.219  1.00  0.00     0.157 A 
ATOM      3  C   UNL     1      -8.321  -3.678  -8.582  1.00  0.00     0.051 A 
ATOM      4  C   UNL     1      -8.432  -4.042  -9.926  1.00  0.00     0.015 A 
ATOM      5  C   UNL     1      -8.451  -3.060 -10.925  1.00  0.00     0.018 A 
ATOM      6  C   UNL     1      -8.359  -1.704 -10.561  1.00  0.00     0.062 A 
ENDROOT
BRANCH   1   7
ATOM      7  O   UNL     1      -8.154   0.009  -8.803  1.00  0.00    -0.493 OA
ATOM      8  C   UNL     1      -6.946   0.761  -8.780  1.00  0.00     0.278 C 
ENDBRANCH   1   7
BRANCH   2   9
ATOM      9  O   UNL     1      -8.121  -1.968  -6.877  1.00  0.00    -0.504 OA
ATOM     10  H   UNL     1      -7.867  -1.027  -6.601  1.00  0.00     0.293 HD
ENDBRANCH   2   9
BRANCH   5  11
ATOM     11  C   UNL     1      -8.567  -3.464 -12.339  1.00  0.00     0.260 C 
ATOM     12  O   UNL     1      -7.546  -3.601 -13.063  1.00  0.00    -0.298 OA
ENDBRANCH   5  11
TORSDOF 3
ENDMDL
MODEL 7
REMARK VINA RESULT:    -3.203      1.802      4.219
REMARK INTER + INTRA:          -3.724
REMARK INTER:                  -3.653
REMARK INTRA:                  -0.071
REMARK UNBOUND:                -0.053
REMARK SMILES COc1cc(C=O)ccc1O
REMARK SMILES IDX 3 1 10 2 9 3 8 4 5 5 4 6 2 7 1 8 11 9 6 11 7 12
REMARK H PARENT 11 10
REMARK Flexibility Score: inf
ROOT
ATOM      1  C   UNL     1      -8.555  -2.299 -10.020  1.00  0.00     0.161 A 
ATOM      2  C   UNL     1      -8.347  -0.942  -9.730  1.00  0.00     0.157 A 
ATOM      3  C   UNL     1      -7.939  -0.552  -8.448  1.00  0.00     0.051 A 
ATOM      4  C   UNL     1      -7.738  -1.509  -7.451  1.00  0.00     0.015 A 
ATOM      5  C   UNL     1      -7.941  -2.869  -7.723  1.00  0.00     0.018 A 
ATOM      6  C   UNL     1      -8.350  -3.260  -9.010  1.00  0.00     0.062 A 
ENDROOT
BRANCH   1   7
ATOM      7  O   UNL     1      -8.963  -2.649 -11.317  1.00  0.00    -0.493 OA
ATOM      8  C   UNL     1      -8.193  -3.436 -12.219  1.00  0.00     0.278 C 
ENDBRANCH   1   7
BRANCH   2   9
ATOM      9  O   UNL     1      -8.549   0.014 -10.724  1.00  0.00    -0.504 OA
ATOM     10  H   UNL     1      -9.207   0.774 -10.602  1.00  0.00     0.293 HD
ENDBRANCH   2   9
BRANCH   5  11
ATOM     11  C   UNL     1      -7.722  -3.864  -6.657  1.00  0.00     0.260 C 
ATOM     12  O   UNL     1      -6.567  -4.093  -6.207  1.00  0.00    -0.298 OA
ENDBRANCH   5  11
TORSDOF 3
ENDMDL
MODEL 8
REMARK VINA RESULT:    -2.934     13.003     14.617
REMARK INTER + INTRA:          -3.416
REMARK INTER:                  -3.344
REMARK INTRA:                  -0.072
REMARK UNBOUND:                -0.053
REMARK SMILES COc1cc(C=O)ccc1O
REMARK SMILES IDX 3 1 10 2 9 3 8 4 5 5 4 6 2 7 1 8 11 9 6 11 7 12
REMARK H PARENT 11 10
REMARK Flexibility Score: inf
ROOT
ATOM      1  C   UNL     1      -8.513  -0.117 -23.676  1.00  0.00     0.161 A 
ATOM      2  C   UNL     1      -8.748   1.263 -23.586  1.00  0.00     0.157 A 
ATOM      3  C   UNL     1      -8.862   1.876 -22.332  1.00  0.00     0.051 A 
ATOM      4  C   UNL     1      -8.743   1.121 -21.164  1.00  0.00     0.015 A 
ATOM      5  C   UNL     1      -8.508  -0.259 -21.235  1.00  0.00     0.018 A 
ATOM      6  C   UNL     1      -8.394  -0.875 -22.494  1.00  0.00     0.062 A 
ENDROOT
BRANCH   1   7
ATOM      7  O   UNL     1      -8.405  -0.694 -24.950  1.00  0.00    -0.493 OA
ATOM      8  C   UNL     1      -7.174  -1.003 -25.594  1.00  0.00     0.278 C 
ENDBRANCH   1   7
BRANCH   2   9
ATOM      9  O   UNL     1      -8.868   2.019 -24.751  1.00  0.00    -0.504 OA
ATOM     10  H   UNL     1      -8.059   2.428 -25.202  1.00  0.00     0.293 HD
ENDBRANCH   2   9
BRANCH   5  11
ATOM     11  C   UNL     1      -8.385  -1.040 -19.989  1.00  0.00     0.260 C 
ATOM     12  O   UNL     1      -7.295  -1.094 -19.360  1.00  0.00    -0.298 OA
ENDBRANCH   5  11
TORSDOF 3
ENDMDL
MODEL 9
REMARK VINA RESULT:    -2.916     12.139     13.692
REMARK INTER + INTRA:          -3.395
REMARK INTER:                  -3.325
REMARK INTRA:                  -0.070
REMARK UNBOUND:                -0.053
REMARK SMILES COc1cc(C=O)ccc1O
REMARK SMILES IDX 3 1 10 2 9 3 8 4 5 5 4 6 2 7 1 8 11 9 6 11 7 12
REMARK H PARENT 11 10
REMARK Flexibility Score: inf
ROOT
ATOM      1  C   UNL     1      -8.559   0.480 -22.830  1.00  0.00     0.161 A 
ATOM      2  C   UNL     1      -8.752  -0.905 -22.718  1.00  0.00     0.157 A 
ATOM      3  C   UNL     1      -8.936  -1.488 -21.459  1.00  0.00     0.051 A 
ATOM      4  C   UNL     1      -8.927  -0.699 -20.307  1.00  0.00     0.015 A 
ATOM      5  C   UNL     1      -8.737   0.687 -20.400  1.00  0.00     0.018 A 
ATOM      6  C   UNL     1      -8.552   1.273 -21.665  1.00  0.00     0.062 A 
ENDROOT
BRANCH   1   7
ATOM      7  O   UNL     1      -8.379   1.028 -24.110  1.00  0.00    -0.493 OA
ATOM      8  C   UNL     1      -9.125   2.122 -24.631  1.00  0.00     0.278 C 
ENDBRANCH   1   7
BRANCH   2   9
ATOM      9  O   UNL     1      -8.759  -1.695 -23.866  1.00  0.00    -0.504 OA
ATOM     10  H   UNL     1      -8.084  -1.557 -24.608  1.00  0.00     0.293 HD
ENDBRANCH   2   9
BRANCH   5  11
ATOM     11  C   UNL     1      -8.732   1.504 -19.172  1.00  0.00     0.260 C 
ATOM     12  O   UNL     1      -8.609   0.973 -18.037  1.00  0.00    -0.298 OA
ENDBRANCH   5  11
TORSDOF 3
ENDMDL
