MODEL 1
REMARK VINA RESULT:    -6.076      0.000      0.000
REMARK INTER + INTRA:         -10.869
REMARK INTER:                  -8.917
REMARK INTRA:                  -1.952
REMARK UNBOUND:                -1.952
REMARK SMILES O=c1c(O[C@H]2O[C@H](CO)[C@H](O)[C@@H](O)[C@H]2O)c(-c2ccc(O)c(O)c2)oc2cc(O)cc(O)c12
REMARK SMILES IDX 4 1 3 2 16 3 25 4 2 5 26 6 1 7 33 8 27 9 31 10 28 11 30 12
REMARK SMILES IDX 17 13 18 14 19 15 20 16 24 17 22 18 21 19 23 21 32 23 29 25
REMARK SMILES IDX 5 27 14 28 6 29 12 30 7 31 10 32 15 33 13 35 8 37 9 38 11 40
REMARK H PARENT 21 20 23 22 32 24 29 26 15 34 13 36 9 39 11 41
REMARK Flexibility Score: inf
ROOT
ATOM      1  O   UNL     1      -9.996  34.238   6.606  1.00  0.00    -0.454 OA
ENDROOT
BRANCH   1   2
ATOM      2  C   UNL     1     -10.689  35.349   7.107  1.00  0.00     0.214 A 
ATOM      3  C   UNL     1     -11.486  35.310   8.276  1.00  0.00     0.180 A 
ATOM      4  O   UNL     1     -12.047  36.433   8.723  1.00  0.00    -0.452 OA
ATOM      5  C   UNL     1     -10.604  36.541   6.387  1.00  0.00     0.239 A 
ATOM      6  C   UNL     1     -11.940  37.600   8.097  1.00  0.00     0.146 A 
ATOM      7  O   UNL     1      -9.955  36.557   5.306  1.00  0.00    -0.285 OA
ATOM      8  C   UNL     1     -11.221  37.705   6.884  1.00  0.00     0.111 A 
ATOM      9  C   UNL     1     -12.562  38.727   8.647  1.00  0.00     0.094 A 
ATOM     10  C   UNL     1     -11.135  38.961   6.237  1.00  0.00     0.134 A 
ATOM     11  C   UNL     1     -12.477  39.964   8.004  1.00  0.00     0.123 A 
ATOM     12  C   UNL     1     -11.760  40.082   6.810  1.00  0.00     0.093 A 
BRANCH   3  13
ATOM     13  C   UNL     1     -11.758  34.061   9.023  1.00  0.00     0.025 A 
ATOM     14  C   UNL     1     -12.784  33.180   8.628  1.00  0.00     0.016 A 
ATOM     15  C   UNL     1     -12.976  31.973   9.306  1.00  0.00     0.051 A 
ATOM     16  C   UNL     1     -12.173  31.647  10.409  1.00  0.00     0.157 A 
ATOM     17  C   UNL     1     -10.979  33.743  10.148  1.00  0.00     0.062 A 
ATOM     18  C   UNL     1     -11.168  32.537  10.830  1.00  0.00     0.158 A 
BRANCH  16  19
ATOM     19  O   UNL     1     -12.370  30.445  11.090  1.00  0.00    -0.504 OA
ATOM     20  H   UNL     1     -12.519  30.429  12.094  1.00  0.00     0.293 HD
ENDBRANCH  16  19
BRANCH  18  21
ATOM     21  O   UNL     1     -10.343  32.234  11.913  1.00  0.00    -0.504 OA
ATOM     22  H   UNL     1      -9.464  31.747  11.794  1.00  0.00     0.293 HD
ENDBRANCH  18  21
ENDBRANCH   3  13
BRANCH  10  23
ATOM     23  O   UNL     1     -10.417  39.110   5.050  1.00  0.00    -0.507 OA
ATOM     24  H   UNL     1      -9.407  39.187   5.039  1.00  0.00     0.293 HD
ENDBRANCH  10  23
BRANCH  11  25
ATOM     25  O   UNL     1     -13.117  41.070   8.559  1.00  0.00    -0.508 OA
ATOM     26  H   UNL     1     -12.649  41.670   9.226  1.00  0.00     0.293 HD
ENDBRANCH  11  25
ENDBRANCH   1   2
BRANCH   1  27
ATOM     27  C   UNL     1      -8.782  33.687   7.132  1.00  0.00     0.339 C 
ATOM     28  C   UNL     1      -7.689  33.540   6.043  1.00  0.00     0.214 C 
ATOM     29  O   UNL     1      -9.042  32.428   7.727  1.00  0.00    -0.332 OA
ATOM     30  C   UNL     1      -8.037  32.446   5.005  1.00  0.00     0.180 C 
ATOM     31  C   UNL     1      -9.614  31.532   6.785  1.00  0.00     0.179 C 
ATOM     32  C   UNL     1      -8.577  31.167   5.696  1.00  0.00     0.177 C 
BRANCH  28  33
ATOM     33  O   UNL     1      -7.372  34.766   5.426  1.00  0.00    -0.384 OA
ATOM     34  H   UNL     1      -6.741  35.262   6.006  1.00  0.00     0.211 HD
ENDBRANCH  28  33
BRANCH  30  35
ATOM     35  O   UNL     1      -8.914  32.907   4.008  1.00  0.00    -0.387 OA
ATOM     36  H   UNL     1      -8.840  33.893   3.954  1.00  0.00     0.211 HD
ENDBRANCH  30  35
BRANCH  31  37
ATOM     37  C   UNL     1     -10.133  30.297   7.526  1.00  0.00     0.191 C 
BRANCH  37  38
ATOM     38  O   UNL     1     -10.098  29.186   6.663  1.00  0.00    -0.394 OA
ATOM     39  H   UNL     1      -9.382  29.353   5.997  1.00  0.00     0.210 HD
ENDBRANCH  37  38
ENDBRANCH  31  37
BRANCH  32  40
ATOM     40  O   UNL     1      -7.508  30.467   6.284  1.00  0.00    -0.387 OA
ATOM     41  H   UNL     1      -7.745  30.321   7.238  1.00  0.00     0.211 HD
ENDBRANCH  32  40
ENDBRANCH   1  27
TORSDOF 12
ENDMDL
MODEL 2
REMARK VINA RESULT:    -5.904      1.889      5.155
REMARK INTER + INTRA:         -10.617
REMARK INTER:                  -8.992
REMARK INTRA:                  -1.625
REMARK UNBOUND:                -1.952
REMARK SMILES O=c1c(O[C@H]2O[C@H](CO)[C@H](O)[C@@H](O)[C@H]2O)c(-c2ccc(O)c(O)c2)oc2cc(O)cc(O)c12
REMARK SMILES IDX 4 1 3 2 16 3 25 4 2 5 26 6 1 7 33 8 27 9 31 10 28 11 30 12
REMARK SMILES IDX 17 13 18 14 19 15 20 16 24 17 22 18 21 19 23 21 32 23 29 25
REMARK SMILES IDX 5 27 14 28 6 29 12 30 7 31 10 32 15 33 13 35 8 37 9 38 11 40
REMARK H PARENT 21 20 23 22 32 24 29 26 15 34 13 36 9 39 11 41
REMARK Flexibility Score: inf
ROOT
ATOM      1  O   UNL     1     -10.547  31.973   8.168  1.00  0.00    -0.454 OA
ENDROOT
BRANCH   1   2
ATOM      2  C   UNL     1     -10.129  33.209   7.653  1.00  0.00     0.214 A 
ATOM      3  C   UNL     1      -9.068  33.352   6.728  1.00  0.00     0.180 A 
ATOM      4  O   UNL     1      -8.789  34.557   6.232  1.00  0.00    -0.452 OA
ATOM      5  C   UNL     1     -10.785  34.352   8.110  1.00  0.00     0.239 A 
ATOM      6  C   UNL     1      -9.431  35.661   6.600  1.00  0.00     0.146 A 
ATOM      7  O   UNL     1     -11.680  34.233   8.990  1.00  0.00    -0.285 OA
ATOM      8  C   UNL     1     -10.455  35.611   7.573  1.00  0.00     0.111 A 
ATOM      9  C   UNL     1      -9.069  36.883   6.019  1.00  0.00     0.094 A 
ATOM     10  C   UNL     1     -11.110  36.808   7.949  1.00  0.00     0.134 A 
ATOM     11  C   UNL     1      -9.717  38.062   6.395  1.00  0.00     0.123 A 
ATOM     12  C   UNL     1     -10.738  38.023   7.349  1.00  0.00     0.093 A 
BRANCH   3  13
ATOM     13  C   UNL     1      -8.218  32.218   6.298  1.00  0.00     0.025 A 
ATOM     14  C   UNL     1      -8.677  31.273   5.360  1.00  0.00     0.016 A 
ATOM     15  C   UNL     1      -7.831  30.252   4.918  1.00  0.00     0.051 A 
ATOM     16  C   UNL     1      -6.531  30.137   5.434  1.00  0.00     0.157 A 
ATOM     17  C   UNL     1      -6.927  32.079   6.835  1.00  0.00     0.062 A 
ATOM     18  C   UNL     1      -6.078  31.058   6.396  1.00  0.00     0.158 A 
BRANCH  16  19
ATOM     19  O   UNL     1      -5.691  29.113   4.997  1.00  0.00    -0.504 OA
ATOM     20  H   UNL     1      -5.325  28.422   5.645  1.00  0.00     0.293 HD
ENDBRANCH  16  19
BRANCH  18  21
ATOM     21  O   UNL     1      -4.786  30.980   6.916  1.00  0.00    -0.504 OA
ATOM     22  H   UNL     1      -3.971  31.199   6.357  1.00  0.00     0.293 HD
ENDBRANCH  18  21
ENDBRANCH   3  13
BRANCH  10  23
ATOM     23  O   UNL     1     -12.140  36.797   8.891  1.00  0.00    -0.507 OA
ATOM     24  H   UNL     1     -12.221  37.509   9.607  1.00  0.00     0.293 HD
ENDBRANCH  10  23
BRANCH  11  25
ATOM     25  O   UNL     1      -9.332  39.269   5.817  1.00  0.00    -0.508 OA
ATOM     26  H   UNL     1      -9.726  39.584   4.941  1.00  0.00     0.293 HD
ENDBRANCH  11  25
ENDBRANCH   1   2
BRANCH   1  27
ATOM     27  C   UNL     1     -11.681  31.212   7.731  1.00  0.00     0.339 C 
ATOM     28  C   UNL     1     -12.636  30.868   8.901  1.00  0.00     0.214 C 
ATOM     29  O   UNL     1     -11.247  30.021   7.098  1.00  0.00    -0.332 OA
ATOM     30  C   UNL     1     -12.014  29.854   9.892  1.00  0.00     0.180 C 
ATOM     31  C   UNL     1     -10.448  29.243   7.977  1.00  0.00     0.179 C 
ATOM     32  C   UNL     1     -11.310  28.695   9.140  1.00  0.00     0.177 C 
BRANCH  28  33
ATOM     33  O   UNL     1     -13.119  32.016   9.561  1.00  0.00    -0.384 OA
ATOM     34  H   UNL     1     -12.892  32.814   9.021  1.00  0.00     0.211 HD
ENDBRANCH  28  33
BRANCH  30  35
ATOM     35  O   UNL     1     -11.157  30.467  10.822  1.00  0.00    -0.387 OA
ATOM     36  H   UNL     1     -10.872  29.788  11.484  1.00  0.00     0.211 HD
ENDBRANCH  30  35
BRANCH  31  37
ATOM     37  C   UNL     1      -9.776  28.123   7.179  1.00  0.00     0.191 C 
BRANCH  37  38
ATOM     38  O   UNL     1      -8.429  28.012   7.572  1.00  0.00    -0.394 OA
ATOM     39  H   UNL     1      -7.916  27.709   6.779  1.00  0.00     0.210 HD
ENDBRANCH  37  38
ENDBRANCH  31  37
BRANCH  32  40
ATOM     40  O   UNL     1     -12.279  27.813   8.628  1.00  0.00    -0.387 OA
ATOM     41  H   UNL     1     -12.964  27.691   9.337  1.00  0.00     0.211 HD
ENDBRANCH  32  40
ENDBRANCH   1  27
TORSDOF 12
ENDMDL
MODEL 3
REMARK VINA RESULT:    -5.800      1.806      5.180
REMARK INTER + INTRA:         -10.464
REMARK INTER:                  -9.311
REMARK INTRA:                  -1.153
REMARK UNBOUND:                -1.952
REMARK SMILES O=c1c(O[C@H]2O[C@H](CO)[C@H](O)[C@@H](O)[C@H]2O)c(-c2ccc(O)c(O)c2)oc2cc(O)cc(O)c12
REMARK SMILES IDX 4 1 3 2 16 3 25 4 2 5 26 6 1 7 33 8 27 9 31 10 28 11 30 12
REMARK SMILES IDX 17 13 18 14 19 15 20 16 24 17 22 18 21 19 23 21 32 23 29 25
REMARK SMILES IDX 5 27 14 28 6 29 12 30 7 31 10 32 15 33 13 35 8 37 9 38 11 40
REMARK H PARENT 21 20 23 22 32 24 29 26 15 34 13 36 9 39 11 41
REMARK Flexibility Score: inf
ROOT
ATOM      1  O   UNL     1     -10.838  32.461   7.604  1.00  0.00    -0.454 OA
ENDROOT
BRANCH   1   2
ATOM      2  C   UNL     1     -10.169  33.646   7.266  1.00  0.00     0.214 A 
ATOM      3  C   UNL     1      -8.930  33.676   6.583  1.00  0.00     0.180 A 
ATOM      4  O   UNL     1      -8.403  34.849   6.234  1.00  0.00    -0.452 OA
ATOM      5  C   UNL     1     -10.754  34.851   7.659  1.00  0.00     0.239 A 
ATOM      6  C   UNL     1      -8.960  36.017   6.539  1.00  0.00     0.146 A 
ATOM      7  O   UNL     1     -11.819  34.822   8.332  1.00  0.00    -0.285 OA
ATOM      8  C   UNL     1     -10.161  36.072   7.283  1.00  0.00     0.111 A 
ATOM      9  C   UNL     1      -8.333  37.198   6.126  1.00  0.00     0.094 A 
ATOM     10  C   UNL     1     -10.722  37.332   7.600  1.00  0.00     0.134 A 
ATOM     11  C   UNL     1      -8.889  38.440   6.442  1.00  0.00     0.123 A 
ATOM     12  C   UNL     1     -10.082  38.506   7.169  1.00  0.00     0.093 A 
BRANCH   3  13
ATOM     13  C   UNL     1      -8.162  32.453   6.257  1.00  0.00     0.025 A 
ATOM     14  C   UNL     1      -8.658  31.497   5.350  1.00  0.00     0.016 A 
ATOM     15  C   UNL     1      -7.883  30.386   5.005  1.00  0.00     0.051 A 
ATOM     16  C   UNL     1      -6.622  30.194   5.589  1.00  0.00     0.157 A 
ATOM     17  C   UNL     1      -6.912  32.239   6.863  1.00  0.00     0.062 A 
ATOM     18  C   UNL     1      -6.135  31.127   6.522  1.00  0.00     0.158 A 
BRANCH  16  19
ATOM     19  O   UNL     1      -5.854  29.080   5.250  1.00  0.00    -0.504 OA
ATOM     20  H   UNL     1      -4.979  28.881   5.724  1.00  0.00     0.293 HD
ENDBRANCH  16  19
BRANCH  18  21
ATOM     21  O   UNL     1      -4.879  30.973   7.107  1.00  0.00    -0.504 OA
ATOM     22  H   UNL     1      -4.344  31.766   7.439  1.00  0.00     0.293 HD
ENDBRANCH  18  21
ENDBRANCH   3  13
BRANCH  10  23
ATOM     23  O   UNL     1     -11.917  37.427   8.315  1.00  0.00    -0.507 OA
ATOM     24  H   UNL     1     -12.629  36.708   8.268  1.00  0.00     0.293 HD
ENDBRANCH  10  23
BRANCH  11  25
ATOM     25  O   UNL     1      -8.241  39.604   6.035  1.00  0.00    -0.508 OA
ATOM     26  H   UNL     1      -7.243  39.623   5.872  1.00  0.00     0.293 HD
ENDBRANCH  11  25
ENDBRANCH   1   2
BRANCH   1  27
ATOM     27  C   UNL     1     -10.486  31.559   8.661  1.00  0.00     0.339 C 
ATOM     28  C   UNL     1     -10.963  30.113   8.376  1.00  0.00     0.214 C 
ATOM     29  O   UNL     1     -11.034  32.015   9.885  1.00  0.00    -0.332 OA
ATOM     30  C   UNL     1     -12.505  29.980   8.431  1.00  0.00     0.180 C 
ATOM     31  C   UNL     1     -12.446  32.131   9.796  1.00  0.00     0.179 C 
ATOM     32  C   UNL     1     -13.090  30.731   9.655  1.00  0.00     0.177 C 
BRANCH  28  33
ATOM     33  O   UNL     1     -10.436  29.595   7.177  1.00  0.00    -0.384 OA
ATOM     34  H   UNL     1     -11.135  29.633   6.478  1.00  0.00     0.211 HD
ENDBRANCH  28  33
BRANCH  30  35
ATOM     35  O   UNL     1     -13.123  30.379   7.233  1.00  0.00    -0.387 OA
ATOM     36  H   UNL     1     -12.601  30.019   6.473  1.00  0.00     0.211 HD
ENDBRANCH  30  35
BRANCH  31  37
ATOM     37  C   UNL     1     -12.962  32.883  11.025  1.00  0.00     0.191 C 
BRANCH  37  38
ATOM     38  O   UNL     1     -12.581  34.234  10.941  1.00  0.00    -0.394 OA
ATOM     39  H   UNL     1     -12.661  34.620  11.851  1.00  0.00     0.210 HD
ENDBRANCH  37  38
ENDBRANCH  31  37
BRANCH  32  40
ATOM     40  O   UNL     1     -12.844  29.983  10.822  1.00  0.00    -0.387 OA
ATOM     41  H   UNL     1     -12.702  29.042  10.540  1.00  0.00     0.211 HD
ENDBRANCH  32  40
ENDBRANCH   1  27
TORSDOF 12
ENDMDL
MODEL 4
REMARK VINA RESULT:    -5.709     14.854     17.950
REMARK INTER + INTRA:         -10.331
REMARK INTER:                  -9.401
REMARK INTRA:                  -0.931
REMARK UNBOUND:                -1.952
REMARK SMILES O=c1c(O[C@H]2O[C@H](CO)[C@H](O)[C@@H](O)[C@H]2O)c(-c2ccc(O)c(O)c2)oc2cc(O)cc(O)c12
REMARK SMILES IDX 4 1 3 2 16 3 25 4 2 5 26 6 1 7 33 8 27 9 31 10 28 11 30 12
REMARK SMILES IDX 17 13 18 14 19 15 20 16 24 17 22 18 21 19 23 21 32 23 29 25
REMARK SMILES IDX 5 27 14 28 6 29 12 30 7 31 10 32 15 33 13 35 8 37 9 38 11 40
REMARK H PARENT 21 20 23 22 32 24 29 26 15 34 13 36 9 39 11 41
REMARK Flexibility Score: inf
ROOT
ATOM      1  O   UNL     1       1.855  44.464   0.328  1.00  0.00    -0.454 OA
ENDROOT
BRANCH   1   2
ATOM      2  C   UNL     1       2.681  43.497   0.916  1.00  0.00     0.214 A 
ATOM      3  C   UNL     1       2.607  43.130   2.281  1.00  0.00     0.180 A 
ATOM      4  O   UNL     1       3.380  42.145   2.737  1.00  0.00    -0.452 OA
ATOM      5  C   UNL     1       3.644  42.893   0.106  1.00  0.00     0.239 A 
ATOM      6  C   UNL     1       4.267  41.506   1.981  1.00  0.00     0.146 A 
ATOM      7  O   UNL     1       3.760  43.272  -1.091  1.00  0.00    -0.285 OA
ATOM      8  C   UNL     1       4.452  41.864   0.626  1.00  0.00     0.111 A 
ATOM      9  C   UNL     1       5.032  40.480   2.550  1.00  0.00     0.094 A 
ATOM     10  C   UNL     1       5.413  41.170  -0.147  1.00  0.00     0.134 A 
ATOM     11  C   UNL     1       5.981  39.800   1.784  1.00  0.00     0.123 A 
ATOM     12  C   UNL     1       6.164  40.138   0.439  1.00  0.00     0.093 A 
BRANCH   3  13
ATOM     13  C   UNL     1       1.724  43.817   3.251  1.00  0.00     0.025 A 
ATOM     14  C   UNL     1       0.569  43.192   3.759  1.00  0.00     0.016 A 
ATOM     15  C   UNL     1      -0.210  43.832   4.726  1.00  0.00     0.051 A 
ATOM     16  C   UNL     1       0.130  45.119   5.170  1.00  0.00     0.157 A 
ATOM     17  C   UNL     1       2.041  45.118   3.675  1.00  0.00     0.062 A 
ATOM     18  C   UNL     1       1.263  45.763   4.642  1.00  0.00     0.158 A 
BRANCH  16  19
ATOM     19  O   UNL     1      -0.654  45.760   6.129  1.00  0.00    -0.504 OA
ATOM     20  H   UNL     1      -1.598  45.447   6.332  1.00  0.00     0.293 HD
ENDBRANCH  16  19
BRANCH  18  21
ATOM     21  O   UNL     1       1.637  47.036   5.074  1.00  0.00    -0.504 OA
ATOM     22  H   UNL     1       2.449  47.509   4.699  1.00  0.00     0.293 HD
ENDBRANCH  18  21
ENDBRANCH   3  13
BRANCH  10  23
ATOM     23  O   UNL     1       5.609  41.479  -1.494  1.00  0.00    -0.507 OA
ATOM     24  H   UNL     1       5.810  40.766  -2.185  1.00  0.00     0.293 HD
ENDBRANCH  10  23
BRANCH  11  25
ATOM     25  O   UNL     1       6.742  38.793   2.372  1.00  0.00    -0.508 OA
ATOM     26  H   UNL     1       7.430  39.000   3.084  1.00  0.00     0.293 HD
ENDBRANCH  11  25
ENDBRANCH   1   2
BRANCH   1  27
ATOM     27  C   UNL     1       0.437  44.590   0.505  1.00  0.00     0.339 C 
ATOM     28  C   UNL     1      -0.329  43.356  -0.034  1.00  0.00     0.214 C 
ATOM     29  O   UNL     1      -0.026  45.763  -0.141  1.00  0.00    -0.332 OA
ATOM     30  C   UNL     1      -0.271  43.254  -1.578  1.00  0.00     0.180 C 
ATOM     31  C   UNL     1       0.292  45.739  -1.524  1.00  0.00     0.179 C 
ATOM     32  C   UNL     1      -0.521  44.634  -2.240  1.00  0.00     0.177 C 
BRANCH  28  33
ATOM     33  O   UNL     1       0.075  42.156   0.585  1.00  0.00    -0.384 OA
ATOM     34  H   UNL     1       0.613  41.631  -0.059  1.00  0.00     0.211 HD
ENDBRANCH  28  33
BRANCH  30  35
ATOM     35  O   UNL     1       0.920  42.667  -2.035  1.00  0.00    -0.387 OA
ATOM     36  H   UNL     1       0.782  42.352  -2.963  1.00  0.00     0.211 HD
ENDBRANCH  30  35
BRANCH  31  37
ATOM     37  C   UNL     1       0.031  47.125  -2.120  1.00  0.00     0.191 C 
BRANCH  37  38
ATOM     38  O   UNL     1      -0.381  46.989  -3.458  1.00  0.00    -0.394 OA
ATOM     39  H   UNL     1       0.344  47.354  -4.028  1.00  0.00     0.210 HD
ENDBRANCH  37  38
ENDBRANCH  31  37
BRANCH  32  40
ATOM     40  O   UNL     1      -1.892  44.943  -2.171  1.00  0.00    -0.387 OA
ATOM     41  H   UNL     1      -1.973  45.930  -2.258  1.00  0.00     0.211 HD
ENDBRANCH  32  40
ENDBRANCH   1  27
TORSDOF 12
ENDMDL
MODEL 5
REMARK VINA RESULT:    -5.667     15.204     17.918
REMARK INTER + INTRA:         -10.269
REMARK INTER:                  -8.257
REMARK INTRA:                  -2.013
REMARK UNBOUND:                -1.952
REMARK SMILES O=c1c(O[C@H]2O[C@H](CO)[C@H](O)[C@@H](O)[C@H]2O)c(-c2ccc(O)c(O)c2)oc2cc(O)cc(O)c12
REMARK SMILES IDX 4 1 3 2 16 3 25 4 2 5 26 6 1 7 33 8 27 9 31 10 28 11 30 12
REMARK SMILES IDX 17 13 18 14 19 15 20 16 24 17 22 18 21 19 23 21 32 23 29 25
REMARK SMILES IDX 5 27 14 28 6 29 12 30 7 31 10 32 15 33 13 35 8 37 9 38 11 40
REMARK H PARENT 21 20 23 22 32 24 29 26 15 34 13 36 9 39 11 41
REMARK Flexibility Score: inf
ROOT
ATOM      1  O   UNL     1       3.663  44.855   1.972  1.00  0.00    -0.454 OA
ENDROOT
BRANCH   1   2
ATOM      2  C   UNL     1       2.816  45.257   3.014  1.00  0.00     0.214 A 
ATOM      3  C   UNL     1       1.405  45.164   2.955  1.00  0.00     0.180 A 
ATOM      4  O   UNL     1       0.681  45.498   4.022  1.00  0.00    -0.452 OA
ATOM      5  C   UNL     1       3.409  45.805   4.152  1.00  0.00     0.239 A 
ATOM      6  C   UNL     1       1.215  45.969   5.145  1.00  0.00     0.146 A 
ATOM      7  O   UNL     1       4.660  45.958   4.175  1.00  0.00    -0.285 OA
ATOM      8  C   UNL     1       2.611  46.159   5.257  1.00  0.00     0.111 A 
ATOM      9  C   UNL     1       0.372  46.289   6.216  1.00  0.00     0.094 A 
ATOM     10  C   UNL     1       3.145  46.672   6.463  1.00  0.00     0.134 A 
ATOM     11  C   UNL     1       0.902  46.797   7.404  1.00  0.00     0.123 A 
ATOM     12  C   UNL     1       2.283  46.980   7.529  1.00  0.00     0.093 A 
BRANCH   3  13
ATOM     13  C   UNL     1       0.678  44.737   1.737  1.00  0.00     0.025 A 
ATOM     14  C   UNL     1       0.499  45.610   0.647  1.00  0.00     0.016 A 
ATOM     15  C   UNL     1      -0.129  45.162  -0.518  1.00  0.00     0.051 A 
ATOM     16  C   UNL     1      -0.620  43.850  -0.597  1.00  0.00     0.157 A 
ATOM     17  C   UNL     1       0.156  43.434   1.664  1.00  0.00     0.062 A 
ATOM     18  C   UNL     1      -0.474  42.982   0.500  1.00  0.00     0.158 A 
BRANCH  16  19
ATOM     19  O   UNL     1      -1.253  43.406  -1.758  1.00  0.00    -0.504 OA
ATOM     20  H   UNL     1      -1.251  43.967  -2.605  1.00  0.00     0.293 HD
ENDBRANCH  16  19
BRANCH  18  21
ATOM     21  O   UNL     1      -0.936  41.668   0.447  1.00  0.00    -0.504 OA
ATOM     22  H   UNL     1      -0.355  40.886   0.722  1.00  0.00     0.293 HD
ENDBRANCH  18  21
ENDBRANCH   3  13
BRANCH  10  23
ATOM     23  O   UNL     1       4.520  46.855   6.619  1.00  0.00    -0.507 OA
ATOM     24  H   UNL     1       5.192  46.428   5.994  1.00  0.00     0.293 HD
ENDBRANCH  10  23
BRANCH  11  25
ATOM     25  O   UNL     1       0.046  47.125   8.452  1.00  0.00    -0.508 OA
ATOM     26  H   UNL     1      -0.305  46.419   9.086  1.00  0.00     0.293 HD
ENDBRANCH  11  25
ENDBRANCH   1   2
BRANCH   1  27
ATOM     27  C   UNL     1       4.131  43.522   1.726  1.00  0.00     0.339 C 
ATOM     28  C   UNL     1       5.663  43.476   1.500  1.00  0.00     0.214 C 
ATOM     29  O   UNL     1       3.462  42.977   0.603  1.00  0.00    -0.332 OA
ATOM     30  C   UNL     1       6.083  44.144   0.168  1.00  0.00     0.180 C 
ATOM     31  C   UNL     1       3.665  43.783  -0.548  1.00  0.00     0.179 C 
ATOM     32  C   UNL     1       5.146  43.720  -0.992  1.00  0.00     0.177 C 
BRANCH  28  33
ATOM     33  O   UNL     1       6.387  43.989   2.594  1.00  0.00    -0.384 OA
ATOM     34  H   UNL     1       6.587  44.944   2.425  1.00  0.00     0.211 HD
ENDBRANCH  28  33
BRANCH  30  35
ATOM     35  O   UNL     1       6.180  45.542   0.274  1.00  0.00    -0.387 OA
ATOM     36  H   UNL     1       6.936  45.763   0.873  1.00  0.00     0.211 HD
ENDBRANCH  30  35
BRANCH  31  37
ATOM     37  C   UNL     1       2.711  43.323  -1.653  1.00  0.00     0.191 C 
BRANCH  37  38
ATOM     38  O   UNL     1       2.758  41.921  -1.758  1.00  0.00    -0.394 OA
ATOM     39  H   UNL     1       3.074  41.571  -0.884  1.00  0.00     0.210 HD
ENDBRANCH  37  38
ENDBRANCH  31  37
BRANCH  32  40
ATOM     40  O   UNL     1       5.460  42.408  -1.390  1.00  0.00    -0.387 OA
ATOM     41  H   UNL     1       4.818  42.160  -2.107  1.00  0.00     0.211 HD
ENDBRANCH  32  40
ENDBRANCH   1  27
TORSDOF 12
ENDMDL
MODEL 6
REMARK VINA RESULT:    -5.551      1.851      3.073
REMARK INTER + INTRA:         -10.099
REMARK INTER:                  -9.989
REMARK INTRA:                  -0.111
REMARK UNBOUND:                -1.952
REMARK SMILES O=c1c(O[C@H]2O[C@H](CO)[C@H](O)[C@@H](O)[C@H]2O)c(-c2ccc(O)c(O)c2)oc2cc(O)cc(O)c12
REMARK SMILES IDX 4 1 3 2 16 3 25 4 2 5 26 6 1 7 33 8 27 9 31 10 28 11 30 12
REMARK SMILES IDX 17 13 18 14 19 15 20 16 24 17 22 18 21 19 23 21 32 23 29 25
REMARK SMILES IDX 5 27 14 28 6 29 12 30 7 31 10 32 15 33 13 35 8 37 9 38 11 40
REMARK H PARENT 21 20 23 22 32 24 29 26 15 34 13 36 9 39 11 41
REMARK Flexibility Score: inf
ROOT
ATOM      1  O   UNL     1      -8.808  32.149   6.671  1.00  0.00    -0.454 OA
ENDROOT
BRANCH   1   2
ATOM      2  C   UNL     1      -9.358  33.398   6.989  1.00  0.00     0.214 A 
ATOM      3  C   UNL     1     -10.406  33.577   7.923  1.00  0.00     0.180 A 
ATOM      4  O   UNL     1     -10.815  34.810   8.221  1.00  0.00    -0.452 OA
ATOM      5  C   UNL     1      -8.855  34.513   6.316  1.00  0.00     0.239 A 
ATOM      6  C   UNL     1     -10.319  35.900   7.644  1.00  0.00     0.146 A 
ATOM      7  O   UNL     1      -7.975  34.347   5.430  1.00  0.00    -0.285 OA
ATOM      8  C   UNL     1      -9.321  35.800   6.648  1.00  0.00     0.111 A 
ATOM      9  C   UNL     1     -10.811  37.154   8.026  1.00  0.00     0.094 A 
ATOM     10  C   UNL     1      -8.823  36.981   6.047  1.00  0.00     0.134 A 
ATOM     11  C   UNL     1     -10.319  38.317   7.429  1.00  0.00     0.123 A 
ATOM     12  C   UNL     1      -9.324  38.231   6.450  1.00  0.00     0.093 A 
BRANCH   3  13
ATOM     13  C   UNL     1     -11.103  32.445   8.575  1.00  0.00     0.025 A 
ATOM     14  C   UNL     1     -11.896  31.548   7.833  1.00  0.00     0.016 A 
ATOM     15  C   UNL     1     -12.487  30.447   8.459  1.00  0.00     0.051 A 
ATOM     16  C   UNL     1     -12.327  30.248   9.838  1.00  0.00     0.157 A 
ATOM     17  C   UNL     1     -10.973  32.258   9.962  1.00  0.00     0.062 A 
ATOM     18  C   UNL     1     -11.564  31.158  10.592  1.00  0.00     0.158 A 
BRANCH  16  19
ATOM     19  O   UNL     1     -12.923  29.152  10.462  1.00  0.00    -0.504 OA
ATOM     20  H   UNL     1     -12.418  28.281  10.590  1.00  0.00     0.293 HD
ENDBRANCH  16  19
BRANCH  18  21
ATOM     21  O   UNL     1     -11.372  30.978  11.961  1.00  0.00    -0.504 OA
ATOM     22  H   UNL     1     -11.865  31.536  12.647  1.00  0.00     0.293 HD
ENDBRANCH  18  21
ENDBRANCH   3  13
BRANCH  10  23
ATOM     23  O   UNL     1      -7.823  36.925   5.075  1.00  0.00    -0.507 OA
ATOM     24  H   UNL     1      -7.941  37.340   4.159  1.00  0.00     0.293 HD
ENDBRANCH  10  23
BRANCH  11  25
ATOM     25  O   UNL     1     -10.832  39.554   7.811  1.00  0.00    -0.508 OA
ATOM     26  H   UNL     1     -11.812  39.674   8.029  1.00  0.00     0.293 HD
ENDBRANCH  11  25
ENDBRANCH   1   2
BRANCH   1  27
ATOM     27  C   UNL     1      -8.351  31.726   5.380  1.00  0.00     0.339 C 
ATOM     28  C   UNL     1      -8.811  30.286   5.041  1.00  0.00     0.214 C 
ATOM     29  O   UNL     1      -6.938  31.806   5.320  1.00  0.00    -0.332 OA
ATOM     30  C   UNL     1      -8.112  29.222   5.921  1.00  0.00     0.180 C 
ATOM     31  C   UNL     1      -6.342  31.008   6.331  1.00  0.00     0.179 C 
ATOM     32  C   UNL     1      -6.593  29.508   6.046  1.00  0.00     0.177 C 
BRANCH  28  33
ATOM     33  O   UNL     1     -10.213  30.147   5.066  1.00  0.00    -0.384 OA
ATOM     34  H   UNL     1     -10.452  29.257   4.704  1.00  0.00     0.211 HD
ENDBRANCH  28  33
BRANCH  30  35
ATOM     35  O   UNL     1      -8.720  29.079   7.180  1.00  0.00    -0.387 OA
ATOM     36  H   UNL     1      -9.629  29.465   7.137  1.00  0.00     0.211 HD
ENDBRANCH  30  35
BRANCH  31  37
ATOM     37  C   UNL     1      -4.850  31.339   6.412  1.00  0.00     0.191 C 
BRANCH  37  38
ATOM     38  O   UNL     1      -4.439  31.323   7.757  1.00  0.00    -0.394 OA
ATOM     39  H   UNL     1      -4.143  32.242   7.985  1.00  0.00     0.210 HD
ENDBRANCH  37  38
ENDBRANCH  31  37
BRANCH  32  40
ATOM     40  O   UNL     1      -5.949  29.145   4.849  1.00  0.00    -0.387 OA
ATOM     41  H   UNL     1      -6.404  29.633   4.114  1.00  0.00     0.211 HD
ENDBRANCH  32  40
ENDBRANCH   1  27
TORSDOF 12
ENDMDL
MODEL 7
REMARK VINA RESULT:    -5.171     14.940     17.647
REMARK INTER + INTRA:          -9.542
REMARK INTER:                  -8.699
REMARK INTRA:                  -0.843
REMARK UNBOUND:                -1.952
REMARK SMILES O=c1c(O[C@H]2O[C@H](CO)[C@H](O)[C@@H](O)[C@H]2O)c(-c2ccc(O)c(O)c2)oc2cc(O)cc(O)c12
REMARK SMILES IDX 4 1 3 2 16 3 25 4 2 5 26 6 1 7 33 8 27 9 31 10 28 11 30 12
REMARK SMILES IDX 17 13 18 14 19 15 20 16 24 17 22 18 21 19 23 21 32 23 29 25
REMARK SMILES IDX 5 27 14 28 6 29 12 30 7 31 10 32 15 33 13 35 8 37 9 38 11 40
REMARK H PARENT 21 20 23 22 32 24 29 26 15 34 13 36 9 39 11 41
REMARK Flexibility Score: inf
ROOT
ATOM      1  O   UNL     1       0.576  42.973   1.549  1.00  0.00    -0.454 OA
ENDROOT
BRANCH   1   2
ATOM      2  C   UNL     1       1.248  43.657   2.571  1.00  0.00     0.214 A 
ATOM      3  C   UNL     1       2.645  43.881   2.576  1.00  0.00     0.180 A 
ATOM      4  O   UNL     1       3.189  44.609   3.551  1.00  0.00    -0.452 OA
ATOM      5  C   UNL     1       0.488  44.110   3.651  1.00  0.00     0.239 A 
ATOM      6  C   UNL     1       2.489  45.106   4.565  1.00  0.00     0.146 A 
ATOM      7  O   UNL     1      -0.744  43.846   3.684  1.00  0.00    -0.285 OA
ATOM      8  C   UNL     1       1.099  44.865   4.670  1.00  0.00     0.111 A 
ATOM      9  C   UNL     1       3.149  45.863   5.540  1.00  0.00     0.094 A 
ATOM     10  C   UNL     1       0.386  45.401   5.769  1.00  0.00     0.134 A 
ATOM     11  C   UNL     1       2.442  46.388   6.624  1.00  0.00     0.123 A 
ATOM     12  C   UNL     1       1.065  46.165   6.733  1.00  0.00     0.093 A 
BRANCH   3  13
ATOM     13  C   UNL     1       3.553  43.313   1.553  1.00  0.00     0.025 A 
ATOM     14  C   UNL     1       4.125  42.035   1.711  1.00  0.00     0.016 A 
ATOM     15  C   UNL     1       4.922  41.492   0.699  1.00  0.00     0.051 A 
ATOM     16  C   UNL     1       5.191  42.230  -0.463  1.00  0.00     0.157 A 
ATOM     17  C   UNL     1       3.852  44.060   0.401  1.00  0.00     0.062 A 
ATOM     18  C   UNL     1       4.650  43.520  -0.612  1.00  0.00     0.158 A 
BRANCH  16  19
ATOM     19  O   UNL     1       5.993  41.689  -1.468  1.00  0.00    -0.504 OA
ATOM     20  H   UNL     1       5.792  40.777  -1.867  1.00  0.00     0.293 HD
ENDBRANCH  16  19
BRANCH  18  21
ATOM     21  O   UNL     1       4.885  44.272  -1.763  1.00  0.00    -0.504 OA
ATOM     22  H   UNL     1       4.885  45.284  -1.748  1.00  0.00     0.293 HD
ENDBRANCH  18  21
ENDBRANCH   3  13
BRANCH  10  23
ATOM     23  O   UNL     1      -0.989  45.203   5.897  1.00  0.00    -0.507 OA
ATOM     24  H   UNL     1      -1.406  44.281   5.849  1.00  0.00     0.293 HD
ENDBRANCH  10  23
BRANCH  11  25
ATOM     25  O   UNL     1       3.119  47.125   7.593  1.00  0.00    -0.508 OA
ATOM     26  H   UNL     1       2.879  48.089   7.785  1.00  0.00     0.293 HD
ENDBRANCH  11  25
ENDBRANCH   1   2
BRANCH   1  27
ATOM     27  C   UNL     1      -0.568  43.442   0.823  1.00  0.00     0.339 C 
ATOM     28  C   UNL     1      -0.898  42.540  -0.392  1.00  0.00     0.214 C 
ATOM     29  O   UNL     1      -0.350  44.773   0.390  1.00  0.00    -0.332 OA
ATOM     30  C   UNL     1       0.171  42.640  -1.508  1.00  0.00     0.180 C 
ATOM     31  C   UNL     1       0.810  44.857  -0.425  1.00  0.00     0.179 C 
ATOM     32  C   UNL     1       0.578  44.115  -1.763  1.00  0.00     0.177 C 
BRANCH  28  33
ATOM     33  O   UNL     1      -1.144  41.203  -0.022  1.00  0.00    -0.384 OA
ATOM     34  H   UNL     1      -0.916  41.089   0.935  1.00  0.00     0.211 HD
ENDBRANCH  28  33
BRANCH  30  35
ATOM     35  O   UNL     1       1.290  41.828  -1.257  1.00  0.00    -0.387 OA
ATOM     36  H   UNL     1       1.996  42.382  -0.838  1.00  0.00     0.211 HD
ENDBRANCH  30  35
BRANCH  31  37
ATOM     37  C   UNL     1       1.164  46.331  -0.636  1.00  0.00     0.191 C 
BRANCH  37  38
ATOM     38  O   UNL     1       0.019  47.032  -1.054  1.00  0.00    -0.394 OA
ATOM     39  H   UNL     1      -0.316  46.586  -1.875  1.00  0.00     0.210 HD
ENDBRANCH  37  38
ENDBRANCH  31  37
BRANCH  32  40
ATOM     40  O   UNL     1      -0.440  44.762  -2.487  1.00  0.00    -0.387 OA
ATOM     41  H   UNL     1      -0.102  45.666  -2.719  1.00  0.00     0.211 HD
ENDBRANCH  32  40
ENDBRANCH   1  27
TORSDOF 12
ENDMDL
MODEL 8
REMARK VINA RESULT:    -5.032      2.710      6.221
REMARK INTER + INTRA:          -9.337
REMARK INTER:                  -8.135
REMARK INTRA:                  -1.202
REMARK UNBOUND:                -1.952
REMARK SMILES O=c1c(O[C@H]2O[C@H](CO)[C@H](O)[C@@H](O)[C@H]2O)c(-c2ccc(O)c(O)c2)oc2cc(O)cc(O)c12
REMARK SMILES IDX 4 1 3 2 16 3 25 4 2 5 26 6 1 7 33 8 27 9 31 10 28 11 30 12
REMARK SMILES IDX 17 13 18 14 19 15 20 16 24 17 22 18 21 19 23 21 32 23 29 25
REMARK SMILES IDX 5 27 14 28 6 29 12 30 7 31 10 32 15 33 13 35 8 37 9 38 11 40
REMARK H PARENT 21 20 23 22 32 24 29 26 15 34 13 36 9 39 11 41
REMARK Flexibility Score: inf
ROOT
ATOM      1  O   UNL     1      -9.936  30.454   7.249  1.00  0.00    -0.454 OA
ENDROOT
BRANCH   1   2
ATOM      2  C   UNL     1      -9.380  31.671   6.832  1.00  0.00     0.214 A 
ATOM      3  C   UNL     1      -8.335  31.770   5.883  1.00  0.00     0.180 A 
ATOM      4  O   UNL     1      -7.921  32.974   5.488  1.00  0.00    -0.452 OA
ATOM      5  C   UNL     1      -9.874  32.839   7.417  1.00  0.00     0.239 A 
ATOM      6  C   UNL     1      -8.408  34.109   5.980  1.00  0.00     0.146 A 
ATOM      7  O   UNL     1     -10.751  32.747   8.317  1.00  0.00    -0.285 OA
ATOM      8  C   UNL     1      -9.402  34.093   6.984  1.00  0.00     0.111 A 
ATOM      9  C   UNL     1      -7.911  35.326   5.499  1.00  0.00     0.094 A 
ATOM     10  C   UNL     1      -9.891  35.320   7.493  1.00  0.00     0.134 A 
ATOM     11  C   UNL     1      -8.394  36.534   6.005  1.00  0.00     0.123 A 
ATOM     12  C   UNL     1      -9.385  36.531   6.992  1.00  0.00     0.093 A 
BRANCH   3  13
ATOM     13  C   UNL     1      -7.647  30.587   5.319  1.00  0.00     0.025 A 
ATOM     14  C   UNL     1      -8.285  29.743   4.388  1.00  0.00     0.016 A 
ATOM     15  C   UNL     1      -7.591  28.673   3.817  1.00  0.00     0.051 A 
ATOM     16  C   UNL     1      -6.267  28.407   4.196  1.00  0.00     0.157 A 
ATOM     17  C   UNL     1      -6.332  30.296   5.717  1.00  0.00     0.062 A 
ATOM     18  C   UNL     1      -5.634  29.225   5.149  1.00  0.00     0.158 A 
BRANCH  16  19
ATOM     19  O   UNL     1      -5.578  27.333   3.630  1.00  0.00    -0.504 OA
ATOM     20  H   UNL     1      -5.672  27.110   2.644  1.00  0.00     0.293 HD
ENDBRANCH  16  19
BRANCH  18  21
ATOM     21  O   UNL     1      -4.313  28.996   5.534  1.00  0.00    -0.504 OA
ATOM     22  H   UNL     1      -3.563  28.940   4.857  1.00  0.00     0.293 HD
ENDBRANCH  18  21
ENDBRANCH   3  13
BRANCH  10  23
ATOM     23  O   UNL     1     -10.887  35.346   8.470  1.00  0.00    -0.507 OA
ATOM     24  H   UNL     1     -10.865  36.001   9.242  1.00  0.00     0.293 HD
ENDBRANCH  10  23
BRANCH  11  25
ATOM     25  O   UNL     1      -7.876  37.735   5.526  1.00  0.00    -0.508 OA
ATOM     26  H   UNL     1      -8.126  38.622   5.944  1.00  0.00     0.293 HD
ENDBRANCH  11  25
ENDBRANCH   1   2
BRANCH   1  27
ATOM     27  C   UNL     1     -11.333  30.155   7.369  1.00  0.00     0.339 C 
ATOM     28  C   UNL     1     -11.647  29.342   8.650  1.00  0.00     0.214 C 
ATOM     29  O   UNL     1     -11.773  29.443   6.226  1.00  0.00    -0.332 OA
ATOM     30  C   UNL     1     -11.083  27.902   8.586  1.00  0.00     0.180 C 
ATOM     31  C   UNL     1     -11.032  28.243   6.062  1.00  0.00     0.179 C 
ATOM     32  C   UNL     1     -11.357  27.252   7.205  1.00  0.00     0.177 C 
BRANCH  28  33
ATOM     33  O   UNL     1     -11.249  30.009   9.825  1.00  0.00    -0.384 OA
ATOM     34  H   UNL     1     -10.395  29.618  10.140  1.00  0.00     0.211 HD
ENDBRANCH  28  33
BRANCH  30  35
ATOM     35  O   UNL     1      -9.721  27.841   8.928  1.00  0.00    -0.387 OA
ATOM     36  H   UNL     1      -9.555  28.463   9.680  1.00  0.00     0.211 HD
ENDBRANCH  30  35
BRANCH  31  37
ATOM     37  C   UNL     1     -11.339  27.653   4.683  1.00  0.00     0.191 C 
BRANCH  37  38
ATOM     38  O   UNL     1     -12.664  27.963   4.326  1.00  0.00    -0.394 OA
ATOM     39  H   UNL     1     -12.645  28.829   3.843  1.00  0.00     0.210 HD
ENDBRANCH  37  38
ENDBRANCH  31  37
BRANCH  32  40
ATOM     40  O   UNL     1     -12.711  26.876   7.127  1.00  0.00    -0.387 OA
ATOM     41  H   UNL     1     -12.745  26.012   6.638  1.00  0.00     0.211 HD
ENDBRANCH  32  40
ENDBRANCH   1  27
TORSDOF 12
ENDMDL
MODEL 9
REMARK VINA RESULT:    -4.998     15.620     18.087
REMARK INTER + INTRA:          -9.288
REMARK INTER:                  -8.248
REMARK INTRA:                  -1.039
REMARK UNBOUND:                -1.952
REMARK SMILES O=c1c(O[C@H]2O[C@H](CO)[C@H](O)[C@@H](O)[C@H]2O)c(-c2ccc(O)c(O)c2)oc2cc(O)cc(O)c12
REMARK SMILES IDX 4 1 3 2 16 3 25 4 2 5 26 6 1 7 33 8 27 9 31 10 28 11 30 12
REMARK SMILES IDX 17 13 18 14 19 15 20 16 24 17 22 18 21 19 23 21 32 23 29 25
REMARK SMILES IDX 5 27 14 28 6 29 12 30 7 31 10 32 15 33 13 35 8 37 9 38 11 40
REMARK H PARENT 21 20 23 22 32 24 29 26 15 34 13 36 9 39 11 41
REMARK Flexibility Score: inf
ROOT
ATOM      1  O   UNL     1       4.019  45.075   1.468  1.00  0.00    -0.454 OA
ENDROOT
BRANCH   1   2
ATOM      2  C   UNL     1       3.319  45.385   2.642  1.00  0.00     0.214 A 
ATOM      3  C   UNL     1       1.933  45.155   2.811  1.00  0.00     0.180 A 
ATOM      4  O   UNL     1       1.365  45.410   3.989  1.00  0.00    -0.452 OA
ATOM      5  C   UNL     1       4.036  45.981   3.681  1.00  0.00     0.239 A 
ATOM      6  C   UNL     1       2.028  45.923   5.021  1.00  0.00     0.146 A 
ATOM      7  O   UNL     1       5.253  46.255   3.505  1.00  0.00    -0.285 OA
ATOM      8  C   UNL     1       3.399  46.248   4.908  1.00  0.00     0.111 A 
ATOM      9  C   UNL     1       1.345  46.153   6.221  1.00  0.00     0.094 A 
ATOM     10  C   UNL     1       4.072  46.803   6.023  1.00  0.00     0.134 A 
ATOM     11  C   UNL     1       2.012  46.702   7.318  1.00  0.00     0.123 A 
ATOM     12  C   UNL     1       3.371  47.018   7.222  1.00  0.00     0.093 A 
BRANCH   3  13
ATOM     13  C   UNL     1       1.061  44.667   1.718  1.00  0.00     0.025 A 
ATOM     14  C   UNL     1       0.425  43.412   1.794  1.00  0.00     0.016 A 
ATOM     15  C   UNL     1      -0.448  43.004   0.782  1.00  0.00     0.051 A 
ATOM     16  C   UNL     1      -0.669  43.823  -0.335  1.00  0.00     0.157 A 
ATOM     17  C   UNL     1       0.860  45.469   0.582  1.00  0.00     0.062 A 
ATOM     18  C   UNL     1      -0.012  45.063  -0.433  1.00  0.00     0.158 A 
BRANCH  16  19
ATOM     19  O   UNL     1      -1.536  43.410  -1.347  1.00  0.00    -0.504 OA
ATOM     20  H   UNL     1      -2.400  43.909  -1.535  1.00  0.00     0.293 HD
ENDBRANCH  16  19
BRANCH  18  21
ATOM     21  O   UNL     1      -0.223  45.907  -1.523  1.00  0.00    -0.504 OA
ATOM     22  H   UNL     1       0.545  46.278  -2.067  1.00  0.00     0.293 HD
ENDBRANCH  18  21
ENDBRANCH   3  13
BRANCH  10  23
ATOM     23  O   UNL     1       5.430  47.118   5.958  1.00  0.00    -0.507 OA
ATOM     24  H   UNL     1       6.149  46.443   6.188  1.00  0.00     0.293 HD
ENDBRANCH  10  23
BRANCH  11  25
ATOM     25  O   UNL     1       1.311  46.938   8.499  1.00  0.00    -0.508 OA
ATOM     26  H   UNL     1       0.570  47.624   8.544  1.00  0.00     0.293 HD
ENDBRANCH  11  25
ENDBRANCH   1   2
BRANCH   1  27
ATOM     27  C   UNL     1       5.218  44.294   1.376  1.00  0.00     0.339 C 
ATOM     28  C   UNL     1       5.670  44.091  -0.092  1.00  0.00     0.214 C 
ATOM     29  O   UNL     1       5.021  43.036   1.997  1.00  0.00    -0.332 OA
ATOM     30  C   UNL     1       4.707  43.175  -0.884  1.00  0.00     0.180 C 
ATOM     31  C   UNL     1       3.940  42.338   1.397  1.00  0.00     0.179 C 
ATOM     32  C   UNL     1       4.303  41.931  -0.051  1.00  0.00     0.177 C 
BRANCH  28  33
ATOM     33  O   UNL     1       5.901  45.310  -0.760  1.00  0.00    -0.384 OA
ATOM     34  H   UNL     1       6.842  45.581  -0.615  1.00  0.00     0.211 HD
ENDBRANCH  28  33
BRANCH  30  35
ATOM     35  O   UNL     1       3.581  43.864  -1.367  1.00  0.00    -0.387 OA
ATOM     36  H   UNL     1       3.251  43.403  -2.177  1.00  0.00     0.211 HD
ENDBRANCH  30  35
BRANCH  31  37
ATOM     37  C   UNL     1       3.584  41.129   2.265  1.00  0.00     0.191 C 
BRANCH  37  38
ATOM     38  O   UNL     1       4.765  40.539   2.752  1.00  0.00    -0.394 OA
ATOM     39  H   UNL     1       5.262  41.242   3.247  1.00  0.00     0.210 HD
ENDBRANCH  37  38
ENDBRANCH  31  37
BRANCH  32  40
ATOM     40  O   UNL     1       5.374  41.019  -0.025  1.00  0.00    -0.387 OA
ATOM     41  H   UNL     1       6.047  41.377   0.612  1.00  0.00     0.211 HD
ENDBRANCH  32  40
ENDBRANCH   1  27
TORSDOF 12
ENDMDL
