MODEL 1
REMARK VINA RESULT:    -5.088      0.000      0.000
REMARK INTER + INTRA:          -8.582
REMARK INTER:                  -8.212
REMARK INTRA:                  -0.371
REMARK UNBOUND:                -0.371
REMARK SMILES C=C(CC[C@H](C(=O)[O-])[C@H]1[C@@H](O)C[C@@]2(C)C3=CC[C@H](C(=C)C)[C@@](C)(CCC(=O)[O-])C3=CC[C@@]12C)C(C)C
REMARK SMILES IDX 5 1 9 2 22 3 29 4 18 5 23 6 15 7 30 8 17 9 13 10 16 11 31 12
REMARK SMILES IDX 32 13 12 14 14 15 33 16 10 17 24 18 25 19 26 20 27 21 28 22
REMARK SMILES IDX 19 23 20 24 21 25 11 26 6 28 7 29 8 30 4 31 3 32 2 33 1 34
REMARK SMILES IDX 34 35 35 36 36 37
REMARK H PARENT 11 27
REMARK Flexibility Score: inf
ROOT
ATOM      1  C   UNL     1      99.167 113.231 108.472  1.00  0.00     0.042 C 
ENDROOT
BRANCH   1   2
ATOM      2  C   UNL     1      98.297 112.025 107.951  1.00  0.00     0.034 C 
ATOM      3  C   UNL     1      92.407 111.960 107.221  1.00  0.00    -0.000 C 
ATOM      4  C   UNL     1      93.955 111.998 107.296  1.00  0.00    -0.042 C 
ATOM      5  C   UNL     1      91.893 110.469 107.240  1.00  0.00     0.028 C 
ATOM      6  C   UNL     1      91.993 112.683 105.918  1.00  0.00     0.017 C 
ATOM      7  C   UNL     1      94.788 110.787 107.008  1.00  0.00    -0.042 C 
ATOM      8  C   UNL     1      94.575 113.138 107.635  1.00  0.00    -0.022 C 
ATOM      9  C   UNL     1      92.729 109.559 106.336  1.00  0.00     0.036 C 
ATOM     10  C   UNL     1      96.331 110.829 107.104  1.00  0.00     0.001 C 
ATOM     11  C   UNL     1      94.172 109.625 106.715  1.00  0.00    -0.022 C 
ATOM     12  C   UNL     1      95.991 113.159 108.106  1.00  0.00     0.035 C 
ATOM     13  C   UNL     1      96.928 112.284 107.239  1.00  0.00    -0.014 C 
ATOM     14  C   UNL     1      96.790 110.125 108.404  1.00  0.00     0.044 C 
ATOM     15  C   UNL     1      96.944 110.080 105.875  1.00  0.00     0.017 C 
ATOM     16  C   UNL     1      97.134 112.997 105.876  1.00  0.00     0.013 C 
ATOM     17  C   UNL     1      98.066 110.827 108.898  1.00  0.00     0.119 C 
BRANCH   3  18
ATOM     18  C   UNL     1      91.763 112.719 108.439  1.00  0.00     0.018 C 
BRANCH  18  19
ATOM     19  C   UNL     1      91.032 114.037 108.065  1.00  0.00     0.053 C 
BRANCH  19  20
ATOM     20  C   UNL     1      90.772 114.900 109.261  1.00  0.00     0.041 C 
ATOM     21  O   UNL     1      89.591 115.145 109.618  1.00  0.00    -0.550 OA
ATOM     22  O   UNL     1      91.837 115.445 109.966  1.00  0.00    -0.550 OA
ENDBRANCH  19  20
ENDBRANCH  18  19
ENDBRANCH   3  18
BRANCH   5  23
ATOM     23  C   UNL     1      90.392 110.293 106.957  1.00  0.00    -0.076 C 
ATOM     24  C   UNL     1      89.509 111.197 107.417  1.00  0.00     0.008 C 
ATOM     25  C   UNL     1      89.837 109.112 106.192  1.00  0.00     0.039 C 
ENDBRANCH   5  23
BRANCH  17  26
ATOM     26  O   UNL     1      97.902 111.233 110.230  1.00  0.00    -0.393 OA
ATOM     27  H   UNL     1      97.142 110.711 110.593  1.00  0.00     0.210 HD
ENDBRANCH  17  26
ENDBRANCH   1   2
BRANCH   1  28
ATOM     28  C   UNL     1     100.546 112.891 108.979  1.00  0.00     0.045 C 
ATOM     29  O   UNL     1     100.715 112.392 110.121  1.00  0.00    -0.550 OA
ATOM     30  O   UNL     1     101.647 113.077 108.150  1.00  0.00    -0.550 OA
ENDBRANCH   1  28
BRANCH   1  31
ATOM     31  C   UNL     1      99.296 114.384 107.443  1.00  0.00     0.014 C 
BRANCH  31  32
ATOM     32  C   UNL     1      99.209 115.789 108.065  1.00  0.00     0.031 C 
BRANCH  32  33
ATOM     33  C   UNL     1      98.341 116.706 107.217  1.00  0.00    -0.075 C 
ATOM     34  C   UNL     1      97.411 116.160 106.415  1.00  0.00     0.008 C 
BRANCH  33  35
ATOM     35  C   UNL     1      98.428 118.232 107.308  1.00  0.00     0.008 C 
ATOM     36  C   UNL     1      97.481 118.890 106.297  1.00  0.00     0.012 C 
ATOM     37  C   UNL     1      98.178 118.782 108.721  1.00  0.00     0.012 C 
ENDBRANCH  33  35
ENDBRANCH  32  33
ENDBRANCH  31  32
ENDBRANCH   1  31
TORSDOF 11
ENDMDL
MODEL 2
REMARK VINA RESULT:    -3.397      2.065      8.399
REMARK INTER + INTRA:          -5.853
REMARK INTER:                  -6.121
REMARK INTRA:                   0.268
REMARK UNBOUND:                -0.371
REMARK SMILES C=C(CC[C@H](C(=O)[O-])[C@H]1[C@@H](O)C[C@@]2(C)C3=CC[C@H](C(=C)C)[C@@](C)(CCC(=O)[O-])C3=CC[C@@]12C)C(C)C
REMARK SMILES IDX 5 1 9 2 22 3 29 4 18 5 23 6 15 7 30 8 17 9 13 10 16 11 31 12
REMARK SMILES IDX 32 13 12 14 14 15 33 16 10 17 24 18 25 19 26 20 27 21 28 22
REMARK SMILES IDX 19 23 20 24 21 25 11 26 6 28 7 29 8 30 4 31 3 32 2 33 1 34
REMARK SMILES IDX 34 35 35 36 36 37
REMARK H PARENT 11 27
REMARK Flexibility Score: inf
ROOT
ATOM      1  C   UNL     1      90.983 112.194 108.361  1.00  0.00     0.042 C 
ENDROOT
BRANCH   1   2
ATOM      2  C   UNL     1      92.188 111.492 107.629  1.00  0.00     0.034 C 
ATOM      3  C   UNL     1      97.960 112.641 108.405  1.00  0.00    -0.000 C 
ATOM      4  C   UNL     1      96.465 112.249 108.276  1.00  0.00    -0.042 C 
ATOM      5  C   UNL     1      98.765 112.164 107.135  1.00  0.00     0.028 C 
ATOM      6  C   UNL     1      98.497 111.978 109.695  1.00  0.00     0.017 C 
ATOM      7  C   UNL     1      96.003 111.223 107.287  1.00  0.00    -0.042 C 
ATOM      8  C   UNL     1      95.553 112.844 109.059  1.00  0.00    -0.022 C 
ATOM      9  C   UNL     1      98.376 110.747 106.704  1.00  0.00     0.036 C 
ATOM     10  C   UNL     1      94.508 110.853 107.150  1.00  0.00     0.001 C 
ATOM     11  C   UNL     1      96.905 110.657 106.462  1.00  0.00    -0.022 C 
ATOM     12  C   UNL     1      94.097 112.820 108.735  1.00  0.00     0.035 C 
ATOM     13  C   UNL     1      93.596 111.419 108.309  1.00  0.00    -0.014 C 
ATOM     14  C   UNL     1      93.924 111.508 105.875  1.00  0.00     0.044 C 
ATOM     15  C   UNL     1      94.370 109.299 107.034  1.00  0.00     0.017 C 
ATOM     16  C   UNL     1      93.561 110.513 109.567  1.00  0.00     0.013 C 
ATOM     17  C   UNL     1      92.448 111.843 106.147  1.00  0.00     0.119 C 
BRANCH   3  18
ATOM     18  C   UNL     1      98.127 114.199 108.538  1.00  0.00     0.018 C 
BRANCH  18  19
ATOM     19  C   UNL     1      97.833 114.994 107.236  1.00  0.00     0.053 C 
BRANCH  19  20
ATOM     20  C   UNL     1      98.269 116.423 107.335  1.00  0.00     0.041 C 
ATOM     21  O   UNL     1      97.684 117.310 106.660  1.00  0.00    -0.550 OA
ATOM     22  O   UNL     1      99.334 116.767 108.158  1.00  0.00    -0.550 OA
ENDBRANCH  19  20
ENDBRANCH  18  19
ENDBRANCH   3  18
BRANCH   5  23
ATOM     23  C   UNL     1     100.292 112.305 107.241  1.00  0.00    -0.076 C 
ATOM     24  C   UNL     1     101.039 112.390 106.126  1.00  0.00     0.008 C 
ATOM     25  C   UNL     1     101.022 112.323 108.565  1.00  0.00     0.039 C 
ENDBRANCH   5  23
BRANCH  17  26
ATOM     26  O   UNL     1      92.209 113.198 105.877  1.00  0.00    -0.393 OA
ATOM     27  H   UNL     1      92.837 113.457 105.156  1.00  0.00     0.210 HD
ENDBRANCH  17  26
ENDBRANCH   1   2
BRANCH   1  28
ATOM     28  C   UNL     1      91.034 113.699 108.442  1.00  0.00     0.045 C 
ATOM     29  O   UNL     1      91.592 114.281 109.407  1.00  0.00    -0.550 OA
ATOM     30  O   UNL     1      90.507 114.460 107.404  1.00  0.00    -0.550 OA
ENDBRANCH   1  28
BRANCH   1  31
ATOM     31  C   UNL     1      89.599 111.781 107.798  1.00  0.00     0.014 C 
BRANCH  31  32
ATOM     32  C   UNL     1      89.668 111.030 106.456  1.00  0.00     0.031 C 
BRANCH  32  33
ATOM     33  C   UNL     1      89.221 109.586 106.617  1.00  0.00    -0.075 C 
ATOM     34  C   UNL     1      90.071 108.602 106.277  1.00  0.00     0.008 C 
BRANCH  33  35
ATOM     35  C   UNL     1      87.871 109.209 107.234  1.00  0.00     0.008 C 
ATOM     36  C   UNL     1      86.717 109.660 106.331  1.00  0.00     0.012 C 
ATOM     37  C   UNL     1      87.743 107.716 107.572  1.00  0.00     0.012 C 
ENDBRANCH  33  35
ENDBRANCH  32  33
ENDBRANCH  31  32
ENDBRANCH   1  31
TORSDOF 11
ENDMDL
MODEL 3
REMARK VINA RESULT:    -3.290      2.773      4.582
REMARK INTER + INTRA:          -5.680
REMARK INTER:                  -5.347
REMARK INTRA:                  -0.333
REMARK UNBOUND:                -0.371
REMARK SMILES C=C(CC[C@H](C(=O)[O-])[C@H]1[C@@H](O)C[C@@]2(C)C3=CC[C@H](C(=C)C)[C@@](C)(CCC(=O)[O-])C3=CC[C@@]12C)C(C)C
REMARK SMILES IDX 5 1 9 2 22 3 29 4 18 5 23 6 15 7 30 8 17 9 13 10 16 11 31 12
REMARK SMILES IDX 32 13 12 14 14 15 33 16 10 17 24 18 25 19 26 20 27 21 28 22
REMARK SMILES IDX 19 23 20 24 21 25 11 26 6 28 7 29 8 30 4 31 3 32 2 33 1 34
REMARK SMILES IDX 34 35 35 36 36 37
REMARK H PARENT 11 27
REMARK Flexibility Score: inf
ROOT
ATOM      1  C   UNL     1     100.247 110.970 109.399  1.00  0.00     0.042 C 
ENDROOT
BRANCH   1   2
ATOM      2  C   UNL     1      99.189 111.151 108.247  1.00  0.00     0.034 C 
ATOM      3  C   UNL     1      93.457 112.552 108.889  1.00  0.00    -0.000 C 
ATOM      4  C   UNL     1      94.975 112.300 108.698  1.00  0.00    -0.042 C 
ATOM      5  C   UNL     1      92.657 112.088 107.611  1.00  0.00     0.028 C 
ATOM      6  C   UNL     1      93.273 114.066 109.151  1.00  0.00     0.017 C 
ATOM      7  C   UNL     1      95.566 112.048 107.345  1.00  0.00    -0.042 C 
ATOM      8  C   UNL     1      95.786 112.297 109.766  1.00  0.00    -0.022 C 
ATOM      9  C   UNL     1      93.349 112.512 106.313  1.00  0.00     0.036 C 
ATOM     10  C   UNL     1      97.078 111.778 107.166  1.00  0.00     0.001 C 
ATOM     11  C   UNL     1      94.751 112.000 106.273  1.00  0.00    -0.022 C 
ATOM     12  C   UNL     1      97.147 111.687 109.722  1.00  0.00     0.035 C 
ATOM     13  C   UNL     1      97.943 112.076 108.452  1.00  0.00    -0.014 C 
ATOM     14  C   UNL     1      97.310 110.268 106.913  1.00  0.00     0.044 C 
ATOM     15  C   UNL     1      97.604 112.587 105.934  1.00  0.00     0.017 C 
ATOM     16  C   UNL     1      98.367 113.563 108.582  1.00  0.00     0.013 C 
ATOM     17  C   UNL     1      98.668 109.888 107.526  1.00  0.00     0.119 C 
BRANCH   3  18
ATOM     18  C   UNL     1      92.904 111.761 110.131  1.00  0.00     0.018 C 
BRANCH  18  19
ATOM     19  C   UNL     1      93.601 110.397 110.391  1.00  0.00     0.053 C 
BRANCH  19  20
ATOM     20  C   UNL     1      93.873 110.169 111.845  1.00  0.00     0.041 C 
ATOM     21  O   UNL     1      92.961 109.738 112.598  1.00  0.00    -0.550 OA
ATOM     22  O   UNL     1      95.129 110.450 112.368  1.00  0.00    -0.550 OA
ENDBRANCH  19  20
ENDBRANCH  18  19
ENDBRANCH   3  18
BRANCH   5  23
ATOM     23  C   UNL     1      91.171 112.481 107.594  1.00  0.00    -0.076 C 
ATOM     24  C   UNL     1      90.222 111.535 107.706  1.00  0.00     0.008 C 
ATOM     25  C   UNL     1      90.705 113.910 107.423  1.00  0.00     0.039 C 
ENDBRANCH   5  23
BRANCH  17  26
ATOM     26  O   UNL     1      98.509 108.808 108.406  1.00  0.00    -0.393 OA
ATOM     27  H   UNL     1      98.107 108.071 107.879  1.00  0.00     0.210 HD
ENDBRANCH  17  26
ENDBRANCH   1   2
BRANCH   1  28
ATOM     28  C   UNL     1     101.520 111.768 109.270  1.00  0.00     0.045 C 
ATOM     29  O   UNL     1     102.606 111.343 109.743  1.00  0.00    -0.550 OA
ATOM     30  O   UNL     1     101.510 112.967 108.566  1.00  0.00    -0.550 OA
ENDBRANCH   1  28
BRANCH   1  31
ATOM     31  C   UNL     1      99.661 111.212 110.814  1.00  0.00     0.014 C 
BRANCH  31  32
ATOM     32  C   UNL     1     100.326 112.372 111.577  1.00  0.00     0.031 C 
BRANCH  32  33
ATOM     33  C   UNL     1      99.724 112.527 112.964  1.00  0.00    -0.075 C 
ATOM     34  C   UNL     1     100.130 113.549 113.737  1.00  0.00     0.008 C 
BRANCH  33  35
ATOM     35  C   UNL     1      98.609 111.615 113.482  1.00  0.00     0.008 C 
ATOM     36  C   UNL     1      99.152 110.634 114.529  1.00  0.00     0.012 C 
ATOM     37  C   UNL     1      97.393 112.376 114.032  1.00  0.00     0.012 C 
ENDBRANCH  33  35
ENDBRANCH  32  33
ENDBRANCH  31  32
ENDBRANCH   1  31
TORSDOF 11
ENDMDL
MODEL 4
REMARK VINA RESULT:    -3.067      5.489      7.354
REMARK INTER + INTRA:          -5.320
REMARK INTER:                  -4.585
REMARK INTRA:                  -0.734
REMARK UNBOUND:                -0.371
REMARK SMILES C=C(CC[C@H](C(=O)[O-])[C@H]1[C@@H](O)C[C@@]2(C)C3=CC[C@H](C(=C)C)[C@@](C)(CCC(=O)[O-])C3=CC[C@@]12C)C(C)C
REMARK SMILES IDX 5 1 9 2 22 3 29 4 18 5 23 6 15 7 30 8 17 9 13 10 16 11 31 12
REMARK SMILES IDX 32 13 12 14 14 15 33 16 10 17 24 18 25 19 26 20 27 21 28 22
REMARK SMILES IDX 19 23 20 24 21 25 11 26 6 28 7 29 8 30 4 31 3 32 2 33 1 34
REMARK SMILES IDX 34 35 35 36 36 37
REMARK H PARENT 11 27
REMARK Flexibility Score: inf
ROOT
ATOM      1  C   UNL     1      98.922 112.131 116.761  1.00  0.00     0.042 C 
ENDROOT
BRANCH   1   2
ATOM      2  C   UNL     1      99.441 111.910 115.291  1.00  0.00     0.034 C 
ATOM      3  C   UNL     1      96.146 111.777 110.355  1.00  0.00    -0.000 C 
ATOM      4  C   UNL     1      97.032 111.924 111.619  1.00  0.00    -0.042 C 
ATOM      5  C   UNL     1      96.923 110.995 109.227  1.00  0.00     0.028 C 
ATOM      6  C   UNL     1      95.765 113.203 109.894  1.00  0.00     0.017 C 
ATOM      7  C   UNL     1      98.514 111.711 111.570  1.00  0.00    -0.042 C 
ATOM      8  C   UNL     1      96.466 112.241 112.793  1.00  0.00    -0.022 C 
ATOM      9  C   UNL     1      98.375 111.462 109.097  1.00  0.00     0.036 C 
ATOM     10  C   UNL     1      99.388 111.841 112.839  1.00  0.00     0.001 C 
ATOM     11  C   UNL     1      99.084 111.344 110.406  1.00  0.00    -0.022 C 
ATOM     12  C   UNL     1      97.164 112.017 114.092  1.00  0.00     0.035 C 
ATOM     13  C   UNL     1      98.640 112.482 114.073  1.00  0.00    -0.014 C 
ATOM     14  C   UNL     1      99.783 110.432 113.345  1.00  0.00     0.044 C 
ATOM     15  C   UNL     1     100.687 112.640 112.491  1.00  0.00     0.017 C 
ATOM     16  C   UNL     1      98.661 114.033 114.071  1.00  0.00     0.013 C 
ATOM     17  C   UNL     1      99.889 110.491 114.878  1.00  0.00     0.119 C 
BRANCH   3  18
ATOM     18  C   UNL     1      94.824 110.988 110.680  1.00  0.00     0.018 C 
BRANCH  18  19
ATOM     19  C   UNL     1      93.525 111.833 110.573  1.00  0.00     0.053 C 
BRANCH  19  20
ATOM     20  C   UNL     1      92.930 111.785 109.200  1.00  0.00     0.041 C 
ATOM     21  O   UNL     1      92.841 110.688 108.588  1.00  0.00    -0.550 OA
ATOM     22  O   UNL     1      92.492 112.955 108.593  1.00  0.00    -0.550 OA
ENDBRANCH  19  20
ENDBRANCH  18  19
ENDBRANCH   3  18
BRANCH   5  23
ATOM     23  C   UNL     1      96.230 110.971 107.854  1.00  0.00    -0.076 C 
ATOM     24  C   UNL     1      95.812 109.805 107.331  1.00  0.00     0.008 C 
ATOM     25  C   UNL     1      96.014 112.218 107.026  1.00  0.00     0.039 C 
ENDBRANCH   5  23
BRANCH  17  26
ATOM     26  O   UNL     1      99.082 109.497 115.450  1.00  0.00    -0.393 OA
ATOM     27  H   UNL     1      98.259 109.948 115.767  1.00  0.00     0.210 HD
ENDBRANCH  17  26
ENDBRANCH   1   2
BRANCH   1  28
ATOM     28  C   UNL     1      99.198 111.018 117.742  1.00  0.00     0.045 C 
ATOM     29  O   UNL     1      98.260 110.361 118.262  1.00  0.00    -0.550 OA
ATOM     30  O   UNL     1     100.513 110.672 118.035  1.00  0.00    -0.550 OA
ENDBRANCH   1  28
BRANCH   1  31
ATOM     31  C   UNL     1      99.404 113.465 117.388  1.00  0.00     0.014 C 
BRANCH  31  32
ATOM     32  C   UNL     1     100.918 113.516 117.663  1.00  0.00     0.031 C 
BRANCH  32  33
ATOM     33  C   UNL     1     101.645 114.268 116.559  1.00  0.00    -0.075 C 
ATOM     34  C   UNL     1     102.319 113.565 115.631  1.00  0.00     0.008 C 
BRANCH  33  35
ATOM     35  C   UNL     1     101.568 115.789 116.413  1.00  0.00     0.008 C 
ATOM     36  C   UNL     1     102.973 116.400 116.349  1.00  0.00     0.012 C 
ATOM     37  C   UNL     1     100.721 116.253 115.219  1.00  0.00     0.012 C 
ENDBRANCH  33  35
ENDBRANCH  32  33
ENDBRANCH  31  32
ENDBRANCH   1  31
TORSDOF 11
ENDMDL
MODEL 5
REMARK VINA RESULT:    -2.800      3.297      8.113
REMARK INTER + INTRA:          -4.889
REMARK INTER:                  -3.603
REMARK INTRA:                  -1.286
REMARK UNBOUND:                -0.371
REMARK SMILES C=C(CC[C@H](C(=O)[O-])[C@H]1[C@@H](O)C[C@@]2(C)C3=CC[C@H](C(=C)C)[C@@](C)(CCC(=O)[O-])C3=CC[C@@]12C)C(C)C
REMARK SMILES IDX 5 1 9 2 22 3 29 4 18 5 23 6 15 7 30 8 17 9 13 10 16 11 31 12
REMARK SMILES IDX 32 13 12 14 14 15 33 16 10 17 24 18 25 19 26 20 27 21 28 22
REMARK SMILES IDX 19 23 20 24 21 25 11 26 6 28 7 29 8 30 4 31 3 32 2 33 1 34
REMARK SMILES IDX 34 35 35 36 36 37
REMARK H PARENT 11 27
REMARK Flexibility Score: inf
ROOT
ATOM      1  C   UNL     1      94.482 111.226 106.788  1.00  0.00     0.042 C 
ENDROOT
BRANCH   1   2
ATOM      2  C   UNL     1      94.411 111.339 108.357  1.00  0.00     0.034 C 
ATOM      3  C   UNL     1      98.993 111.978 112.075  1.00  0.00    -0.000 C 
ATOM      4  C   UNL     1      97.780 111.928 111.111  1.00  0.00    -0.042 C 
ATOM      5  C   UNL     1      98.572 111.492 113.515  1.00  0.00     0.028 C 
ATOM      6  C   UNL     1      99.500 113.439 112.099  1.00  0.00     0.017 C 
ATOM      7  C   UNL     1      96.375 111.828 111.620  1.00  0.00    -0.042 C 
ATOM      8  C   UNL     1      97.983 111.965 109.786  1.00  0.00    -0.022 C 
ATOM      9  C   UNL     1      97.223 112.071 113.947  1.00  0.00     0.036 C 
ATOM     10  C   UNL     1      95.171 111.759 110.651  1.00  0.00     0.001 C 
ATOM     11  C   UNL     1      96.164 111.740 112.948  1.00  0.00    -0.022 C 
ATOM     12  C   UNL     1      96.938 111.532 108.813  1.00  0.00     0.035 C 
ATOM     13  C   UNL     1      95.533 112.089 109.150  1.00  0.00    -0.014 C 
ATOM     14  C   UNL     1      94.639 110.307 110.587  1.00  0.00     0.044 C 
ATOM     15  C   UNL     1      94.033 112.696 111.175  1.00  0.00     0.017 C 
ATOM     16  C   UNL     1      95.522 113.607 108.830  1.00  0.00     0.013 C 
ATOM     17  C   UNL     1      94.093 110.064 109.169  1.00  0.00     0.119 C 
BRANCH   3  18
ATOM     18  C   UNL     1     100.160 111.055 111.564  1.00  0.00     0.018 C 
BRANCH  18  19
ATOM     19  C   UNL     1     101.434 111.816 111.107  1.00  0.00     0.053 C 
BRANCH  19  20
ATOM     20  C   UNL     1     101.636 111.744 109.626  1.00  0.00     0.041 C 
ATOM     21  O   UNL     1     102.351 110.835 109.129  1.00  0.00    -0.550 OA
ATOM     22  O   UNL     1     101.049 112.694 108.799  1.00  0.00    -0.550 OA
ENDBRANCH  19  20
ENDBRANCH  18  19
ENDBRANCH   3  18
BRANCH   5  23
ATOM     23  C   UNL     1      99.633 111.697 114.609  1.00  0.00    -0.076 C 
ATOM     24  C   UNL     1      99.756 110.802 115.605  1.00  0.00     0.008 C 
ATOM     25  C   UNL     1     100.551 112.899 114.643  1.00  0.00     0.039 C 
ENDBRANCH   5  23
BRANCH  17  26
ATOM     26  O   UNL     1      94.694 108.924 108.616  1.00  0.00    -0.393 OA
ATOM     27  H   UNL     1      94.542 108.971 107.638  1.00  0.00     0.210 HD
ENDBRANCH  17  26
ENDBRANCH   1   2
BRANCH   1  28
ATOM     28  C   UNL     1      94.894 109.885 106.232  1.00  0.00     0.045 C 
ATOM     29  O   UNL     1      94.037 109.037 105.875  1.00  0.00    -0.550 OA
ATOM     30  O   UNL     1      96.244 109.602 106.055  1.00  0.00    -0.550 OA
ENDBRANCH   1  28
BRANCH   1  31
ATOM     31  C   UNL     1      93.174 111.666 106.081  1.00  0.00     0.014 C 
BRANCH  31  32
ATOM     32  C   UNL     1      92.956 113.189 106.060  1.00  0.00     0.031 C 
BRANCH  32  33
ATOM     33  C   UNL     1      91.612 113.555 106.669  1.00  0.00    -0.075 C 
ATOM     34  C   UNL     1      90.710 114.201 105.909  1.00  0.00     0.008 C 
BRANCH  33  35
ATOM     35  C   UNL     1      91.212 113.139 108.086  1.00  0.00     0.008 C 
ATOM     36  C   UNL     1      91.382 114.309 109.064  1.00  0.00     0.012 C 
ATOM     37  C   UNL     1      89.794 112.555 108.182  1.00  0.00     0.012 C 
ENDBRANCH  33  35
ENDBRANCH  32  33
ENDBRANCH  31  32
ENDBRANCH   1  31
TORSDOF 11
ENDMDL
MODEL 6
REMARK VINA RESULT:    -2.606      5.698      8.651
REMARK INTER + INTRA:          -4.576
REMARK INTER:                  -3.978
REMARK INTRA:                  -0.598
REMARK UNBOUND:                -0.371
REMARK SMILES C=C(CC[C@H](C(=O)[O-])[C@H]1[C@@H](O)C[C@@]2(C)C3=CC[C@H](C(=C)C)[C@@](C)(CCC(=O)[O-])C3=CC[C@@]12C)C(C)C
REMARK SMILES IDX 5 1 9 2 22 3 29 4 18 5 23 6 15 7 30 8 17 9 13 10 16 11 31 12
REMARK SMILES IDX 32 13 12 14 14 15 33 16 10 17 24 18 25 19 26 20 27 21 28 22
REMARK SMILES IDX 19 23 20 24 21 25 11 26 6 28 7 29 8 30 4 31 3 32 2 33 1 34
REMARK SMILES IDX 34 35 35 36 36 37
REMARK H PARENT 11 27
REMARK Flexibility Score: inf
ROOT
ATOM      1  C   UNL     1     100.707 112.612 115.857  1.00  0.00     0.042 C 
ENDROOT
BRANCH   1   2
ATOM      2  C   UNL     1      99.349 112.458 115.074  1.00  0.00     0.034 C 
ATOM      3  C   UNL     1      98.705 111.459 109.259  1.00  0.00    -0.000 C 
ATOM      4  C   UNL     1      98.857 111.604 110.795  1.00  0.00    -0.042 C 
ATOM      5  C   UNL     1      97.270 111.926 108.802  1.00  0.00     0.028 C 
ATOM      6  C   UNL     1      98.951 109.971 108.912  1.00  0.00     0.017 C 
ATOM      7  C   UNL     1      97.669 111.767 111.692  1.00  0.00    -0.042 C 
ATOM      8  C   UNL     1     100.081 111.593 111.344  1.00  0.00    -0.022 C 
ATOM      9  C   UNL     1      96.171 111.411 109.736  1.00  0.00     0.036 C 
ATOM     10  C   UNL     1      97.831 111.931 113.221  1.00  0.00     0.001 C 
ATOM     11  C   UNL     1      96.439 111.829 111.144  1.00  0.00    -0.022 C 
ATOM     12  C   UNL     1     100.334 112.111 112.720  1.00  0.00     0.035 C 
ATOM     13  C   UNL     1      99.286 111.625 113.751  1.00  0.00    -0.014 C 
ATOM     14  C   UNL     1      97.606 113.412 113.612  1.00  0.00     0.044 C 
ATOM     15  C   UNL     1      96.768 111.044 113.950  1.00  0.00     0.017 C 
ATOM     16  C   UNL     1      99.540 110.119 114.027  1.00  0.00     0.013 C 
ATOM     17  C   UNL     1      98.503 113.725 114.821  1.00  0.00     0.119 C 
BRANCH   3  18
ATOM     18  C   UNL     1      99.772 112.330 108.500  1.00  0.00     0.018 C 
BRANCH  18  19
ATOM     19  C   UNL     1      99.710 113.849 108.817  1.00  0.00     0.053 C 
BRANCH  19  20
ATOM     20  C   UNL     1      99.331 114.663 107.619  1.00  0.00     0.041 C 
ATOM     21  O   UNL     1      99.343 114.144 106.473  1.00  0.00    -0.550 OA
ATOM     22  O   UNL     1      98.985 116.000 107.771  1.00  0.00    -0.550 OA
ENDBRANCH  19  20
ENDBRANCH  18  19
ENDBRANCH   3  18
BRANCH   5  23
ATOM     23  C   UNL     1      96.924 111.631 107.333  1.00  0.00    -0.076 C 
ATOM     24  C   UNL     1      96.428 112.604 106.549  1.00  0.00     0.008 C 
ATOM     25  C   UNL     1      97.088 110.261 106.714  1.00  0.00     0.039 C 
ENDBRANCH   5  23
BRANCH  17  26
ATOM     26  O   UNL     1      99.300 114.845 114.546  1.00  0.00    -0.393 OA
ATOM     27  H   UNL     1     100.104 114.510 114.073  1.00  0.00     0.210 HD
ENDBRANCH  17  26
ENDBRANCH   1   2
BRANCH   1  28
ATOM     28  C   UNL     1     101.718 113.561 115.262  1.00  0.00     0.045 C 
ATOM     29  O   UNL     1     101.681 114.793 115.514  1.00  0.00    -0.550 OA
ATOM     30  O   UNL     1     102.745 113.061 114.469  1.00  0.00    -0.550 OA
ENDBRANCH   1  28
BRANCH   1  31
ATOM     31  C   UNL     1     100.515 112.977 117.352  1.00  0.00     0.014 C 
BRANCH  31  32
ATOM     32  C   UNL     1      99.196 112.464 117.956  1.00  0.00     0.031 C 
BRANCH  32  33
ATOM     33  C   UNL     1      99.459 111.591 119.173  1.00  0.00    -0.075 C 
ATOM     34  C   UNL     1      99.417 112.151 120.395  1.00  0.00     0.008 C 
BRANCH  33  35
ATOM     35  C   UNL     1      99.684 110.081 119.067  1.00  0.00     0.008 C 
ATOM     36  C   UNL     1      99.541 109.612 117.614  1.00  0.00     0.012 C 
ATOM     37  C   UNL     1     101.022 109.613 119.658  1.00  0.00     0.012 C 
ENDBRANCH  33  35
ENDBRANCH  32  33
ENDBRANCH  31  32
ENDBRANCH   1  31
TORSDOF 11
ENDMDL
MODEL 7
REMARK VINA RESULT:    -2.095      3.471      7.759
REMARK INTER + INTRA:          -3.752
REMARK INTER:                  -3.531
REMARK INTRA:                  -0.221
REMARK UNBOUND:                -0.371
REMARK SMILES C=C(CC[C@H](C(=O)[O-])[C@H]1[C@@H](O)C[C@@]2(C)C3=CC[C@H](C(=C)C)[C@@](C)(CCC(=O)[O-])C3=CC[C@@]12C)C(C)C
REMARK SMILES IDX 5 1 9 2 22 3 29 4 18 5 23 6 15 7 30 8 17 9 13 10 16 11 31 12
REMARK SMILES IDX 32 13 12 14 14 15 33 16 10 17 24 18 25 19 26 20 27 21 28 22
REMARK SMILES IDX 19 23 20 24 21 25 11 26 6 28 7 29 8 30 4 31 3 32 2 33 1 34
REMARK SMILES IDX 34 35 35 36 36 37
REMARK H PARENT 11 27
REMARK Flexibility Score: inf
ROOT
ATOM      1  C   UNL     1      94.469 111.689 107.064  1.00  0.00     0.042 C 
ENDROOT
BRANCH   1   2
ATOM      2  C   UNL     1      94.409 111.721 108.638  1.00  0.00     0.034 C 
ATOM      3  C   UNL     1      99.034 111.851 112.356  1.00  0.00    -0.000 C 
ATOM      4  C   UNL     1      97.817 111.934 111.399  1.00  0.00    -0.042 C 
ATOM      5  C   UNL     1      98.585 111.316 113.770  1.00  0.00     0.028 C 
ATOM      6  C   UNL     1      99.636 113.272 112.457  1.00  0.00     0.017 C 
ATOM      7  C   UNL     1      96.410 111.900 111.910  1.00  0.00    -0.042 C 
ATOM      8  C   UNL     1      98.019 112.030 110.077  1.00  0.00    -0.022 C 
ATOM      9  C   UNL     1      97.278 111.958 114.242  1.00  0.00     0.036 C 
ATOM     10  C   UNL     1      95.202 111.963 110.947  1.00  0.00     0.001 C 
ATOM     11  C   UNL     1      96.197 111.753 113.233  1.00  0.00    -0.022 C 
ATOM     12  C   UNL     1      96.944 111.721 109.089  1.00  0.00     0.035 C 
ATOM     13  C   UNL     1      95.580 112.350 109.464  1.00  0.00    -0.014 C 
ATOM     14  C   UNL     1      94.574 110.555 110.806  1.00  0.00     0.044 C 
ATOM     15  C   UNL     1      94.129 112.944 111.528  1.00  0.00     0.017 C 
ATOM     16  C   UNL     1      95.670 113.881 109.227  1.00  0.00     0.013 C 
ATOM     17  C   UNL     1      94.010 110.427 109.381  1.00  0.00     0.119 C 
BRANCH   3  18
ATOM     18  C   UNL     1     100.135 110.882 111.789  1.00  0.00     0.018 C 
BRANCH  18  19
ATOM     19  C   UNL     1     100.350 110.976 110.254  1.00  0.00     0.053 C 
BRANCH  19  20
ATOM     20  C   UNL     1     101.691 111.539 109.903  1.00  0.00     0.041 C 
ATOM     21  O   UNL     1     102.521 110.843 109.262  1.00  0.00    -0.550 OA
ATOM     22  O   UNL     1     102.028 112.827 110.302  1.00  0.00    -0.550 OA
ENDBRANCH  19  20
ENDBRANCH  18  19
ENDBRANCH   3  18
BRANCH   5  23
ATOM     23  C   UNL     1      99.659 111.391 114.868  1.00  0.00    -0.076 C 
ATOM     24  C   UNL     1      99.747 110.418 115.792  1.00  0.00     0.008 C 
ATOM     25  C   UNL     1     100.630 112.545 114.984  1.00  0.00     0.039 C 
ENDBRANCH   5  23
BRANCH  17  26
ATOM     26  O   UNL     1      94.532 109.282 108.763  1.00  0.00    -0.393 OA
ATOM     27  H   UNL     1      95.506 109.433 108.665  1.00  0.00     0.210 HD
ENDBRANCH  17  26
ENDBRANCH   1   2
BRANCH   1  28
ATOM     28  C   UNL     1      93.187 111.333 106.353  1.00  0.00     0.045 C 
ATOM     29  O   UNL     1      92.425 112.226 105.900  1.00  0.00    -0.550 OA
ATOM     30  O   UNL     1      92.867 109.997 106.142  1.00  0.00    -0.550 OA
ENDBRANCH   1  28
BRANCH   1  31
ATOM     31  C   UNL     1      95.024 112.997 106.445  1.00  0.00     0.014 C 
BRANCH  31  32
ATOM     32  C   UNL     1      96.466 112.879 105.921  1.00  0.00     0.031 C 
BRANCH  32  33
ATOM     33  C   UNL     1      97.212 114.195 106.077  1.00  0.00    -0.075 C 
ATOM     34  C   UNL     1      96.544 115.345 105.883  1.00  0.00     0.008 C 
BRANCH  33  35
ATOM     35  C   UNL     1      98.671 114.261 106.532  1.00  0.00     0.008 C 
ATOM     36  C   UNL     1      98.817 115.169 107.760  1.00  0.00     0.012 C 
ATOM     37  C   UNL     1      99.298 112.884 106.800  1.00  0.00     0.012 C 
ENDBRANCH  33  35
ENDBRANCH  32  33
ENDBRANCH  31  32
ENDBRANCH   1  31
TORSDOF 11
ENDMDL
