MODEL 1
REMARK VINA RESULT:    -2.705      0.000      0.000
REMARK INTER + INTRA:          -6.546
REMARK INTER:                  -4.761
REMARK INTRA:                  -1.785
REMARK UNBOUND:                -1.785
REMARK SMILES CCCCCCCCCCCCCCC(=O)[O-]
REMARK SMILES IDX 9 1 10 2 11 3 12 4 13 5 14 6 15 7 16 8 17 9 8 10 7 11 6 12
REMARK SMILES IDX 5 13 4 14 3 15 2 16 1 17
REMARK H PARENT
REMARK Flexibility Score: inf
ROOT
ATOM      1  C   UNL     1     -10.100 -20.770  12.012  1.00  0.00     0.000 C 
ENDROOT
BRANCH   1   2
ATOM      2  C   UNL     1      -9.331 -21.951  12.631  1.00  0.00     0.000 C 
BRANCH   2   3
ATOM      3  C   UNL     1      -9.437 -21.987  14.164  1.00  0.00     0.000 C 
BRANCH   3   4
ATOM      4  C   UNL     1     -10.021 -20.686  14.745  1.00  0.00     0.000 C 
BRANCH   4   5
ATOM      5  C   UNL     1     -11.347 -20.904  15.495  1.00  0.00     0.006 C 
BRANCH   5   6
ATOM      6  C   UNL     1     -11.995 -22.274  15.231  1.00  0.00     0.053 C 
BRANCH   6   7
ATOM      7  C   UNL     1     -13.110 -22.204  14.231  1.00  0.00     0.041 C 
ATOM      8  O   UNL     1     -12.983 -22.741  13.099  1.00  0.00    -0.550 OA
ATOM      9  O   UNL     1     -14.302 -21.572  14.562  1.00  0.00    -0.550 OA
ENDBRANCH   6   7
ENDBRANCH   5   6
ENDBRANCH   4   5
ENDBRANCH   3   4
ENDBRANCH   2   3
ENDBRANCH   1   2
BRANCH   1  10
ATOM     10  C   UNL     1      -9.215 -19.934  11.063  1.00  0.00     0.000 C 
BRANCH  10  11
ATOM     11  C   UNL     1      -9.929 -18.703  10.479  1.00  0.00    -0.000 C 
BRANCH  11  12
ATOM     12  C   UNL     1      -9.465 -17.385  11.120  1.00  0.00    -0.000 C 
BRANCH  12  13
ATOM     13  C   UNL     1      -8.524 -17.603  12.318  1.00  0.00    -0.000 C 
BRANCH  13  14
ATOM     14  C   UNL     1      -9.131 -17.273  13.695  1.00  0.00    -0.000 C 
BRANCH  14  15
ATOM     15  C   UNL     1     -10.617 -16.861  13.640  1.00  0.00    -0.000 C 
BRANCH  15  16
ATOM     16  C   UNL     1     -11.284 -16.902  15.022  1.00  0.00    -0.003 C 
ATOM     17  C   UNL     1     -10.301 -17.359  16.096  1.00  0.00     0.004 C 
ENDBRANCH  15  16
ENDBRANCH  14  15
ENDBRANCH  13  14
ENDBRANCH  12  13
ENDBRANCH  11  12
ENDBRANCH  10  11
ENDBRANCH   1  10
TORSDOF 13
ENDMDL
MODEL 2
REMARK VINA RESULT:    -2.647      2.883      6.002
REMARK INTER + INTRA:          -6.443
REMARK INTER:                  -5.028
REMARK INTRA:                  -1.415
REMARK UNBOUND:                -1.785
REMARK SMILES CCCCCCCCCCCCCCC(=O)[O-]
REMARK SMILES IDX 9 1 10 2 11 3 12 4 13 5 14 6 15 7 16 8 17 9 8 10 7 11 6 12
REMARK SMILES IDX 5 13 4 14 3 15 2 16 1 17
REMARK H PARENT
REMARK Flexibility Score: inf
ROOT
ATOM      1  C   UNL     1     -11.620 -16.917  15.264  1.00  0.00     0.000 C 
ENDROOT
BRANCH   1   2
ATOM      2  C   UNL     1     -10.858 -16.732  13.939  1.00  0.00     0.000 C 
BRANCH   2   3
ATOM      3  C   UNL     1      -9.395 -17.192  14.031  1.00  0.00     0.000 C 
BRANCH   3   4
ATOM      4  C   UNL     1      -8.834 -17.646  12.671  1.00  0.00     0.000 C 
BRANCH   4   5
ATOM      5  C   UNL     1      -9.387 -19.008  12.216  1.00  0.00     0.006 C 
BRANCH   5   6
ATOM      6  C   UNL     1     -10.145 -18.959  10.878  1.00  0.00     0.053 C 
BRANCH   6   7
ATOM      7  C   UNL     1      -9.355 -18.300   9.789  1.00  0.00     0.041 C 
ATOM      8  O   UNL     1      -8.503 -18.957   9.135  1.00  0.00    -0.550 OA
ATOM      9  O   UNL     1      -9.583 -16.966   9.474  1.00  0.00    -0.550 OA
ENDBRANCH   6   7
ENDBRANCH   5   6
ENDBRANCH   4   5
ENDBRANCH   3   4
ENDBRANCH   2   3
ENDBRANCH   1   2
BRANCH   1  10
ATOM     10  C   UNL     1     -11.030 -18.059  16.118  1.00  0.00     0.000 C 
BRANCH  10  11
ATOM     11  C   UNL     1     -11.828 -19.371  16.030  1.00  0.00    -0.000 C 
BRANCH  11  12
ATOM     12  C   UNL     1     -11.078 -20.475  15.267  1.00  0.00    -0.000 C 
BRANCH  12  13
ATOM     13  C   UNL     1     -11.247 -21.864  15.908  1.00  0.00    -0.000 C 
BRANCH  13  14
ATOM     14  C   UNL     1     -11.882 -22.931  14.996  1.00  0.00    -0.000 C 
BRANCH  14  15
ATOM     15  C   UNL     1     -12.802 -22.351  13.902  1.00  0.00    -0.000 C 
BRANCH  15  16
ATOM     16  C   UNL     1     -12.394 -22.810  12.494  1.00  0.00    -0.003 C 
ATOM     17  C   UNL     1     -10.937 -22.463  12.202  1.00  0.00     0.004 C 
ENDBRANCH  15  16
ENDBRANCH  14  15
ENDBRANCH  13  14
ENDBRANCH  12  13
ENDBRANCH  11  12
ENDBRANCH  10  11
ENDBRANCH   1  10
TORSDOF 13
ENDMDL
MODEL 3
REMARK VINA RESULT:    -2.641      1.944      4.852
REMARK INTER + INTRA:          -6.433
REMARK INTER:                  -5.041
REMARK INTRA:                  -1.393
REMARK UNBOUND:                -1.785
REMARK SMILES CCCCCCCCCCCCCCC(=O)[O-]
REMARK SMILES IDX 9 1 10 2 11 3 12 4 13 5 14 6 15 7 16 8 17 9 8 10 7 11 6 12
REMARK SMILES IDX 5 13 4 14 3 15 2 16 1 17
REMARK H PARENT
REMARK Flexibility Score: inf
ROOT
ATOM      1  C   UNL     1     -10.083 -18.756  10.837  1.00  0.00     0.000 C 
ENDROOT
BRANCH   1   2
ATOM      2  C   UNL     1      -9.793 -17.527  11.719  1.00  0.00     0.000 C 
BRANCH   2   3
ATOM      3  C   UNL     1      -8.368 -17.536  12.293  1.00  0.00     0.000 C 
BRANCH   3   4
ATOM      4  C   UNL     1      -8.351 -17.477  13.831  1.00  0.00     0.000 C 
BRANCH   4   5
ATOM      5  C   UNL     1      -9.602 -16.802  14.421  1.00  0.00     0.006 C 
BRANCH   5   6
ATOM      6  C   UNL     1     -10.017 -17.350  15.798  1.00  0.00     0.053 C 
BRANCH   6   7
ATOM      7  C   UNL     1     -11.498 -17.538  15.924  1.00  0.00     0.041 C 
ATOM      8  O   UNL     1     -11.991 -18.696  15.955  1.00  0.00    -0.550 OA
ATOM      9  O   UNL     1     -12.332 -16.433  16.039  1.00  0.00    -0.550 OA
ENDBRANCH   6   7
ENDBRANCH   5   6
ENDBRANCH   4   5
ENDBRANCH   3   4
ENDBRANCH   2   3
ENDBRANCH   1   2
BRANCH   1  10
ATOM     10  C   UNL     1      -9.263 -19.988  11.272  1.00  0.00     0.000 C 
BRANCH  10  11
ATOM     11  C   UNL     1     -10.086 -21.038  12.038  1.00  0.00    -0.000 C 
BRANCH  11  12
ATOM     12  C   UNL     1     -10.122 -20.777  13.553  1.00  0.00    -0.000 C 
BRANCH  12  13
ATOM     13  C   UNL     1     -11.217 -21.586  14.271  1.00  0.00    -0.000 C 
BRANCH  13  14
ATOM     14  C   UNL     1     -12.003 -22.561  13.375  1.00  0.00    -0.000 C 
BRANCH  14  15
ATOM     15  C   UNL     1     -13.499 -22.673  13.736  1.00  0.00    -0.000 C 
BRANCH  15  16
ATOM     16  C   UNL     1     -13.924 -21.636  14.786  1.00  0.00    -0.003 C 
ATOM     17  C   UNL     1     -14.290 -22.306  16.107  1.00  0.00     0.004 C 
ENDBRANCH  15  16
ENDBRANCH  14  15
ENDBRANCH  13  14
ENDBRANCH  12  13
ENDBRANCH  11  12
ENDBRANCH  10  11
ENDBRANCH   1  10
TORSDOF 13
ENDMDL
MODEL 4
REMARK VINA RESULT:    -2.600      2.750      6.024
REMARK INTER + INTRA:          -6.361
REMARK INTER:                  -4.700
REMARK INTRA:                  -1.661
REMARK UNBOUND:                -1.785
REMARK SMILES CCCCCCCCCCCCCCC(=O)[O-]
REMARK SMILES IDX 9 1 10 2 11 3 12 4 13 5 14 6 15 7 16 8 17 9 8 10 7 11 6 12
REMARK SMILES IDX 5 13 4 14 3 15 2 16 1 17
REMARK H PARENT
REMARK Flexibility Score: inf
ROOT
ATOM      1  C   UNL     1     -10.900 -18.987  15.354  1.00  0.00     0.000 C 
ENDROOT
BRANCH   1   2
ATOM      2  C   UNL     1     -11.391 -17.555  15.077  1.00  0.00     0.000 C 
BRANCH   2   3
ATOM      3  C   UNL     1     -10.572 -16.851  13.984  1.00  0.00     0.000 C 
BRANCH   3   4
ATOM      4  C   UNL     1      -9.096 -17.290  13.979  1.00  0.00     0.000 C 
BRANCH   4   5
ATOM      5  C   UNL     1      -8.588 -17.677  12.579  1.00  0.00     0.006 C 
BRANCH   5   6
ATOM      6  C   UNL     1      -9.703 -17.816  11.527  1.00  0.00     0.053 C 
BRANCH   6   7
ATOM      7  C   UNL     1      -9.187 -17.741  10.123  1.00  0.00     0.041 C 
ATOM      8  O   UNL     1      -8.700 -16.666   9.681  1.00  0.00    -0.550 OA
ATOM      9  O   UNL     1      -9.214 -18.868   9.311  1.00  0.00    -0.550 OA
ENDBRANCH   6   7
ENDBRANCH   5   6
ENDBRANCH   4   5
ENDBRANCH   3   4
ENDBRANCH   2   3
ENDBRANCH   1   2
BRANCH   1  10
ATOM     10  C   UNL     1     -12.027 -19.893  15.894  1.00  0.00     0.000 C 
BRANCH  10  11
ATOM     11  C   UNL     1     -11.883 -21.369  15.481  1.00  0.00    -0.000 C 
BRANCH  11  12
ATOM     12  C   UNL     1     -13.062 -21.866  14.629  1.00  0.00    -0.000 C 
BRANCH  12  13
ATOM     13  C   UNL     1     -12.647 -22.939  13.606  1.00  0.00    -0.000 C 
BRANCH  13  14
ATOM     14  C   UNL     1     -11.923 -22.404  12.356  1.00  0.00    -0.000 C 
BRANCH  14  15
ATOM     15  C   UNL     1     -10.405 -22.678  12.348  1.00  0.00    -0.000 C 
BRANCH  15  16
ATOM     16  C   UNL     1      -9.580 -21.383  12.341  1.00  0.00    -0.003 C 
ATOM     17  C   UNL     1      -8.634 -21.325  13.537  1.00  0.00     0.004 C 
ENDBRANCH  15  16
ENDBRANCH  14  15
ENDBRANCH  13  14
ENDBRANCH  12  13
ENDBRANCH  11  12
ENDBRANCH  10  11
ENDBRANCH   1  10
TORSDOF 13
ENDMDL
MODEL 5
REMARK VINA RESULT:    -2.591      2.297      4.241
REMARK INTER + INTRA:          -6.345
REMARK INTER:                  -4.900
REMARK INTRA:                  -1.445
REMARK UNBOUND:                -1.785
REMARK SMILES CCCCCCCCCCCCCCC(=O)[O-]
REMARK SMILES IDX 9 1 10 2 11 3 12 4 13 5 14 6 15 7 16 8 17 9 8 10 7 11 6 12
REMARK SMILES IDX 5 13 4 14 3 15 2 16 1 17
REMARK H PARENT
REMARK Flexibility Score: inf
ROOT
ATOM      1  C   UNL     1     -11.911 -22.540  12.158  1.00  0.00     0.000 C 
ENDROOT
BRANCH   1   2
ATOM      2  C   UNL     1     -13.123 -23.068  12.946  1.00  0.00     0.000 C 
BRANCH   2   3
ATOM      3  C   UNL     1     -13.024 -22.770  14.450  1.00  0.00     0.000 C 
BRANCH   3   4
ATOM      4  C   UNL     1     -13.817 -21.514  14.857  1.00  0.00     0.000 C 
BRANCH   4   5
ATOM      5  C   UNL     1     -13.106 -20.676  15.934  1.00  0.00     0.006 C 
BRANCH   5   6
ATOM      6  C   UNL     1     -11.589 -20.534  15.714  1.00  0.00     0.053 C 
BRANCH   6   7
ATOM      7  C   UNL     1     -11.126 -19.110  15.780  1.00  0.00     0.041 C 
ATOM      8  O   UNL     1     -11.941 -18.167  15.596  1.00  0.00    -0.550 OA
ATOM      9  O   UNL     1      -9.800 -18.824  16.076  1.00  0.00    -0.550 OA
ENDBRANCH   6   7
ENDBRANCH   5   6
ENDBRANCH   4   5
ENDBRANCH   3   4
ENDBRANCH   2   3
ENDBRANCH   1   2
BRANCH   1  10
ATOM     10  C   UNL     1     -10.582 -22.783  12.905  1.00  0.00     0.000 C 
BRANCH  10  11
ATOM     11  C   UNL     1      -9.393 -22.005  12.316  1.00  0.00    -0.000 C 
BRANCH  11  12
ATOM     12  C   UNL     1      -8.988 -20.795  13.173  1.00  0.00    -0.000 C 
BRANCH  12  13
ATOM     13  C   UNL     1      -9.138 -19.458  12.426  1.00  0.00    -0.000 C 
BRANCH  13  14
ATOM     14  C   UNL     1     -10.041 -19.504  11.178  1.00  0.00    -0.000 C 
BRANCH  14  15
ATOM     15  C   UNL     1      -9.806 -18.339  10.194  1.00  0.00    -0.000 C 
BRANCH  15  16
ATOM     16  C   UNL     1      -8.369 -18.314   9.653  1.00  0.00    -0.003 C 
ATOM     17  C   UNL     1      -7.967 -19.675   9.091  1.00  0.00     0.004 C 
ENDBRANCH  15  16
ENDBRANCH  14  15
ENDBRANCH  13  14
ENDBRANCH  12  13
ENDBRANCH  11  12
ENDBRANCH  10  11
ENDBRANCH   1  10
TORSDOF 13
ENDMDL
MODEL 6
REMARK VINA RESULT:    -2.579      2.582      4.588
REMARK INTER + INTRA:          -6.325
REMARK INTER:                  -4.838
REMARK INTRA:                  -1.487
REMARK UNBOUND:                -1.785
REMARK SMILES CCCCCCCCCCCCCCC(=O)[O-]
REMARK SMILES IDX 9 1 10 2 11 3 12 4 13 5 14 6 15 7 16 8 17 9 8 10 7 11 6 12
REMARK SMILES IDX 5 13 4 14 3 15 2 16 1 17
REMARK H PARENT
REMARK Flexibility Score: inf
ROOT
ATOM      1  C   UNL     1     -12.228 -22.244  13.813  1.00  0.00     0.000 C 
ENDROOT
BRANCH   1   2
ATOM      2  C   UNL     1     -11.272 -22.491  14.994  1.00  0.00     0.000 C 
BRANCH   2   3
ATOM      3  C   UNL     1     -10.967 -21.210  15.785  1.00  0.00     0.000 C 
BRANCH   3   4
ATOM      4  C   UNL     1     -12.099 -20.171  15.685  1.00  0.00     0.000 C 
BRANCH   4   5
ATOM      5  C   UNL     1     -11.592 -18.720  15.749  1.00  0.00     0.006 C 
BRANCH   5   6
ATOM      6  C   UNL     1     -10.228 -18.505  15.070  1.00  0.00     0.053 C 
BRANCH   6   7
ATOM      7  C   UNL     1     -10.086 -17.135  14.478  1.00  0.00     0.041 C 
ATOM      8  O   UNL     1      -9.207 -16.344  14.912  1.00  0.00    -0.550 OA
ATOM      9  O   UNL     1     -10.903 -16.744  13.425  1.00  0.00    -0.550 OA
ENDBRANCH   6   7
ENDBRANCH   5   6
ENDBRANCH   4   5
ENDBRANCH   3   4
ENDBRANCH   2   3
ENDBRANCH   1   2
BRANCH   1  10
ATOM     10  C   UNL     1     -11.543 -22.488  12.451  1.00  0.00     0.000 C 
BRANCH  10  11
ATOM     11  C   UNL     1     -10.057 -22.872  12.568  1.00  0.00    -0.000 C 
BRANCH  11  12
ATOM     12  C   UNL     1      -9.117 -21.799  11.998  1.00  0.00    -0.000 C 
BRANCH  12  13
ATOM     13  C   UNL     1      -9.706 -20.380  12.089  1.00  0.00    -0.000 C 
BRANCH  13  14
ATOM     14  C   UNL     1      -8.787 -19.256  11.574  1.00  0.00    -0.000 C 
BRANCH  14  15
ATOM     15  C   UNL     1      -8.431 -19.376  10.077  1.00  0.00    -0.000 C 
BRANCH  15  16
ATOM     16  C   UNL     1      -9.248 -18.412   9.205  1.00  0.00    -0.003 C 
ATOM     17  C   UNL     1      -9.669 -17.176   9.994  1.00  0.00     0.004 C 
ENDBRANCH  15  16
ENDBRANCH  14  15
ENDBRANCH  13  14
ENDBRANCH  12  13
ENDBRANCH  11  12
ENDBRANCH  10  11
ENDBRANCH   1  10
TORSDOF 13
ENDMDL
MODEL 7
REMARK VINA RESULT:    -2.544      1.627      2.997
REMARK INTER + INTRA:          -6.263
REMARK INTER:                  -4.393
REMARK INTRA:                  -1.870
REMARK UNBOUND:                -1.785
REMARK SMILES CCCCCCCCCCCCCCC(=O)[O-]
REMARK SMILES IDX 9 1 10 2 11 3 12 4 13 5 14 6 15 7 16 8 17 9 8 10 7 11 6 12
REMARK SMILES IDX 5 13 4 14 3 15 2 16 1 17
REMARK H PARENT
REMARK Flexibility Score: inf
ROOT
ATOM      1  C   UNL     1      -9.242 -18.696   9.390  1.00  0.00     0.000 C 
ENDROOT
BRANCH   1   2
ATOM      2  C   UNL     1      -7.875 -19.401   9.459  1.00  0.00     0.000 C 
BRANCH   2   3
ATOM      3  C   UNL     1      -7.950 -20.768  10.155  1.00  0.00     0.000 C 
BRANCH   3   4
ATOM      4  C   UNL     1      -7.904 -20.652  11.690  1.00  0.00     0.000 C 
BRANCH   4   5
ATOM      5  C   UNL     1      -8.902 -21.587  12.395  1.00  0.00     0.006 C 
BRANCH   5   6
ATOM      6  C   UNL     1     -10.375 -21.182  12.208  1.00  0.00     0.053 C 
BRANCH   6   7
ATOM      7  C   UNL     1     -11.330 -22.233  12.687  1.00  0.00     0.041 C 
ATOM      8  O   UNL     1     -12.167 -22.739  11.894  1.00  0.00    -0.550 OA
ATOM      9  O   UNL     1     -11.273 -22.677  14.002  1.00  0.00    -0.550 OA
ENDBRANCH   6   7
ENDBRANCH   5   6
ENDBRANCH   4   5
ENDBRANCH   3   4
ENDBRANCH   2   3
ENDBRANCH   1   2
BRANCH   1  10
ATOM     10  C   UNL     1      -9.261 -17.385  10.204  1.00  0.00     0.000 C 
BRANCH  10  11
ATOM     11  C   UNL     1      -7.988 -17.159  11.040  1.00  0.00    -0.000 C 
BRANCH  11  12
ATOM     12  C   UNL     1      -8.247 -17.238  12.552  1.00  0.00    -0.000 C 
BRANCH  12  13
ATOM     13  C   UNL     1      -9.705 -17.595  12.891  1.00  0.00    -0.000 C 
BRANCH  13  14
ATOM     14  C   UNL     1     -10.162 -17.201  14.308  1.00  0.00    -0.000 C 
BRANCH  14  15
ATOM     15  C   UNL     1      -9.306 -17.818  15.434  1.00  0.00    -0.000 C 
BRANCH  15  16
ATOM     16  C   UNL     1      -9.617 -19.305  15.655  1.00  0.00    -0.003 C 
ATOM     17  C   UNL     1     -11.116 -19.575  15.560  1.00  0.00     0.004 C 
ENDBRANCH  15  16
ENDBRANCH  14  15
ENDBRANCH  13  14
ENDBRANCH  12  13
ENDBRANCH  11  12
ENDBRANCH  10  11
ENDBRANCH   1  10
TORSDOF 13
ENDMDL
MODEL 8
REMARK VINA RESULT:    -2.468      2.265      4.815
REMARK INTER + INTRA:          -6.128
REMARK INTER:                  -4.295
REMARK INTRA:                  -1.833
REMARK UNBOUND:                -1.785
REMARK SMILES CCCCCCCCCCCCCCC(=O)[O-]
REMARK SMILES IDX 9 1 10 2 11 3 12 4 13 5 14 6 15 7 16 8 17 9 8 10 7 11 6 12
REMARK SMILES IDX 5 13 4 14 3 15 2 16 1 17
REMARK H PARENT
REMARK Flexibility Score: inf
ROOT
ATOM      1  C   UNL     1      -9.791 -18.938  11.021  1.00  0.00     0.000 C 
ENDROOT
BRANCH   1   2
ATOM      2  C   UNL     1      -8.276 -18.665  10.997  1.00  0.00     0.000 C 
BRANCH   2   3
ATOM      3  C   UNL     1      -7.875 -17.484  11.894  1.00  0.00     0.000 C 
BRANCH   3   4
ATOM      4  C   UNL     1      -7.912 -17.841  13.391  1.00  0.00     0.000 C 
BRANCH   4   5
ATOM      5  C   UNL     1      -8.518 -16.725  14.261  1.00  0.00     0.006 C 
BRANCH   5   6
ATOM      6  C   UNL     1      -9.635 -17.205  15.203  1.00  0.00     0.053 C 
BRANCH   6   7
ATOM      7  C   UNL     1     -11.001 -16.814  14.728  1.00  0.00     0.041 C 
ATOM      8  O   UNL     1     -11.973 -16.800  15.529  1.00  0.00    -0.550 OA
ATOM      9  O   UNL     1     -11.195 -16.432  13.406  1.00  0.00    -0.550 OA
ENDBRANCH   6   7
ENDBRANCH   5   6
ENDBRANCH   4   5
ENDBRANCH   3   4
ENDBRANCH   2   3
ENDBRANCH   1   2
BRANCH   1  10
ATOM     10  C   UNL     1     -10.123 -20.317  11.628  1.00  0.00     0.000 C 
BRANCH  10  11
ATOM     11  C   UNL     1      -8.880 -21.123  12.045  1.00  0.00    -0.000 C 
BRANCH  11  12
ATOM     12  C   UNL     1      -9.130 -22.639  12.062  1.00  0.00    -0.000 C 
BRANCH  12  13
ATOM     13  C   UNL     1     -10.523 -23.008  12.602  1.00  0.00    -0.000 C 
BRANCH  13  14
ATOM     14  C   UNL     1     -10.682 -22.895  14.130  1.00  0.00    -0.000 C 
BRANCH  14  15
ATOM     15  C   UNL     1     -11.778 -21.902  14.572  1.00  0.00    -0.000 C 
BRANCH  15  16
ATOM     16  C   UNL     1     -11.192 -20.638  15.219  1.00  0.00    -0.003 C 
ATOM     17  C   UNL     1      -9.751 -20.866  15.669  1.00  0.00     0.004 C 
ENDBRANCH  15  16
ENDBRANCH  14  15
ENDBRANCH  13  14
ENDBRANCH  12  13
ENDBRANCH  11  12
ENDBRANCH  10  11
ENDBRANCH   1  10
TORSDOF 13
ENDMDL
MODEL 9
REMARK VINA RESULT:    -2.160      2.605      5.813
REMARK INTER + INTRA:          -5.587
REMARK INTER:                  -4.189
REMARK INTRA:                  -1.398
REMARK UNBOUND:                -1.785
REMARK SMILES CCCCCCCCCCCCCCC(=O)[O-]
REMARK SMILES IDX 9 1 10 2 11 3 12 4 13 5 14 6 15 7 16 8 17 9 8 10 7 11 6 12
REMARK SMILES IDX 5 13 4 14 3 15 2 16 1 17
REMARK H PARENT
REMARK Flexibility Score: inf
ROOT
ATOM      1  C   UNL     1     -11.170 -17.754  15.116  1.00  0.00     0.000 C 
ENDROOT
BRANCH   1   2
ATOM      2  C   UNL     1     -11.026 -16.748  13.960  1.00  0.00     0.000 C 
BRANCH   2   3
ATOM      3  C   UNL     1      -9.679 -16.876  13.231  1.00  0.00     0.000 C 
BRANCH   3   4
ATOM      4  C   UNL     1      -9.615 -18.117  12.322  1.00  0.00     0.000 C 
BRANCH   4   5
ATOM      5  C   UNL     1      -9.686 -17.770  10.824  1.00  0.00     0.006 C 
BRANCH   5   6
ATOM      6  C   UNL     1      -8.355 -17.957  10.077  1.00  0.00     0.053 C 
BRANCH   6   7
ATOM      7  C   UNL     1      -8.143 -19.367   9.614  1.00  0.00     0.041 C 
ATOM      8  O   UNL     1      -7.894 -20.278  10.447  1.00  0.00    -0.550 OA
ATOM      9  O   UNL     1      -8.254 -19.680   8.265  1.00  0.00    -0.550 OA
ENDBRANCH   6   7
ENDBRANCH   5   6
ENDBRANCH   4   5
ENDBRANCH   3   4
ENDBRANCH   2   3
ENDBRANCH   1   2
BRANCH   1  10
ATOM     10  C   UNL     1      -9.919 -17.784  16.019  1.00  0.00     0.000 C 
BRANCH  10  11
ATOM     11  C   UNL     1      -9.268 -19.174  16.125  1.00  0.00    -0.000 C 
BRANCH  11  12
ATOM     12  C   UNL     1      -9.933 -20.215  15.210  1.00  0.00    -0.000 C 
BRANCH  12  13
ATOM     13  C   UNL     1      -8.917 -20.997  14.359  1.00  0.00    -0.000 C 
BRANCH  13  14
ATOM     14  C   UNL     1      -9.530 -22.034  13.399  1.00  0.00    -0.000 C 
BRANCH  14  15
ATOM     15  C   UNL     1     -10.878 -21.599  12.788  1.00  0.00    -0.000 C 
BRANCH  15  16
ATOM     16  C   UNL     1     -12.013 -22.578  13.124  1.00  0.00    -0.003 C 
ATOM     17  C   UNL     1     -12.872 -22.052  14.271  1.00  0.00     0.004 C 
ENDBRANCH  15  16
ENDBRANCH  14  15
ENDBRANCH  13  14
ENDBRANCH  12  13
ENDBRANCH  11  12
ENDBRANCH  10  11
ENDBRANCH   1  10
TORSDOF 13
ENDMDL
