MODEL 1
REMARK VINA RESULT:    -3.967      0.000      0.000
REMARK INTER + INTRA:          -8.257
REMARK INTER:                  -7.215
REMARK INTRA:                  -1.043
REMARK UNBOUND:                -1.043
REMARK SMILES CCCCCC=CCC=CCCCCCCCC(=O)[O-]
REMARK SMILES IDX 11 1 12 2 13 3 14 4 15 5 16 6 17 7 18 8 19 9 20 10 10 11
REMARK SMILES IDX 9 12 8 13 7 14 6 15 5 16 4 17 3 18 2 19 1 20
REMARK H PARENT
REMARK Flexibility Score: inf
ROOT
ATOM      1  C   UNL     1       3.547  11.935  18.963  1.00  0.00     0.027 C 
ENDROOT
BRANCH   1   2
ATOM      2  C   UNL     1       4.906  12.414  19.495  1.00  0.00     0.004 C 
BRANCH   2   3
ATOM      3  C   UNL     1       6.037  12.244  18.470  1.00  0.00     0.000 C 
BRANCH   3   4
ATOM      4  C   UNL     1       5.925  13.228  17.295  1.00  0.00     0.000 C 
BRANCH   4   5
ATOM      5  C   UNL     1       6.510  12.620  16.012  1.00  0.00     0.000 C 
BRANCH   5   6
ATOM      6  C   UNL     1       5.661  12.925  14.765  1.00  0.00     0.006 C 
BRANCH   6   7
ATOM      7  C   UNL     1       4.516  11.930  14.518  1.00  0.00     0.053 C 
BRANCH   7   8
ATOM      8  C   UNL     1       3.202  12.625  14.327  1.00  0.00     0.041 C 
ATOM      9  O   UNL     1       2.343  12.150  13.538  1.00  0.00    -0.550 OA
ATOM     10  O   UNL     1       2.939  13.813  14.997  1.00  0.00    -0.550 OA
ENDBRANCH   7   8
ENDBRANCH   6   7
ENDBRANCH   5   6
ENDBRANCH   4   5
ENDBRANCH   3   4
ENDBRANCH   2   3
ENDBRANCH   1   2
BRANCH   1  11
ATOM     11  C   UNL     1       2.892  13.000  18.129  1.00  0.00    -0.031 C 
ATOM     12  C   UNL     1       2.390  14.116  18.681  1.00  0.00    -0.027 C 
BRANCH  12  13
ATOM     13  C   UNL     1       1.706  15.163  17.847  1.00  0.00     0.054 C 
BRANCH  13  14
ATOM     14  C   UNL     1       0.748  15.966  18.680  1.00  0.00    -0.027 C 
ATOM     15  C   UNL     1      -0.480  16.273  18.234  1.00  0.00    -0.031 C 
BRANCH  15  16
ATOM     16  C   UNL     1      -1.424  17.113  19.046  1.00  0.00     0.027 C 
BRANCH  16  17
ATOM     17  C   UNL     1      -0.668  18.219  19.793  1.00  0.00     0.004 C 
BRANCH  17  18
ATOM     18  C   UNL     1      -0.989  19.600  19.203  1.00  0.00     0.000 C 
BRANCH  18  19
ATOM     19  C   UNL     1      -0.273  19.851  17.867  1.00  0.00    -0.003 C 
ATOM     20  C   UNL     1       1.249  19.781  17.988  1.00  0.00     0.004 C 
ENDBRANCH  18  19
ENDBRANCH  17  18
ENDBRANCH  16  17
ENDBRANCH  15  16
ENDBRANCH  13  14
ENDBRANCH  12  13
ENDBRANCH   1  11
TORSDOF 14
ENDMDL
MODEL 2
REMARK VINA RESULT:    -3.965      2.574      7.832
REMARK INTER + INTRA:          -8.253
REMARK INTER:                  -6.940
REMARK INTRA:                  -1.313
REMARK UNBOUND:                -1.043
REMARK SMILES CCCCCC=CCC=CCCCCCCCC(=O)[O-]
REMARK SMILES IDX 11 1 12 2 13 3 14 4 15 5 16 6 17 7 18 8 19 9 20 10 10 11
REMARK SMILES IDX 9 12 8 13 7 14 6 15 5 16 4 17 3 18 2 19 1 20
REMARK H PARENT
REMARK Flexibility Score: inf
ROOT
ATOM      1  C   UNL     1       1.708  15.718  18.374  1.00  0.00     0.027 C 
ENDROOT
BRANCH   1   2
ATOM      2  C   UNL     1       0.257  16.035  17.982  1.00  0.00     0.004 C 
BRANCH   2   3
ATOM      3  C   UNL     1      -0.739  15.748  19.116  1.00  0.00     0.000 C 
BRANCH   3   4
ATOM      4  C   UNL     1      -2.091  16.449  18.907  1.00  0.00     0.000 C 
BRANCH   4   5
ATOM      5  C   UNL     1      -1.915  17.973  18.849  1.00  0.00     0.000 C 
BRANCH   5   6
ATOM      6  C   UNL     1      -1.061  18.522  20.006  1.00  0.00     0.006 C 
BRANCH   6   7
ATOM      7  C   UNL     1      -0.305  19.819  19.677  1.00  0.00     0.053 C 
BRANCH   7   8
ATOM      8  C   UNL     1       0.464  19.709  18.397  1.00  0.00     0.041 C 
ATOM      9  O   UNL     1       1.644  19.266  18.402  1.00  0.00    -0.550 OA
ATOM     10  O   UNL     1      -0.109  20.125  17.202  1.00  0.00    -0.550 OA
ENDBRANCH   7   8
ENDBRANCH   6   7
ENDBRANCH   5   6
ENDBRANCH   4   5
ENDBRANCH   3   4
ENDBRANCH   2   3
ENDBRANCH   1   2
BRANCH   1  11
ATOM     11  C   UNL     1       2.007  14.257  18.189  1.00  0.00    -0.031 C 
ATOM     12  C   UNL     1       2.817  13.593  19.027  1.00  0.00    -0.027 C 
BRANCH  12  13
ATOM     13  C   UNL     1       3.139  12.139  18.819  1.00  0.00     0.054 C 
BRANCH  13  14
ATOM     14  C   UNL     1       4.100  11.965  17.677  1.00  0.00    -0.027 C 
ATOM     15  C   UNL     1       5.138  12.796  17.503  1.00  0.00    -0.031 C 
BRANCH  15  16
ATOM     16  C   UNL     1       6.075  12.652  16.336  1.00  0.00     0.027 C 
BRANCH  16  17
ATOM     17  C   UNL     1       5.404  13.112  15.036  1.00  0.00     0.004 C 
BRANCH  17  18
ATOM     18  C   UNL     1       4.680  11.946  14.349  1.00  0.00     0.000 C 
BRANCH  18  19
ATOM     19  C   UNL     1       3.282  12.335  13.843  1.00  0.00    -0.003 C 
ATOM     20  C   UNL     1       2.649  13.460  14.661  1.00  0.00     0.004 C 
ENDBRANCH  18  19
ENDBRANCH  17  18
ENDBRANCH  16  17
ENDBRANCH  15  16
ENDBRANCH  13  14
ENDBRANCH  12  13
ENDBRANCH   1  11
TORSDOF 14
ENDMDL
MODEL 3
REMARK VINA RESULT:    -3.823      1.968      3.410
REMARK INTER + INTRA:          -7.994
REMARK INTER:                  -6.606
REMARK INTRA:                  -1.388
REMARK UNBOUND:                -1.043
REMARK SMILES CCCCCC=CCC=CCCCCCCCC(=O)[O-]
REMARK SMILES IDX 11 1 12 2 13 3 14 4 15 5 16 6 17 7 18 8 19 9 20 10 10 11
REMARK SMILES IDX 9 12 8 13 7 14 6 15 5 16 4 17 3 18 2 19 1 20
REMARK H PARENT
REMARK Flexibility Score: inf
ROOT
ATOM      1  C   UNL     1       2.709  13.747  14.575  1.00  0.00     0.027 C 
ENDROOT
BRANCH   1   2
ATOM      2  C   UNL     1       2.939  12.286  14.159  1.00  0.00     0.004 C 
BRANCH   2   3
ATOM      3  C   UNL     1       4.375  11.812  14.427  1.00  0.00     0.000 C 
BRANCH   3   4
ATOM      4  C   UNL     1       5.400  12.954  14.346  1.00  0.00     0.000 C 
BRANCH   4   5
ATOM      5  C   UNL     1       6.234  13.035  15.633  1.00  0.00     0.000 C 
BRANCH   5   6
ATOM      6  C   UNL     1       5.487  12.494  16.865  1.00  0.00     0.006 C 
BRANCH   6   7
ATOM      7  C   UNL     1       6.265  12.623  18.185  1.00  0.00     0.053 C 
BRANCH   7   8
ATOM      8  C   UNL     1       5.416  12.282  19.371  1.00  0.00     0.041 C 
ATOM      9  O   UNL     1       5.950  11.889  20.442  1.00  0.00    -0.550 OA
ATOM     10  O   UNL     1       4.032  12.369  19.284  1.00  0.00    -0.550 OA
ENDBRANCH   7   8
ENDBRANCH   6   7
ENDBRANCH   5   6
ENDBRANCH   4   5
ENDBRANCH   3   4
ENDBRANCH   2   3
ENDBRANCH   1   2
BRANCH   1  11
ATOM     11  C   UNL     1       2.402  13.844  16.043  1.00  0.00    -0.031 C 
ATOM     12  C   UNL     1       2.007  14.998  16.604  1.00  0.00    -0.027 C 
BRANCH  12  13
ATOM     13  C   UNL     1       1.734  15.098  18.079  1.00  0.00     0.054 C 
BRANCH  13  14
ATOM     14  C   UNL     1       0.803  16.242  18.370  1.00  0.00    -0.027 C 
ATOM     15  C   UNL     1      -0.528  16.075  18.384  1.00  0.00    -0.031 C 
BRANCH  15  16
ATOM     16  C   UNL     1      -1.463  17.225  18.631  1.00  0.00     0.027 C 
BRANCH  16  17
ATOM     17  C   UNL     1      -0.977  18.080  19.809  1.00  0.00     0.004 C 
BRANCH  17  18
ATOM     18  C   UNL     1      -0.884  19.561  19.411  1.00  0.00     0.000 C 
BRANCH  18  19
ATOM     19  C   UNL     1       0.559  20.006  19.129  1.00  0.00    -0.003 C 
ATOM     20  C   UNL     1       0.918  19.947  17.645  1.00  0.00     0.004 C 
ENDBRANCH  18  19
ENDBRANCH  17  18
ENDBRANCH  16  17
ENDBRANCH  15  16
ENDBRANCH  13  14
ENDBRANCH  12  13
ENDBRANCH   1  11
TORSDOF 14
ENDMDL
MODEL 4
REMARK VINA RESULT:    -3.645      2.719      7.788
REMARK INTER + INTRA:          -7.670
REMARK INTER:                  -7.137
REMARK INTRA:                  -0.533
REMARK UNBOUND:                -1.043
REMARK SMILES CCCCCC=CCC=CCCCCCCCC(=O)[O-]
REMARK SMILES IDX 11 1 12 2 13 3 14 4 15 5 16 6 17 7 18 8 19 9 20 10 10 11
REMARK SMILES IDX 9 12 8 13 7 14 6 15 5 16 4 17 3 18 2 19 1 20
REMARK H PARENT
REMARK Flexibility Score: inf
ROOT
ATOM      1  C   UNL     1       1.866  14.673  16.429  1.00  0.00     0.027 C 
ENDROOT
BRANCH   1   2
ATOM      2  C   UNL     1       1.932  14.894  17.949  1.00  0.00     0.004 C 
BRANCH   2   3
ATOM      3  C   UNL     1       1.204  16.171  18.394  1.00  0.00     0.000 C 
BRANCH   3   4
ATOM      4  C   UNL     1      -0.325  16.028  18.347  1.00  0.00     0.000 C 
BRANCH   4   5
ATOM      5  C   UNL     1      -1.010  17.223  19.025  1.00  0.00     0.000 C 
BRANCH   5   6
ATOM      6  C   UNL     1      -1.727  18.148  18.025  1.00  0.00     0.006 C 
BRANCH   6   7
ATOM      7  C   UNL     1      -1.308  19.624  18.113  1.00  0.00     0.053 C 
BRANCH   7   8
ATOM      8  C   UNL     1      -0.084  19.809  18.957  1.00  0.00     0.041 C 
ATOM      9  O   UNL     1      -0.193  20.098  20.178  1.00  0.00    -0.550 OA
ATOM     10  O   UNL     1       1.178  19.694  18.387  1.00  0.00    -0.550 OA
ENDBRANCH   7   8
ENDBRANCH   6   7
ENDBRANCH   5   6
ENDBRANCH   4   5
ENDBRANCH   3   4
ENDBRANCH   2   3
ENDBRANCH   1   2
BRANCH   1  11
ATOM     11  C   UNL     1       3.068  13.910  15.946  1.00  0.00    -0.031 C 
ATOM     12  C   UNL     1       3.121  13.394  14.709  1.00  0.00    -0.027 C 
BRANCH  12  13
ATOM     13  C   UNL     1       4.311  12.603  14.241  1.00  0.00     0.054 C 
BRANCH  13  14
ATOM     14  C   UNL     1       5.477  12.796  15.169  1.00  0.00    -0.027 C 
ATOM     15  C   UNL     1       5.374  12.546  16.483  1.00  0.00    -0.031 C 
BRANCH  15  16
ATOM     16  C   UNL     1       6.524  12.779  17.421  1.00  0.00     0.027 C 
BRANCH  16  17
ATOM     17  C   UNL     1       6.170  12.326  18.843  1.00  0.00     0.004 C 
BRANCH  17  18
ATOM     18  C   UNL     1       4.721  12.694  19.193  1.00  0.00     0.000 C 
BRANCH  18  19
ATOM     19  C   UNL     1       3.872  11.466  19.555  1.00  0.00    -0.003 C 
ATOM     20  C   UNL     1       2.838  11.124  18.483  1.00  0.00     0.004 C 
ENDBRANCH  18  19
ENDBRANCH  17  18
ENDBRANCH  16  17
ENDBRANCH  15  16
ENDBRANCH  13  14
ENDBRANCH  12  13
ENDBRANCH   1  11
TORSDOF 14
ENDMDL
MODEL 5
REMARK VINA RESULT:    -3.406      3.079      7.908
REMARK INTER + INTRA:          -7.236
REMARK INTER:                  -6.212
REMARK INTRA:                  -1.024
REMARK UNBOUND:                -1.043
REMARK SMILES CCCCCC=CCC=CCCCCCCCC(=O)[O-]
REMARK SMILES IDX 11 1 12 2 13 3 14 4 15 5 16 6 17 7 18 8 19 9 20 10 10 11
REMARK SMILES IDX 9 12 8 13 7 14 6 15 5 16 4 17 3 18 2 19 1 20
REMARK H PARENT
REMARK Flexibility Score: inf
ROOT
ATOM      1  C   UNL     1       1.808  14.876  16.397  1.00  0.00     0.027 C 
ENDROOT
BRANCH   1   2
ATOM      2  C   UNL     1       1.925  15.238  17.886  1.00  0.00     0.004 C 
BRANCH   2   3
ATOM      3  C   UNL     1       1.209  16.551  18.235  1.00  0.00     0.000 C 
BRANCH   3   4
ATOM      4  C   UNL     1      -0.315  16.386  18.332  1.00  0.00     0.000 C 
BRANCH   4   5
ATOM      5  C   UNL     1      -0.933  17.492  19.200  1.00  0.00     0.000 C 
BRANCH   5   6
ATOM      6  C   UNL     1      -1.865  16.942  20.295  1.00  0.00     0.006 C 
BRANCH   6   7
ATOM      7  C   UNL     1      -2.106  15.426  20.219  1.00  0.00     0.053 C 
BRANCH   7   8
ATOM      8  C   UNL     1      -2.042  14.779  21.568  1.00  0.00     0.041 C 
ATOM      9  O   UNL     1      -2.125  15.480  22.612  1.00  0.00    -0.550 OA
ATOM     10  O   UNL     1      -1.858  13.407  21.674  1.00  0.00    -0.550 OA
ENDBRANCH   7   8
ENDBRANCH   6   7
ENDBRANCH   5   6
ENDBRANCH   4   5
ENDBRANCH   3   4
ENDBRANCH   2   3
ENDBRANCH   1   2
BRANCH   1  11
ATOM     11  C   UNL     1       2.902  13.930  15.987  1.00  0.00    -0.031 C 
ATOM     12  C   UNL     1       2.928  13.372  14.767  1.00  0.00    -0.027 C 
BRANCH  12  13
ATOM     13  C   UNL     1       4.006  12.401  14.373  1.00  0.00     0.054 C 
BRANCH  13  14
ATOM     14  C   UNL     1       4.992  12.217  15.492  1.00  0.00    -0.027 C 
ATOM     15  C   UNL     1       5.889  13.166  15.797  1.00  0.00    -0.031 C 
BRANCH  15  16
ATOM     16  C   UNL     1       6.906  12.967  16.885  1.00  0.00     0.027 C 
BRANCH  16  17
ATOM     17  C   UNL     1       6.336  12.098  18.013  1.00  0.00     0.004 C 
BRANCH  17  18
ATOM     18  C   UNL     1       5.134  12.782  18.680  1.00  0.00     0.000 C 
BRANCH  18  19
ATOM     19  C   UNL     1       4.228  11.788  19.424  1.00  0.00    -0.003 C 
ATOM     20  C   UNL     1       3.092  11.255  18.551  1.00  0.00     0.004 C 
ENDBRANCH  18  19
ENDBRANCH  17  18
ENDBRANCH  16  17
ENDBRANCH  15  16
ENDBRANCH  13  14
ENDBRANCH  12  13
ENDBRANCH   1  11
TORSDOF 14
ENDMDL
MODEL 6
REMARK VINA RESULT:    -3.319      3.376      8.057
REMARK INTER + INTRA:          -7.078
REMARK INTER:                  -6.409
REMARK INTRA:                  -0.669
REMARK UNBOUND:                -1.043
REMARK SMILES CCCCCC=CCC=CCCCCCCCC(=O)[O-]
REMARK SMILES IDX 11 1 12 2 13 3 14 4 15 5 16 6 17 7 18 8 19 9 20 10 10 11
REMARK SMILES IDX 9 12 8 13 7 14 6 15 5 16 4 17 3 18 2 19 1 20
REMARK H PARENT
REMARK Flexibility Score: inf
ROOT
ATOM      1  C   UNL     1       1.872  15.948  18.248  1.00  0.00     0.027 C 
ENDROOT
BRANCH   1   2
ATOM      2  C   UNL     1       0.519  16.298  17.609  1.00  0.00     0.004 C 
BRANCH   2   3
ATOM      3  C   UNL     1      -0.669  16.011  18.540  1.00  0.00     0.000 C 
BRANCH   3   4
ATOM      4  C   UNL     1      -1.196  17.275  19.234  1.00  0.00     0.000 C 
BRANCH   4   5
ATOM      5  C   UNL     1      -1.860  16.929  20.576  1.00  0.00     0.000 C 
BRANCH   5   6
ATOM      6  C   UNL     1      -2.020  15.413  20.790  1.00  0.00     0.006 C 
BRANCH   6   7
ATOM      7  C   UNL     1      -2.068  14.984  22.265  1.00  0.00     0.053 C 
BRANCH   7   8
ATOM      8  C   UNL     1      -2.089  13.493  22.414  1.00  0.00     0.041 C 
ATOM      9  O   UNL     1      -2.125  12.755  21.395  1.00  0.00    -0.550 OA
ATOM     10  O   UNL     1      -2.100  12.921  23.680  1.00  0.00    -0.550 OA
ENDBRANCH   7   8
ENDBRANCH   6   7
ENDBRANCH   5   6
ENDBRANCH   4   5
ENDBRANCH   3   4
ENDBRANCH   2   3
ENDBRANCH   1   2
BRANCH   1  11
ATOM     11  C   UNL     1       2.200  14.495  18.046  1.00  0.00    -0.031 C 
ATOM     12  C   UNL     1       2.689  13.740  19.041  1.00  0.00    -0.027 C 
BRANCH  12  13
ATOM     13  C   UNL     1       3.047  12.295  18.825  1.00  0.00     0.054 C 
BRANCH  13  14
ATOM     14  C   UNL     1       4.308  12.174  18.017  1.00  0.00    -0.027 C 
ATOM     15  C   UNL     1       4.638  13.089  17.092  1.00  0.00    -0.031 C 
BRANCH  15  16
ATOM     16  C   UNL     1       5.875  12.947  16.252  1.00  0.00     0.027 C 
BRANCH  16  17
ATOM     17  C   UNL     1       5.514  12.769  14.772  1.00  0.00     0.004 C 
BRANCH  17  18
ATOM     18  C   UNL     1       4.359  11.770  14.604  1.00  0.00     0.000 C 
BRANCH  18  19
ATOM     19  C   UNL     1       3.309  12.248  13.590  1.00  0.00    -0.003 C 
ATOM     20  C   UNL     1       2.272  13.185  14.209  1.00  0.00     0.004 C 
ENDBRANCH  18  19
ENDBRANCH  17  18
ENDBRANCH  16  17
ENDBRANCH  15  16
ENDBRANCH  13  14
ENDBRANCH  12  13
ENDBRANCH   1  11
TORSDOF 14
ENDMDL
MODEL 7
REMARK VINA RESULT:    -3.292      1.405      2.367
REMARK INTER + INTRA:          -7.029
REMARK INTER:                  -5.781
REMARK INTRA:                  -1.248
REMARK UNBOUND:                -1.043
REMARK SMILES CCCCCC=CCC=CCCCCCCCC(=O)[O-]
REMARK SMILES IDX 11 1 12 2 13 3 14 4 15 5 16 6 17 7 18 8 19 9 20 10 10 11
REMARK SMILES IDX 9 12 8 13 7 14 6 15 5 16 4 17 3 18 2 19 1 20
REMARK H PARENT
REMARK Flexibility Score: inf
ROOT
ATOM      1  C   UNL     1       3.359  12.017  18.634  1.00  0.00     0.027 C 
ENDROOT
BRANCH   1   2
ATOM      2  C   UNL     1       4.479  12.492  19.572  1.00  0.00     0.004 C 
BRANCH   2   3
ATOM      3  C   UNL     1       5.872  12.041  19.108  1.00  0.00     0.000 C 
BRANCH   3   4
ATOM      4  C   UNL     1       6.485  12.990  18.066  1.00  0.00     0.000 C 
BRANCH   4   5
ATOM      5  C   UNL     1       6.322  12.426  16.647  1.00  0.00     0.000 C 
BRANCH   5   6
ATOM      6  C   UNL     1       5.429  13.306  15.753  1.00  0.00     0.006 C 
BRANCH   6   7
ATOM      7  C   UNL     1       5.412  12.893  14.273  1.00  0.00     0.053 C 
BRANCH   7   8
ATOM      8  C   UNL     1       4.243  12.014  13.950  1.00  0.00     0.041 C 
ATOM      9  O   UNL     1       4.388  11.019  13.191  1.00  0.00    -0.550 OA
ATOM     10  O   UNL     1       2.986  12.311  14.461  1.00  0.00    -0.550 OA
ENDBRANCH   7   8
ENDBRANCH   6   7
ENDBRANCH   5   6
ENDBRANCH   4   5
ENDBRANCH   3   4
ENDBRANCH   2   3
ENDBRANCH   1   2
BRANCH   1  11
ATOM     11  C   UNL     1       2.809  13.164  17.832  1.00  0.00    -0.031 C 
ATOM     12  C   UNL     1       2.386  14.293  18.419  1.00  0.00    -0.027 C 
BRANCH  12  13
ATOM     13  C   UNL     1       1.806  15.424  17.616  1.00  0.00     0.054 C 
BRANCH  13  14
ATOM     14  C   UNL     1       0.395  15.713  18.045  1.00  0.00    -0.027 C 
ATOM     15  C   UNL     1       0.014  16.947  18.409  1.00  0.00    -0.031 C 
BRANCH  15  16
ATOM     16  C   UNL     1      -1.385  17.231  18.881  1.00  0.00     0.027 C 
BRANCH  16  17
ATOM     17  C   UNL     1      -1.383  17.714  20.336  1.00  0.00     0.004 C 
BRANCH  17  18
ATOM     18  C   UNL     1      -2.110  16.716  21.248  1.00  0.00     0.000 C 
BRANCH  18  19
ATOM     19  C   UNL     1      -2.124  15.292  20.671  1.00  0.00    -0.003 C 
ATOM     20  C   UNL     1      -1.278  14.314  21.486  1.00  0.00     0.004 C 
ENDBRANCH  18  19
ENDBRANCH  17  18
ENDBRANCH  16  17
ENDBRANCH  15  16
ENDBRANCH  13  14
ENDBRANCH  12  13
ENDBRANCH   1  11
TORSDOF 14
ENDMDL
MODEL 8
REMARK VINA RESULT:    -3.223      2.687      7.491
REMARK INTER + INTRA:          -6.904
REMARK INTER:                  -6.042
REMARK INTRA:                  -0.862
REMARK UNBOUND:                -1.043
REMARK SMILES CCCCCC=CCC=CCCCCCCCC(=O)[O-]
REMARK SMILES IDX 11 1 12 2 13 3 14 4 15 5 16 6 17 7 18 8 19 9 20 10 10 11
REMARK SMILES IDX 9 12 8 13 7 14 6 15 5 16 4 17 3 18 2 19 1 20
REMARK H PARENT
REMARK Flexibility Score: inf
ROOT
ATOM      1  C   UNL     1       2.536  12.763  18.762  1.00  0.00     0.027 C 
ENDROOT
BRANCH   1   2
ATOM      2  C   UNL     1       2.413  14.103  18.021  1.00  0.00     0.004 C 
BRANCH   2   3
ATOM      3  C   UNL     1       1.675  15.170  18.844  1.00  0.00     0.000 C 
BRANCH   3   4
ATOM      4  C   UNL     1       0.775  16.067  17.979  1.00  0.00     0.000 C 
BRANCH   4   5
ATOM      5  C   UNL     1      -0.653  16.118  18.542  1.00  0.00     0.000 C 
BRANCH   5   6
ATOM      6  C   UNL     1      -1.026  17.502  19.101  1.00  0.00     0.006 C 
BRANCH   6   7
ATOM      7  C   UNL     1      -0.626  18.680  18.198  1.00  0.00     0.053 C 
BRANCH   7   8
ATOM      8  C   UNL     1       0.359  19.589  18.866  1.00  0.00     0.041 C 
ATOM      9  O   UNL     1       1.458  19.851  18.310  1.00  0.00    -0.550 OA
ATOM     10  O   UNL     1       0.076  20.122  20.117  1.00  0.00    -0.550 OA
ENDBRANCH   7   8
ENDBRANCH   6   7
ENDBRANCH   5   6
ENDBRANCH   4   5
ENDBRANCH   3   4
ENDBRANCH   2   3
ENDBRANCH   1   2
BRANCH   1  11
ATOM     11  C   UNL     1       3.914  12.184  18.597  1.00  0.00    -0.031 C 
ATOM     12  C   UNL     1       4.985  12.741  19.183  1.00  0.00    -0.027 C 
BRANCH  12  13
ATOM     13  C   UNL     1       6.365  12.178  18.988  1.00  0.00     0.054 C 
BRANCH  13  14
ATOM     14  C   UNL     1       6.879  12.492  17.612  1.00  0.00    -0.027 C 
ATOM     15  C   UNL     1       6.048  12.838  16.617  1.00  0.00    -0.031 C 
BRANCH  15  16
ATOM     16  C   UNL     1       6.553  13.108  15.228  1.00  0.00     0.027 C 
BRANCH  16  17
ATOM     17  C   UNL     1       5.440  12.908  14.192  1.00  0.00     0.004 C 
BRANCH  17  18
ATOM     18  C   UNL     1       4.313  12.032  14.758  1.00  0.00     0.000 C 
BRANCH  18  19
ATOM     19  C   UNL     1       2.926  12.454  14.251  1.00  0.00    -0.003 C 
ATOM     20  C   UNL     1       2.482  13.810  14.800  1.00  0.00     0.004 C 
ENDBRANCH  18  19
ENDBRANCH  17  18
ENDBRANCH  16  17
ENDBRANCH  15  16
ENDBRANCH  13  14
ENDBRANCH  12  13
ENDBRANCH   1  11
TORSDOF 14
ENDMDL
