MODEL 1
REMARK VINA RESULT:    -5.322      0.000      0.000
REMARK INTER + INTRA:          -6.015
REMARK INTER:                  -5.944
REMARK INTRA:                  -0.070
REMARK UNBOUND:                -0.070
REMARK SMILES COc1ccc(C(=O)[O-])cc1
REMARK SMILES IDX 6 1 5 2 10 3 4 4 11 5 3 6 7 7 8 8 9 9 2 10 1 11
REMARK H PARENT
REMARK Flexibility Score: inf
ROOT
ATOM      1  C   UNL     1      46.192   8.862  -9.553  1.00  0.00    -0.003 A 
ATOM      2  C   UNL     1      45.762  10.163  -9.249  1.00  0.00     0.014 A 
ATOM      3  C   UNL     1      46.425   8.517 -10.896  1.00  0.00     0.014 A 
ATOM      4  C   UNL     1      45.568  11.103 -10.268  1.00  0.00     0.047 A 
ATOM      5  C   UNL     1      46.230   9.457 -11.913  1.00  0.00     0.047 A 
ATOM      6  C   UNL     1      45.802  10.754 -11.610  1.00  0.00     0.118 A 
ENDROOT
BRANCH   1   7
ATOM      7  C   UNL     1      46.397   7.871  -8.473  1.00  0.00     0.071 C 
ATOM      8  O   UNL     1      46.250   8.199  -7.266  1.00  0.00    -0.545 OA
ATOM      9  O   UNL     1      46.753   6.562  -8.777  1.00  0.00    -0.545 OA
ENDBRANCH   1   7
BRANCH   6  10
ATOM     10  O   UNL     1      45.622  11.659 -12.667  1.00  0.00    -0.497 OA
ATOM     11  C   UNL     1      45.536  11.286 -14.038  1.00  0.00     0.278 C 
ENDBRANCH   6  10
TORSDOF 2
ENDMDL
MODEL 2
REMARK VINA RESULT:    -5.312      1.831      2.561
REMARK INTER + INTRA:          -6.003
REMARK INTER:                  -5.943
REMARK INTRA:                  -0.060
REMARK UNBOUND:                -0.070
REMARK SMILES COc1ccc(C(=O)[O-])cc1
REMARK SMILES IDX 6 1 5 2 10 3 4 4 11 5 3 6 7 7 8 8 9 9 2 10 1 11
REMARK H PARENT
REMARK Flexibility Score: inf
ROOT
ATOM      1  C   UNL     1      46.904  11.095  -9.371  1.00  0.00    -0.003 A 
ATOM      2  C   UNL     1      47.659  12.035 -10.091  1.00  0.00     0.014 A 
ATOM      3  C   UNL     1      45.794  10.494  -9.990  1.00  0.00     0.014 A 
ATOM      4  C   UNL     1      47.312  12.368 -11.404  1.00  0.00     0.047 A 
ATOM      5  C   UNL     1      45.448  10.829 -11.303  1.00  0.00     0.047 A 
ATOM      6  C   UNL     1      46.200  11.765 -12.021  1.00  0.00     0.118 A 
ENDROOT
BRANCH   1   7
ATOM      7  C   UNL     1      47.275  10.744  -7.982  1.00  0.00     0.071 C 
ATOM      8  O   UNL     1      47.318   9.540  -7.614  1.00  0.00    -0.545 OA
ATOM      9  O   UNL     1      47.581  11.741  -7.062  1.00  0.00    -0.545 OA
ENDBRANCH   1   7
BRANCH   6  10
ATOM     10  O   UNL     1      45.812  12.065 -13.334  1.00  0.00    -0.497 OA
ATOM     11  C   UNL     1      45.502  11.088 -14.323  1.00  0.00     0.278 C 
ENDBRANCH   6  10
TORSDOF 2
ENDMDL
MODEL 3
REMARK VINA RESULT:    -5.208      8.577      9.797
REMARK INTER + INTRA:          -5.887
REMARK INTER:                  -5.819
REMARK INTRA:                  -0.068
REMARK UNBOUND:                -0.070
REMARK SMILES COc1ccc(C(=O)[O-])cc1
REMARK SMILES IDX 6 1 5 2 10 3 4 4 11 5 3 6 7 7 8 8 9 9 2 10 1 11
REMARK H PARENT
REMARK Flexibility Score: inf
ROOT
ATOM      1  C   UNL     1      42.856  15.491  -5.314  1.00  0.00    -0.003 A 
ATOM      2  C   UNL     1      41.596  16.105  -5.378  1.00  0.00     0.014 A 
ATOM      3  C   UNL     1      43.979  16.270  -4.982  1.00  0.00     0.014 A 
ATOM      4  C   UNL     1      41.458  17.472  -5.115  1.00  0.00     0.047 A 
ATOM      5  C   UNL     1      43.840  17.636  -4.720  1.00  0.00     0.047 A 
ATOM      6  C   UNL     1      42.583  18.249  -4.784  1.00  0.00     0.118 A 
ENDROOT
BRANCH   1   7
ATOM      7  C   UNL     1      42.998  14.044  -5.592  1.00  0.00     0.071 C 
ATOM      8  O   UNL     1      43.860  13.356  -4.984  1.00  0.00    -0.545 OA
ATOM      9  O   UNL     1      42.179  13.424  -6.529  1.00  0.00    -0.545 OA
ENDBRANCH   1   7
BRANCH   6  10
ATOM     10  O   UNL     1      42.498  19.622  -4.512  1.00  0.00    -0.497 OA
ATOM     11  C   UNL     1      43.615  20.452  -4.211  1.00  0.00     0.278 C 
ENDBRANCH   6  10
TORSDOF 2
ENDMDL
MODEL 4
REMARK VINA RESULT:    -5.190      8.715      9.861
REMARK INTER + INTRA:          -5.867
REMARK INTER:                  -5.807
REMARK INTRA:                  -0.061
REMARK UNBOUND:                -0.070
REMARK SMILES COc1ccc(C(=O)[O-])cc1
REMARK SMILES IDX 6 1 5 2 10 3 4 4 11 5 3 6 7 7 8 8 9 9 2 10 1 11
REMARK H PARENT
REMARK Flexibility Score: inf
ROOT
ATOM      1  C   UNL     1      42.325  15.800  -5.023  1.00  0.00    -0.003 A 
ATOM      2  C   UNL     1      42.558  17.176  -4.862  1.00  0.00     0.014 A 
ATOM      3  C   UNL     1      41.240  15.380  -5.812  1.00  0.00     0.014 A 
ATOM      4  C   UNL     1      41.723  18.113  -5.478  1.00  0.00     0.047 A 
ATOM      5  C   UNL     1      40.406  16.320  -6.427  1.00  0.00     0.047 A 
ATOM      6  C   UNL     1      40.638  17.690  -6.266  1.00  0.00     0.118 A 
ENDROOT
BRANCH   1   7
ATOM      7  C   UNL     1      43.211  14.810  -4.370  1.00  0.00     0.071 C 
ATOM      8  O   UNL     1      43.698  13.853  -5.029  1.00  0.00    -0.545 OA
ATOM      9  O   UNL     1      43.518  14.924  -3.019  1.00  0.00    -0.545 OA
ENDBRANCH   1   7
BRANCH   6  10
ATOM     10  O   UNL     1      39.773  18.591  -6.904  1.00  0.00    -0.497 OA
ATOM     11  C   UNL     1      39.935  20.006  -6.892  1.00  0.00     0.278 C 
ENDBRANCH   6  10
TORSDOF 2
ENDMDL
MODEL 5
REMARK VINA RESULT:    -5.127      9.156     10.071
REMARK INTER + INTRA:          -5.797
REMARK INTER:                  -5.741
REMARK INTRA:                  -0.056
REMARK UNBOUND:                -0.070
REMARK SMILES COc1ccc(C(=O)[O-])cc1
REMARK SMILES IDX 6 1 5 2 10 3 4 4 11 5 3 6 7 7 8 8 9 9 2 10 1 11
REMARK H PARENT
REMARK Flexibility Score: inf
ROOT
ATOM      1  C   UNL     1      42.878  16.563  -4.737  1.00  0.00    -0.003 A 
ATOM      2  C   UNL     1      42.612  15.273  -5.225  1.00  0.00     0.014 A 
ATOM      3  C   UNL     1      41.871  17.540  -4.810  1.00  0.00     0.014 A 
ATOM      4  C   UNL     1      41.362  14.966  -5.774  1.00  0.00     0.047 A 
ATOM      5  C   UNL     1      40.623  17.232  -5.360  1.00  0.00     0.047 A 
ATOM      6  C   UNL     1      40.357  15.947  -5.845  1.00  0.00     0.118 A 
ENDROOT
BRANCH   1   7
ATOM      7  C   UNL     1      44.201  16.884  -4.157  1.00  0.00     0.071 C 
ATOM      8  O   UNL     1      45.159  17.232  -4.897  1.00  0.00    -0.545 OA
ATOM      9  O   UNL     1      44.405  16.807  -2.784  1.00  0.00    -0.545 OA
ENDBRANCH   1   7
BRANCH   6  10
ATOM     10  O   UNL     1      39.089  15.689  -6.387  1.00  0.00    -0.497 OA
ATOM     11  C   UNL     1      38.522  14.389  -6.521  1.00  0.00     0.278 C 
ENDBRANCH   6  10
TORSDOF 2
ENDMDL
MODEL 6
REMARK VINA RESULT:    -5.113      8.951     10.244
REMARK INTER + INTRA:          -5.781
REMARK INTER:                  -5.716
REMARK INTRA:                  -0.066
REMARK UNBOUND:                -0.070
REMARK SMILES COc1ccc(C(=O)[O-])cc1
REMARK SMILES IDX 6 1 5 2 10 3 4 4 11 5 3 6 7 7 8 8 9 9 2 10 1 11
REMARK H PARENT
REMARK Flexibility Score: inf
ROOT
ATOM      1  C   UNL     1      41.605  15.707  -5.611  1.00  0.00    -0.003 A 
ATOM      2  C   UNL     1      42.798  15.474  -4.908  1.00  0.00     0.014 A 
ATOM      3  C   UNL     1      41.143  17.028  -5.753  1.00  0.00     0.014 A 
ATOM      4  C   UNL     1      43.516  16.540  -4.357  1.00  0.00     0.047 A 
ATOM      5  C   UNL     1      41.863  18.092  -5.200  1.00  0.00     0.047 A 
ATOM      6  C   UNL     1      43.052  17.860  -4.500  1.00  0.00     0.118 A 
ENDROOT
BRANCH   1   7
ATOM      7  C   UNL     1      40.847  14.577  -6.194  1.00  0.00     0.071 C 
ATOM      8  O   UNL     1      41.438  13.680  -6.852  1.00  0.00    -0.545 OA
ATOM      9  O   UNL     1      39.471  14.489  -6.021  1.00  0.00    -0.545 OA
ENDBRANCH   1   7
BRANCH   6  10
ATOM     10  O   UNL     1      43.736  18.962  -3.966  1.00  0.00    -0.497 OA
ATOM     11  C   UNL     1      43.416  20.320  -4.251  1.00  0.00     0.278 C 
ENDBRANCH   6  10
TORSDOF 2
ENDMDL
MODEL 7
REMARK VINA RESULT:    -5.109      9.399     10.604
REMARK INTER + INTRA:          -5.777
REMARK INTER:                  -5.713
REMARK INTRA:                  -0.064
REMARK UNBOUND:                -0.070
REMARK SMILES COc1ccc(C(=O)[O-])cc1
REMARK SMILES IDX 6 1 5 2 10 3 4 4 11 5 3 6 7 7 8 8 9 9 2 10 1 11
REMARK H PARENT
REMARK Flexibility Score: inf
ROOT
ATOM      1  C   UNL     1      41.495  16.904  -5.360  1.00  0.00    -0.003 A 
ATOM      2  C   UNL     1      41.601  15.555  -5.732  1.00  0.00     0.014 A 
ATOM      3  C   UNL     1      40.229  17.516  -5.368  1.00  0.00     0.014 A 
ATOM      4  C   UNL     1      40.464  14.830  -6.105  1.00  0.00     0.047 A 
ATOM      5  C   UNL     1      39.094  16.791  -5.742  1.00  0.00     0.047 A 
ATOM      6  C   UNL     1      39.199  15.446  -6.113  1.00  0.00     0.118 A 
ENDROOT
BRANCH   1   7
ATOM      7  C   UNL     1      42.699  17.668  -4.965  1.00  0.00     0.071 C 
ATOM      8  O   UNL     1      43.842  17.308  -5.353  1.00  0.00    -0.545 OA
ATOM      9  O   UNL     1      42.586  18.795  -4.160  1.00  0.00    -0.545 OA
ENDBRANCH   1   7
BRANCH   6  10
ATOM     10  O   UNL     1      38.030  14.762  -6.479  1.00  0.00    -0.497 OA
ATOM     11  C   UNL     1      37.896  13.345  -6.481  1.00  0.00     0.278 C 
ENDBRANCH   6  10
TORSDOF 2
ENDMDL
MODEL 8
REMARK VINA RESULT:    -5.044      1.067      4.989
REMARK INTER + INTRA:          -5.704
REMARK INTER:                  -5.638
REMARK INTRA:                  -0.066
REMARK UNBOUND:                -0.070
REMARK SMILES COc1ccc(C(=O)[O-])cc1
REMARK SMILES IDX 6 1 5 2 10 3 4 4 11 5 3 6 7 7 8 8 9 9 2 10 1 11
REMARK H PARENT
REMARK Flexibility Score: inf
ROOT
ATOM      1  C   UNL     1      45.831  10.404 -11.913  1.00  0.00    -0.003 A 
ATOM      2  C   UNL     1      46.006   9.028 -11.694  1.00  0.00     0.014 A 
ATOM      3  C   UNL     1      45.863  11.279 -10.813  1.00  0.00     0.014 A 
ATOM      4  C   UNL     1      46.211   8.537 -10.400  1.00  0.00     0.047 A 
ATOM      5  C   UNL     1      46.066  10.786  -9.521  1.00  0.00     0.047 A 
ATOM      6  C   UNL     1      46.242   9.415  -9.302  1.00  0.00     0.118 A 
ENDROOT
BRANCH   1   7
ATOM      7  C   UNL     1      45.615  10.922 -13.283  1.00  0.00     0.071 C 
ATOM      8  O   UNL     1      45.460  10.130 -14.250  1.00  0.00    -0.545 OA
ATOM      9  O   UNL     1      45.579  12.291 -13.521  1.00  0.00    -0.545 OA
ENDBRANCH   1   7
BRANCH   6  10
ATOM     10  O   UNL     1      46.443   8.971  -7.987  1.00  0.00    -0.497 OA
ATOM     11  C   UNL     1      46.377   7.608  -7.581  1.00  0.00     0.278 C 
ENDBRANCH   6  10
TORSDOF 2
ENDMDL
MODEL 9
REMARK VINA RESULT:    -5.027      8.960      9.946
REMARK INTER + INTRA:          -5.685
REMARK INTER:                  -5.625
REMARK INTRA:                  -0.060
REMARK UNBOUND:                -0.070
REMARK SMILES COc1ccc(C(=O)[O-])cc1
REMARK SMILES IDX 6 1 5 2 10 3 4 4 11 5 3 6 7 7 8 8 9 9 2 10 1 11
REMARK H PARENT
REMARK Flexibility Score: inf
ROOT
ATOM      1  C   UNL     1      40.862  15.724  -5.598  1.00  0.00    -0.003 A 
ATOM      2  C   UNL     1      41.925  14.818  -5.452  1.00  0.00     0.014 A 
ATOM      3  C   UNL     1      41.119  17.100  -5.474  1.00  0.00     0.014 A 
ATOM      4  C   UNL     1      43.219  15.278  -5.188  1.00  0.00     0.047 A 
ATOM      5  C   UNL     1      42.413  17.559  -5.210  1.00  0.00     0.047 A 
ATOM      6  C   UNL     1      43.472  16.656  -5.065  1.00  0.00     0.118 A 
ENDROOT
BRANCH   1   7
ATOM      7  C   UNL     1      39.494  15.233  -5.878  1.00  0.00     0.071 C 
ATOM      8  O   UNL     1      39.251  13.998  -5.911  1.00  0.00    -0.545 OA
ATOM      9  O   UNL     1      38.458  16.130  -6.107  1.00  0.00    -0.545 OA
ENDBRANCH   1   7
BRANCH   6  10
ATOM     10  O   UNL     1      44.751  17.167  -4.801  1.00  0.00    -0.497 OA
ATOM     11  C   UNL     1      45.779  17.302  -5.777  1.00  0.00     0.278 C 
ENDBRANCH   6  10
TORSDOF 2
ENDMDL
