MODEL 1
REMARK VINA RESULT:    -3.223      0.000      0.000
REMARK INTER + INTRA:          -4.836
REMARK INTER:                  -4.353
REMARK INTRA:                  -0.483
REMARK UNBOUND:                -0.483
REMARK SMILES O=C[C@@H](O)[C@H](O)[C@H](O)CO
REMARK SMILES IDX 7 1 9 2 10 3 5 5 3 6 2 7 1 8 4 9 6 11 8 13
REMARK H PARENT 10 4 4 10 6 12 8 14
REMARK Flexibility Score: inf
ROOT
ATOM      1  C   UNL     1       2.178  -9.214 -34.173  1.00  0.00     0.171 C 
ENDROOT
BRANCH   1   2
ATOM      2  C   UNL     1       1.926 -10.733 -34.239  1.00  0.00     0.190 C 
BRANCH   2   3
ATOM      3  O   UNL     1       1.069 -11.039 -35.306  1.00  0.00    -0.394 OA
ATOM      4  H   UNL     1       0.394 -10.313 -35.350  1.00  0.00     0.210 HD
ENDBRANCH   2   3
ENDBRANCH   1   2
BRANCH   1   5
ATOM      5  C   UNL     1       3.148  -8.728 -35.282  1.00  0.00     0.181 C 
BRANCH   5   6
ATOM      6  C   UNL     1       4.617  -8.546 -34.815  1.00  0.00     0.209 C 
BRANCH   6   7
ATOM      7  C   UNL     1       5.541  -8.455 -36.001  1.00  0.00     0.258 C 
ATOM      8  O   UNL     1       5.152  -8.775 -37.113  1.00  0.00    -0.300 OA
ENDBRANCH   6   7
BRANCH   6   9
ATOM      9  O   UNL     1       4.741  -7.386 -34.034  1.00  0.00    -0.383 OA
ATOM     10  H   UNL     1       5.315  -7.620 -33.258  1.00  0.00     0.211 HD
ENDBRANCH   6   9
ENDBRANCH   5   6
BRANCH   5  11
ATOM     11  O   UNL     1       2.658  -7.549 -35.875  1.00  0.00    -0.387 OA
ATOM     12  H   UNL     1       1.733  -7.728 -36.187  1.00  0.00     0.211 HD
ENDBRANCH   5  11
ENDBRANCH   1   5
BRANCH   1  13
ATOM     13  O   UNL     1       2.669  -8.863 -32.904  1.00  0.00    -0.388 OA
ATOM     14  H   UNL     1       3.433  -8.246 -33.048  1.00  0.00     0.211 HD
ENDBRANCH   1  13
TORSDOF 8
ENDMDL
MODEL 2
REMARK VINA RESULT:    -3.200      1.343      4.325
REMARK INTER + INTRA:          -4.806
REMARK INTER:                  -4.094
REMARK INTRA:                  -0.712
REMARK UNBOUND:                -0.483
REMARK SMILES O=C[C@@H](O)[C@H](O)[C@H](O)CO
REMARK SMILES IDX 7 1 9 2 10 3 5 5 3 6 2 7 1 8 4 9 6 11 8 13
REMARK H PARENT 10 4 4 10 6 12 8 14
REMARK Flexibility Score: inf
ROOT
ATOM      1  C   UNL     1       5.304  -8.246 -36.312  1.00  0.00     0.171 C 
ENDROOT
BRANCH   1   2
ATOM      2  C   UNL     1       6.771  -7.784 -36.384  1.00  0.00     0.190 C 
BRANCH   2   3
ATOM      3  O   UNL     1       7.472  -8.209 -35.246  1.00  0.00    -0.394 OA
ATOM      4  H   UNL     1       8.377  -7.804 -35.298  1.00  0.00     0.210 HD
ENDBRANCH   2   3
ENDBRANCH   1   2
BRANCH   1   5
ATOM      5  C   UNL     1       4.850  -8.544 -34.858  1.00  0.00     0.181 C 
BRANCH   5   6
ATOM      6  C   UNL     1       3.437  -9.174 -34.743  1.00  0.00     0.209 C 
BRANCH   6   7
ATOM      7  C   UNL     1       2.843  -8.895 -33.387  1.00  0.00     0.258 C 
ATOM      8  O   UNL     1       2.141  -7.912 -33.211  1.00  0.00    -0.300 OA
ENDBRANCH   6   7
BRANCH   6   9
ATOM      9  O   UNL     1       2.590  -8.660 -35.739  1.00  0.00    -0.383 OA
ATOM     10  H   UNL     1       3.049  -7.872 -36.130  1.00  0.00     0.211 HD
ENDBRANCH   6   9
ENDBRANCH   5   6
BRANCH   5  11
ATOM     11  O   UNL     1       4.950  -7.382 -34.069  1.00  0.00    -0.387 OA
ATOM     12  H   UNL     1       5.824  -7.407 -33.601  1.00  0.00     0.211 HD
ENDBRANCH   5  11
ENDBRANCH   1   5
BRANCH   1  13
ATOM     13  O   UNL     1       5.114  -9.376 -37.125  1.00  0.00    -0.388 OA
ATOM     14  H   UNL     1       4.284  -9.226 -37.646  1.00  0.00     0.211 HD
ENDBRANCH   1  13
TORSDOF 8
ENDMDL
MODEL 3
REMARK VINA RESULT:    -3.141     15.420     16.881
REMARK INTER + INTRA:          -4.726
REMARK INTER:                  -3.738
REMARK INTRA:                  -0.988
REMARK UNBOUND:                -0.483
REMARK SMILES O=C[C@@H](O)[C@H](O)[C@H](O)CO
REMARK SMILES IDX 7 1 9 2 10 3 5 5 3 6 2 7 1 8 4 9 6 11 8 13
REMARK H PARENT 10 4 4 10 6 12 8 14
REMARK Flexibility Score: inf
ROOT
ATOM      1  C   UNL     1       5.214  -4.079 -18.338  1.00  0.00     0.171 C 
ENDROOT
BRANCH   1   2
ATOM      2  C   UNL     1       5.184  -2.913 -19.345  1.00  0.00     0.190 C 
BRANCH   2   3
ATOM      3  O   UNL     1       4.865  -3.385 -20.627  1.00  0.00    -0.394 OA
ATOM      4  H   UNL     1       3.879  -3.319 -20.720  1.00  0.00     0.210 HD
ENDBRANCH   2   3
ENDBRANCH   1   2
BRANCH   1   5
ATOM      5  C   UNL     1       3.794  -4.617 -18.016  1.00  0.00     0.181 C 
BRANCH   5   6
ATOM      6  C   UNL     1       3.414  -5.918 -18.771  1.00  0.00     0.209 C 
BRANCH   6   7
ATOM      7  C   UNL     1       2.231  -5.681 -19.671  1.00  0.00     0.258 C 
ATOM      8  O   UNL     1       2.356  -5.026 -20.694  1.00  0.00    -0.300 OA
ENDBRANCH   6   7
BRANCH   6   9
ATOM      9  O   UNL     1       4.501  -6.375 -19.535  1.00  0.00    -0.383 OA
ATOM     10  H   UNL     1       5.276  -5.796 -19.310  1.00  0.00     0.211 HD
ENDBRANCH   6   9
ENDBRANCH   5   6
BRANCH   5  11
ATOM     11  O   UNL     1       2.833  -3.611 -18.231  1.00  0.00    -0.387 OA
ATOM     12  H   UNL     1       2.155  -3.679 -17.510  1.00  0.00     0.211 HD
ENDBRANCH   5  11
ENDBRANCH   1   5
BRANCH   1  13
ATOM     13  O   UNL     1       5.865  -3.679 -17.159  1.00  0.00    -0.388 OA
ATOM     14  H   UNL     1       6.821  -3.543 -17.384  1.00  0.00     0.211 HD
ENDBRANCH   1  13
TORSDOF 8
ENDMDL
MODEL 4
REMARK VINA RESULT:    -3.121     14.211     15.566
REMARK INTER + INTRA:          -4.699
REMARK INTER:                  -4.031
REMARK INTRA:                  -0.668
REMARK UNBOUND:                -0.483
REMARK SMILES O=C[C@@H](O)[C@H](O)[C@H](O)CO
REMARK SMILES IDX 7 1 9 2 10 3 5 5 3 6 2 7 1 8 4 9 6 11 8 13
REMARK H PARENT 10 4 4 10 6 12 8 14
REMARK Flexibility Score: inf
ROOT
ATOM      1  C   UNL     1       4.547  -5.213 -18.847  1.00  0.00     0.171 C 
ENDROOT
BRANCH   1   2
ATOM      2  C   UNL     1       4.663  -3.771 -18.319  1.00  0.00     0.190 C 
BRANCH   2   3
ATOM      3  O   UNL     1       5.886  -3.206 -18.710  1.00  0.00    -0.394 OA
ATOM      4  H   UNL     1       6.516  -3.958 -18.859  1.00  0.00     0.210 HD
ENDBRANCH   2   3
ENDBRANCH   1   2
BRANCH   1   5
ATOM      5  C   UNL     1       4.564  -5.277 -20.398  1.00  0.00     0.181 C 
BRANCH   5   6
ATOM      6  C   UNL     1       4.166  -6.655 -20.988  1.00  0.00     0.209 C 
BRANCH   6   7
ATOM      7  C   UNL     1       4.828  -6.869 -22.323  1.00  0.00     0.258 C 
ATOM      8  O   UNL     1       5.916  -7.419 -22.392  1.00  0.00    -0.300 OA
ENDBRANCH   6   7
BRANCH   6   9
ATOM      9  O   UNL     1       4.536  -7.688 -20.111  1.00  0.00    -0.383 OA
ATOM     10  H   UNL     1       3.945  -8.461 -20.310  1.00  0.00     0.211 HD
ENDBRANCH   6   9
ENDBRANCH   5   6
BRANCH   5  11
ATOM     11  O   UNL     1       5.817  -4.861 -20.887  1.00  0.00    -0.387 OA
ATOM     12  H   UNL     1       5.707  -4.631 -21.846  1.00  0.00     0.211 HD
ENDBRANCH   5  11
ENDBRANCH   1   5
BRANCH   1  13
ATOM     13  O   UNL     1       3.381  -5.817 -18.345  1.00  0.00    -0.388 OA
ATOM     14  H   UNL     1       3.413  -5.738 -17.357  1.00  0.00     0.211 HD
ENDBRANCH   1  13
TORSDOF 8
ENDMDL
MODEL 5
REMARK VINA RESULT:    -3.058      1.995      3.226
REMARK INTER + INTRA:          -4.613
REMARK INTER:                  -3.618
REMARK INTRA:                  -0.995
REMARK UNBOUND:                -0.483
REMARK SMILES O=C[C@@H](O)[C@H](O)[C@H](O)CO
REMARK SMILES IDX 7 1 9 2 10 3 5 5 3 6 2 7 1 8 4 9 6 11 8 13
REMARK H PARENT 10 4 4 10 6 12 8 14
REMARK Flexibility Score: inf
ROOT
ATOM      1  C   UNL     1       4.834  -9.215 -35.258  1.00  0.00     0.171 C 
ENDROOT
BRANCH   1   2
ATOM      2  C   UNL     1       3.910  -8.335 -34.396  1.00  0.00     0.190 C 
BRANCH   2   3
ATOM      3  O   UNL     1       4.639  -7.286 -33.815  1.00  0.00    -0.394 OA
ATOM      4  H   UNL     1       4.276  -7.156 -32.901  1.00  0.00     0.210 HD
ENDBRANCH   2   3
ENDBRANCH   1   2
BRANCH   1   5
ATOM      5  C   UNL     1       5.322  -8.482 -36.536  1.00  0.00     0.181 C 
BRANCH   5   6
ATOM      6  C   UNL     1       6.738  -7.858 -36.417  1.00  0.00     0.209 C 
BRANCH   6   7
ATOM      7  C   UNL     1       6.674  -6.364 -36.596  1.00  0.00     0.258 C 
ATOM      8  O   UNL     1       6.189  -5.659 -35.725  1.00  0.00    -0.300 OA
ENDBRANCH   6   7
BRANCH   6   9
ATOM      9  O   UNL     1       7.300  -8.157 -35.165  1.00  0.00    -0.383 OA
ATOM     10  H   UNL     1       6.615  -8.662 -34.654  1.00  0.00     0.211 HD
ENDBRANCH   6   9
ENDBRANCH   5   6
BRANCH   5  11
ATOM     11  O   UNL     1       4.378  -7.516 -36.934  1.00  0.00    -0.387 OA
ATOM     12  H   UNL     1       4.536  -6.697 -36.397  1.00  0.00     0.211 HD
ENDBRANCH   5  11
ENDBRANCH   1   5
BRANCH   1  13
ATOM     13  O   UNL     1       4.178 -10.410 -35.601  1.00  0.00    -0.388 OA
ATOM     14  H   UNL     1       4.504 -10.675 -36.499  1.00  0.00     0.211 HD
ENDBRANCH   1  13
TORSDOF 8
ENDMDL
MODEL 6
REMARK VINA RESULT:    -2.985     14.645     16.241
REMARK INTER + INTRA:          -4.515
REMARK INTER:                  -3.750
REMARK INTRA:                  -0.764
REMARK UNBOUND:                -0.483
REMARK SMILES O=C[C@@H](O)[C@H](O)[C@H](O)CO
REMARK SMILES IDX 7 1 9 2 10 3 5 5 3 6 2 7 1 8 4 9 6 11 8 13
REMARK H PARENT 10 4 4 10 6 12 8 14
REMARK Flexibility Score: inf
ROOT
ATOM      1  C   UNL     1       4.659  -4.512 -19.874  1.00  0.00     0.171 C 
ENDROOT
BRANCH   1   2
ATOM      2  C   UNL     1       4.995  -3.322 -18.956  1.00  0.00     0.190 C 
BRANCH   2   3
ATOM      3  O   UNL     1       5.820  -3.739 -17.900  1.00  0.00    -0.394 OA
ATOM      4  H   UNL     1       5.485  -3.293 -17.080  1.00  0.00     0.210 HD
ENDBRANCH   2   3
ENDBRANCH   1   2
BRANCH   1   5
ATOM      5  C   UNL     1       4.285  -5.788 -19.073  1.00  0.00     0.181 C 
BRANCH   5   6
ATOM      6  C   UNL     1       3.714  -6.943 -19.937  1.00  0.00     0.209 C 
BRANCH   6   7
ATOM      7  C   UNL     1       2.476  -6.495 -20.668  1.00  0.00     0.258 C 
ATOM      8  O   UNL     1       1.447  -6.259 -20.054  1.00  0.00    -0.300 OA
ENDBRANCH   6   7
BRANCH   6   9
ATOM      9  O   UNL     1       4.673  -7.380 -20.865  1.00  0.00    -0.383 OA
ATOM     10  H   UNL     1       4.905  -8.315 -20.622  1.00  0.00     0.211 HD
ENDBRANCH   6   9
ENDBRANCH   5   6
BRANCH   5  11
ATOM     11  O   UNL     1       3.406  -5.462 -18.022  1.00  0.00    -0.387 OA
ATOM     12  H   UNL     1       3.420  -4.476 -17.909  1.00  0.00     0.211 HD
ENDBRANCH   5  11
ENDBRANCH   1   5
BRANCH   1  13
ATOM     13  O   UNL     1       5.737  -4.774 -20.736  1.00  0.00    -0.388 OA
ATOM     14  H   UNL     1       5.355  -4.978 -21.629  1.00  0.00     0.211 HD
ENDBRANCH   1  13
TORSDOF 8
ENDMDL
MODEL 7
REMARK VINA RESULT:    -2.977      1.521      3.893
REMARK INTER + INTRA:          -4.504
REMARK INTER:                  -3.846
REMARK INTRA:                  -0.658
REMARK UNBOUND:                -0.483
REMARK SMILES O=C[C@@H](O)[C@H](O)[C@H](O)CO
REMARK SMILES IDX 7 1 9 2 10 3 5 5 3 6 2 7 1 8 4 9 6 11 8 13
REMARK H PARENT 10 4 4 10 6 12 8 14
REMARK Flexibility Score: inf
ROOT
ATOM      1  C   UNL     1       3.597  -8.944 -34.184  1.00  0.00     0.171 C 
ENDROOT
BRANCH   1   2
ATOM      2  C   UNL     1       4.311  -9.199 -35.524  1.00  0.00     0.190 C 
BRANCH   2   3
ATOM      3  O   UNL     1       4.349 -10.574 -35.802  1.00  0.00    -0.394 OA
ATOM      4  H   UNL     1       4.278 -10.670 -36.787  1.00  0.00     0.210 HD
ENDBRANCH   2   3
ENDBRANCH   1   2
BRANCH   1   5
ATOM      5  C   UNL     1       2.058  -9.115 -34.293  1.00  0.00     0.181 C 
BRANCH   5   6
ATOM      6  C   UNL     1       1.334  -9.289 -32.933  1.00  0.00     0.209 C 
BRANCH   6   7
ATOM      7  C   UNL     1       0.965 -10.732 -32.712  1.00  0.00     0.258 C 
ATOM      8  O   UNL     1      -0.095 -11.170 -33.132  1.00  0.00    -0.300 OA
ENDBRANCH   6   7
BRANCH   6   9
ATOM      9  O   UNL     1       2.155  -8.850 -31.882  1.00  0.00    -0.383 OA
ATOM     10  H   UNL     1       2.582  -9.657 -31.492  1.00  0.00     0.211 HD
ENDBRANCH   6   9
ENDBRANCH   5   6
BRANCH   5  11
ATOM     11  O   UNL     1       1.748 -10.173 -35.169  1.00  0.00    -0.387 OA
ATOM     12  H   UNL     1       0.763 -10.198 -35.278  1.00  0.00     0.211 HD
ENDBRANCH   5  11
ENDBRANCH   1   5
BRANCH   1  13
ATOM     13  O   UNL     1       3.914  -7.660 -33.708  1.00  0.00    -0.388 OA
ATOM     14  H   UNL     1       4.854  -7.689 -33.391  1.00  0.00     0.211 HD
ENDBRANCH   1  13
TORSDOF 8
ENDMDL
MODEL 8
REMARK VINA RESULT:    -2.976     15.596     16.890
REMARK INTER + INTRA:          -4.502
REMARK INTER:                  -3.736
REMARK INTRA:                  -0.766
REMARK UNBOUND:                -0.483
REMARK SMILES O=C[C@@H](O)[C@H](O)[C@H](O)CO
REMARK SMILES IDX 7 1 9 2 10 3 5 5 3 6 2 7 1 8 4 9 6 11 8 13
REMARK H PARENT 10 4 4 10 6 12 8 14
REMARK Flexibility Score: inf
ROOT
ATOM      1  C   UNL     1       2.722  -3.339 -19.306  1.00  0.00     0.171 C 
ENDROOT
BRANCH   1   2
ATOM      2  C   UNL     1       1.244  -3.389 -18.876  1.00  0.00     0.190 C 
BRANCH   2   3
ATOM      3  O   UNL     1       1.139  -3.308 -17.480  1.00  0.00    -0.394 OA
ATOM      4  H   UNL     1       1.512  -2.428 -17.213  1.00  0.00     0.210 HD
ENDBRANCH   2   3
ENDBRANCH   1   2
BRANCH   1   5
ATOM      5  C   UNL     1       3.641  -4.146 -18.350  1.00  0.00     0.181 C 
BRANCH   5   6
ATOM      6  C   UNL     1       5.095  -4.328 -18.859  1.00  0.00     0.209 C 
BRANCH   6   7
ATOM      7  C   UNL     1       5.099  -4.872 -20.263  1.00  0.00     0.258 C 
ATOM      8  O   UNL     1       4.755  -6.023 -20.480  1.00  0.00    -0.300 OA
ENDBRANCH   6   7
BRANCH   6   9
ATOM      9  O   UNL     1       5.780  -3.102 -18.830  1.00  0.00    -0.383 OA
ATOM     10  H   UNL     1       6.627  -3.256 -18.337  1.00  0.00     0.211 HD
ENDBRANCH   6   9
ENDBRANCH   5   6
BRANCH   5  11
ATOM     11  O   UNL     1       3.054  -5.389 -18.046  1.00  0.00    -0.387 OA
ATOM     12  H   UNL     1       2.156  -5.216 -17.662  1.00  0.00     0.211 HD
ENDBRANCH   5  11
ENDBRANCH   1   5
BRANCH   1  13
ATOM     13  O   UNL     1       3.154  -2.005 -19.389  1.00  0.00    -0.388 OA
ATOM     14  H   UNL     1       2.949  -1.576 -18.518  1.00  0.00     0.211 HD
ENDBRANCH   1  13
TORSDOF 8
ENDMDL
MODEL 9
REMARK VINA RESULT:    -2.920     15.335     16.596
REMARK INTER + INTRA:          -4.426
REMARK INTER:                  -3.431
REMARK INTRA:                  -0.996
REMARK UNBOUND:                -0.483
REMARK SMILES O=C[C@@H](O)[C@H](O)[C@H](O)CO
REMARK SMILES IDX 7 1 9 2 10 3 5 5 3 6 2 7 1 8 4 9 6 11 8 13
REMARK H PARENT 10 4 4 10 6 12 8 14
REMARK Flexibility Score: inf
ROOT
ATOM      1  C   UNL     1       4.714  -3.789 -18.155  1.00  0.00     0.171 C 
ENDROOT
BRANCH   1   2
ATOM      2  C   UNL     1       4.298  -5.260 -18.338  1.00  0.00     0.190 C 
BRANCH   2   3
ATOM      3  O   UNL     1       3.002  -5.338 -18.870  1.00  0.00    -0.394 OA
ATOM      4  H   UNL     1       2.980  -6.138 -19.457  1.00  0.00     0.210 HD
ENDBRANCH   2   3
ENDBRANCH   1   2
BRANCH   1   5
ATOM      5  C   UNL     1       4.943  -3.068 -19.510  1.00  0.00     0.181 C 
BRANCH   5   6
ATOM      6  C   UNL     1       3.742  -2.214 -19.995  1.00  0.00     0.209 C 
BRANCH   6   7
ATOM      7  C   UNL     1       3.233  -2.721 -21.319  1.00  0.00     0.258 C 
ATOM      8  O   UNL     1       2.620  -3.775 -21.381  1.00  0.00    -0.300 OA
ENDBRANCH   6   7
BRANCH   6   9
ATOM      9  O   UNL     1       2.704  -2.250 -19.050  1.00  0.00    -0.383 OA
ATOM     10  H   UNL     1       3.049  -1.817 -18.226  1.00  0.00     0.211 HD
ENDBRANCH   6   9
ENDBRANCH   5   6
BRANCH   5  11
ATOM     11  O   UNL     1       5.332  -3.996 -20.495  1.00  0.00    -0.387 OA
ATOM     12  H   UNL     1       6.324  -4.001 -20.534  1.00  0.00     0.211 HD
ENDBRANCH   5  11
ENDBRANCH   1   5
BRANCH   1  13
ATOM     13  O   UNL     1       5.868  -3.711 -17.358  1.00  0.00    -0.388 OA
ATOM     14  H   UNL     1       6.637  -3.575 -17.970  1.00  0.00     0.211 HD
ENDBRANCH   1  13
TORSDOF 8
ENDMDL
