MODEL 1
REMARK VINA RESULT:    -4.812      0.000      0.000
REMARK INTER + INTRA:          -5.470
REMARK INTER:                  -5.374
REMARK INTRA:                  -0.096
REMARK UNBOUND:                -0.096
REMARK SMILES O=C([O-])c1ccccc1C(=O)[O-]
REMARK SMILES IDX 4 1 9 2 5 3 8 4 6 5 7 6 2 7 1 8 3 9 10 10 11 11 12 12
REMARK H PARENT
REMARK Flexibility Score: inf
ROOT
ATOM      1  C   UNL     1      23.751  31.797   6.145  1.00  0.00     0.006 A 
ATOM      2  C   UNL     1      24.165  31.795   7.506  1.00  0.00     0.006 A 
ATOM      3  C   UNL     1      22.433  32.175   5.831  1.00  0.00     0.010 A 
ATOM      4  C   UNL     1      23.266  32.235   8.495  1.00  0.00     0.010 A 
ATOM      5  C   UNL     1      21.551  32.587   6.832  1.00  0.00     0.001 A 
ATOM      6  C   UNL     1      21.970  32.628   8.159  1.00  0.00     0.001 A 
ENDROOT
BRANCH   1   7
ATOM      7  C   UNL     1      24.666  31.483   5.024  1.00  0.00     0.072 C 
ATOM      8  O   UNL     1      25.244  32.403   4.386  1.00  0.00    -0.545 OA
ATOM      9  O   UNL     1      24.847  30.166   4.618  1.00  0.00    -0.545 OA
ENDBRANCH   1   7
BRANCH   2  10
ATOM     10  C   UNL     1      25.484  31.281   7.941  1.00  0.00     0.072 C 
ATOM     11  O   UNL     1      26.271  32.021   8.589  1.00  0.00    -0.545 OA
ATOM     12  O   UNL     1      25.846  29.961   7.699  1.00  0.00    -0.545 OA
ENDBRANCH   2  10
TORSDOF 2
ENDMDL
MODEL 2
REMARK VINA RESULT:    -4.762      0.455      2.899
REMARK INTER + INTRA:          -5.415
REMARK INTER:                  -5.242
REMARK INTRA:                  -0.173
REMARK UNBOUND:                -0.096
REMARK SMILES O=C([O-])c1ccccc1C(=O)[O-]
REMARK SMILES IDX 4 1 9 2 5 3 8 4 6 5 7 6 2 7 1 8 3 9 10 10 11 11 12 12
REMARK H PARENT
REMARK Flexibility Score: inf
ROOT
ATOM      1  C   UNL     1      23.820  31.786   7.307  1.00  0.00     0.006 A 
ATOM      2  C   UNL     1      23.393  31.931   5.958  1.00  0.00     0.006 A 
ATOM      3  C   UNL     1      22.969  32.211   8.343  1.00  0.00     0.010 A 
ATOM      4  C   UNL     1      22.105  32.434   5.698  1.00  0.00     0.010 A 
ATOM      5  C   UNL     1      21.703  32.727   8.061  1.00  0.00     0.001 A 
ATOM      6  C   UNL     1      21.268  32.828   6.742  1.00  0.00     0.001 A 
ENDROOT
BRANCH   1   7
ATOM      7  C   UNL     1      25.099  31.142   7.683  1.00  0.00     0.072 C 
ATOM      8  O   UNL     1      26.040  31.817   8.178  1.00  0.00    -0.545 OA
ATOM      9  O   UNL     1      25.299  29.789   7.432  1.00  0.00    -0.545 OA
ENDBRANCH   1   7
BRANCH   2  10
ATOM     10  C   UNL     1      24.276  31.641   4.804  1.00  0.00     0.072 C 
ATOM     11  O   UNL     1      25.016  32.544   4.330  1.00  0.00    -0.545 OA
ATOM     12  O   UNL     1      24.349  30.361   4.270  1.00  0.00    -0.545 OA
ENDBRANCH   2  10
TORSDOF 2
ENDMDL
MODEL 3
REMARK VINA RESULT:    -4.737      1.961      3.246
REMARK INTER + INTRA:          -5.387
REMARK INTER:                  -5.305
REMARK INTRA:                  -0.082
REMARK UNBOUND:                -0.096
REMARK SMILES O=C([O-])c1ccccc1C(=O)[O-]
REMARK SMILES IDX 4 1 9 2 5 3 8 4 6 5 7 6 2 7 1 8 3 9 10 10 11 11 12 12
REMARK H PARENT
REMARK Flexibility Score: inf
ROOT
ATOM      1  C   UNL     1      22.263  32.475   6.175  1.00  0.00     0.006 A 
ATOM      2  C   UNL     1      23.606  32.047   5.985  1.00  0.00     0.006 A 
ATOM      3  C   UNL     1      21.741  32.533   7.480  1.00  0.00     0.010 A 
ATOM      4  C   UNL     1      24.397  31.756   7.112  1.00  0.00     0.010 A 
ATOM      5  C   UNL     1      22.538  32.219   8.582  1.00  0.00     0.001 A 
ATOM      6  C   UNL     1      23.866  31.843   8.399  1.00  0.00     0.001 A 
ENDROOT
BRANCH   1   7
ATOM      7  C   UNL     1      21.398  32.933   5.064  1.00  0.00     0.072 C 
ATOM      8  O   UNL     1      20.929  34.102   5.050  1.00  0.00    -0.545 OA
ATOM      9  O   UNL     1      21.038  32.051   4.051  1.00  0.00    -0.545 OA
ENDBRANCH   1   7
BRANCH   2  10
ATOM     10  C   UNL     1      24.192  31.822   4.643  1.00  0.00     0.072 C 
ATOM     11  O   UNL     1      24.839  32.741   4.073  1.00  0.00    -0.545 OA
ATOM     12  O   UNL     1      24.095  30.582   4.025  1.00  0.00    -0.545 OA
ENDBRANCH   2  10
TORSDOF 2
ENDMDL
MODEL 4
REMARK VINA RESULT:    -4.720      2.004      3.423
REMARK INTER + INTRA:          -5.368
REMARK INTER:                  -5.287
REMARK INTRA:                  -0.081
REMARK UNBOUND:                -0.096
REMARK SMILES O=C([O-])c1ccccc1C(=O)[O-]
REMARK SMILES IDX 4 1 9 2 5 3 8 4 6 5 7 6 2 7 1 8 3 9 10 10 11 11 12 12
REMARK H PARENT
REMARK Flexibility Score: inf
ROOT
ATOM      1  C   UNL     1      23.582  32.078   5.990  1.00  0.00     0.006 A 
ATOM      2  C   UNL     1      22.240  32.492   6.213  1.00  0.00     0.006 A 
ATOM      3  C   UNL     1      24.399  31.779   7.096  1.00  0.00     0.010 A 
ATOM      4  C   UNL     1      21.745  32.530   7.529  1.00  0.00     0.010 A 
ATOM      5  C   UNL     1      23.893  31.844   8.395  1.00  0.00     0.001 A 
ATOM      6  C   UNL     1      22.566  32.208   8.610  1.00  0.00     0.001 A 
ENDROOT
BRANCH   1   7
ATOM      7  C   UNL     1      24.150  31.876   4.637  1.00  0.00     0.072 C 
ATOM      8  O   UNL     1      24.726  32.819   4.032  1.00  0.00    -0.545 OA
ATOM      9  O   UNL     1      23.994  30.656   3.990  1.00  0.00    -0.545 OA
ENDBRANCH   1   7
BRANCH   2  10
ATOM     10  C   UNL     1      21.355  32.959   5.120  1.00  0.00     0.072 C 
ATOM     11  O   UNL     1      20.967  34.157   5.087  1.00  0.00    -0.545 OA
ATOM     12  O   UNL     1      20.993  32.104   4.087  1.00  0.00    -0.545 OA
ENDBRANCH   2  10
TORSDOF 2
ENDMDL
MODEL 5
REMARK VINA RESULT:    -4.470      2.204      3.693
REMARK INTER + INTRA:          -5.088
REMARK INTER:                  -4.929
REMARK INTRA:                  -0.160
REMARK UNBOUND:                -0.096
REMARK SMILES O=C([O-])c1ccccc1C(=O)[O-]
REMARK SMILES IDX 4 1 9 2 5 3 8 4 6 5 7 6 2 7 1 8 3 9 10 10 11 11 12 12
REMARK H PARENT
REMARK Flexibility Score: inf
ROOT
ATOM      1  C   UNL     1      24.425  31.690   6.460  1.00  0.00     0.006 A 
ATOM      2  C   UNL     1      25.510  30.993   5.860  1.00  0.00     0.006 A 
ATOM      3  C   UNL     1      24.507  32.044   7.820  1.00  0.00     0.010 A 
ATOM      4  C   UNL     1      26.663  30.734   6.624  1.00  0.00     0.010 A 
ATOM      5  C   UNL     1      25.652  31.757   8.564  1.00  0.00     0.001 A 
ATOM      6  C   UNL     1      26.732  31.114   7.965  1.00  0.00     0.001 A 
ENDROOT
BRANCH   1   7
ATOM      7  C   UNL     1      23.230  32.127   5.703  1.00  0.00     0.072 C 
ATOM      8  O   UNL     1      22.098  31.628   5.940  1.00  0.00    -0.545 OA
ATOM      9  O   UNL     1      23.357  33.050   4.671  1.00  0.00    -0.545 OA
ENDBRANCH   1   7
BRANCH   2  10
ATOM     10  C   UNL     1      25.454  30.460   4.479  1.00  0.00     0.072 C 
ATOM     11  O   UNL     1      24.939  29.332   4.256  1.00  0.00    -0.545 OA
ATOM     12  O   UNL     1      25.905  31.220   3.407  1.00  0.00    -0.545 OA
ENDBRANCH   2  10
TORSDOF 2
ENDMDL
MODEL 6
REMARK VINA RESULT:    -4.440      2.174      3.475
REMARK INTER + INTRA:          -5.055
REMARK INTER:                  -4.917
REMARK INTRA:                  -0.138
REMARK UNBOUND:                -0.096
REMARK SMILES O=C([O-])c1ccccc1C(=O)[O-]
REMARK SMILES IDX 4 1 9 2 5 3 8 4 6 5 7 6 2 7 1 8 3 9 10 10 11 11 12 12
REMARK H PARENT
REMARK Flexibility Score: inf
ROOT
ATOM      1  C   UNL     1      25.253  30.979   5.831  1.00  0.00     0.006 A 
ATOM      2  C   UNL     1      24.235  31.727   6.485  1.00  0.00     0.006 A 
ATOM      3  C   UNL     1      26.445  30.695   6.523  1.00  0.00     0.010 A 
ATOM      4  C   UNL     1      24.420  32.106   7.828  1.00  0.00     0.010 A 
ATOM      5  C   UNL     1      26.615  31.100   7.848  1.00  0.00     0.001 A 
ATOM      6  C   UNL     1      25.600  31.793   8.502  1.00  0.00     0.001 A 
ENDROOT
BRANCH   1   7
ATOM      7  C   UNL     1      25.094  30.420   4.470  1.00  0.00     0.072 C 
ATOM      8  O   UNL     1      24.576  29.285   4.295  1.00  0.00    -0.545 OA
ATOM      9  O   UNL     1      25.576  31.117   3.368  1.00  0.00    -0.545 OA
ENDBRANCH   1   7
BRANCH   2  10
ATOM     10  C   UNL     1      23.011  32.191   5.791  1.00  0.00     0.072 C 
ATOM     11  O   UNL     1      21.875  31.853   6.217  1.00  0.00    -0.545 OA
ATOM     12  O   UNL     1      23.096  33.053   4.705  1.00  0.00    -0.545 OA
ENDBRANCH   2  10
TORSDOF 2
ENDMDL
MODEL 7
REMARK VINA RESULT:    -4.426      1.656      2.242
REMARK INTER + INTRA:          -5.039
REMARK INTER:                  -4.944
REMARK INTRA:                  -0.095
REMARK UNBOUND:                -0.096
REMARK SMILES O=C([O-])c1ccccc1C(=O)[O-]
REMARK SMILES IDX 4 1 9 2 5 3 8 4 6 5 7 6 2 7 1 8 3 9 10 10 11 11 12 12
REMARK H PARENT
REMARK Flexibility Score: inf
ROOT
ATOM      1  C   UNL     1      22.923  31.618   5.820  1.00  0.00     0.006 A 
ATOM      2  C   UNL     1      22.463  32.220   7.025  1.00  0.00     0.006 A 
ATOM      3  C   UNL     1      22.150  31.749   4.652  1.00  0.00     0.010 A 
ATOM      4  C   UNL     1      21.281  32.983   7.000  1.00  0.00     0.010 A 
ATOM      5  C   UNL     1      20.970  32.493   4.656  1.00  0.00     0.001 A 
ATOM      6  C   UNL     1      20.543  33.118   5.825  1.00  0.00     0.001 A 
ENDROOT
BRANCH   1   7
ATOM      7  C   UNL     1      24.221  30.913   5.716  1.00  0.00     0.072 C 
ATOM      8  O   UNL     1      25.256  31.521   5.333  1.00  0.00    -0.545 OA
ATOM      9  O   UNL     1      24.298  29.550   5.978  1.00  0.00    -0.545 OA
ENDBRANCH   1   7
BRANCH   2  10
ATOM     10  C   UNL     1      23.137  32.018   8.329  1.00  0.00     0.072 C 
ATOM     11  O   UNL     1      22.559  31.379   9.248  1.00  0.00    -0.545 OA
ATOM     12  O   UNL     1      24.434  32.470   8.534  1.00  0.00    -0.545 OA
ENDBRANCH   2  10
TORSDOF 2
ENDMDL
MODEL 8
REMARK VINA RESULT:    -4.420      1.622      3.422
REMARK INTER + INTRA:          -5.033
REMARK INTER:                  -4.948
REMARK INTRA:                  -0.085
REMARK UNBOUND:                -0.096
REMARK SMILES O=C([O-])c1ccccc1C(=O)[O-]
REMARK SMILES IDX 4 1 9 2 5 3 8 4 6 5 7 6 2 7 1 8 3 9 10 10 11 11 12 12
REMARK H PARENT
REMARK Flexibility Score: inf
ROOT
ATOM      1  C   UNL     1      22.496  32.174   7.006  1.00  0.00     0.006 A 
ATOM      2  C   UNL     1      22.912  31.610   5.767  1.00  0.00     0.006 A 
ATOM      3  C   UNL     1      21.336  32.968   7.041  1.00  0.00     0.010 A 
ATOM      4  C   UNL     1      22.116  31.808   4.624  1.00  0.00     0.010 A 
ATOM      5  C   UNL     1      20.573  33.168   5.889  1.00  0.00     0.001 A 
ATOM      6  C   UNL     1      20.956  32.580   4.686  1.00  0.00     0.001 A 
ENDROOT
BRANCH   1   7
ATOM      7  C   UNL     1      23.192  31.909   8.286  1.00  0.00     0.072 C 
ATOM      8  O   UNL     1      22.591  31.351   9.243  1.00  0.00    -0.545 OA
ATOM      9  O   UNL     1      24.502  32.334   8.469  1.00  0.00    -0.545 OA
ENDBRANCH   1   7
BRANCH   2  10
ATOM     10  C   UNL     1      24.191  30.880   5.610  1.00  0.00     0.072 C 
ATOM     11  O   UNL     1      24.229  29.629   5.757  1.00  0.00    -0.545 OA
ATOM     12  O   UNL     1      25.349  31.550   5.236  1.00  0.00    -0.545 OA
ENDBRANCH   2  10
TORSDOF 2
ENDMDL
MODEL 9
REMARK VINA RESULT:    -4.420      2.081      3.330
REMARK INTER + INTRA:          -5.033
REMARK INTER:                  -5.050
REMARK INTRA:                   0.017
REMARK UNBOUND:                -0.096
REMARK SMILES O=C([O-])c1ccccc1C(=O)[O-]
REMARK SMILES IDX 4 1 9 2 5 3 8 4 6 5 7 6 2 7 1 8 3 9 10 10 11 11 12 12
REMARK H PARENT
REMARK Flexibility Score: inf
ROOT
ATOM      1  C   UNL     1      24.556  30.847   6.321  1.00  0.00     0.006 A 
ATOM      2  C   UNL     1      23.898  31.712   7.239  1.00  0.00     0.006 A 
ATOM      3  C   UNL     1      25.914  30.540   6.525  1.00  0.00     0.010 A 
ATOM      4  C   UNL     1      24.603  32.183   8.362  1.00  0.00     0.010 A 
ATOM      5  C   UNL     1      26.600  31.036   7.634  1.00  0.00     0.001 A 
ATOM      6  C   UNL     1      25.943  31.846   8.556  1.00  0.00     0.001 A 
ENDROOT
BRANCH   1   7
ATOM      7  C   UNL     1      23.861  30.193   5.189  1.00  0.00     0.072 C 
ATOM      8  O   UNL     1      24.001  30.621   4.012  1.00  0.00    -0.545 OA
ATOM      9  O   UNL     1      22.991  29.135   5.422  1.00  0.00    -0.545 OA
ENDBRANCH   1   7
BRANCH   2  10
ATOM     10  C   UNL     1      22.515  32.200   7.028  1.00  0.00     0.072 C 
ATOM     11  O   UNL     1      21.699  32.226   7.987  1.00  0.00    -0.545 OA
ATOM     12  O   UNL     1      22.118  32.693   5.791  1.00  0.00    -0.545 OA
ENDBRANCH   2  10
TORSDOF 2
ENDMDL
