MODEL 1
REMARK VINA RESULT:    -4.630      0.000      0.000
REMARK INTER + INTRA:          -6.423
REMARK INTER:                  -6.254
REMARK INTRA:                  -0.169
REMARK UNBOUND:                -0.169
REMARK SMILES CCCCCCCC(=O)[O-]
REMARK SMILES IDX 5 1 6 2 7 3 8 4 9 5 10 6 4 7 3 8 2 9 1 10
REMARK H PARENT
REMARK Flexibility Score: inf
ROOT
ATOM      1  C   UNL     1      98.748 123.795 126.658  1.00  0.00     0.000 C 
ENDROOT
BRANCH   1   2
ATOM      2  C   UNL     1      97.503 124.498 126.089  1.00  0.00     0.006 C 
BRANCH   2   3
ATOM      3  C   UNL     1      96.309 123.550 125.925  1.00  0.00     0.053 C 
BRANCH   3   4
ATOM      4  C   UNL     1      95.528 123.903 124.699  1.00  0.00     0.041 C 
ATOM      5  O   UNL     1      96.058 124.588 123.785  1.00  0.00    -0.550 OA
ATOM      6  O   UNL     1      94.230 123.432 124.541  1.00  0.00    -0.550 OA
ENDBRANCH   3   4
ENDBRANCH   2   3
ENDBRANCH   1   2
BRANCH   1   7
ATOM      7  C   UNL     1      98.816 122.276 126.397  1.00  0.00     0.000 C 
BRANCH   7   8
ATOM      8  C   UNL     1     100.238 121.685 126.338  1.00  0.00    -0.000 C 
BRANCH   8   9
ATOM      9  C   UNL     1     100.312 120.224 125.862  1.00  0.00    -0.003 C 
ATOM     10  C   UNL     1     101.745 119.736 125.658  1.00  0.00     0.004 C 
ENDBRANCH   8   9
ENDBRANCH   7   8
ENDBRANCH   1   7
TORSDOF 6
ENDMDL
MODEL 2
REMARK VINA RESULT:    -4.563      1.271      1.994
REMARK INTER + INTRA:          -6.332
REMARK INTER:                  -6.148
REMARK INTRA:                  -0.184
REMARK UNBOUND:                -0.169
REMARK SMILES CCCCCCCC(=O)[O-]
REMARK SMILES IDX 5 1 6 2 7 3 8 4 9 5 10 6 4 7 3 8 2 9 1 10
REMARK H PARENT
REMARK Flexibility Score: inf
ROOT
ATOM      1  C   UNL     1      97.339 124.660 125.842  1.00  0.00     0.000 C 
ENDROOT
BRANCH   1   2
ATOM      2  C   UNL     1      96.184 123.667 125.624  1.00  0.00     0.006 C 
BRANCH   2   3
ATOM      3  C   UNL     1      95.322 124.016 124.404  1.00  0.00     0.053 C 
BRANCH   3   4
ATOM      4  C   UNL     1      93.978 123.369 124.513  1.00  0.00     0.041 C 
ATOM      5  O   UNL     1      93.760 122.506 125.404  1.00  0.00    -0.550 OA
ATOM      6  O   UNL     1      92.949 123.754 123.662  1.00  0.00    -0.550 OA
ENDBRANCH   3   4
ENDBRANCH   2   3
ENDBRANCH   1   2
BRANCH   1   7
ATOM      7  C   UNL     1      98.611 124.054 126.470  1.00  0.00     0.000 C 
BRANCH   7   8
ATOM      8  C   UNL     1      98.694 122.516 126.426  1.00  0.00    -0.000 C 
BRANCH   8   9
ATOM      9  C   UNL     1     100.121 121.946 126.364  1.00  0.00    -0.003 C 
ATOM     10  C   UNL     1     100.153 120.455 126.031  1.00  0.00     0.004 C 
ENDBRANCH   8   9
ENDBRANCH   7   8
ENDBRANCH   1   7
TORSDOF 6
ENDMDL
MODEL 3
REMARK VINA RESULT:    -4.534      3.127      5.502
REMARK INTER + INTRA:          -6.293
REMARK INTER:                  -6.115
REMARK INTRA:                  -0.179
REMARK UNBOUND:                -0.169
REMARK SMILES CCCCCCCC(=O)[O-]
REMARK SMILES IDX 5 1 6 2 7 3 8 4 9 5 10 6 4 7 3 8 2 9 1 10
REMARK H PARENT
REMARK Flexibility Score: inf
ROOT
ATOM      1  C   UNL     1      98.697 124.068 126.729  1.00  0.00     0.000 C 
ENDROOT
BRANCH   1   2
ATOM      2  C   UNL     1      98.870 122.573 126.408  1.00  0.00     0.006 C 
BRANCH   2   3
ATOM      3  C   UNL     1     100.341 122.140 126.369  1.00  0.00     0.053 C 
BRANCH   3   4
ATOM      4  C   UNL     1     100.443 120.651 126.257  1.00  0.00     0.041 C 
ATOM      5  O   UNL     1     100.993 119.983 127.171  1.00  0.00    -0.550 OA
ATOM      6  O   UNL     1      99.886 119.996 125.165  1.00  0.00    -0.550 OA
ENDBRANCH   3   4
ENDBRANCH   2   3
ENDBRANCH   1   2
BRANCH   1   7
ATOM      7  C   UNL     1      97.430 124.720 126.140  1.00  0.00     0.000 C 
BRANCH   7   8
ATOM      8  C   UNL     1      96.363 123.733 125.628  1.00  0.00    -0.000 C 
BRANCH   8   9
ATOM      9  C   UNL     1      95.738 124.102 124.271  1.00  0.00    -0.003 C 
ATOM     10  C   UNL     1      94.264 123.712 124.170  1.00  0.00     0.004 C 
ENDBRANCH   8   9
ENDBRANCH   7   8
ENDBRANCH   1   7
TORSDOF 6
ENDMDL
MODEL 4
REMARK VINA RESULT:    -4.468      2.702      5.386
REMARK INTER + INTRA:          -6.204
REMARK INTER:                  -5.856
REMARK INTRA:                  -0.348
REMARK UNBOUND:                -0.169
REMARK SMILES CCCCCCCC(=O)[O-]
REMARK SMILES IDX 5 1 6 2 7 3 8 4 9 5 10 6 4 7 3 8 2 9 1 10
REMARK H PARENT
REMARK Flexibility Score: inf
ROOT
ATOM      1  C   UNL     1      96.721 124.934 124.810  1.00  0.00     0.000 C 
ENDROOT
BRANCH   1   2
ATOM      2  C   UNL     1      97.163 124.601 126.247  1.00  0.00     0.006 C 
BRANCH   2   3
ATOM      3  C   UNL     1      98.671 124.342 126.359  1.00  0.00     0.053 C 
BRANCH   3   4
ATOM      4  C   UNL     1      98.939 122.876 126.496  1.00  0.00     0.041 C 
ATOM      5  O   UNL     1      97.988 122.073 126.686  1.00  0.00    -0.550 OA
ATOM      6  O   UNL     1     100.233 122.390 126.365  1.00  0.00    -0.550 OA
ENDBRANCH   3   4
ENDBRANCH   2   3
ENDBRANCH   1   2
BRANCH   1   7
ATOM      7  C   UNL     1      95.598 124.039 124.250  1.00  0.00     0.000 C 
BRANCH   7   8
ATOM      8  C   UNL     1      94.944 123.090 125.273  1.00  0.00    -0.000 C 
BRANCH   8   9
ATOM      9  C   UNL     1      93.475 122.738 124.984  1.00  0.00    -0.003 C 
ATOM     10  C   UNL     1      92.866 123.593 123.873  1.00  0.00     0.004 C 
ENDBRANCH   8   9
ENDBRANCH   7   8
ENDBRANCH   1   7
TORSDOF 6
ENDMDL
MODEL 5
REMARK VINA RESULT:    -4.438      3.184      5.628
REMARK INTER + INTRA:          -6.164
REMARK INTER:                  -5.994
REMARK INTRA:                  -0.170
REMARK UNBOUND:                -0.169
REMARK SMILES CCCCCCCC(=O)[O-]
REMARK SMILES IDX 5 1 6 2 7 3 8 4 9 5 10 6 4 7 3 8 2 9 1 10
REMARK H PARENT
REMARK Flexibility Score: inf
ROOT
ATOM      1  C   UNL     1      97.288 123.370 126.400  1.00  0.00     0.000 C 
ENDROOT
BRANCH   1   2
ATOM      2  C   UNL     1      98.784 123.008 126.378  1.00  0.00     0.006 C 
BRANCH   2   3
ATOM      3  C   UNL     1      99.043 121.531 126.704  1.00  0.00     0.053 C 
BRANCH   3   4
ATOM      4  C   UNL     1     100.406 121.126 126.240  1.00  0.00     0.041 C 
ATOM      5  O   UNL     1     101.274 122.001 125.982  1.00  0.00    -0.550 OA
ATOM      6  O   UNL     1     100.736 119.780 126.139  1.00  0.00    -0.550 OA
ENDBRANCH   3   4
ENDBRANCH   2   3
ENDBRANCH   1   2
BRANCH   1   7
ATOM      7  C   UNL     1      96.876 124.500 125.436  1.00  0.00     0.000 C 
BRANCH   7   8
ATOM      8  C   UNL     1      95.837 124.105 124.368  1.00  0.00    -0.000 C 
BRANCH   8   9
ATOM      9  C   UNL     1      94.655 123.273 124.893  1.00  0.00    -0.003 C 
ATOM     10  C   UNL     1      93.379 123.471 124.077  1.00  0.00     0.004 C 
ENDBRANCH   8   9
ENDBRANCH   7   8
ENDBRANCH   1   7
TORSDOF 6
ENDMDL
MODEL 6
REMARK VINA RESULT:    -4.052      3.029      5.784
REMARK INTER + INTRA:          -5.643
REMARK INTER:                  -5.405
REMARK INTRA:                  -0.238
REMARK UNBOUND:                -0.169
REMARK SMILES CCCCCCCC(=O)[O-]
REMARK SMILES IDX 5 1 6 2 7 3 8 4 9 5 10 6 4 7 3 8 2 9 1 10
REMARK H PARENT
REMARK Flexibility Score: inf
ROOT
ATOM      1  C   UNL     1      95.327 124.055 124.300  1.00  0.00     0.000 C 
ENDROOT
BRANCH   1   2
ATOM      2  C   UNL     1      96.701 124.225 124.972  1.00  0.00     0.006 C 
BRANCH   2   3
ATOM      3  C   UNL     1      96.863 123.351 126.222  1.00  0.00     0.053 C 
BRANCH   3   4
ATOM      4  C   UNL     1      98.312 123.100 126.498  1.00  0.00     0.041 C 
ATOM      5  O   UNL     1      99.110 124.066 126.623  1.00  0.00    -0.550 OA
ATOM      6  O   UNL     1      98.773 121.801 126.667  1.00  0.00    -0.550 OA
ENDBRANCH   3   4
ENDBRANCH   2   3
ENDBRANCH   1   2
BRANCH   1   7
ATOM      7  C   UNL     1      94.373 123.069 125.005  1.00  0.00     0.000 C 
BRANCH   7   8
ATOM      8  C   UNL     1      93.000 122.889 124.329  1.00  0.00    -0.000 C 
BRANCH   8   9
ATOM      9  C   UNL     1      92.904 123.448 122.900  1.00  0.00    -0.003 C 
ATOM     10  C   UNL     1      92.683 122.361 121.849  1.00  0.00     0.004 C 
ENDBRANCH   8   9
ENDBRANCH   7   8
ENDBRANCH   1   7
TORSDOF 6
ENDMDL
MODEL 7
REMARK VINA RESULT:    -3.918      3.693      6.477
REMARK INTER + INTRA:          -5.462
REMARK INTER:                  -5.285
REMARK INTRA:                  -0.177
REMARK UNBOUND:                -0.169
REMARK SMILES CCCCCCCC(=O)[O-]
REMARK SMILES IDX 5 1 6 2 7 3 8 4 9 5 10 6 4 7 3 8 2 9 1 10
REMARK H PARENT
REMARK Flexibility Score: inf
ROOT
ATOM      1  C   UNL     1      93.078 123.013 124.328  1.00  0.00     0.000 C 
ENDROOT
BRANCH   1   2
ATOM      2  C   UNL     1      94.478 123.032 124.966  1.00  0.00     0.006 C 
BRANCH   2   3
ATOM      3  C   UNL     1      95.421 124.041 124.300  1.00  0.00     0.053 C 
BRANCH   3   4
ATOM      4  C   UNL     1      96.568 124.359 125.206  1.00  0.00     0.041 C 
ATOM      5  O   UNL     1      97.283 125.374 124.992  1.00  0.00    -0.550 OA
ATOM      6  O   UNL     1      96.819 123.564 126.317  1.00  0.00    -0.550 OA
ENDBRANCH   3   4
ENDBRANCH   2   3
ENDBRANCH   1   2
BRANCH   1   7
ATOM      7  C   UNL     1      93.039 123.378 122.830  1.00  0.00     0.000 C 
BRANCH   7   8
ATOM      8  C   UNL     1      92.381 122.326 121.916  1.00  0.00    -0.000 C 
BRANCH   8   9
ATOM      9  C   UNL     1      93.095 122.097 120.573  1.00  0.00    -0.003 C 
ATOM     10  C   UNL     1      92.234 122.474 119.369  1.00  0.00     0.004 C 
ENDBRANCH   8   9
ENDBRANCH   7   8
ENDBRANCH   1   7
TORSDOF 6
ENDMDL
MODEL 8
REMARK VINA RESULT:    -3.853      3.962      5.696
REMARK INTER + INTRA:          -5.374
REMARK INTER:                  -5.229
REMARK INTRA:                  -0.145
REMARK UNBOUND:                -0.169
REMARK SMILES CCCCCCCC(=O)[O-]
REMARK SMILES IDX 5 1 6 2 7 3 8 4 9 5 10 6 4 7 3 8 2 9 1 10
REMARK H PARENT
REMARK Flexibility Score: inf
ROOT
ATOM      1  C   UNL     1      92.887 123.271 124.105  1.00  0.00     0.000 C 
ENDROOT
BRANCH   1   2
ATOM      2  C   UNL     1      93.142 123.294 122.587  1.00  0.00     0.006 C 
BRANCH   2   3
ATOM      3  C   UNL     1      92.545 122.078 121.867  1.00  0.00     0.053 C 
BRANCH   3   4
ATOM      4  C   UNL     1      92.856 122.135 120.404  1.00  0.00     0.041 C 
ATOM      5  O   UNL     1      93.815 121.470 119.933  1.00  0.00    -0.550 OA
ATOM      6  O   UNL     1      92.054 122.884 119.551  1.00  0.00    -0.550 OA
ENDBRANCH   3   4
ENDBRANCH   2   3
ENDBRANCH   1   2
BRANCH   1   7
ATOM      7  C   UNL     1      94.120 122.936 124.968  1.00  0.00     0.000 C 
BRANCH   7   8
ATOM      8  C   UNL     1      95.364 123.805 124.700  1.00  0.00    -0.000 C 
BRANCH   8   9
ATOM      9  C   UNL     1      96.459 123.719 125.778  1.00  0.00    -0.003 C 
ATOM     10  C   UNL     1      97.325 124.975 125.848  1.00  0.00     0.004 C 
ENDBRANCH   8   9
ENDBRANCH   7   8
ENDBRANCH   1   7
TORSDOF 6
ENDMDL
MODEL 9
REMARK VINA RESULT:    -3.792     13.727     15.017
REMARK INTER + INTRA:          -5.291
REMARK INTER:                  -5.117
REMARK INTRA:                  -0.175
REMARK UNBOUND:                -0.169
REMARK SMILES CCCCCCCC(=O)[O-]
REMARK SMILES IDX 5 1 6 2 7 3 8 4 9 5 10 6 4 7 3 8 2 9 1 10
REMARK H PARENT
REMARK Flexibility Score: inf
ROOT
ATOM      1  C   UNL     1      84.491 122.406 124.875  1.00  0.00     0.000 C 
ENDROOT
BRANCH   1   2
ATOM      2  C   UNL     1      83.899 123.774 125.258  1.00  0.00     0.006 C 
BRANCH   2   3
ATOM      3  C   UNL     1      83.255 123.774 126.650  1.00  0.00     0.053 C 
BRANCH   3   4
ATOM      4  C   UNL     1      84.147 124.460 127.637  1.00  0.00     0.041 C 
ATOM      5  O   UNL     1      85.393 124.479 127.458  1.00  0.00    -0.550 OA
ATOM      6  O   UNL     1      83.599 125.121 128.728  1.00  0.00    -0.550 OA
ENDBRANCH   3   4
ENDBRANCH   2   3
ENDBRANCH   1   2
BRANCH   1   7
ATOM      7  C   UNL     1      83.454 121.328 124.502  1.00  0.00     0.000 C 
BRANCH   7   8
ATOM      8  C   UNL     1      82.572 121.661 123.283  1.00  0.00    -0.000 C 
BRANCH   8   9
ATOM      9  C   UNL     1      82.433 120.525 122.255  1.00  0.00    -0.003 C 
ATOM     10  C   UNL     1      82.493 121.020 120.811  1.00  0.00     0.004 C 
ENDBRANCH   8   9
ENDBRANCH   7   8
ENDBRANCH   1   7
TORSDOF 6
ENDMDL
