MODEL 1
REMARK VINA RESULT:     0.000      0.000      0.000
REMARK INTER + INTRA:          -0.428
REMARK INTER:                   0.000
REMARK INTRA:                  -0.428
REMARK UNBOUND:                -0.428
REMARK SMILES CC1(C)CC[C@@]2(C(=O)[O-])CC[C@]3(C)C(=CC[C@@H]4[C@]5(C)CC[C@H](O)[C@](C)(CO)[C@H]5CC[C@]43C)[C@H]2C1
REMARK SMILES IDX 6 1 5 2 10 3 33 4 4 5 11 6 14 7 34 8 2 9 12 10 15 11 1 12
REMARK SMILES IDX 3 13 13 14 31 15 16 16 17 17 30 18 32 19 18 20 29 21 28 22
REMARK SMILES IDX 20 23 19 24 24 25 21 26 22 27 25 28 7 29 8 30 9 31 26 32
REMARK SMILES IDX 27 33 23 35
REMARK H PARENT 27 34 23 36
REMARK Flexibility Score: inf
ROOT
ATOM      1  C   UNL     1       2.532  -4.812  -7.183  1.00  0.00     0.017 C 
ATOM      2  C   UNL     1       1.766  -3.660  -6.482  1.00  0.00     0.014 C 
ATOM      3  C   UNL     1       1.587  -6.028  -7.469  1.00  0.00     0.014 C 
ATOM      4  C   UNL     1       3.100  -4.271  -8.517  1.00  0.00     0.028 C 
ATOM      5  C   UNL     1       2.589  -2.362  -6.249  1.00  0.00     0.007 C 
ATOM      6  C   UNL     1       0.541  -5.806  -8.598  1.00  0.00     0.013 C 
ATOM      7  C   UNL     1       1.949  -4.021  -9.506  1.00  0.00    -0.064 C 
ATOM      8  C   UNL     1       4.094  -3.092  -8.341  1.00  0.00     0.015 C 
ATOM      9  C   UNL     1       3.901  -2.136  -7.101  1.00  0.00    -0.035 C 
ATOM     10  C   UNL     1       1.110  -5.243  -9.962  1.00  0.00    -0.006 C 
ATOM     11  C   UNL     1       1.439  -2.774  -9.589  1.00  0.00    -0.027 C 
ATOM     12  C   UNL     1       3.936  -0.667  -7.604  1.00  0.00     0.011 C 
ATOM     13  C   UNL     1       5.117  -2.286  -6.149  1.00  0.00     0.011 C 
ATOM     14  C   UNL     1       2.074  -6.341 -10.511  1.00  0.00     0.017 C 
ATOM     15  C   UNL     1      -0.066  -4.862 -11.084  1.00  0.00    -0.020 C 
ATOM     16  C   UNL     1       0.289  -2.403 -10.451  1.00  0.00     0.032 C 
ATOM     17  C   UNL     1       0.160  -3.395 -11.615  1.00  0.00     0.006 C 
ATOM     18  C   UNL     1      -0.080  -5.819 -12.372  1.00  0.00     0.008 C 
ATOM     19  C   UNL     1      -1.479  -4.973 -10.400  1.00  0.00     0.012 C 
ATOM     20  C   UNL     1      -0.740  -2.841 -12.823  1.00  0.00    -0.025 C 
ATOM     21  C   UNL     1      -0.396  -5.187 -13.751  1.00  0.00     0.005 C 
ATOM     22  C   UNL     1      -1.385  -4.032 -13.621  1.00  0.00     0.006 C 
ATOM     23  C   UNL     1      -1.923  -1.935 -12.361  1.00  0.00     0.010 C 
ATOM     24  C   UNL     1       0.237  -1.981 -13.696  1.00  0.00     0.012 C 
ATOM     25  C   UNL     1      -2.259  -3.658 -14.881  1.00  0.00     0.020 C 
ATOM     26  C   UNL     1      -2.836  -1.472 -13.526  1.00  0.00     0.033 C 
ATOM     27  C   UNL     1      -3.355  -2.611 -14.443  1.00  0.00     0.123 C 
ATOM     28  C   UNL     1      -1.419  -3.085 -16.055  1.00  0.00     0.017 C 
ENDROOT
BRANCH   1  29
ATOM     29  C   UNL     1       3.633  -5.350  -6.280  1.00  0.00     0.048 C 
ATOM     30  O   UNL     1       4.615  -5.974  -6.775  1.00  0.00    -0.550 OA
ATOM     31  O   UNL     1       3.517  -5.271  -4.893  1.00  0.00    -0.550 OA
ENDBRANCH   1  29
BRANCH  25  32
ATOM     32  C   UNL     1      -2.979  -4.930 -15.458  1.00  0.00     0.165 C 
BRANCH  32  33
ATOM     33  O   UNL     1      -3.985  -4.599 -16.386  1.00  0.00    -0.396 OA
ATOM     34  H   UNL     1      -4.621  -3.979 -15.937  1.00  0.00     0.210 HD
ENDBRANCH  32  33
ENDBRANCH  25  32
BRANCH  27  35
ATOM     35  O   UNL     1      -4.477  -3.218 -13.847  1.00  0.00    -0.392 OA
ATOM     36  H   UNL     1      -5.296  -2.849 -14.267  1.00  0.00     0.210 HD
ENDBRANCH  27  35
TORSDOF 4
ENDMDL
MODEL 2
REMARK VINA RESULT:     0.000      8.587     12.392
REMARK INTER + INTRA:          -0.428
REMARK INTER:                   0.000
REMARK INTRA:                  -0.428
REMARK UNBOUND:                -0.428
REMARK SMILES CC1(C)CC[C@@]2(C(=O)[O-])CC[C@]3(C)C(=CC[C@@H]4[C@]5(C)CC[C@H](O)[C@](C)(CO)[C@H]5CC[C@]43C)[C@H]2C1
REMARK SMILES IDX 6 1 5 2 10 3 33 4 4 5 11 6 14 7 34 8 2 9 12 10 15 11 1 12
REMARK SMILES IDX 3 13 13 14 31 15 16 16 17 17 30 18 32 19 18 20 29 21 28 22
REMARK SMILES IDX 20 23 19 24 24 25 21 26 22 27 25 28 7 29 8 30 9 31 26 32
REMARK SMILES IDX 27 33 23 35
REMARK H PARENT 27 34 23 36
REMARK Flexibility Score: inf
ROOT
ATOM      1  C   UNL     1      -7.895  -1.789  -5.185  1.00  0.00     0.017 C 
ATOM      2  C   UNL     1      -6.866  -2.622  -5.993  1.00  0.00     0.014 C 
ATOM      3  C   UNL     1      -7.636  -1.912  -3.645  1.00  0.00     0.014 C 
ATOM      4  C   UNL     1      -7.761  -0.309  -5.617  1.00  0.00     0.028 C 
ATOM      5  C   UNL     1      -6.969  -2.484  -7.538  1.00  0.00     0.007 C 
ATOM      6  C   UNL     1      -6.371  -1.176  -3.121  1.00  0.00     0.013 C 
ATOM      7  C   UNL     1      -6.429   0.262  -5.102  1.00  0.00    -0.064 C 
ATOM      8  C   UNL     1      -8.049  -0.069  -7.123  1.00  0.00     0.015 C 
ATOM      9  C   UNL     1      -7.732  -1.236  -8.136  1.00  0.00    -0.035 C 
ATOM     10  C   UNL     1      -6.219   0.334  -3.567  1.00  0.00    -0.006 C 
ATOM     11  C   UNL     1      -5.368   0.258  -5.935  1.00  0.00    -0.027 C 
ATOM     12  C   UNL     1      -6.908  -0.651  -9.315  1.00  0.00     0.011 C 
ATOM     13  C   UNL     1      -9.059  -1.744  -8.759  1.00  0.00     0.011 C 
ATOM     14  C   UNL     1      -7.424   1.093  -2.927  1.00  0.00     0.017 C 
ATOM     15  C   UNL     1      -4.768   1.031  -3.125  1.00  0.00    -0.020 C 
ATOM     16  C   UNL     1      -4.009   0.718  -5.554  1.00  0.00     0.032 C 
ATOM     17  C   UNL     1      -4.097   1.706  -4.382  1.00  0.00     0.006 C 
ATOM     18  C   UNL     1      -4.903   2.175  -2.007  1.00  0.00     0.008 C 
ATOM     19  C   UNL     1      -3.821  -0.085  -2.545  1.00  0.00     0.012 C 
ATOM     20  C   UNL     1      -2.768   2.586  -4.195  1.00  0.00    -0.025 C 
ATOM     21  C   UNL     1      -3.978   3.413  -2.113  1.00  0.00     0.005 C 
ATOM     22  C   UNL     1      -2.617   3.045  -2.699  1.00  0.00     0.006 C 
ATOM     23  C   UNL     1      -1.454   1.824  -4.551  1.00  0.00     0.010 C 
ATOM     24  C   UNL     1      -2.934   3.788  -5.187  1.00  0.00     0.012 C 
ATOM     25  C   UNL     1      -1.386   3.971  -2.356  1.00  0.00     0.020 C 
ATOM     26  C   UNL     1      -0.170   2.653  -4.289  1.00  0.00     0.033 C 
ATOM     27  C   UNL     1      -0.068   3.270  -2.868  1.00  0.00     0.123 C 
ATOM     28  C   UNL     1      -1.504   5.392  -2.973  1.00  0.00     0.017 C 
ENDROOT
BRANCH   1  29
ATOM     29  C   UNL     1      -9.305  -2.315  -5.410  1.00  0.00     0.048 C 
ATOM     30  O   UNL     1     -10.304  -1.569  -5.200  1.00  0.00    -0.550 OA
ATOM     31  O   UNL     1      -9.522  -3.655  -5.729  1.00  0.00    -0.550 OA
ENDBRANCH   1  29
BRANCH  25  32
ATOM     32  C   UNL     1      -1.268   4.192  -0.805  1.00  0.00     0.165 C 
BRANCH  32  33
ATOM     33  O   UNL     1      -0.033   4.759  -0.439  1.00  0.00    -0.396 OA
ATOM     34  H   UNL     1       0.652   4.038  -0.468  1.00  0.00     0.210 HD
ENDBRANCH  32  33
ENDBRANCH  25  32
BRANCH  27  35
ATOM     35  O   UNL     1       0.413   2.299  -1.969  1.00  0.00    -0.392 OA
ATOM     36  H   UNL     1       0.193   1.401  -2.328  1.00  0.00     0.210 HD
ENDBRANCH  27  35
TORSDOF 4
ENDMDL
MODEL 3
REMARK VINA RESULT:     0.000      6.105     10.477
REMARK INTER + INTRA:          -0.428
REMARK INTER:                   0.000
REMARK INTRA:                  -0.428
REMARK UNBOUND:                -0.428
REMARK SMILES CC1(C)CC[C@@]2(C(=O)[O-])CC[C@]3(C)C(=CC[C@@H]4[C@]5(C)CC[C@H](O)[C@](C)(CO)[C@H]5CC[C@]43C)[C@H]2C1
REMARK SMILES IDX 6 1 5 2 10 3 33 4 4 5 11 6 14 7 34 8 2 9 12 10 15 11 1 12
REMARK SMILES IDX 3 13 13 14 31 15 16 16 17 17 30 18 32 19 18 20 29 21 28 22
REMARK SMILES IDX 20 23 19 24 24 25 21 26 22 27 25 28 7 29 8 30 9 31 26 32
REMARK SMILES IDX 27 33 23 35
REMARK H PARENT 27 34 23 36
REMARK Flexibility Score: inf
ROOT
ATOM      1  C   UNL     1      -5.473   2.835  -8.943  1.00  0.00     0.017 C 
ATOM      2  C   UNL     1      -5.254   4.192  -8.224  1.00  0.00     0.014 C 
ATOM      3  C   UNL     1      -4.484   2.667 -10.146  1.00  0.00     0.014 C 
ATOM      4  C   UNL     1      -5.238   1.702  -7.915  1.00  0.00     0.028 C 
ATOM      5  C   UNL     1      -6.114   4.413  -6.948  1.00  0.00     0.007 C 
ATOM      6  C   UNL     1      -3.000   2.416  -9.757  1.00  0.00     0.013 C 
ATOM      7  C   UNL     1      -3.742   1.626  -7.562  1.00  0.00    -0.064 C 
ATOM      8  C   UNL     1      -6.206   1.748  -6.703  1.00  0.00     0.015 C 
ATOM      9  C   UNL     1      -6.755   3.153  -6.241  1.00  0.00    -0.035 C 
ATOM     10  C   UNL     1      -2.749   1.268  -8.699  1.00  0.00    -0.006 C 
ATOM     11  C   UNL     1      -3.313   2.276  -6.461  1.00  0.00    -0.027 C 
ATOM     12  C   UNL     1      -6.560   3.274  -4.706  1.00  0.00     0.011 C 
ATOM     13  C   UNL     1      -8.287   3.202  -6.478  1.00  0.00     0.011 C 
ATOM     14  C   UNL     1      -3.218  -0.055  -9.382  1.00  0.00     0.017 C 
ATOM     15  C   UNL     1      -1.166   1.149  -8.185  1.00  0.00    -0.020 C 
ATOM     16  C   UNL     1      -1.892   2.341  -6.036  1.00  0.00     0.032 C 
ATOM     17  C   UNL     1      -1.115   1.149  -6.610  1.00  0.00     0.006 C 
ATOM     18  C   UNL     1      -0.417  -0.187  -8.669  1.00  0.00     0.008 C 
ATOM     19  C   UNL     1      -0.353   2.374  -8.749  1.00  0.00     0.012 C 
ATOM     20  C   UNL     1       0.280   0.882  -5.861  1.00  0.00    -0.025 C 
ATOM     21  C   UNL     1       0.579  -0.861  -7.693  1.00  0.00     0.005 C 
ATOM     22  C   UNL     1       1.296   0.171  -6.827  1.00  0.00     0.006 C 
ATOM     23  C   UNL     1       0.987   2.182  -5.367  1.00  0.00     0.010 C 
ATOM     24  C   UNL     1      -0.090   0.008  -4.614  1.00  0.00     0.012 C 
ATOM     25  C   UNL     1       2.703  -0.216  -6.225  1.00  0.00     0.020 C 
ATOM     26  C   UNL     1       2.371   1.923  -4.718  1.00  0.00     0.033 C 
ATOM     27  C   UNL     1       3.346   1.071  -5.576  1.00  0.00     0.123 C 
ATOM     28  C   UNL     1       2.622  -1.355  -5.171  1.00  0.00     0.017 C 
ENDROOT
BRANCH   1  29
ATOM     29  C   UNL     1      -6.870   2.767  -9.545  1.00  0.00     0.048 C 
ATOM     30  O   UNL     1      -7.399   1.648  -9.801  1.00  0.00    -0.550 OA
ATOM     31  O   UNL     1      -7.533   3.930  -9.935  1.00  0.00    -0.550 OA
ENDBRANCH   1  29
BRANCH  25  32
ATOM     32  C   UNL     1       3.665  -0.746  -7.348  1.00  0.00     0.165 C 
BRANCH  32  33
ATOM     33  O   UNL     1       5.002  -0.822  -6.914  1.00  0.00    -0.396 OA
ATOM     34  H   UNL     1       5.004  -1.233  -6.008  1.00  0.00     0.210 HD
ENDBRANCH  32  33
ENDBRANCH  25  32
BRANCH  27  35
ATOM     35  O   UNL     1       3.979   1.897  -6.523  1.00  0.00    -0.392 OA
ATOM     36  H   UNL     1       4.840   2.210  -6.144  1.00  0.00     0.210 HD
ENDBRANCH  27  35
TORSDOF 4
ENDMDL
MODEL 4
REMARK VINA RESULT:     0.000      3.684      6.619
REMARK INTER + INTRA:          -0.428
REMARK INTER:                   0.000
REMARK INTRA:                  -0.428
REMARK UNBOUND:                -0.428
REMARK SMILES CC1(C)CC[C@@]2(C(=O)[O-])CC[C@]3(C)C(=CC[C@@H]4[C@]5(C)CC[C@H](O)[C@](C)(CO)[C@H]5CC[C@]43C)[C@H]2C1
REMARK SMILES IDX 6 1 5 2 10 3 33 4 4 5 11 6 14 7 34 8 2 9 12 10 15 11 1 12
REMARK SMILES IDX 3 13 13 14 31 15 16 16 17 17 30 18 32 19 18 20 29 21 28 22
REMARK SMILES IDX 20 23 19 24 24 25 21 26 22 27 25 28 7 29 8 30 9 31 26 32
REMARK SMILES IDX 27 33 23 35
REMARK H PARENT 27 34 23 36
REMARK Flexibility Score: inf
ROOT
ATOM      1  C   UNL     1       3.682  -2.258 -12.720  1.00  0.00     0.017 C 
ATOM      2  C   UNL     1       2.736  -1.069 -13.030  1.00  0.00     0.014 C 
ATOM      3  C   UNL     1       4.128  -2.250 -11.218  1.00  0.00     0.014 C 
ATOM      4  C   UNL     1       2.923  -3.570 -13.030  1.00  0.00     0.028 C 
ATOM      5  C   UNL     1       2.150  -1.045 -14.470  1.00  0.00     0.007 C 
ATOM      6  C   UNL     1       3.024  -2.638 -10.195  1.00  0.00     0.013 C 
ATOM      7  C   UNL     1       1.811  -3.782 -11.988  1.00  0.00    -0.064 C 
ATOM      8  C   UNL     1       2.480  -3.702 -14.511  1.00  0.00     0.015 C 
ATOM      9  C   UNL     1       2.165  -2.381 -15.313  1.00  0.00    -0.035 C 
ATOM     10  C   UNL     1       2.235  -3.973 -10.508  1.00  0.00    -0.006 C 
ATOM     11  C   UNL     1       0.564  -3.367 -12.292  1.00  0.00    -0.027 C 
ATOM     12  C   UNL     1       0.794  -2.553 -16.021  1.00  0.00     0.011 C 
ATOM     13  C   UNL     1       3.209  -2.215 -16.449  1.00  0.00     0.011 C 
ATOM     14  C   UNL     1       3.287  -5.123 -10.427  1.00  0.00     0.017 C 
ATOM     15  C   UNL     1       0.951  -4.261  -9.480  1.00  0.00    -0.020 C 
ATOM     16  C   UNL     1      -0.589  -3.450 -11.362  1.00  0.00     0.032 C 
ATOM     17  C   UNL     1      -0.350  -4.553 -10.321  1.00  0.00     0.006 C 
ATOM     18  C   UNL     1       1.160  -5.519  -8.506  1.00  0.00     0.008 C 
ATOM     19  C   UNL     1       0.730  -2.994  -8.572  1.00  0.00     0.012 C 
ATOM     20  C   UNL     1      -1.690  -5.019  -9.573  1.00  0.00    -0.025 C 
ATOM     21  C   UNL     1      -0.068  -6.409  -8.187  1.00  0.00     0.005 C 
ATOM     22  C   UNL     1      -1.355  -5.590  -8.147  1.00  0.00     0.006 C 
ATOM     23  C   UNL     1      -2.720  -3.868  -9.350  1.00  0.00     0.010 C 
ATOM     24  C   UNL     1      -2.334  -6.089 -10.521  1.00  0.00     0.012 C 
ATOM     25  C   UNL     1      -2.563  -6.147  -7.298  1.00  0.00     0.020 C 
ATOM     26  C   UNL     1      -3.975  -4.309  -8.554  1.00  0.00     0.033 C 
ATOM     27  C   UNL     1      -3.679  -5.035  -7.214  1.00  0.00     0.123 C 
ATOM     28  C   UNL     1      -3.164  -7.456  -7.882  1.00  0.00     0.017 C 
ENDROOT
BRANCH   1  29
ATOM     29  C   UNL     1       4.966  -2.146 -13.532  1.00  0.00     0.048 C 
ATOM     30  O   UNL     1       5.670  -3.172 -13.753  1.00  0.00    -0.550 OA
ATOM     31  O   UNL     1       5.446  -0.901 -13.936  1.00  0.00    -0.550 OA
ENDBRANCH   1  29
BRANCH  25  32
ATOM     32  C   UNL     1      -2.102  -6.508  -5.840  1.00  0.00     0.165 C 
BRANCH  32  33
ATOM     33  O   UNL     1      -3.190  -6.727  -4.974  1.00  0.00    -0.396 OA
ATOM     34  H   UNL     1      -2.890  -6.514  -4.049  1.00  0.00     0.210 HD
ENDBRANCH  32  33
ENDBRANCH  25  32
BRANCH  27  35
ATOM     35  O   UNL     1      -3.417  -4.080  -6.213  1.00  0.00    -0.392 OA
ATOM     36  H   UNL     1      -4.275  -3.658  -5.947  1.00  0.00     0.210 HD
ENDBRANCH  27  35
TORSDOF 4
ENDMDL
MODEL 5
REMARK VINA RESULT:     0.000      6.800      8.958
REMARK INTER + INTRA:          -0.428
REMARK INTER:                   0.000
REMARK INTRA:                  -0.428
REMARK UNBOUND:                -0.428
REMARK SMILES CC1(C)CC[C@@]2(C(=O)[O-])CC[C@]3(C)C(=CC[C@@H]4[C@]5(C)CC[C@H](O)[C@](C)(CO)[C@H]5CC[C@]43C)[C@H]2C1
REMARK SMILES IDX 6 1 5 2 10 3 33 4 4 5 11 6 14 7 34 8 2 9 12 10 15 11 1 12
REMARK SMILES IDX 3 13 13 14 31 15 16 16 17 17 30 18 32 19 18 20 29 21 28 22
REMARK SMILES IDX 20 23 19 24 24 25 21 26 22 27 25 28 7 29 8 30 9 31 26 32
REMARK SMILES IDX 27 33 23 35
REMARK H PARENT 27 34 23 36
REMARK Flexibility Score: inf
ROOT
ATOM      1  C   UNL     1      -5.613  -5.547  -6.893  1.00  0.00     0.017 C 
ATOM      2  C   UNL     1      -6.850  -6.126  -6.158  1.00  0.00     0.014 C 
ATOM      3  C   UNL     1      -4.772  -6.684  -7.567  1.00  0.00     0.014 C 
ATOM      4  C   UNL     1      -6.115  -4.561  -7.975  1.00  0.00     0.028 C 
ATOM      5  C   UNL     1      -7.811  -5.070  -5.544  1.00  0.00     0.007 C 
ATOM      6  C   UNL     1      -5.422  -7.341  -8.817  1.00  0.00     0.013 C 
ATOM      7  C   UNL     1      -6.806  -5.342  -9.106  1.00  0.00    -0.064 C 
ATOM      8  C   UNL     1      -6.920  -3.363  -7.405  1.00  0.00     0.015 C 
ATOM      9  C   UNL     1      -7.739  -3.584  -6.075  1.00  0.00    -0.035 C 
ATOM     10  C   UNL     1      -5.948  -6.341  -9.925  1.00  0.00    -0.006 C 
ATOM     11  C   UNL     1      -8.149  -5.474  -9.061  1.00  0.00    -0.027 C 
ATOM     12  C   UNL     1      -9.179  -3.047  -6.292  1.00  0.00     0.011 C 
ATOM     13  C   UNL     1      -7.126  -2.707  -4.950  1.00  0.00     0.011 C 
ATOM     14  C   UNL     1      -4.686  -5.599 -10.466  1.00  0.00     0.017 C 
ATOM     15  C   UNL     1      -6.787  -7.080 -11.164  1.00  0.00    -0.020 C 
ATOM     16  C   UNL     1      -8.940  -6.251 -10.047  1.00  0.00     0.032 C 
ATOM     17  C   UNL     1      -8.174  -6.359 -11.372  1.00  0.00     0.006 C 
ATOM     18  C   UNL     1      -6.033  -7.042 -12.581  1.00  0.00     0.008 C 
ATOM     19  C   UNL     1      -7.018  -8.592 -10.794  1.00  0.00     0.012 C 
ATOM     20  C   UNL     1      -9.105  -6.774 -12.612  1.00  0.00    -0.025 C 
ATOM     21  C   UNL     1      -6.886  -6.850 -13.859  1.00  0.00     0.005 C 
ATOM     22  C   UNL     1      -8.258  -7.504 -13.717  1.00  0.00     0.006 C 
ATOM     23  C   UNL     1     -10.259  -7.753 -12.231  1.00  0.00     0.010 C 
ATOM     24  C   UNL     1      -9.735  -5.430 -13.115  1.00  0.00     0.012 C 
ATOM     25  C   UNL     1      -9.017  -7.929 -15.034  1.00  0.00     0.020 C 
ATOM     26  C   UNL     1     -11.103  -8.213 -13.447  1.00  0.00     0.033 C 
ATOM     27  C   UNL     1     -10.283  -8.784 -14.635  1.00  0.00     0.123 C 
ATOM     28  C   UNL     1      -9.451  -6.717 -15.905  1.00  0.00     0.017 C 
ENDROOT
BRANCH   1  29
ATOM     29  C   UNL     1      -4.673  -4.868  -5.906  1.00  0.00     0.048 C 
ATOM     30  O   UNL     1      -3.850  -3.998  -6.308  1.00  0.00    -0.550 OA
ATOM     31  O   UNL     1      -4.620  -5.281  -4.576  1.00  0.00    -0.550 OA
ENDBRANCH   1  29
BRANCH  25  32
ATOM     32  C   UNL     1      -8.092  -8.802 -15.955  1.00  0.00     0.165 C 
BRANCH  32  33
ATOM     33  O   UNL     1      -8.810  -9.439 -16.984  1.00  0.00    -0.396 OA
ATOM     34  H   UNL     1      -8.585 -10.409 -16.956  1.00  0.00     0.210 HD
ENDBRANCH  32  33
ENDBRANCH  25  32
BRANCH  27  35
ATOM     35  O   UNL     1      -9.968 -10.132 -14.382  1.00  0.00    -0.392 OA
ATOM     36  H   UNL     1     -10.098 -10.649 -15.219  1.00  0.00     0.210 HD
ENDBRANCH  27  35
TORSDOF 4
ENDMDL
MODEL 6
REMARK VINA RESULT:     0.000      8.752     11.292
REMARK INTER + INTRA:          -0.428
REMARK INTER:                   0.000
REMARK INTRA:                  -0.428
REMARK UNBOUND:                -0.428
REMARK SMILES CC1(C)CC[C@@]2(C(=O)[O-])CC[C@]3(C)C(=CC[C@@H]4[C@]5(C)CC[C@H](O)[C@](C)(CO)[C@H]5CC[C@]43C)[C@H]2C1
REMARK SMILES IDX 6 1 5 2 10 3 33 4 4 5 11 6 14 7 34 8 2 9 12 10 15 11 1 12
REMARK SMILES IDX 3 13 13 14 31 15 16 16 17 17 30 18 32 19 18 20 29 21 28 22
REMARK SMILES IDX 20 23 19 24 24 25 21 26 22 27 25 28 7 29 8 30 9 31 26 32
REMARK SMILES IDX 27 33 23 35
REMARK H PARENT 27 34 23 36
REMARK Flexibility Score: inf
ROOT
ATOM      1  C   UNL     1      -4.829  -4.439  -8.325  1.00  0.00     0.017 C 
ATOM      2  C   UNL     1      -5.202  -3.741  -9.659  1.00  0.00     0.014 C 
ATOM      3  C   UNL     1      -3.893  -3.532  -7.455  1.00  0.00     0.014 C 
ATOM      4  C   UNL     1      -6.137  -4.728  -7.551  1.00  0.00     0.028 C 
ATOM      5  C   UNL     1      -6.214  -4.514 -10.551  1.00  0.00     0.007 C 
ATOM      6  C   UNL     1      -4.577  -2.292  -6.815  1.00  0.00     0.013 C 
ATOM      7  C   UNL     1      -6.744  -3.407  -7.049  1.00  0.00    -0.064 C 
ATOM      8  C   UNL     1      -7.117  -5.665  -8.308  1.00  0.00     0.015 C 
ATOM      9  C   UNL     1      -7.103  -5.638  -9.885  1.00  0.00    -0.035 C 
ATOM     10  C   UNL     1      -5.921  -2.575  -6.031  1.00  0.00    -0.006 C 
ATOM     11  C   UNL     1      -7.697  -2.817  -7.800  1.00  0.00    -0.027 C 
ATOM     12  C   UNL     1      -8.566  -5.496 -10.385  1.00  0.00     0.011 C 
ATOM     13  C   UNL     1      -6.607  -7.010 -10.412  1.00  0.00     0.011 C 
ATOM     14  C   UNL     1      -5.531  -3.490  -4.828  1.00  0.00     0.017 C 
ATOM     15  C   UNL     1      -6.706  -1.198  -5.507  1.00  0.00    -0.020 C 
ATOM     16  C   UNL     1      -8.324  -1.512  -7.471  1.00  0.00     0.032 C 
ATOM     17  C   UNL     1      -8.215  -1.238  -5.964  1.00  0.00     0.006 C 
ATOM     18  C   UNL     1      -6.715  -1.014  -3.913  1.00  0.00     0.008 C 
ATOM     19  C   UNL     1      -5.992   0.062  -6.123  1.00  0.00     0.012 C 
ATOM     20  C   UNL     1      -9.230  -0.107  -5.451  1.00  0.00    -0.025 C 
ATOM     21  C   UNL     1      -7.985  -0.421  -3.251  1.00  0.00     0.005 C 
ATOM     22  C   UNL     1      -8.665   0.597  -4.163  1.00  0.00     0.006 C 
ATOM     23  C   UNL     1      -9.486   1.028  -6.490  1.00  0.00     0.010 C 
ATOM     24  C   UNL     1     -10.580  -0.860  -5.190  1.00  0.00     0.012 C 
ATOM     25  C   UNL     1      -9.573   1.701  -3.495  1.00  0.00     0.020 C 
ATOM     26  C   UNL     1     -10.402   2.159  -5.956  1.00  0.00     0.033 C 
ATOM     27  C   UNL     1      -9.969   2.763  -4.593  1.00  0.00     0.123 C 
ATOM     28  C   UNL     1     -10.855   1.118  -2.838  1.00  0.00     0.017 C 
ENDROOT
BRANCH   1  29
ATOM     29  C   UNL     1      -4.038  -5.713  -8.589  1.00  0.00     0.048 C 
ATOM     30  O   UNL     1      -3.993  -6.627  -7.717  1.00  0.00    -0.550 OA
ATOM     31  O   UNL     1      -3.257  -5.840  -9.737  1.00  0.00    -0.550 OA
ENDBRANCH   1  29
BRANCH  25  32
ATOM     32  C   UNL     1      -8.802   2.435  -2.340  1.00  0.00     0.165 C 
BRANCH  32  33
ATOM     33  O   UNL     1      -9.459   3.607  -1.920  1.00  0.00    -0.396 OA
ATOM     34  H   UNL     1     -10.090   3.877  -2.641  1.00  0.00     0.210 HD
ENDBRANCH  32  33
ENDBRANCH  25  32
BRANCH  27  35
ATOM     35  O   UNL     1      -8.961   3.723  -4.806  1.00  0.00    -0.392 OA
ATOM     36  H   UNL     1      -9.385   4.617  -4.869  1.00  0.00     0.210 HD
ENDBRANCH  27  35
TORSDOF 4
ENDMDL
MODEL 7
REMARK VINA RESULT:     0.000      7.012     10.424
REMARK INTER + INTRA:          -0.428
REMARK INTER:                   0.000
REMARK INTRA:                  -0.428
REMARK UNBOUND:                -0.428
REMARK SMILES CC1(C)CC[C@@]2(C(=O)[O-])CC[C@]3(C)C(=CC[C@@H]4[C@]5(C)CC[C@H](O)[C@](C)(CO)[C@H]5CC[C@]43C)[C@H]2C1
REMARK SMILES IDX 6 1 5 2 10 3 33 4 4 5 11 6 14 7 34 8 2 9 12 10 15 11 1 12
REMARK SMILES IDX 3 13 13 14 31 15 16 16 17 17 30 18 32 19 18 20 29 21 28 22
REMARK SMILES IDX 20 23 19 24 24 25 21 26 22 27 25 28 7 29 8 30 9 31 26 32
REMARK SMILES IDX 27 33 23 35
REMARK H PARENT 27 34 23 36
REMARK Flexibility Score: inf
ROOT
ATOM      1  C   UNL     1      -8.269  -5.775  -5.555  1.00  0.00     0.017 C 
ATOM      2  C   UNL     1      -7.616  -5.195  -4.273  1.00  0.00     0.014 C 
ATOM      3  C   UNL     1      -7.752  -5.036  -6.837  1.00  0.00     0.014 C 
ATOM      4  C   UNL     1      -7.907  -7.277  -5.641  1.00  0.00     0.028 C 
ATOM      5  C   UNL     1      -7.981  -5.929  -2.953  1.00  0.00     0.007 C 
ATOM      6  C   UNL     1      -6.283  -5.346  -7.237  1.00  0.00     0.013 C 
ATOM      7  C   UNL     1      -6.410  -7.432  -5.961  1.00  0.00    -0.064 C 
ATOM      8  C   UNL     1      -8.420  -8.113  -4.439  1.00  0.00     0.015 C 
ATOM      9  C   UNL     1      -8.559  -7.397  -3.040  1.00  0.00    -0.035 C 
ATOM     10  C   UNL     1      -5.900  -6.879  -7.317  1.00  0.00    -0.006 C 
ATOM     11  C   UNL     1      -5.555  -7.614  -4.934  1.00  0.00    -0.027 C 
ATOM     12  C   UNL     1      -7.871  -8.283  -1.966  1.00  0.00     0.011 C 
ATOM     13  C   UNL     1     -10.059  -7.342  -2.645  1.00  0.00     0.011 C 
ATOM     14  C   UNL     1      -6.769  -7.478  -8.467  1.00  0.00     0.017 C 
ATOM     15  C   UNL     1      -4.277  -7.162  -7.583  1.00  0.00    -0.020 C 
ATOM     16  C   UNL     1      -4.081  -7.716  -5.088  1.00  0.00     0.032 C 
ATOM     17  C   UNL     1      -3.730  -8.177  -6.509  1.00  0.00     0.006 C 
ATOM     18  C   UNL     1      -3.947  -7.794  -9.021  1.00  0.00     0.008 C 
ATOM     19  C   UNL     1      -3.497  -5.798  -7.478  1.00  0.00     0.012 C 
ATOM     20  C   UNL     1      -2.233  -8.741  -6.639  1.00  0.00    -0.025 C 
ATOM     21  C   UNL     1      -2.816  -8.848  -9.116  1.00  0.00     0.005 C 
ATOM     22  C   UNL     1      -1.704  -8.565  -8.109  1.00  0.00     0.006 C 
ATOM     23  C   UNL     1      -1.205  -8.015  -5.717  1.00  0.00     0.010 C 
ATOM     24  C   UNL     1      -2.325 -10.243  -6.201  1.00  0.00     0.012 C 
ATOM     25  C   UNL     1      -0.261  -9.123  -8.421  1.00  0.00     0.020 C 
ATOM     26  C   UNL     1       0.252  -8.510  -5.909  1.00  0.00     0.033 C 
ATOM     27  C   UNL     1       0.754  -8.513  -7.378  1.00  0.00     0.123 C 
ATOM     28  C   UNL     1      -0.188 -10.674  -8.385  1.00  0.00     0.017 C 
ENDROOT
BRANCH   1  29
ATOM     29  C   UNL     1      -9.775  -5.560  -5.534  1.00  0.00     0.048 C 
ATOM     30  O   UNL     1     -10.533  -6.287  -6.237  1.00  0.00    -0.550 OA
ATOM     31  O   UNL     1     -10.331  -4.486  -4.840  1.00  0.00    -0.550 OA
ENDBRANCH   1  29
BRANCH  25  32
ATOM     32  C   UNL     1       0.196  -8.712  -9.867  1.00  0.00     0.165 C 
BRANCH  32  33
ATOM     33  O   UNL     1       1.570  -8.933 -10.076  1.00  0.00    -0.396 OA
ATOM     34  H   UNL     1       1.798  -8.591 -10.982  1.00  0.00     0.210 HD
ENDBRANCH  32  33
ENDBRANCH  25  32
BRANCH  27  35
ATOM     35  O   UNL     1       1.179  -7.218  -7.730  1.00  0.00    -0.392 OA
ATOM     36  H   UNL     1       0.382  -6.678  -7.971  1.00  0.00     0.210 HD
ENDBRANCH  27  35
TORSDOF 4
ENDMDL
MODEL 8
REMARK VINA RESULT:     0.000      7.739     11.910
REMARK INTER + INTRA:          -0.428
REMARK INTER:                   0.000
REMARK INTRA:                  -0.428
REMARK UNBOUND:                -0.428
REMARK SMILES CC1(C)CC[C@@]2(C(=O)[O-])CC[C@]3(C)C(=CC[C@@H]4[C@]5(C)CC[C@H](O)[C@](C)(CO)[C@H]5CC[C@]43C)[C@H]2C1
REMARK SMILES IDX 6 1 5 2 10 3 33 4 4 5 11 6 14 7 34 8 2 9 12 10 15 11 1 12
REMARK SMILES IDX 3 13 13 14 31 15 16 16 17 17 30 18 32 19 18 20 29 21 28 22
REMARK SMILES IDX 20 23 19 24 24 25 21 26 22 27 25 28 7 29 8 30 9 31 26 32
REMARK SMILES IDX 27 33 23 35
REMARK H PARENT 27 34 23 36
REMARK Flexibility Score: inf
ROOT
ATOM      1  C   UNL     1      -5.055  -5.623  -9.068  1.00  0.00     0.017 C 
ATOM      2  C   UNL     1      -6.209  -4.610  -8.852  1.00  0.00     0.014 C 
ATOM      3  C   UNL     1      -3.784  -5.216  -8.247  1.00  0.00     0.014 C 
ATOM      4  C   UNL     1      -5.545  -7.017  -8.608  1.00  0.00     0.028 C 
ATOM      5  C   UNL     1      -7.553  -4.980  -9.540  1.00  0.00     0.007 C 
ATOM      6  C   UNL     1      -3.895  -5.409  -6.709  1.00  0.00     0.013 C 
ATOM      7  C   UNL     1      -5.688  -7.035  -7.076  1.00  0.00    -0.064 C 
ATOM      8  C   UNL     1      -6.775  -7.539  -9.397  1.00  0.00     0.015 C 
ATOM      9  C   UNL     1      -7.789  -6.480  -9.979  1.00  0.00    -0.035 C 
ATOM     10  C   UNL     1      -4.406  -6.826  -6.228  1.00  0.00    -0.006 C 
ATOM     11  C   UNL     1      -6.904  -6.788  -6.546  1.00  0.00    -0.027 C 
ATOM     12  C   UNL     1      -9.227  -6.909  -9.580  1.00  0.00     0.011 C 
ATOM     13  C   UNL     1      -7.746  -6.534 -11.529  1.00  0.00     0.011 C 
ATOM     14  C   UNL     1      -3.323  -7.851  -6.688  1.00  0.00     0.017 C 
ATOM     15  C   UNL     1      -4.672  -6.932  -4.584  1.00  0.00    -0.020 C 
ATOM     16  C   UNL     1      -7.175  -6.711  -5.089  1.00  0.00     0.032 C 
ATOM     17  C   UNL     1      -6.115  -7.505  -4.312  1.00  0.00     0.006 C 
ATOM     18  C   UNL     1      -3.644  -7.895  -3.813  1.00  0.00     0.008 C 
ATOM     19  C   UNL     1      -4.536  -5.497  -3.951  1.00  0.00     0.012 C 
ATOM     20  C   UNL     1      -6.560  -7.856  -2.811  1.00  0.00    -0.025 C 
ATOM     21  C   UNL     1      -4.183  -8.754  -2.643  1.00  0.00     0.005 C 
ATOM     22  C   UNL     1      -5.299  -8.034  -1.890  1.00  0.00     0.006 C 
ATOM     23  C   UNL     1      -7.437  -6.753  -2.141  1.00  0.00     0.010 C 
ATOM     24  C   UNL     1      -7.413  -9.165  -2.936  1.00  0.00     0.012 C 
ATOM     25  C   UNL     1      -5.563  -8.440  -0.388  1.00  0.00     0.020 C 
ATOM     26  C   UNL     1      -7.794  -7.063  -0.664  1.00  0.00     0.033 C 
ATOM     27  C   UNL     1      -6.583  -7.414   0.242  1.00  0.00     0.123 C 
ATOM     28  C   UNL     1      -6.106  -9.887  -0.235  1.00  0.00     0.017 C 
ENDROOT
BRANCH   1  29
ATOM     29  C   UNL     1      -4.617  -5.635 -10.526  1.00  0.00     0.048 C 
ATOM     30  O   UNL     1      -4.011  -6.636 -11.001  1.00  0.00    -0.550 OA
ATOM     31  O   UNL     1      -4.768  -4.500 -11.323  1.00  0.00    -0.550 OA
ENDBRANCH   1  29
BRANCH  25  32
ATOM     32  C   UNL     1      -4.231  -8.399   0.444  1.00  0.00     0.165 C 
BRANCH  32  33
ATOM     33  O   UNL     1      -4.464  -8.465   1.831  1.00  0.00    -0.396 OA
ATOM     34  H   UNL     1      -4.814  -7.580   2.123  1.00  0.00     0.210 HD
ENDBRANCH  32  33
ENDBRANCH  25  32
BRANCH  27  35
ATOM     35  O   UNL     1      -5.961  -6.227   0.673  1.00  0.00    -0.392 OA
ATOM     36  H   UNL     1      -6.304  -6.000   1.576  1.00  0.00     0.210 HD
ENDBRANCH  27  35
TORSDOF 4
ENDMDL
MODEL 9
REMARK VINA RESULT:     0.000      5.577      7.330
REMARK INTER + INTRA:          -0.428
REMARK INTER:                   0.000
REMARK INTRA:                  -0.428
REMARK UNBOUND:                -0.428
REMARK SMILES CC1(C)CC[C@@]2(C(=O)[O-])CC[C@]3(C)C(=CC[C@@H]4[C@]5(C)CC[C@H](O)[C@](C)(CO)[C@H]5CC[C@]43C)[C@H]2C1
REMARK SMILES IDX 6 1 5 2 10 3 33 4 4 5 11 6 14 7 34 8 2 9 12 10 15 11 1 12
REMARK SMILES IDX 3 13 13 14 31 15 16 16 17 17 30 18 32 19 18 20 29 21 28 22
REMARK SMILES IDX 20 23 19 24 24 25 21 26 22 27 25 28 7 29 8 30 9 31 26 32
REMARK SMILES IDX 27 33 23 35
REMARK H PARENT 27 34 23 36
REMARK Flexibility Score: inf
ROOT
ATOM      1  C   UNL     1      -0.134  -2.178  -1.589  1.00  0.00     0.017 C 
ATOM      2  C   UNL     1       0.266  -0.857  -2.297  1.00  0.00     0.014 C 
ATOM      3  C   UNL     1      -1.553  -2.061  -0.935  1.00  0.00     0.014 C 
ATOM      4  C   UNL     1      -0.142  -3.307  -2.648  1.00  0.00     0.028 C 
ATOM      5  C   UNL     1       1.613  -0.901  -3.071  1.00  0.00     0.007 C 
ATOM      6  C   UNL     1      -2.745  -2.032  -1.932  1.00  0.00     0.013 C 
ATOM      7  C   UNL     1      -1.323  -3.103  -3.612  1.00  0.00    -0.064 C 
ATOM      8  C   UNL     1       1.235  -3.540  -3.323  1.00  0.00     0.015 C 
ATOM      9  C   UNL     1       2.212  -2.309  -3.466  1.00  0.00    -0.035 C 
ATOM     10  C   UNL     1      -2.757  -3.176  -3.025  1.00  0.00    -0.006 C 
ATOM     11  C   UNL     1      -1.094  -2.456  -4.773  1.00  0.00    -0.027 C 
ATOM     12  C   UNL     1       2.721  -2.255  -4.932  1.00  0.00     0.011 C 
ATOM     13  C   UNL     1       3.469  -2.554  -2.591  1.00  0.00     0.011 C 
ATOM     14  C   UNL     1      -2.915  -4.516  -2.241  1.00  0.00     0.017 C 
ATOM     15  C   UNL     1      -3.956  -3.007  -4.173  1.00  0.00    -0.020 C 
ATOM     16  C   UNL     1      -2.149  -2.134  -5.768  1.00  0.00     0.032 C 
ATOM     17  C   UNL     1      -3.330  -3.103  -5.616  1.00  0.00     0.006 C 
ATOM     18  C   UNL     1      -5.103  -4.128  -4.095  1.00  0.00     0.008 C 
ATOM     19  C   UNL     1      -4.653  -1.608  -3.982  1.00  0.00     0.012 C 
ATOM     20  C   UNL     1      -4.293  -3.133  -6.899  1.00  0.00    -0.025 C 
ATOM     21  C   UNL     1      -5.705  -4.652  -5.422  1.00  0.00     0.005 C 
ATOM     22  C   UNL     1      -5.749  -3.558  -6.485  1.00  0.00     0.006 C 
ATOM     23  C   UNL     1      -4.429  -1.754  -7.616  1.00  0.00     0.010 C 
ATOM     24  C   UNL     1      -3.621  -4.146  -7.889  1.00  0.00     0.012 C 
ATOM     25  C   UNL     1      -6.811  -3.692  -7.645  1.00  0.00     0.020 C 
ATOM     26  C   UNL     1      -5.426  -1.772  -8.804  1.00  0.00     0.033 C 
ATOM     27  C   UNL     1      -6.828  -2.349  -8.473  1.00  0.00     0.123 C 
ATOM     28  C   UNL     1      -6.532  -4.893  -8.590  1.00  0.00     0.017 C 
ENDROOT
BRANCH   1  29
ATOM     29  C   UNL     1       0.823  -2.485  -0.447  1.00  0.00     0.048 C 
ATOM     30  O   UNL     1       0.943  -3.668  -0.017  1.00  0.00    -0.550 OA
ATOM     31  O   UNL     1       1.486  -1.457   0.222  1.00  0.00    -0.550 OA
ENDBRANCH   1  29
BRANCH  25  32
ATOM     32  C   UNL     1      -8.248  -3.940  -7.060  1.00  0.00     0.165 C 
BRANCH  32  33
ATOM     33  O   UNL     1      -9.255  -3.773  -8.029  1.00  0.00    -0.396 OA
ATOM     34  H   UNL     1     -10.098  -4.155  -7.660  1.00  0.00     0.210 HD
ENDBRANCH  32  33
ENDBRANCH  25  32
BRANCH  27  35
ATOM     35  O   UNL     1      -7.615  -1.350  -7.869  1.00  0.00    -0.392 OA
ATOM     36  H   UNL     1      -8.193  -1.774  -7.184  1.00  0.00     0.210 HD
ENDBRANCH  27  35
TORSDOF 4
ENDMDL
