MODEL 1
REMARK VINA RESULT:    -6.509      0.000      0.000
REMARK INTER + INTRA:         -10.402
REMARK INTER:                  -8.982
REMARK INTRA:                  -1.419
REMARK UNBOUND:                -1.419
REMARK SMILES C=C(CC[C@H](C(=O)[O-])[C@H]1CC[C@]2(C)C3=C(CC[C@@]12C)[C@]1(C)CC[C@H](O)C(C)(C)[C@H]1CC3)C(C)C
REMARK SMILES IDX 4 1 5 2 6 3 7 4 8 5 9 6 10 7 18 8 11 9 12 10 17 11 19 12
REMARK SMILES IDX 13 13 14 14 16 15 15 16 31 17 20 18 30 19 29 20 22 21 21 22
REMARK SMILES IDX 26 23 23 24 24 25 27 26 28 27 25 28 3 30 2 31 1 32 32 33
REMARK SMILES IDX 33 34 34 35
REMARK H PARENT 25 29
REMARK Flexibility Score: inf
ROOT
ATOM      1  C   UNL     1     176.238 173.802 186.249  1.00  0.00     0.014 C 
ENDROOT
BRANCH   1   2
ATOM      2  C   UNL     1     177.669 173.336 186.631  1.00  0.00     0.039 C 
BRANCH   2   3
ATOM      3  C   UNL     1     178.715 174.390 186.350  1.00  0.00     0.045 C 
ATOM      4  O   UNL     1     179.378 174.881 187.302  1.00  0.00    -0.550 OA
ATOM      5  O   UNL     1     178.981 174.816 185.053  1.00  0.00    -0.550 OA
ENDBRANCH   2   3
BRANCH   2   6
ATOM      6  C   UNL     1     178.143 171.927 186.114  1.00  0.00     0.004 C 
ATOM      7  C   UNL     1     179.611 171.552 186.448  1.00  0.00     0.006 C 
ATOM      8  C   UNL     1     177.313 170.614 186.381  1.00  0.00    -0.020 C 
ATOM      9  C   UNL     1     179.619 170.061 186.828  1.00  0.00     0.012 C 
ATOM     10  C   UNL     1     178.201 169.784 187.356  1.00  0.00    -0.006 C 
ATOM     11  C   UNL     1     175.898 170.700 186.983  1.00  0.00     0.012 C 
ATOM     12  C   UNL     1     177.154 169.911 184.980  1.00  0.00     0.012 C 
ATOM     13  C   UNL     1     178.177 170.234 188.852  1.00  0.00     0.017 C 
ATOM     14  C   UNL     1     177.711 168.343 187.364  1.00  0.00    -0.064 C 
ATOM     15  C   UNL     1     175.352 169.299 187.400  1.00  0.00     0.032 C 
ATOM     16  C   UNL     1     176.358 168.122 187.493  1.00  0.00    -0.064 C 
ATOM     17  C   UNL     1     178.749 167.229 187.422  1.00  0.00     0.032 C 
ATOM     18  C   UNL     1     175.799 166.684 187.585  1.00  0.00    -0.008 C 
ATOM     19  C   UNL     1     178.189 165.805 187.521  1.00  0.00     0.009 C 
ATOM     20  C   UNL     1     176.866 165.783 188.310  1.00  0.00     0.007 C 
ATOM     21  C   UNL     1     174.487 166.670 188.420  1.00  0.00     0.014 C 
ATOM     22  C   UNL     1     175.487 166.258 186.125  1.00  0.00     0.016 C 
ATOM     23  C   UNL     1     176.405 164.340 188.785  1.00  0.00    -0.006 C 
ATOM     24  C   UNL     1     173.980 165.260 188.740  1.00  0.00     0.033 C 
ATOM     25  C   UNL     1     175.015 164.419 189.508  1.00  0.00     0.120 C 
ATOM     26  C   UNL     1     177.441 163.772 189.798  1.00  0.00     0.014 C 
ATOM     27  C   UNL     1     176.317 163.303 187.631  1.00  0.00     0.014 C 
BRANCH  25  28
ATOM     28  O   UNL     1     175.117 164.867 190.842  1.00  0.00    -0.393 OA
ATOM     29  H   UNL     1     174.566 164.277 191.414  1.00  0.00     0.210 HD
ENDBRANCH  25  28
ENDBRANCH   2   6
ENDBRANCH   1   2
BRANCH   1  30
ATOM     30  C   UNL     1     175.587 174.675 187.341  1.00  0.00     0.031 C 
BRANCH  30  31
ATOM     31  C   UNL     1     175.228 173.846 188.560  1.00  0.00    -0.075 C 
ATOM     32  C   UNL     1     173.974 173.376 188.686  1.00  0.00     0.008 C 
BRANCH  31  33
ATOM     33  C   UNL     1     176.244 173.598 189.668  1.00  0.00     0.008 C 
ATOM     34  C   UNL     1     177.016 174.876 190.017  1.00  0.00     0.012 C 
ATOM     35  C   UNL     1     175.564 173.009 190.911  1.00  0.00     0.012 C 
ENDBRANCH  31  33
ENDBRANCH  30  31
ENDBRANCH   1  30
TORSDOF 7
ENDMDL
MODEL 2
REMARK VINA RESULT:    -6.346      6.192      9.877
REMARK INTER + INTRA:         -10.177
REMARK INTER:                  -8.921
REMARK INTRA:                  -1.257
REMARK UNBOUND:                -1.419
REMARK SMILES C=C(CC[C@H](C(=O)[O-])[C@H]1CC[C@]2(C)C3=C(CC[C@@]12C)[C@]1(C)CC[C@H](O)C(C)(C)[C@H]1CC3)C(C)C
REMARK SMILES IDX 4 1 5 2 6 3 7 4 8 5 9 6 10 7 18 8 11 9 12 10 17 11 19 12
REMARK SMILES IDX 13 13 14 14 16 15 15 16 31 17 20 18 30 19 29 20 22 21 21 22
REMARK SMILES IDX 26 23 23 24 24 25 27 26 28 27 25 28 3 30 2 31 1 32 32 33
REMARK SMILES IDX 33 34 34 35
REMARK H PARENT 25 29
REMARK Flexibility Score: inf
ROOT
ATOM      1  C   UNL     1     175.957 164.275 185.943  1.00  0.00     0.014 C 
ENDROOT
BRANCH   1   2
ATOM      2  C   UNL     1     175.830 162.880 186.613  1.00  0.00     0.039 C 
BRANCH   2   3
ATOM      3  C   UNL     1     177.148 162.140 186.663  1.00  0.00     0.045 C 
ATOM      4  O   UNL     1     177.943 162.215 185.689  1.00  0.00    -0.550 OA
ATOM      5  O   UNL     1     177.514 161.393 187.776  1.00  0.00    -0.550 OA
ENDBRANCH   2   3
BRANCH   2   6
ATOM      6  C   UNL     1     174.677 161.932 186.117  1.00  0.00     0.004 C 
ATOM      7  C   UNL     1     174.796 160.448 186.556  1.00  0.00     0.006 C 
ATOM      8  C   UNL     1     173.154 162.295 186.306  1.00  0.00    -0.020 C 
ATOM      9  C   UNL     1     173.378 159.972 186.919  1.00  0.00     0.012 C 
ATOM     10  C   UNL     1     172.630 161.250 187.335  1.00  0.00    -0.006 C 
ATOM     11  C   UNL     1     172.747 163.696 186.800  1.00  0.00     0.012 C 
ATOM     12  C   UNL     1     172.489 162.117 184.888  1.00  0.00     0.012 C 
ATOM     13  C   UNL     1     172.992 161.523 188.830  1.00  0.00     0.017 C 
ATOM     14  C   UNL     1     171.108 161.233 187.290  1.00  0.00    -0.064 C 
ATOM     15  C   UNL     1     171.230 163.773 187.158  1.00  0.00     0.032 C 
ATOM     16  C   UNL     1     170.449 162.442 187.314  1.00  0.00    -0.064 C 
ATOM     17  C   UNL     1     170.398 159.891 187.414  1.00  0.00     0.032 C 
ATOM     18  C   UNL     1     168.905 162.497 187.347  1.00  0.00    -0.008 C 
ATOM     19  C   UNL     1     168.867 159.952 187.454  1.00  0.00     0.009 C 
ATOM     20  C   UNL     1     168.381 161.243 188.141  1.00  0.00     0.007 C 
ATOM     21  C   UNL     1     168.429 163.784 188.080  1.00  0.00     0.014 C 
ATOM     22  C   UNL     1     168.452 162.550 185.863  1.00  0.00     0.016 C 
ATOM     23  C   UNL     1     166.851 161.230 188.563  1.00  0.00    -0.006 C 
ATOM     24  C   UNL     1     166.920 163.814 188.345  1.00  0.00     0.033 C 
ATOM     25  C   UNL     1     166.441 162.613 189.180  1.00  0.00     0.120 C 
ATOM     26  C   UNL     1     166.620 160.135 189.645  1.00  0.00     0.014 C 
ATOM     27  C   UNL     1     165.885 160.891 187.394  1.00  0.00     0.014 C 
BRANCH  25  28
ATOM     28  O   UNL     1     166.849 162.756 190.522  1.00  0.00    -0.393 OA
ATOM     29  H   UNL     1     167.669 163.309 190.544  1.00  0.00     0.210 HD
ENDBRANCH  25  28
ENDBRANCH   2   6
ENDBRANCH   1   2
BRANCH   1  30
ATOM     30  C   UNL     1     175.722 165.432 186.935  1.00  0.00     0.031 C 
BRANCH  30  31
ATOM     31  C   UNL     1     176.706 165.373 188.088  1.00  0.00    -0.075 C 
ATOM     32  C   UNL     1     178.016 165.544 187.840  1.00  0.00     0.008 C 
BRANCH  31  33
ATOM     33  C   UNL     1     176.239 165.058 189.504  1.00  0.00     0.008 C 
ATOM     34  C   UNL     1     174.721 164.840 189.558  1.00  0.00     0.012 C 
ATOM     35  C   UNL     1     176.989 163.845 190.069  1.00  0.00     0.012 C 
ENDBRANCH  31  33
ENDBRANCH  30  31
ENDBRANCH   1  30
TORSDOF 7
ENDMDL
MODEL 3
REMARK VINA RESULT:    -6.326     12.154     16.548
REMARK INTER + INTRA:         -10.149
REMARK INTER:                  -9.042
REMARK INTRA:                  -1.107
REMARK UNBOUND:                -1.419
REMARK SMILES C=C(CC[C@H](C(=O)[O-])[C@H]1CC[C@]2(C)C3=C(CC[C@@]12C)[C@]1(C)CC[C@H](O)C(C)(C)[C@H]1CC3)C(C)C
REMARK SMILES IDX 4 1 5 2 6 3 7 4 8 5 9 6 10 7 18 8 11 9 12 10 17 11 19 12
REMARK SMILES IDX 13 13 14 14 16 15 15 16 31 17 20 18 30 19 29 20 22 21 21 22
REMARK SMILES IDX 26 23 23 24 24 25 27 26 28 27 25 28 3 30 2 31 1 32 32 33
REMARK SMILES IDX 33 34 34 35
REMARK H PARENT 25 29
REMARK Flexibility Score: inf
ROOT
ATOM      1  C   UNL     1     164.775 161.478 186.874  1.00  0.00     0.014 C 
ENDROOT
BRANCH   1   2
ATOM      2  C   UNL     1     163.604 161.005 185.971  1.00  0.00     0.039 C 
BRANCH   2   3
ATOM      3  C   UNL     1     164.082 160.443 184.651  1.00  0.00     0.045 C 
ATOM      4  O   UNL     1     163.241 160.102 183.777  1.00  0.00    -0.550 OA
ATOM      5  O   UNL     1     165.437 160.315 184.369  1.00  0.00    -0.550 OA
ENDBRANCH   2   3
BRANCH   2   6
ATOM      6  C   UNL     1     162.400 161.994 185.753  1.00  0.00     0.004 C 
ATOM      7  C   UNL     1     161.089 161.625 186.496  1.00  0.00     0.006 C 
ATOM      8  C   UNL     1     162.552 163.553 185.938  1.00  0.00    -0.020 C 
ATOM      9  C   UNL     1     160.488 162.939 187.026  1.00  0.00     0.012 C 
ATOM     10  C   UNL     1     161.692 163.881 187.194  1.00  0.00    -0.006 C 
ATOM     11  C   UNL     1     163.946 164.177 186.138  1.00  0.00     0.012 C 
ATOM     12  C   UNL     1     161.962 164.202 184.629  1.00  0.00     0.012 C 
ATOM     13  C   UNL     1     162.344 163.545 188.574  1.00  0.00     0.017 C 
ATOM     14  C   UNL     1     161.427 165.380 187.233  1.00  0.00    -0.064 C 
ATOM     15  C   UNL     1     163.861 165.680 186.549  1.00  0.00     0.032 C 
ATOM     16  C   UNL     1     162.492 166.228 187.029  1.00  0.00    -0.064 C 
ATOM     17  C   UNL     1     160.051 165.857 187.681  1.00  0.00     0.032 C 
ATOM     18  C   UNL     1     162.310 167.760 187.130  1.00  0.00    -0.008 C 
ATOM     19  C   UNL     1     159.879 167.377 187.786  1.00  0.00     0.009 C 
ATOM     20  C   UNL     1     161.196 168.057 188.202  1.00  0.00     0.007 C 
ATOM     21  C   UNL     1     163.636 168.430 187.591  1.00  0.00     0.014 C 
ATOM     22  C   UNL     1     161.961 168.239 185.694  1.00  0.00     0.016 C 
ATOM     23  C   UNL     1     161.037 169.557 188.696  1.00  0.00    -0.006 C 
ATOM     24  C   UNL     1     163.487 169.919 187.921  1.00  0.00     0.033 C 
ATOM     25  C   UNL     1     162.441 170.180 189.019  1.00  0.00     0.120 C 
ATOM     26  C   UNL     1     160.187 169.587 189.999  1.00  0.00     0.014 C 
ATOM     27  C   UNL     1     160.300 170.473 187.679  1.00  0.00     0.014 C 
BRANCH  25  28
ATOM     28  O   UNL     1     162.940 169.779 190.276  1.00  0.00    -0.393 OA
ATOM     29  H   UNL     1     162.698 168.831 190.422  1.00  0.00     0.210 HD
ENDBRANCH  25  28
ENDBRANCH   2   6
ENDBRANCH   1   2
BRANCH   1  30
ATOM     30  C   UNL     1     164.671 160.934 188.313  1.00  0.00     0.031 C 
BRANCH  30  31
ATOM     31  C   UNL     1     165.826 161.423 189.167  1.00  0.00    -0.075 C 
ATOM     32  C   UNL     1     166.436 160.561 189.999  1.00  0.00     0.008 C 
BRANCH  31  33
ATOM     33  C   UNL     1     166.257 162.885 189.143  1.00  0.00     0.008 C 
ATOM     34  C   UNL     1     165.889 163.599 190.450  1.00  0.00     0.012 C 
ATOM     35  C   UNL     1     167.758 163.007 188.852  1.00  0.00     0.012 C 
ENDBRANCH  31  33
ENDBRANCH  30  31
ENDBRANCH   1  30
TORSDOF 7
ENDMDL
MODEL 4
REMARK VINA RESULT:    -6.266     15.491     17.873
REMARK INTER + INTRA:         -10.066
REMARK INTER:                  -8.465
REMARK INTRA:                  -1.602
REMARK UNBOUND:                -1.419
REMARK SMILES C=C(CC[C@H](C(=O)[O-])[C@H]1CC[C@]2(C)C3=C(CC[C@@]12C)[C@]1(C)CC[C@H](O)C(C)(C)[C@H]1CC3)C(C)C
REMARK SMILES IDX 4 1 5 2 6 3 7 4 8 5 9 6 10 7 18 8 11 9 12 10 17 11 19 12
REMARK SMILES IDX 13 13 14 14 16 15 15 16 31 17 20 18 30 19 29 20 22 21 21 22
REMARK SMILES IDX 26 23 23 24 24 25 27 26 28 27 25 28 3 30 2 31 1 32 32 33
REMARK SMILES IDX 33 34 34 35
REMARK H PARENT 25 29
REMARK Flexibility Score: inf
ROOT
ATOM      1  C   UNL     1     164.404 162.714 177.785  1.00  0.00     0.014 C 
ENDROOT
BRANCH   1   2
ATOM      2  C   UNL     1     164.790 161.973 179.093  1.00  0.00     0.039 C 
BRANCH   2   3
ATOM      3  C   UNL     1     165.868 160.935 178.874  1.00  0.00     0.045 C 
ATOM      4  O   UNL     1     165.851 160.229 177.831  1.00  0.00    -0.550 OA
ATOM      5  O   UNL     1     166.896 160.758 179.792  1.00  0.00    -0.550 OA
ENDBRANCH   2   3
BRANCH   2   6
ATOM      6  C   UNL     1     163.626 161.390 179.976  1.00  0.00     0.004 C 
ATOM      7  C   UNL     1     163.827 159.933 180.472  1.00  0.00     0.006 C 
ATOM      8  C   UNL     1     163.045 162.168 181.218  1.00  0.00    -0.020 C 
ATOM      9  C   UNL     1     163.318 159.876 181.922  1.00  0.00     0.012 C 
ATOM     10  C   UNL     1     163.473 161.313 182.448  1.00  0.00    -0.006 C 
ATOM     11  C   UNL     1     163.462 163.627 181.483  1.00  0.00     0.012 C 
ATOM     12  C   UNL     1     161.481 162.186 181.024  1.00  0.00     0.012 C 
ATOM     13  C   UNL     1     164.958 161.473 182.906  1.00  0.00     0.017 C 
ATOM     14  C   UNL     1     162.638 161.728 183.652  1.00  0.00    -0.064 C 
ATOM     15  C   UNL     1     162.982 164.129 182.880  1.00  0.00     0.032 C 
ATOM     16  C   UNL     1     162.499 163.074 183.908  1.00  0.00    -0.064 C 
ATOM     17  C   UNL     1     162.163 160.642 184.609  1.00  0.00     0.032 C 
ATOM     18  C   UNL     1     161.730 163.563 185.156  1.00  0.00    -0.008 C 
ATOM     19  C   UNL     1     161.407 161.133 185.848  1.00  0.00     0.009 C 
ATOM     20  C   UNL     1     161.928 162.508 186.307  1.00  0.00     0.007 C 
ATOM     21  C   UNL     1     162.294 164.932 185.633  1.00  0.00     0.014 C 
ATOM     22  C   UNL     1     160.256 163.743 184.699  1.00  0.00     0.016 C 
ATOM     23  C   UNL     1     161.480 162.929 187.770  1.00  0.00    -0.006 C 
ATOM     24  C   UNL     1     161.733 165.388 186.984  1.00  0.00     0.033 C 
ATOM     25  C   UNL     1     161.997 164.371 188.108  1.00  0.00     0.120 C 
ATOM     26  C   UNL     1     162.099 161.943 188.805  1.00  0.00     0.014 C 
ATOM     27  C   UNL     1     159.943 162.877 187.991  1.00  0.00     0.014 C 
BRANCH  25  28
ATOM     28  O   UNL     1     163.358 164.392 188.477  1.00  0.00    -0.393 OA
ATOM     29  H   UNL     1     163.445 163.997 189.380  1.00  0.00     0.210 HD
ENDBRANCH  25  28
ENDBRANCH   2   6
ENDBRANCH   1   2
BRANCH   1  30
ATOM     30  C   UNL     1     163.111 162.162 177.150  1.00  0.00     0.031 C 
BRANCH  30  31
ATOM     31  C   UNL     1     161.982 163.171 177.246  1.00  0.00    -0.075 C 
ATOM     32  C   UNL     1     162.257 164.427 177.638  1.00  0.00     0.008 C 
BRANCH  31  33
ATOM     33  C   UNL     1     160.540 162.763 176.969  1.00  0.00     0.008 C 
ATOM     34  C   UNL     1     160.312 162.483 175.478  1.00  0.00     0.012 C 
ATOM     35  C   UNL     1     160.141 161.554 177.824  1.00  0.00     0.012 C 
ENDBRANCH  31  33
ENDBRANCH  30  31
ENDBRANCH   1  30
TORSDOF 7
ENDMDL
MODEL 5
REMARK VINA RESULT:    -6.235      9.645     14.402
REMARK INTER + INTRA:         -10.024
REMARK INTER:                  -8.874
REMARK INTRA:                  -1.150
REMARK UNBOUND:                -1.419
REMARK SMILES C=C(CC[C@H](C(=O)[O-])[C@H]1CC[C@]2(C)C3=C(CC[C@@]12C)[C@]1(C)CC[C@H](O)C(C)(C)[C@H]1CC3)C(C)C
REMARK SMILES IDX 4 1 5 2 6 3 7 4 8 5 9 6 10 7 18 8 11 9 12 10 17 11 19 12
REMARK SMILES IDX 13 13 14 14 16 15 15 16 31 17 20 18 30 19 29 20 22 21 21 22
REMARK SMILES IDX 26 23 23 24 24 25 27 26 28 27 25 28 3 30 2 31 1 32 32 33
REMARK SMILES IDX 33 34 34 35
REMARK H PARENT 25 29
REMARK Flexibility Score: inf
ROOT
ATOM      1  C   UNL     1     170.981 160.136 185.947  1.00  0.00     0.014 C 
ENDROOT
BRANCH   1   2
ATOM      2  C   UNL     1     169.643 160.892 185.726  1.00  0.00     0.039 C 
BRANCH   2   3
ATOM      3  C   UNL     1     169.784 162.049 184.764  1.00  0.00     0.045 C 
ATOM      4  O   UNL     1     168.991 162.153 183.791  1.00  0.00    -0.550 OA
ATOM      5  O   UNL     1     170.762 163.021 184.942  1.00  0.00    -0.550 OA
ENDBRANCH   2   3
BRANCH   2   6
ATOM      6  C   UNL     1     168.824 161.321 186.999  1.00  0.00     0.004 C 
ATOM      7  C   UNL     1     169.105 162.754 187.523  1.00  0.00     0.006 C 
ATOM      8  C   UNL     1     167.259 161.153 187.085  1.00  0.00    -0.020 C 
ATOM      9  C   UNL     1     167.753 163.351 187.950  1.00  0.00     0.012 C 
ATOM     10  C   UNL     1     166.711 162.611 187.094  1.00  0.00    -0.006 C 
ATOM     11  C   UNL     1     166.503 160.366 185.997  1.00  0.00     0.012 C 
ATOM     12  C   UNL     1     166.979 160.406 188.444  1.00  0.00     0.012 C 
ATOM     13  C   UNL     1     166.666 163.331 185.708  1.00  0.00     0.017 C 
ATOM     14  C   UNL     1     165.269 162.593 187.581  1.00  0.00    -0.064 C 
ATOM     15  C   UNL     1     164.956 160.528 186.126  1.00  0.00     0.032 C 
ATOM     16  C   UNL     1     164.414 161.663 187.034  1.00  0.00    -0.064 C 
ATOM     17  C   UNL     1     164.803 163.718 188.498  1.00  0.00     0.032 C 
ATOM     18  C   UNL     1     162.920 161.638 187.426  1.00  0.00    -0.008 C 
ATOM     19  C   UNL     1     163.319 163.692 188.878  1.00  0.00     0.009 C 
ATOM     20  C   UNL     1     162.464 163.112 187.736  1.00  0.00     0.007 C 
ATOM     21  C   UNL     1     162.063 161.090 186.248  1.00  0.00     0.014 C 
ATOM     22  C   UNL     1     162.816 160.668 188.635  1.00  0.00     0.016 C 
ATOM     23  C   UNL     1     160.906 163.383 187.874  1.00  0.00    -0.006 C 
ATOM     24  C   UNL     1     160.554 161.229 186.472  1.00  0.00     0.033 C 
ATOM     25  C   UNL     1     160.122 162.687 186.707  1.00  0.00     0.120 C 
ATOM     26  C   UNL     1     160.635 164.913 187.788  1.00  0.00     0.014 C 
ATOM     27  C   UNL     1     160.310 162.916 189.232  1.00  0.00     0.014 C 
BRANCH  25  28
ATOM     28  O   UNL     1     160.180 163.414 185.500  1.00  0.00    -0.393 OA
ATOM     29  H   UNL     1     160.858 164.128 185.595  1.00  0.00     0.210 HD
ENDBRANCH  25  28
ENDBRANCH   2   6
ENDBRANCH   1   2
BRANCH   1  30
ATOM     30  C   UNL     1     171.275 159.876 187.438  1.00  0.00     0.031 C 
BRANCH  30  31
ATOM     31  C   UNL     1     172.643 160.407 187.826  1.00  0.00    -0.075 C 
ATOM     32  C   UNL     1     173.275 159.875 188.887  1.00  0.00     0.008 C 
BRANCH  31  33
ATOM     33  C   UNL     1     173.276 161.571 187.074  1.00  0.00     0.008 C 
ATOM     34  C   UNL     1     172.985 162.909 187.766  1.00  0.00     0.012 C 
ATOM     35  C   UNL     1     174.785 161.356 186.903  1.00  0.00     0.012 C 
ENDBRANCH  31  33
ENDBRANCH  30  31
ENDBRANCH   1  30
TORSDOF 7
ENDMDL
MODEL 6
REMARK VINA RESULT:    -6.178      7.678     10.656
REMARK INTER + INTRA:          -9.945
REMARK INTER:                  -8.305
REMARK INTRA:                  -1.640
REMARK UNBOUND:                -1.419
REMARK SMILES C=C(CC[C@H](C(=O)[O-])[C@H]1CC[C@]2(C)C3=C(CC[C@@]12C)[C@]1(C)CC[C@H](O)C(C)(C)[C@H]1CC3)C(C)C
REMARK SMILES IDX 4 1 5 2 6 3 7 4 8 5 9 6 10 7 18 8 11 9 12 10 17 11 19 12
REMARK SMILES IDX 13 13 14 14 16 15 15 16 31 17 20 18 30 19 29 20 22 21 21 22
REMARK SMILES IDX 26 23 23 24 24 25 27 26 28 27 25 28 3 30 2 31 1 32 32 33
REMARK SMILES IDX 33 34 34 35
REMARK H PARENT 25 29
REMARK Flexibility Score: inf
ROOT
ATOM      1  C   UNL     1     176.635 163.719 185.584  1.00  0.00     0.014 C 
ENDROOT
BRANCH   1   2
ATOM      2  C   UNL     1     175.869 162.926 186.677  1.00  0.00     0.039 C 
BRANCH   2   3
ATOM      3  C   UNL     1     176.799 162.226 187.642  1.00  0.00     0.045 C 
ATOM      4  O   UNL     1     177.884 161.742 187.223  1.00  0.00    -0.550 OA
ATOM      5  O   UNL     1     176.493 162.123 188.994  1.00  0.00    -0.550 OA
ENDBRANCH   2   3
BRANCH   2   6
ATOM      6  C   UNL     1     174.718 161.960 186.212  1.00  0.00     0.004 C 
ATOM      7  C   UNL     1     174.835 160.493 186.704  1.00  0.00     0.006 C 
ATOM      8  C   UNL     1     173.194 162.329 186.381  1.00  0.00    -0.020 C 
ATOM      9  C   UNL     1     173.417 160.029 187.078  1.00  0.00     0.012 C 
ATOM     10  C   UNL     1     172.667 161.321 187.445  1.00  0.00    -0.006 C 
ATOM     11  C   UNL     1     172.785 163.747 186.823  1.00  0.00     0.012 C 
ATOM     12  C   UNL     1     172.534 162.101 184.968  1.00  0.00     0.012 C 
ATOM     13  C   UNL     1     173.023 161.648 188.930  1.00  0.00     0.017 C 
ATOM     14  C   UNL     1     171.145 161.302 187.395  1.00  0.00    -0.064 C 
ATOM     15  C   UNL     1     171.267 163.836 187.173  1.00  0.00     0.032 C 
ATOM     16  C   UNL     1     170.486 162.511 187.372  1.00  0.00    -0.064 C 
ATOM     17  C   UNL     1     170.434 159.965 187.563  1.00  0.00     0.032 C 
ATOM     18  C   UNL     1     168.941 162.566 187.398  1.00  0.00    -0.008 C 
ATOM     19  C   UNL     1     168.903 160.027 187.595  1.00  0.00     0.009 C 
ATOM     20  C   UNL     1     168.415 161.341 188.234  1.00  0.00     0.007 C 
ATOM     21  C   UNL     1     168.462 163.878 188.082  1.00  0.00     0.014 C 
ATOM     22  C   UNL     1     168.494 162.567 185.910  1.00  0.00     0.016 C 
ATOM     23  C   UNL     1     166.883 161.343 188.649  1.00  0.00    -0.006 C 
ATOM     24  C   UNL     1     166.951 163.918 188.340  1.00  0.00     0.033 C 
ATOM     25  C   UNL     1     166.470 162.747 189.215  1.00  0.00     0.120 C 
ATOM     26  C   UNL     1     166.648 160.287 189.769  1.00  0.00     0.014 C 
ATOM     27  C   UNL     1     165.921 160.962 187.490  1.00  0.00     0.014 C 
BRANCH  25  28
ATOM     28  O   UNL     1     166.873 162.938 190.553  1.00  0.00    -0.393 OA
ATOM     29  H   UNL     1     167.778 163.337 190.555  1.00  0.00     0.210 HD
ENDBRANCH  25  28
ENDBRANCH   2   6
ENDBRANCH   1   2
BRANCH   1  30
ATOM     30  C   UNL     1     175.805 163.910 184.298  1.00  0.00     0.031 C 
BRANCH  30  31
ATOM     31  C   UNL     1     176.374 163.092 183.154  1.00  0.00    -0.075 C 
ATOM     32  C   UNL     1     176.313 163.584 181.904  1.00  0.00     0.008 C 
BRANCH  31  33
ATOM     33  C   UNL     1     176.948 161.701 183.392  1.00  0.00     0.008 C 
ATOM     34  C   UNL     1     175.921 160.608 183.071  1.00  0.00     0.012 C 
ATOM     35  C   UNL     1     178.238 161.498 182.588  1.00  0.00     0.012 C 
ENDBRANCH  31  33
ENDBRANCH  30  31
ENDBRANCH   1  30
TORSDOF 7
ENDMDL
MODEL 7
REMARK VINA RESULT:    -6.151      2.141      3.780
REMARK INTER + INTRA:          -9.908
REMARK INTER:                  -8.426
REMARK INTRA:                  -1.482
REMARK UNBOUND:                -1.419
REMARK SMILES C=C(CC[C@H](C(=O)[O-])[C@H]1CC[C@]2(C)C3=C(CC[C@@]12C)[C@]1(C)CC[C@H](O)C(C)(C)[C@H]1CC3)C(C)C
REMARK SMILES IDX 4 1 5 2 6 3 7 4 8 5 9 6 10 7 18 8 11 9 12 10 17 11 19 12
REMARK SMILES IDX 13 13 14 14 16 15 15 16 31 17 20 18 30 19 29 20 22 21 21 22
REMARK SMILES IDX 26 23 23 24 24 25 27 26 28 27 25 28 3 30 2 31 1 32 32 33
REMARK SMILES IDX 33 34 34 35
REMARK H PARENT 25 29
REMARK Flexibility Score: inf
ROOT
ATOM      1  C   UNL     1     178.019 174.146 184.688  1.00  0.00     0.014 C 
ENDROOT
BRANCH   1   2
ATOM      2  C   UNL     1     178.121 173.251 185.952  1.00  0.00     0.039 C 
BRANCH   2   3
ATOM      3  C   UNL     1     178.612 174.013 187.162  1.00  0.00     0.045 C 
ATOM      4  O   UNL     1     179.391 174.991 187.010  1.00  0.00    -0.550 OA
ATOM      5  O   UNL     1     178.202 173.671 188.446  1.00  0.00    -0.550 OA
ENDBRANCH   2   3
BRANCH   2   6
ATOM      6  C   UNL     1     178.871 171.875 185.818  1.00  0.00     0.004 C 
ATOM      7  C   UNL     1     180.081 171.676 186.769  1.00  0.00     0.006 C 
ATOM      8  C   UNL     1     178.105 170.497 185.836  1.00  0.00    -0.020 C 
ATOM      9  C   UNL     1     180.035 170.218 187.257  1.00  0.00     0.012 C 
ATOM     10  C   UNL     1     178.552 169.821 187.166  1.00  0.00    -0.006 C 
ATOM     11  C   UNL     1     176.566 170.465 185.779  1.00  0.00     0.012 C 
ATOM     12  C   UNL     1     178.609 169.705 184.570  1.00  0.00     0.012 C 
ATOM     13  C   UNL     1     177.860 170.347 188.464  1.00  0.00     0.017 C 
ATOM     14  C   UNL     1     178.211 168.338 187.105  1.00  0.00    -0.064 C 
ATOM     15  C   UNL     1     175.999 169.040 186.059  1.00  0.00     0.032 C 
ATOM     16  C   UNL     1     176.952 167.983 186.675  1.00  0.00    -0.064 C 
ATOM     17  C   UNL     1     179.203 167.346 187.698  1.00  0.00     0.032 C 
ATOM     18  C   UNL     1     176.514 166.501 186.661  1.00  0.00    -0.008 C 
ATOM     19  C   UNL     1     178.760 165.878 187.687  1.00  0.00     0.009 C 
ATOM     20  C   UNL     1     177.233 165.760 187.848  1.00  0.00     0.007 C 
ATOM     21  C   UNL     1     174.975 166.394 186.867  1.00  0.00     0.014 C 
ATOM     22  C   UNL     1     176.885 165.965 185.252  1.00  0.00     0.016 C 
ATOM     23  C   UNL     1     176.720 164.304 188.220  1.00  0.00    -0.006 C 
ATOM     24  C   UNL     1     174.484 164.957 187.077  1.00  0.00     0.033 C 
ATOM     25  C   UNL     1     175.152 164.275 188.284  1.00  0.00     0.120 C 
ATOM     26  C   UNL     1     177.264 163.905 189.623  1.00  0.00     0.014 C 
ATOM     27  C   UNL     1     177.207 163.201 187.239  1.00  0.00     0.014 C 
BRANCH  25  28
ATOM     28  O   UNL     1     174.644 164.803 189.488  1.00  0.00    -0.393 OA
ATOM     29  H   UNL     1     175.237 165.538 189.784  1.00  0.00     0.210 HD
ENDBRANCH  25  28
ENDBRANCH   2   6
ENDBRANCH   1   2
BRANCH   1  30
ATOM     30  C   UNL     1     179.170 173.899 183.692  1.00  0.00     0.031 C 
BRANCH  30  31
ATOM     31  C   UNL     1     178.691 173.106 182.489  1.00  0.00    -0.075 C 
ATOM     32  C   UNL     1     177.386 172.801 182.385  1.00  0.00     0.008 C 
BRANCH  31  33
ATOM     33  C   UNL     1     179.673 172.599 181.441  1.00  0.00     0.008 C 
ATOM     34  C   UNL     1     179.538 171.085 181.233  1.00  0.00     0.012 C 
ATOM     35  C   UNL     1     179.499 173.354 180.118  1.00  0.00     0.012 C 
ENDBRANCH  31  33
ENDBRANCH  30  31
ENDBRANCH   1  30
TORSDOF 7
ENDMDL
MODEL 8
REMARK VINA RESULT:    -6.150      5.730      9.457
REMARK INTER + INTRA:          -9.907
REMARK INTER:                  -9.126
REMARK INTRA:                  -0.781
REMARK UNBOUND:                -1.419
REMARK SMILES C=C(CC[C@H](C(=O)[O-])[C@H]1CC[C@]2(C)C3=C(CC[C@@]12C)[C@]1(C)CC[C@H](O)C(C)(C)[C@H]1CC3)C(C)C
REMARK SMILES IDX 4 1 5 2 6 3 7 4 8 5 9 6 10 7 18 8 11 9 12 10 17 11 19 12
REMARK SMILES IDX 13 13 14 14 16 15 15 16 31 17 20 18 30 19 29 20 22 21 21 22
REMARK SMILES IDX 26 23 23 24 24 25 27 26 28 27 25 28 3 30 2 31 1 32 32 33
REMARK SMILES IDX 33 34 34 35
REMARK H PARENT 25 29
REMARK Flexibility Score: inf
ROOT
ATOM      1  C   UNL     1     168.804 178.230 187.148  1.00  0.00     0.014 C 
ENDROOT
BRANCH   1   2
ATOM      2  C   UNL     1     169.444 179.175 186.096  1.00  0.00     0.039 C 
BRANCH   2   3
ATOM      3  C   UNL     1     168.565 179.368 184.881  1.00  0.00     0.045 C 
ATOM      4  O   UNL     1     168.882 178.827 183.789  1.00  0.00    -0.550 OA
ATOM      5  O   UNL     1     167.394 180.115 184.948  1.00  0.00    -0.550 OA
ENDBRANCH   2   3
BRANCH   2   6
ATOM      6  C   UNL     1     170.932 178.896 185.668  1.00  0.00     0.004 C 
ATOM      7  C   UNL     1     171.934 180.049 185.944  1.00  0.00     0.006 C 
ATOM      8  C   UNL     1     171.693 177.581 186.089  1.00  0.00    -0.020 C 
ATOM      9  C   UNL     1     173.238 179.401 186.443  1.00  0.00     0.012 C 
ATOM     10  C   UNL     1     172.797 178.069 187.074  1.00  0.00    -0.006 C 
ATOM     11  C   UNL     1     170.929 176.426 186.764  1.00  0.00     0.012 C 
ATOM     12  C   UNL     1     172.302 176.990 184.761  1.00  0.00     0.012 C 
ATOM     13  C   UNL     1     172.322 178.389 188.527  1.00  0.00     0.017 C 
ATOM     14  C   UNL     1     173.841 176.972 187.228  1.00  0.00    -0.064 C 
ATOM     15  C   UNL     1     171.893 175.335 187.325  1.00  0.00     0.032 C 
ATOM     16  C   UNL     1     173.398 175.688 187.453  1.00  0.00    -0.064 C 
ATOM     17  C   UNL     1     175.307 177.378 187.316  1.00  0.00     0.032 C 
ATOM     18  C   UNL     1     174.403 174.539 187.695  1.00  0.00    -0.008 C 
ATOM     19  C   UNL     1     176.298 176.235 187.562  1.00  0.00     0.009 C 
ATOM     20  C   UNL     1     175.665 175.129 188.427  1.00  0.00     0.007 C 
ATOM     21  C   UNL     1     173.765 173.449 188.604  1.00  0.00     0.014 C 
ATOM     22  C   UNL     1     174.699 173.935 186.295  1.00  0.00     0.016 C 
ATOM     23  C   UNL     1     176.703 174.098 189.044  1.00  0.00    -0.006 C 
ATOM     24  C   UNL     1     174.760 172.379 189.067  1.00  0.00     0.033 C 
ATOM     25  C   UNL     1     175.951 172.973 189.838  1.00  0.00     0.120 C 
ATOM     26  C   UNL     1     177.643 174.840 190.037  1.00  0.00     0.014 C 
ATOM     27  C   UNL     1     177.629 173.437 187.985  1.00  0.00     0.014 C 
BRANCH  25  28
ATOM     28  O   UNL     1     175.544 173.389 191.123  1.00  0.00    -0.393 OA
ATOM     29  H   UNL     1     176.048 172.868 191.796  1.00  0.00     0.210 HD
ENDBRANCH  25  28
ENDBRANCH   2   6
ENDBRANCH   1   2
BRANCH   1  30
ATOM     30  C   UNL     1     168.522 178.938 188.488  1.00  0.00     0.031 C 
BRANCH  30  31
ATOM     31  C   UNL     1     167.841 178.001 189.469  1.00  0.00    -0.075 C 
ATOM     32  C   UNL     1     166.929 178.498 190.323  1.00  0.00     0.008 C 
BRANCH  31  33
ATOM     33  C   UNL     1     168.224 176.528 189.542  1.00  0.00     0.008 C 
ATOM     34  C   UNL     1     168.395 176.066 190.995  1.00  0.00     0.012 C 
ATOM     35  C   UNL     1     167.197 175.659 188.806  1.00  0.00     0.012 C 
ENDBRANCH  31  33
ENDBRANCH  30  31
ENDBRANCH   1  30
TORSDOF 7
ENDMDL
