MODEL 1
REMARK VINA RESULT:    -4.331      0.000      0.000
REMARK INTER + INTRA:         -16.149
REMARK INTER:                 -10.913
REMARK INTRA:                  -5.235
REMARK UNBOUND:                -5.235
REMARK SMILES CCCCCCCCCCCCCCCCCCCCCCCCCCCC(=O)[O-]
REMARK SMILES IDX 15 1 16 2 17 3 18 4 19 5 20 6 21 7 22 8 23 9 24 10 25 11
REMARK SMILES IDX 26 12 27 13 28 14 29 15 30 16 14 17 13 18 12 19 11 20 10 21
REMARK SMILES IDX 9 22 8 23 7 24 6 25 5 26 4 27 3 28 2 29 1 30
REMARK H PARENT
REMARK Flexibility Score: inf
ROOT
ATOM      1  C   UNL     1       6.652   6.004  18.829  1.00  0.00     0.000 C 
ENDROOT
BRANCH   1   2
ATOM      2  C   UNL     1       7.791   5.238  19.537  1.00  0.00     0.000 C 
BRANCH   2   3
ATOM      3  C   UNL     1       7.943   3.781  19.068  1.00  0.00     0.000 C 
BRANCH   3   4
ATOM      4  C   UNL     1       7.585   2.764  20.164  1.00  0.00     0.000 C 
BRANCH   4   5
ATOM      5  C   UNL     1       6.113   2.320  20.111  1.00  0.00     0.000 C 
BRANCH   5   6
ATOM      6  C   UNL     1       5.245   2.763  21.306  1.00  0.00     0.000 C 
BRANCH   6   7
ATOM      7  C   UNL     1       4.434   4.051  21.079  1.00  0.00     0.000 C 
BRANCH   7   8
ATOM      8  C   UNL     1       4.844   5.188  22.032  1.00  0.00     0.000 C 
BRANCH   8   9
ATOM      9  C   UNL     1       6.050   4.816  22.909  1.00  0.00     0.000 C 
BRANCH   9  10
ATOM     10  C   UNL     1       6.533   5.991  23.779  1.00  0.00     0.000 C 
BRANCH  10  11
ATOM     11  C   UNL     1       6.350   7.351  23.073  1.00  0.00     0.000 C 
BRANCH  11  12
ATOM     12  C   UNL     1       7.543   7.749  22.187  1.00  0.00     0.006 C 
BRANCH  12  13
ATOM     13  C   UNL     1       7.241   8.952  21.285  1.00  0.00     0.053 C 
BRANCH  13  14
ATOM     14  C   UNL     1       7.822  10.201  21.869  1.00  0.00     0.041 C 
ATOM     15  O   UNL     1       8.991  10.198  22.337  1.00  0.00    -0.550 OA
ATOM     16  O   UNL     1       7.089  11.381  21.854  1.00  0.00    -0.550 OA
ENDBRANCH  13  14
ENDBRANCH  12  13
ENDBRANCH  11  12
ENDBRANCH  10  11
ENDBRANCH   9  10
ENDBRANCH   8   9
ENDBRANCH   7   8
ENDBRANCH   6   7
ENDBRANCH   5   6
ENDBRANCH   4   5
ENDBRANCH   3   4
ENDBRANCH   2   3
ENDBRANCH   1   2
BRANCH   1  17
ATOM     17  C   UNL     1       5.997   5.170  17.714  1.00  0.00     0.000 C 
BRANCH  17  18
ATOM     18  C   UNL     1       6.153   5.829  16.326  1.00  0.00     0.000 C 
BRANCH  18  19
ATOM     19  C   UNL     1       7.431   5.401  15.584  1.00  0.00     0.000 C 
BRANCH  19  20
ATOM     20  C   UNL     1       8.576   6.417  15.730  1.00  0.00     0.000 C 
BRANCH  20  21
ATOM     21  C   UNL     1       9.830   5.796  16.381  1.00  0.00     0.000 C 
BRANCH  21  22
ATOM     22  C   UNL     1      10.042   4.315  16.023  1.00  0.00    -0.000 C 
BRANCH  22  23
ATOM     23  C   UNL     1      11.370   4.060  15.296  1.00  0.00    -0.000 C 
BRANCH  23  24
ATOM     24  C   UNL     1      11.965   5.333  14.673  1.00  0.00    -0.000 C 
BRANCH  24  25
ATOM     25  C   UNL     1      11.764   5.429  13.146  1.00  0.00    -0.000 C 
BRANCH  25  26
ATOM     26  C   UNL     1      10.825   6.581  12.754  1.00  0.00    -0.000 C 
BRANCH  26  27
ATOM     27  C   UNL     1       9.533   6.043  12.121  1.00  0.00    -0.000 C 
BRANCH  27  28
ATOM     28  C   UNL     1       9.546   4.515  11.934  1.00  0.00    -0.000 C 
BRANCH  28  29
ATOM     29  C   UNL     1       8.264   3.794  12.389  1.00  0.00    -0.003 C 
ATOM     30  C   UNL     1       8.542   2.536  13.212  1.00  0.00     0.004 C 
ENDBRANCH  28  29
ENDBRANCH  27  28
ENDBRANCH  26  27
ENDBRANCH  25  26
ENDBRANCH  24  25
ENDBRANCH  23  24
ENDBRANCH  22  23
ENDBRANCH  21  22
ENDBRANCH  20  21
ENDBRANCH  19  20
ENDBRANCH  18  19
ENDBRANCH  17  18
ENDBRANCH   1  17
TORSDOF 26
ENDMDL
MODEL 2
REMARK VINA RESULT:    -4.178      1.021      2.466
REMARK INTER + INTRA:         -15.763
REMARK INTER:                 -11.694
REMARK INTRA:                  -4.069
REMARK UNBOUND:                -5.235
REMARK SMILES CCCCCCCCCCCCCCCCCCCCCCCCCCCC(=O)[O-]
REMARK SMILES IDX 15 1 16 2 17 3 18 4 19 5 20 6 21 7 22 8 23 9 24 10 25 11
REMARK SMILES IDX 26 12 27 13 28 14 29 15 30 16 14 17 13 18 12 19 11 20 10 21
REMARK SMILES IDX 9 22 8 23 7 24 6 25 5 26 4 27 3 28 2 29 1 30
REMARK H PARENT
REMARK Flexibility Score: inf
ROOT
ATOM      1  C   UNL     1       6.169   5.303  18.606  1.00  0.00     0.000 C 
ENDROOT
BRANCH   1   2
ATOM      2  C   UNL     1       7.386   4.717  19.354  1.00  0.00     0.000 C 
BRANCH   2   3
ATOM      3  C   UNL     1       7.084   3.401  20.092  1.00  0.00     0.000 C 
BRANCH   3   4
ATOM      4  C   UNL     1       5.587   3.048  20.088  1.00  0.00     0.000 C 
BRANCH   4   5
ATOM      5  C   UNL     1       4.928   3.217  21.469  1.00  0.00     0.000 C 
BRANCH   5   6
ATOM      6  C   UNL     1       4.761   4.674  21.949  1.00  0.00     0.000 C 
BRANCH   6   7
ATOM      7  C   UNL     1       5.635   5.066  23.153  1.00  0.00     0.000 C 
BRANCH   7   8
ATOM      8  C   UNL     1       5.989   6.563  23.168  1.00  0.00     0.000 C 
BRANCH   8   9
ATOM      9  C   UNL     1       5.731   7.244  21.815  1.00  0.00     0.000 C 
BRANCH   9  10
ATOM     10  C   UNL     1       6.937   8.068  21.328  1.00  0.00     0.000 C 
BRANCH  10  11
ATOM     11  C   UNL     1       7.945   8.350  22.462  1.00  0.00     0.000 C 
BRANCH  11  12
ATOM     12  C   UNL     1       8.376   9.825  22.550  1.00  0.00     0.006 C 
BRANCH  12  13
ATOM     13  C   UNL     1       7.512  10.750  21.686  1.00  0.00     0.053 C 
BRANCH  13  14
ATOM     14  C   UNL     1       6.920  11.842  22.521  1.00  0.00     0.041 C 
ATOM     15  O   UNL     1       6.122  12.670  22.010  1.00  0.00    -0.550 OA
ATOM     16  O   UNL     1       7.215  11.918  23.877  1.00  0.00    -0.550 OA
ENDBRANCH  13  14
ENDBRANCH  12  13
ENDBRANCH  11  12
ENDBRANCH  10  11
ENDBRANCH   9  10
ENDBRANCH   8   9
ENDBRANCH   7   8
ENDBRANCH   6   7
ENDBRANCH   5   6
ENDBRANCH   4   5
ENDBRANCH   3   4
ENDBRANCH   2   3
ENDBRANCH   1   2
BRANCH   1  17
ATOM     17  C   UNL     1       6.396   6.766  18.184  1.00  0.00     0.000 C 
BRANCH  17  18
ATOM     18  C   UNL     1       6.386   6.937  16.650  1.00  0.00     0.000 C 
BRANCH  18  19
ATOM     19  C   UNL     1       6.223   5.612  15.885  1.00  0.00     0.000 C 
BRANCH  19  20
ATOM     20  C   UNL     1       7.500   5.191  15.138  1.00  0.00     0.000 C 
BRANCH  20  21
ATOM     21  C   UNL     1       8.781   5.691  15.840  1.00  0.00     0.000 C 
BRANCH  21  22
ATOM     22  C   UNL     1       9.925   4.664  15.844  1.00  0.00    -0.000 C 
BRANCH  22  23
ATOM     23  C   UNL     1       9.440   3.229  15.593  1.00  0.00    -0.000 C 
BRANCH  23  24
ATOM     24  C   UNL     1       9.859   2.688  14.216  1.00  0.00    -0.000 C 
BRANCH  24  25
ATOM     25  C   UNL     1       8.670   2.377  13.283  1.00  0.00    -0.000 C 
BRANCH  25  26
ATOM     26  C   UNL     1       8.615   3.326  12.075  1.00  0.00    -0.000 C 
BRANCH  26  27
ATOM     27  C   UNL     1       9.835   4.259  12.055  1.00  0.00    -0.000 C 
BRANCH  27  28
ATOM     28  C   UNL     1       9.452   5.749  12.095  1.00  0.00    -0.000 C 
BRANCH  28  29
ATOM     29  C   UNL     1      10.550   6.688  12.628  1.00  0.00    -0.003 C 
ATOM     30  C   UNL     1      11.834   5.954  13.011  1.00  0.00     0.004 C 
ENDBRANCH  28  29
ENDBRANCH  27  28
ENDBRANCH  26  27
ENDBRANCH  25  26
ENDBRANCH  24  25
ENDBRANCH  23  24
ENDBRANCH  22  23
ENDBRANCH  21  22
ENDBRANCH  20  21
ENDBRANCH  19  20
ENDBRANCH  18  19
ENDBRANCH  17  18
ENDBRANCH   1  17
TORSDOF 26
ENDMDL
MODEL 3
REMARK VINA RESULT:    -4.173      1.308      3.169
REMARK INTER + INTRA:         -15.752
REMARK INTER:                 -11.444
REMARK INTRA:                  -4.307
REMARK UNBOUND:                -5.235
REMARK SMILES CCCCCCCCCCCCCCCCCCCCCCCCCCCC(=O)[O-]
REMARK SMILES IDX 15 1 16 2 17 3 18 4 19 5 20 6 21 7 22 8 23 9 24 10 25 11
REMARK SMILES IDX 26 12 27 13 28 14 29 15 30 16 14 17 13 18 12 19 11 20 10 21
REMARK SMILES IDX 9 22 8 23 7 24 6 25 5 26 4 27 3 28 2 29 1 30
REMARK H PARENT
REMARK Flexibility Score: inf
ROOT
ATOM      1  C   UNL     1       9.923   5.369  19.400  1.00  0.00     0.000 C 
ENDROOT
BRANCH   1   2
ATOM      2  C   UNL     1       8.392   5.289  19.580  1.00  0.00     0.000 C 
BRANCH   2   3
ATOM      3  C   UNL     1       7.827   3.863  19.458  1.00  0.00     0.000 C 
BRANCH   3   4
ATOM      4  C   UNL     1       6.293   3.837  19.369  1.00  0.00     0.000 C 
BRANCH   4   5
ATOM      5  C   UNL     1       5.677   2.576  20.000  1.00  0.00     0.000 C 
BRANCH   5   6
ATOM      6  C   UNL     1       5.206   2.730  21.461  1.00  0.00     0.000 C 
BRANCH   6   7
ATOM      7  C   UNL     1       4.519   4.067  21.786  1.00  0.00     0.000 C 
BRANCH   7   8
ATOM      8  C   UNL     1       5.182   4.807  22.961  1.00  0.00     0.000 C 
BRANCH   8   9
ATOM      9  C   UNL     1       5.935   6.069  22.515  1.00  0.00     0.000 C 
BRANCH   9  10
ATOM     10  C   UNL     1       5.314   6.718  21.264  1.00  0.00     0.000 C 
BRANCH  10  11
ATOM     11  C   UNL     1       6.282   7.708  20.582  1.00  0.00     0.000 C 
BRANCH  11  12
ATOM     12  C   UNL     1       6.882   8.745  21.548  1.00  0.00     0.006 C 
BRANCH  12  13
ATOM     13  C   UNL     1       8.412   8.688  21.608  1.00  0.00     0.053 C 
BRANCH  13  14
ATOM     14  C   UNL     1       8.946   9.829  22.416  1.00  0.00     0.041 C 
ATOM     15  O   UNL     1       8.210  10.815  22.686  1.00  0.00    -0.550 OA
ATOM     16  O   UNL     1      10.244   9.783  22.911  1.00  0.00    -0.550 OA
ENDBRANCH  13  14
ENDBRANCH  12  13
ENDBRANCH  11  12
ENDBRANCH  10  11
ENDBRANCH   9  10
ENDBRANCH   8   9
ENDBRANCH   7   8
ENDBRANCH   6   7
ENDBRANCH   5   6
ENDBRANCH   4   5
ENDBRANCH   3   4
ENDBRANCH   2   3
ENDBRANCH   1   2
BRANCH   1  17
ATOM     17  C   UNL     1      10.360   5.019  17.967  1.00  0.00     0.000 C 
BRANCH  17  18
ATOM     18  C   UNL     1      11.541   5.892  17.489  1.00  0.00     0.000 C 
BRANCH  18  19
ATOM     19  C   UNL     1      11.594   6.072  15.962  1.00  0.00     0.000 C 
BRANCH  19  20
ATOM     20  C   UNL     1      10.564   7.089  15.443  1.00  0.00     0.000 C 
BRANCH  20  21
ATOM     21  C   UNL     1      10.465   7.089  13.903  1.00  0.00     0.000 C 
BRANCH  21  22
ATOM     22  C   UNL     1      11.304   5.989  13.230  1.00  0.00    -0.000 C 
BRANCH  22  23
ATOM     23  C   UNL     1      10.589   5.337  12.038  1.00  0.00    -0.000 C 
BRANCH  23  24
ATOM     24  C   UNL     1       9.201   4.786  12.401  1.00  0.00    -0.000 C 
BRANCH  24  25
ATOM     25  C   UNL     1       9.247   3.505  13.260  1.00  0.00    -0.000 C 
BRANCH  25  26
ATOM     26  C   UNL     1       8.741   3.747  14.691  1.00  0.00    -0.000 C 
BRANCH  26  27
ATOM     27  C   UNL     1       7.737   4.908  14.729  1.00  0.00    -0.000 C 
BRANCH  27  28
ATOM     28  C   UNL     1       7.259   5.243  16.153  1.00  0.00    -0.000 C 
BRANCH  28  29
ATOM     29  C   UNL     1       6.058   6.204  16.227  1.00  0.00    -0.003 C 
ATOM     30  C   UNL     1       6.402   7.549  16.866  1.00  0.00     0.004 C 
ENDBRANCH  28  29
ENDBRANCH  27  28
ENDBRANCH  26  27
ENDBRANCH  25  26
ENDBRANCH  24  25
ENDBRANCH  23  24
ENDBRANCH  22  23
ENDBRANCH  21  22
ENDBRANCH  20  21
ENDBRANCH  19  20
ENDBRANCH  18  19
ENDBRANCH  17  18
ENDBRANCH   1  17
TORSDOF 26
ENDMDL
MODEL 4
REMARK VINA RESULT:    -4.165      1.177      2.563
REMARK INTER + INTRA:         -15.732
REMARK INTER:                 -11.871
REMARK INTRA:                  -3.861
REMARK UNBOUND:                -5.235
REMARK SMILES CCCCCCCCCCCCCCCCCCCCCCCCCCCC(=O)[O-]
REMARK SMILES IDX 15 1 16 2 17 3 18 4 19 5 20 6 21 7 22 8 23 9 24 10 25 11
REMARK SMILES IDX 26 12 27 13 28 14 29 15 30 16 14 17 13 18 12 19 11 20 10 21
REMARK SMILES IDX 9 22 8 23 7 24 6 25 5 26 4 27 3 28 2 29 1 30
REMARK H PARENT
REMARK Flexibility Score: inf
ROOT
ATOM      1  C   UNL     1       6.612   7.199  18.136  1.00  0.00     0.000 C 
ENDROOT
BRANCH   1   2
ATOM      2  C   UNL     1       6.281   5.877  18.863  1.00  0.00     0.000 C 
BRANCH   2   3
ATOM      3  C   UNL     1       7.522   5.044  19.229  1.00  0.00     0.000 C 
BRANCH   3   4
ATOM      4  C   UNL     1       7.186   3.572  19.516  1.00  0.00     0.000 C 
BRANCH   4   5
ATOM      5  C   UNL     1       5.679   3.331  19.720  1.00  0.00     0.000 C 
BRANCH   5   6
ATOM      6  C   UNL     1       5.271   2.852  21.128  1.00  0.00     0.000 C 
BRANCH   6   7
ATOM      7  C   UNL     1       5.921   3.623  22.291  1.00  0.00     0.000 C 
BRANCH   7   8
ATOM      8  C   UNL     1       5.391   5.061  22.421  1.00  0.00     0.000 C 
BRANCH   8   9
ATOM      9  C   UNL     1       6.517   6.092  22.598  1.00  0.00     0.000 C 
BRANCH   9  10
ATOM     10  C   UNL     1       6.000   7.542  22.586  1.00  0.00     0.000 C 
BRANCH  10  11
ATOM     11  C   UNL     1       6.714   8.404  21.523  1.00  0.00     0.000 C 
BRANCH  11  12
ATOM     12  C   UNL     1       7.781   9.344  22.110  1.00  0.00     0.006 C 
BRANCH  12  13
ATOM     13  C   UNL     1       7.541  10.815  21.755  1.00  0.00     0.053 C 
BRANCH  13  14
ATOM     14  C   UNL     1       6.846  11.517  22.880  1.00  0.00     0.041 C 
ATOM     15  O   UNL     1       7.502  11.929  23.872  1.00  0.00    -0.550 OA
ATOM     16  O   UNL     1       5.479  11.757  22.811  1.00  0.00    -0.550 OA
ENDBRANCH  13  14
ENDBRANCH  12  13
ENDBRANCH  11  12
ENDBRANCH  10  11
ENDBRANCH   9  10
ENDBRANCH   8   9
ENDBRANCH   7   8
ENDBRANCH   6   7
ENDBRANCH   5   6
ENDBRANCH   4   5
ENDBRANCH   3   4
ENDBRANCH   2   3
ENDBRANCH   1   2
BRANCH   1  17
ATOM     17  C   UNL     1       6.375   7.102  16.618  1.00  0.00     0.000 C 
BRANCH  17  18
ATOM     18  C   UNL     1       5.628   5.809  16.227  1.00  0.00     0.000 C 
BRANCH  18  19
ATOM     19  C   UNL     1       6.430   4.898  15.280  1.00  0.00     0.000 C 
BRANCH  19  20
ATOM     20  C   UNL     1       7.950   5.009  15.489  1.00  0.00     0.000 C 
BRANCH  20  21
ATOM     21  C   UNL     1       8.729   3.936  14.699  1.00  0.00     0.000 C 
BRANCH  21  22
ATOM     22  C   UNL     1       8.235   3.751  13.254  1.00  0.00    -0.000 C 
BRANCH  22  23
ATOM     23  C   UNL     1       9.260   4.213  12.209  1.00  0.00    -0.000 C 
BRANCH  23  24
ATOM     24  C   UNL     1       9.321   5.742  12.064  1.00  0.00    -0.000 C 
BRANCH  24  25
ATOM     25  C   UNL     1      10.757   6.307  12.038  1.00  0.00    -0.000 C 
BRANCH  25  26
ATOM     26  C   UNL     1      11.813   5.221  12.299  1.00  0.00    -0.000 C 
BRANCH  26  27
ATOM     27  C   UNL     1      12.674   5.576  13.520  1.00  0.00    -0.000 C 
BRANCH  27  28
ATOM     28  C   UNL     1      12.034   5.145  14.852  1.00  0.00    -0.000 C 
BRANCH  28  29
ATOM     29  C   UNL     1      11.804   6.286  15.861  1.00  0.00    -0.003 C 
ATOM     30  C   UNL     1      10.763   7.302  15.393  1.00  0.00     0.004 C 
ENDBRANCH  28  29
ENDBRANCH  27  28
ENDBRANCH  26  27
ENDBRANCH  25  26
ENDBRANCH  24  25
ENDBRANCH  23  24
ENDBRANCH  22  23
ENDBRANCH  21  22
ENDBRANCH  20  21
ENDBRANCH  19  20
ENDBRANCH  18  19
ENDBRANCH  17  18
ENDBRANCH   1  17
TORSDOF 26
ENDMDL
MODEL 5
REMARK VINA RESULT:    -4.155      3.590      8.688
REMARK INTER + INTRA:         -15.706
REMARK INTER:                 -10.672
REMARK INTRA:                  -5.034
REMARK UNBOUND:                -5.235
REMARK SMILES CCCCCCCCCCCCCCCCCCCCCCCCCCCC(=O)[O-]
REMARK SMILES IDX 15 1 16 2 17 3 18 4 19 5 20 6 21 7 22 8 23 9 24 10 25 11
REMARK SMILES IDX 26 12 27 13 28 14 29 15 30 16 14 17 13 18 12 19 11 20 10 21
REMARK SMILES IDX 9 22 8 23 7 24 6 25 5 26 4 27 3 28 2 29 1 30
REMARK H PARENT
REMARK Flexibility Score: inf
ROOT
ATOM      1  C   UNL     1       6.762   6.111  19.293  1.00  0.00     0.000 C 
ENDROOT
BRANCH   1   2
ATOM      2  C   UNL     1       6.297   7.015  18.131  1.00  0.00     0.000 C 
BRANCH   2   3
ATOM      3  C   UNL     1       6.074   6.260  16.809  1.00  0.00     0.000 C 
BRANCH   3   4
ATOM      4  C   UNL     1       7.291   6.331  15.872  1.00  0.00     0.000 C 
BRANCH   4   5
ATOM      5  C   UNL     1       7.728   4.950  15.352  1.00  0.00     0.000 C 
BRANCH   5   6
ATOM      6  C   UNL     1       8.912   4.306  16.101  1.00  0.00     0.000 C 
BRANCH   6   7
ATOM      7  C   UNL     1       9.810   5.291  16.870  1.00  0.00     0.000 C 
BRANCH   7   8
ATOM      8  C   UNL     1      11.022   5.759  16.046  1.00  0.00     0.000 C 
BRANCH   8   9
ATOM      9  C   UNL     1      10.820   7.155  15.439  1.00  0.00     0.000 C 
BRANCH   9  10
ATOM     10  C   UNL     1      10.516   7.107  13.930  1.00  0.00     0.000 C 
BRANCH  10  11
ATOM     11  C   UNL     1      11.422   6.102  13.187  1.00  0.00     0.000 C 
BRANCH  11  12
ATOM     12  C   UNL     1      10.764   5.490  11.938  1.00  0.00     0.006 C 
BRANCH  12  13
ATOM     13  C   UNL     1       9.248   5.325  12.082  1.00  0.00     0.053 C 
BRANCH  13  14
ATOM     14  C   UNL     1       8.865   3.884  11.957  1.00  0.00     0.041 C 
ATOM     15  O   UNL     1       9.264   3.045  12.807  1.00  0.00    -0.550 OA
ATOM     16  O   UNL     1       8.027   3.474  10.927  1.00  0.00    -0.550 OA
ENDBRANCH  13  14
ENDBRANCH  12  13
ENDBRANCH  11  12
ENDBRANCH  10  11
ENDBRANCH   9  10
ENDBRANCH   8   9
ENDBRANCH   7   8
ENDBRANCH   6   7
ENDBRANCH   5   6
ENDBRANCH   4   5
ENDBRANCH   3   4
ENDBRANCH   2   3
ENDBRANCH   1   2
BRANCH   1  17
ATOM     17  C   UNL     1       6.470   4.624  19.025  1.00  0.00     0.000 C 
BRANCH  17  18
ATOM     18  C   UNL     1       7.683   3.726  19.351  1.00  0.00     0.000 C 
BRANCH  18  19
ATOM     19  C   UNL     1       7.300   2.395  20.021  1.00  0.00     0.000 C 
BRANCH  19  20
ATOM     20  C   UNL     1       5.800   2.299  20.348  1.00  0.00     0.000 C 
BRANCH  20  21
ATOM     21  C   UNL     1       5.522   2.417  21.862  1.00  0.00     0.000 C 
BRANCH  21  22
ATOM     22  C   UNL     1       4.347   3.348  22.204  1.00  0.00    -0.000 C 
BRANCH  22  23
ATOM     23  C   UNL     1       4.749   4.829  22.245  1.00  0.00    -0.000 C 
BRANCH  23  24
ATOM     24  C   UNL     1       5.725   5.152  23.387  1.00  0.00    -0.000 C 
BRANCH  24  25
ATOM     25  C   UNL     1       6.974   5.938  22.934  1.00  0.00    -0.000 C 
BRANCH  25  26
ATOM     26  C   UNL     1       8.180   5.019  22.687  1.00  0.00    -0.000 C 
BRANCH  26  27
ATOM     27  C   UNL     1       9.483   5.828  22.628  1.00  0.00    -0.000 C 
BRANCH  27  28
ATOM     28  C   UNL     1       9.760   6.422  21.234  1.00  0.00    -0.000 C 
BRANCH  28  29
ATOM     29  C   UNL     1      10.749   5.618  20.370  1.00  0.00    -0.003 C 
ATOM     30  C   UNL     1      11.896   6.468  19.823  1.00  0.00     0.004 C 
ENDBRANCH  28  29
ENDBRANCH  27  28
ENDBRANCH  26  27
ENDBRANCH  25  26
ENDBRANCH  24  25
ENDBRANCH  23  24
ENDBRANCH  22  23
ENDBRANCH  21  22
ENDBRANCH  20  21
ENDBRANCH  19  20
ENDBRANCH  18  19
ENDBRANCH  17  18
ENDBRANCH   1  17
TORSDOF 26
ENDMDL
MODEL 6
REMARK VINA RESULT:    -4.136      3.615      9.202
REMARK INTER + INTRA:         -15.658
REMARK INTER:                 -11.313
REMARK INTRA:                  -4.346
REMARK UNBOUND:                -5.235
REMARK SMILES CCCCCCCCCCCCCCCCCCCCCCCCCCCC(=O)[O-]
REMARK SMILES IDX 15 1 16 2 17 3 18 4 19 5 20 6 21 7 22 8 23 9 24 10 25 11
REMARK SMILES IDX 26 12 27 13 28 14 29 15 30 16 14 17 13 18 12 19 11 20 10 21
REMARK SMILES IDX 9 22 8 23 7 24 6 25 5 26 4 27 3 28 2 29 1 30
REMARK H PARENT
REMARK Flexibility Score: inf
ROOT
ATOM      1  C   UNL     1       6.590   7.462  18.138  1.00  0.00     0.000 C 
ENDROOT
BRANCH   1   2
ATOM      2  C   UNL     1       6.573   7.124  16.632  1.00  0.00     0.000 C 
BRANCH   2   3
ATOM      3  C   UNL     1       5.554   6.035  16.252  1.00  0.00     0.000 C 
BRANCH   3   4
ATOM      4  C   UNL     1       6.220   4.766  15.698  1.00  0.00     0.000 C 
BRANCH   4   5
ATOM      5  C   UNL     1       7.576   5.045  15.027  1.00  0.00     0.000 C 
BRANCH   5   6
ATOM      6  C   UNL     1       8.793   4.365  15.688  1.00  0.00     0.000 C 
BRANCH   6   7
ATOM      7  C   UNL     1       9.923   5.321  16.109  1.00  0.00     0.000 C 
BRANCH   7   8
ATOM      8  C   UNL     1       9.732   6.746  15.562  1.00  0.00     0.000 C 
BRANCH   8   9
ATOM      9  C   UNL     1      10.852   7.163  14.596  1.00  0.00     0.000 C 
BRANCH   9  10
ATOM     10  C   UNL     1      11.394   5.980  13.771  1.00  0.00     0.000 C 
BRANCH  10  11
ATOM     11  C   UNL     1      10.827   5.965  12.336  1.00  0.00     0.000 C 
BRANCH  11  12
ATOM     12  C   UNL     1      10.266   4.596  11.912  1.00  0.00     0.006 C 
BRANCH  12  13
ATOM     13  C   UNL     1       8.735   4.570  11.853  1.00  0.00     0.053 C 
BRANCH  13  14
ATOM     14  C   UNL     1       8.246   3.182  11.587  1.00  0.00     0.041 C 
ATOM     15  O   UNL     1       8.124   2.359  12.532  1.00  0.00    -0.550 OA
ATOM     16  O   UNL     1       7.879   2.809  10.299  1.00  0.00    -0.550 OA
ENDBRANCH  13  14
ENDBRANCH  12  13
ENDBRANCH  11  12
ENDBRANCH  10  11
ENDBRANCH   9  10
ENDBRANCH   8   9
ENDBRANCH   7   8
ENDBRANCH   6   7
ENDBRANCH   5   6
ENDBRANCH   4   5
ENDBRANCH   3   4
ENDBRANCH   2   3
ENDBRANCH   1   2
BRANCH   1  17
ATOM     17  C   UNL     1       6.351   6.220  19.016  1.00  0.00     0.000 C 
BRANCH  17  18
ATOM     18  C   UNL     1       7.623   5.356  19.159  1.00  0.00     0.000 C 
BRANCH  18  19
ATOM     19  C   UNL     1       7.345   3.843  19.139  1.00  0.00     0.000 C 
BRANCH  19  20
ATOM     20  C   UNL     1       5.848   3.509  19.259  1.00  0.00     0.000 C 
BRANCH  20  21
ATOM     21  C   UNL     1       5.454   3.095  20.693  1.00  0.00     0.000 C 
BRANCH  21  22
ATOM     22  C   UNL     1       4.524   4.100  21.393  1.00  0.00    -0.000 C 
BRANCH  22  23
ATOM     23  C   UNL     1       4.834   4.260  22.888  1.00  0.00    -0.000 C 
BRANCH  23  24
ATOM     24  C   UNL     1       5.620   5.543  23.203  1.00  0.00    -0.000 C 
BRANCH  24  25
ATOM     25  C   UNL     1       7.115   5.463  22.829  1.00  0.00    -0.000 C 
BRANCH  25  26
ATOM     26  C   UNL     1       7.710   6.844  22.512  1.00  0.00    -0.000 C 
BRANCH  26  27
ATOM     27  C   UNL     1       6.600   7.872  22.247  1.00  0.00    -0.000 C 
BRANCH  27  28
ATOM     28  C   UNL     1       6.856   9.224  22.937  1.00  0.00    -0.000 C 
BRANCH  28  29
ATOM     29  C   UNL     1       7.621  10.254  22.086  1.00  0.00    -0.003 C 
ATOM     30  C   UNL     1       6.958  11.631  22.069  1.00  0.00     0.004 C 
ENDBRANCH  28  29
ENDBRANCH  27  28
ENDBRANCH  26  27
ENDBRANCH  25  26
ENDBRANCH  24  25
ENDBRANCH  23  24
ENDBRANCH  22  23
ENDBRANCH  21  22
ENDBRANCH  20  21
ENDBRANCH  19  20
ENDBRANCH  18  19
ENDBRANCH  17  18
ENDBRANCH   1  17
TORSDOF 26
ENDMDL
MODEL 7
REMARK VINA RESULT:    -4.117      1.051      2.683
REMARK INTER + INTRA:         -15.610
REMARK INTER:                 -11.185
REMARK INTRA:                  -4.425
REMARK UNBOUND:                -5.235
REMARK SMILES CCCCCCCCCCCCCCCCCCCCCCCCCCCC(=O)[O-]
REMARK SMILES IDX 15 1 16 2 17 3 18 4 19 5 20 6 21 7 22 8 23 9 24 10 25 11
REMARK SMILES IDX 26 12 27 13 28 14 29 15 30 16 14 17 13 18 12 19 11 20 10 21
REMARK SMILES IDX 9 22 8 23 7 24 6 25 5 26 4 27 3 28 2 29 1 30
REMARK H PARENT
REMARK Flexibility Score: inf
ROOT
ATOM      1  C   UNL     1       6.453   6.947  17.421  1.00  0.00     0.000 C 
ENDROOT
BRANCH   1   2
ATOM      2  C   UNL     1       6.387   6.353  18.845  1.00  0.00     0.000 C 
BRANCH   2   3
ATOM      3  C   UNL     1       7.693   5.677  19.296  1.00  0.00     0.000 C 
BRANCH   3   4
ATOM      4  C   UNL     1       7.525   4.169  19.544  1.00  0.00     0.000 C 
BRANCH   4   5
ATOM      5  C   UNL     1       6.084   3.680  19.315  1.00  0.00     0.000 C 
BRANCH   5   6
ATOM      6  C   UNL     1       5.339   3.204  20.579  1.00  0.00     0.000 C 
BRANCH   6   7
ATOM      7  C   UNL     1       4.454   4.267  21.252  1.00  0.00     0.000 C 
BRANCH   7   8
ATOM      8  C   UNL     1       4.492   4.187  22.788  1.00  0.00     0.000 C 
BRANCH   8   9
ATOM      9  C   UNL     1       5.866   4.563  23.364  1.00  0.00     0.000 C 
BRANCH   9  10
ATOM     10  C   UNL     1       5.992   6.068  23.663  1.00  0.00     0.000 C 
BRANCH  10  11
ATOM     11  C   UNL     1       6.866   6.796  22.620  1.00  0.00     0.000 C 
BRANCH  11  12
ATOM     12  C   UNL     1       6.281   8.144  22.161  1.00  0.00     0.006 C 
BRANCH  12  13
ATOM     13  C   UNL     1       7.294   9.004  21.399  1.00  0.00     0.053 C 
BRANCH  13  14
ATOM     14  C   UNL     1       7.483  10.320  22.086  1.00  0.00     0.041 C 
ATOM     15  O   UNL     1       8.642  10.769  22.290  1.00  0.00    -0.550 OA
ATOM     16  O   UNL     1       6.378  11.073  22.462  1.00  0.00    -0.550 OA
ENDBRANCH  13  14
ENDBRANCH  12  13
ENDBRANCH  11  12
ENDBRANCH  10  11
ENDBRANCH   9  10
ENDBRANCH   8   9
ENDBRANCH   7   8
ENDBRANCH   6   7
ENDBRANCH   5   6
ENDBRANCH   4   5
ENDBRANCH   3   4
ENDBRANCH   2   3
ENDBRANCH   1   2
BRANCH   1  17
ATOM     17  C   UNL     1       6.125   5.902  16.340  1.00  0.00     0.000 C 
BRANCH  17  18
ATOM     18  C   UNL     1       7.393   5.387  15.625  1.00  0.00     0.000 C 
BRANCH  18  19
ATOM     19  C   UNL     1       7.094   4.449  14.443  1.00  0.00     0.000 C 
BRANCH  19  20
ATOM     20  C   UNL     1       8.331   3.664  13.973  1.00  0.00     0.000 C 
BRANCH  20  21
ATOM     21  C   UNL     1       8.551   3.775  12.450  1.00  0.00     0.000 C 
BRANCH  21  22
ATOM     22  C   UNL     1       9.843   4.515  12.064  1.00  0.00    -0.000 C 
BRANCH  22  23
ATOM     23  C   UNL     1       9.679   6.041  12.059  1.00  0.00    -0.000 C 
BRANCH  23  24
ATOM     24  C   UNL     1      10.755   6.762  12.888  1.00  0.00    -0.000 C 
BRANCH  24  25
ATOM     25  C   UNL     1      10.392   6.911  14.380  1.00  0.00    -0.000 C 
BRANCH  25  26
ATOM     26  C   UNL     1      11.082   5.852  15.255  1.00  0.00    -0.000 C 
BRANCH  26  27
ATOM     27  C   UNL     1      10.797   6.099  16.743  1.00  0.00    -0.000 C 
BRANCH  27  28
ATOM     28  C   UNL     1      11.068   4.863  17.620  1.00  0.00    -0.000 C 
BRANCH  28  29
ATOM     29  C   UNL     1      11.064   3.519  16.868  1.00  0.00    -0.003 C 
ATOM     30  C   UNL     1       9.799   2.697  17.115  1.00  0.00     0.004 C 
ENDBRANCH  28  29
ENDBRANCH  27  28
ENDBRANCH  26  27
ENDBRANCH  25  26
ENDBRANCH  24  25
ENDBRANCH  23  24
ENDBRANCH  22  23
ENDBRANCH  21  22
ENDBRANCH  20  21
ENDBRANCH  19  20
ENDBRANCH  18  19
ENDBRANCH  17  18
ENDBRANCH   1  17
TORSDOF 26
ENDMDL
MODEL 8
REMARK VINA RESULT:    -4.076      2.861      8.483
REMARK INTER + INTRA:         -15.507
REMARK INTER:                 -10.605
REMARK INTRA:                  -4.902
REMARK UNBOUND:                -5.235
REMARK SMILES CCCCCCCCCCCCCCCCCCCCCCCCCCCC(=O)[O-]
REMARK SMILES IDX 15 1 16 2 17 3 18 4 19 5 20 6 21 7 22 8 23 9 24 10 25 11
REMARK SMILES IDX 26 12 27 13 28 14 29 15 30 16 14 17 13 18 12 19 11 20 10 21
REMARK SMILES IDX 9 22 8 23 7 24 6 25 5 26 4 27 3 28 2 29 1 30
REMARK H PARENT
REMARK Flexibility Score: inf
ROOT
ATOM      1  C   UNL     1       4.571   5.001  21.965  1.00  0.00     0.000 C 
ENDROOT
BRANCH   1   2
ATOM      2  C   UNL     1       4.499   3.544  21.460  1.00  0.00     0.000 C 
BRANCH   2   3
ATOM      3  C   UNL     1       5.869   2.848  21.377  1.00  0.00     0.000 C 
BRANCH   3   4
ATOM      4  C   UNL     1       6.216   2.390  19.952  1.00  0.00     0.000 C 
BRANCH   4   5
ATOM      5  C   UNL     1       7.349   3.215  19.316  1.00  0.00     0.000 C 
BRANCH   5   6
ATOM      6  C   UNL     1       7.974   4.292  20.227  1.00  0.00     0.000 C 
BRANCH   6   7
ATOM      7  C   UNL     1       7.753   5.743  19.765  1.00  0.00     0.000 C 
BRANCH   7   8
ATOM      8  C   UNL     1       6.462   5.917  18.945  1.00  0.00     0.000 C 
BRANCH   8   9
ATOM      9  C   UNL     1       6.437   7.235  18.156  1.00  0.00     0.000 C 
BRANCH   9  10
ATOM     10  C   UNL     1       6.205   7.018  16.649  1.00  0.00     0.000 C 
BRANCH  10  11
ATOM     11  C   UNL     1       6.383   5.541  16.240  1.00  0.00     0.000 C 
BRANCH  11  12
ATOM     12  C   UNL     1       7.571   5.304  15.292  1.00  0.00     0.006 C 
BRANCH  12  13
ATOM     13  C   UNL     1       8.920   5.664  15.924  1.00  0.00     0.053 C 
BRANCH  13  14
ATOM     14  C   UNL     1       9.782   6.389  14.940  1.00  0.00     0.041 C 
ATOM     15  O   UNL     1       9.803   6.034  13.732  1.00  0.00    -0.550 OA
ATOM     16  O   UNL     1      10.529   7.488  15.347  1.00  0.00    -0.550 OA
ENDBRANCH  13  14
ENDBRANCH  12  13
ENDBRANCH  11  12
ENDBRANCH  10  11
ENDBRANCH   9  10
ENDBRANCH   8   9
ENDBRANCH   7   8
ENDBRANCH   6   7
ENDBRANCH   5   6
ENDBRANCH   4   5
ENDBRANCH   3   4
ENDBRANCH   2   3
ENDBRANCH   1   2
BRANCH   1  17
ATOM     17  C   UNL     1       5.665   5.194  23.030  1.00  0.00     0.000 C 
BRANCH  17  18
ATOM     18  C   UNL     1       6.040   6.680  23.216  1.00  0.00     0.000 C 
BRANCH  18  19
ATOM     19  C   UNL     1       5.657   7.565  22.017  1.00  0.00     0.000 C 
BRANCH  19  20
ATOM     20  C   UNL     1       6.239   8.986  22.111  1.00  0.00     0.000 C 
BRANCH  20  21
ATOM     21  C   UNL     1       7.491   9.165  21.228  1.00  0.00     0.000 C 
BRANCH  21  22
ATOM     22  C   UNL     1       8.776   9.441  22.026  1.00  0.00    -0.000 C 
BRANCH  22  23
ATOM     23  C   UNL     1       9.436   8.160  22.557  1.00  0.00    -0.000 C 
BRANCH  23  24
ATOM     24  C   UNL     1       9.357   8.035  24.087  1.00  0.00    -0.000 C 
BRANCH  24  25
ATOM     25  C   UNL     1       9.235   9.391  24.815  1.00  0.00    -0.000 C 
BRANCH  25  26
ATOM     26  C   UNL     1       7.806   9.655  25.316  1.00  0.00    -0.000 C 
BRANCH  26  27
ATOM     27  C   UNL     1       7.594  11.147  25.607  1.00  0.00    -0.000 C 
BRANCH  27  28
ATOM     28  C   UNL     1       7.504  12.002  24.330  1.00  0.00    -0.000 C 
BRANCH  28  29
ATOM     29  C   UNL     1       6.079  12.210  23.785  1.00  0.00    -0.003 C 
ATOM     30  C   UNL     1       6.055  12.697  22.337  1.00  0.00     0.004 C 
ENDBRANCH  28  29
ENDBRANCH  27  28
ENDBRANCH  26  27
ENDBRANCH  25  26
ENDBRANCH  24  25
ENDBRANCH  23  24
ENDBRANCH  22  23
ENDBRANCH  21  22
ENDBRANCH  20  21
ENDBRANCH  19  20
ENDBRANCH  18  19
ENDBRANCH  17  18
ENDBRANCH   1  17
TORSDOF 26
ENDMDL
MODEL 9
REMARK VINA RESULT:    -4.055      1.603      2.750
REMARK INTER + INTRA:         -15.454
REMARK INTER:                 -11.136
REMARK INTRA:                  -4.318
REMARK UNBOUND:                -5.235
REMARK SMILES CCCCCCCCCCCCCCCCCCCCCCCCCCCC(=O)[O-]
REMARK SMILES IDX 15 1 16 2 17 3 18 4 19 5 20 6 21 7 22 8 23 9 24 10 25 11
REMARK SMILES IDX 26 12 27 13 28 14 29 15 30 16 14 17 13 18 12 19 11 20 10 21
REMARK SMILES IDX 9 22 8 23 7 24 6 25 5 26 4 27 3 28 2 29 1 30
REMARK H PARENT
REMARK Flexibility Score: inf
ROOT
ATOM      1  C   UNL     1       8.284   4.918  19.717  1.00  0.00     0.000 C 
ENDROOT
BRANCH   1   2
ATOM      2  C   UNL     1       8.700   4.552  21.158  1.00  0.00     0.000 C 
BRANCH   2   3
ATOM      3  C   UNL     1       8.297   3.127  21.576  1.00  0.00     0.000 C 
BRANCH   3   4
ATOM      4  C   UNL     1       7.405   3.105  22.828  1.00  0.00     0.000 C 
BRANCH   4   5
ATOM      5  C   UNL     1       5.965   2.652  22.529  1.00  0.00     0.000 C 
BRANCH   5   6
ATOM      6  C   UNL     1       4.874   3.716  22.766  1.00  0.00     0.000 C 
BRANCH   6   7
ATOM      7  C   UNL     1       4.304   4.359  21.490  1.00  0.00     0.000 C 
BRANCH   7   8
ATOM      8  C   UNL     1       4.608   5.865  21.395  1.00  0.00     0.000 C 
BRANCH   8   9
ATOM      9  C   UNL     1       5.758   6.294  22.319  1.00  0.00     0.000 C 
BRANCH   9  10
ATOM     10  C   UNL     1       6.352   7.660  21.931  1.00  0.00     0.000 C 
BRANCH  10  11
ATOM     11  C   UNL     1       6.192   8.704  23.056  1.00  0.00     0.000 C 
BRANCH  11  12
ATOM     12  C   UNL     1       6.145  10.155  22.545  1.00  0.00     0.006 C 
BRANCH  12  13
ATOM     13  C   UNL     1       5.142  11.024  23.311  1.00  0.00     0.053 C 
BRANCH  13  14
ATOM     14  C   UNL     1       5.367  12.472  23.007  1.00  0.00     0.041 C 
ATOM     15  O   UNL     1       6.094  12.812  22.036  1.00  0.00    -0.550 OA
ATOM     16  O   UNL     1       4.737  13.448  23.769  1.00  0.00    -0.550 OA
ENDBRANCH  13  14
ENDBRANCH  12  13
ENDBRANCH  11  12
ENDBRANCH  10  11
ENDBRANCH   9  10
ENDBRANCH   8   9
ENDBRANCH   7   8
ENDBRANCH   6   7
ENDBRANCH   5   6
ENDBRANCH   4   5
ENDBRANCH   3   4
ENDBRANCH   2   3
ENDBRANCH   1   2
BRANCH   1  17
ATOM     17  C   UNL     1       7.191   3.981  19.171  1.00  0.00     0.000 C 
BRANCH  17  18
ATOM     18  C   UNL     1       6.178   4.728  18.277  1.00  0.00     0.000 C 
BRANCH  18  19
ATOM     19  C   UNL     1       6.382   6.253  18.259  1.00  0.00     0.000 C 
BRANCH  19  20
ATOM     20  C   UNL     1       6.401   6.837  16.836  1.00  0.00     0.000 C 
BRANCH  20  21
ATOM     21  C   UNL     1       7.272   6.005  15.872  1.00  0.00     0.000 C 
BRANCH  21  22
ATOM     22  C   UNL     1       8.760   6.395  15.891  1.00  0.00    -0.000 C 
BRANCH  22  23
ATOM     23  C   UNL     1       9.694   5.182  16.015  1.00  0.00    -0.000 C 
BRANCH  23  24
ATOM     24  C   UNL     1       9.016   3.861  15.619  1.00  0.00    -0.000 C 
BRANCH  24  25
ATOM     25  C   UNL     1       9.396   3.367  14.208  1.00  0.00    -0.000 C 
BRANCH  25  26
ATOM     26  C   UNL     1       8.230   3.491  13.215  1.00  0.00    -0.000 C 
BRANCH  26  27
ATOM     27  C   UNL     1       8.617   4.376  12.021  1.00  0.00    -0.000 C 
BRANCH  27  28
ATOM     28  C   UNL     1       9.512   5.563  12.420  1.00  0.00    -0.000 C 
BRANCH  28  29
ATOM     29  C   UNL     1      10.908   5.573  11.769  1.00  0.00    -0.003 C 
ATOM     30  C   UNL     1      12.024   5.936  12.748  1.00  0.00     0.004 C 
ENDBRANCH  28  29
ENDBRANCH  27  28
ENDBRANCH  26  27
ENDBRANCH  25  26
ENDBRANCH  24  25
ENDBRANCH  23  24
ENDBRANCH  22  23
ENDBRANCH  21  22
ENDBRANCH  20  21
ENDBRANCH  19  20
ENDBRANCH  18  19
ENDBRANCH  17  18
ENDBRANCH   1  17
TORSDOF 26
ENDMDL
