MODEL 1
REMARK VINA RESULT:    -2.338      0.000      0.000
REMARK INTER + INTRA:          -4.663
REMARK INTER:                  -3.568
REMARK INTRA:                  -1.095
REMARK UNBOUND:                -1.095
REMARK SMILES CCCCCCCCCC=CC(=O)[O-]
REMARK SMILES IDX 7 1 8 2 9 3 10 4 11 5 12 6 13 7 14 8 6 9 5 10 4 11 3 12 2 13
REMARK SMILES IDX 1 14
REMARK H PARENT
REMARK Flexibility Score: inf
ROOT
ATOM      1  C   UNL     1      -7.499   4.225  16.724  1.00  0.00     0.000 C 
ENDROOT
BRANCH   1   2
ATOM      2  C   UNL     1      -8.741   3.334  16.603  1.00  0.00     0.004 C 
BRANCH   2   3
ATOM      3  C   UNL     1      -9.002   2.949  15.141  1.00  0.00     0.027 C 
BRANCH   3   4
ATOM      4  C   UNL     1      -7.728   2.552  14.446  1.00  0.00    -0.025 C 
ATOM      5  C   UNL     1      -7.571   1.496  13.629  1.00  0.00     0.020 C 
BRANCH   5   6
ATOM      6  C   UNL     1      -8.597   0.492  13.277  1.00  0.00     0.064 C 
ATOM      7  O   UNL     1      -9.297   0.587  12.237  1.00  0.00    -0.545 OA
ATOM      8  O   UNL     1      -8.809  -0.579  14.136  1.00  0.00    -0.545 OA
ENDBRANCH   5   6
ENDBRANCH   3   4
ENDBRANCH   2   3
ENDBRANCH   1   2
BRANCH   1   9
ATOM      9  C   UNL     1      -7.879   5.637  17.197  1.00  0.00     0.000 C 
BRANCH   9  10
ATOM     10  C   UNL     1      -8.890   6.321  16.263  1.00  0.00     0.000 C 
BRANCH  10  11
ATOM     11  C   UNL     1      -8.213   7.123  15.142  1.00  0.00    -0.000 C 
BRANCH  11  12
ATOM     12  C   UNL     1      -8.075   6.275  13.868  1.00  0.00    -0.000 C 
BRANCH  12  13
ATOM     13  C   UNL     1      -6.616   5.908  13.558  1.00  0.00    -0.003 C 
ATOM     14  C   UNL     1      -6.059   6.665  12.351  1.00  0.00     0.004 C 
ENDBRANCH  12  13
ENDBRANCH  11  12
ENDBRANCH  10  11
ENDBRANCH   9  10
ENDBRANCH   1   9
TORSDOF 9
ENDMDL
MODEL 2
REMARK VINA RESULT:    -2.112     14.785     16.973
REMARK INTER + INTRA:          -4.319
REMARK INTER:                  -3.950
REMARK INTRA:                  -0.369
REMARK UNBOUND:                -1.095
REMARK SMILES CCCCCCCCCC=CC(=O)[O-]
REMARK SMILES IDX 7 1 8 2 9 3 10 4 11 5 12 6 13 7 14 8 6 9 5 10 4 11 3 12 2 13
REMARK SMILES IDX 1 14
REMARK H PARENT
REMARK Flexibility Score: inf
ROOT
ATOM      1  C   UNL     1     -11.058  -5.181  26.779  1.00  0.00     0.000 C 
ENDROOT
BRANCH   1   2
ATOM      2  C   UNL     1      -9.809  -5.315  25.900  1.00  0.00     0.004 C 
BRANCH   2   3
ATOM      3  C   UNL     1      -9.558  -6.780  25.518  1.00  0.00     0.027 C 
BRANCH   3   4
ATOM      4  C   UNL     1     -10.846  -7.487  25.193  1.00  0.00    -0.025 C 
ATOM      5  C   UNL     1     -11.024  -8.390  24.214  1.00  0.00     0.020 C 
BRANCH   5   6
ATOM      6  C   UNL     1     -10.012  -8.844  23.237  1.00  0.00     0.064 C 
ATOM      7  O   UNL     1      -9.350  -9.901  23.402  1.00  0.00    -0.545 OA
ATOM      8  O   UNL     1      -9.769  -8.066  22.112  1.00  0.00    -0.545 OA
ENDBRANCH   5   6
ENDBRANCH   3   4
ENDBRANCH   2   3
ENDBRANCH   1   2
BRANCH   1   9
ATOM      9  C   UNL     1     -10.675  -4.916  28.243  1.00  0.00     0.000 C 
BRANCH   9  10
ATOM     10  C   UNL     1      -9.740  -5.993  28.814  1.00  0.00     0.000 C 
BRANCH  10  11
ATOM     11  C   UNL     1     -10.503  -7.181  29.419  1.00  0.00    -0.000 C 
BRANCH  11  12
ATOM     12  C   UNL     1     -11.596  -7.675  28.458  1.00  0.00    -0.000 C 
BRANCH  12  13
ATOM     13  C   UNL     1     -11.830  -9.190  28.559  1.00  0.00    -0.003 C 
ATOM     14  C   UNL     1     -12.753  -9.571  29.717  1.00  0.00     0.004 C 
ENDBRANCH  12  13
ENDBRANCH  11  12
ENDBRANCH  10  11
ENDBRANCH   9  10
ENDBRANCH   1   9
TORSDOF 9
ENDMDL
MODEL 3
REMARK VINA RESULT:    -1.576     14.855     16.764
REMARK INTER + INTRA:          -3.500
REMARK INTER:                  -3.300
REMARK INTRA:                  -0.200
REMARK UNBOUND:                -1.095
REMARK SMILES CCCCCCCCCC=CC(=O)[O-]
REMARK SMILES IDX 7 1 8 2 9 3 10 4 11 5 12 6 13 7 14 8 6 9 5 10 4 11 3 12 2 13
REMARK SMILES IDX 1 14
REMARK H PARENT
REMARK Flexibility Score: inf
ROOT
ATOM      1  C   UNL     1      -9.720  -6.488  25.721  1.00  0.00     0.000 C 
ENDROOT
BRANCH   1   2
ATOM      2  C   UNL     1     -10.107  -5.073  26.166  1.00  0.00     0.004 C 
BRANCH   2   3
ATOM      3  C   UNL     1     -10.942  -5.109  27.453  1.00  0.00     0.027 C 
BRANCH   3   4
ATOM      4  C   UNL     1     -10.202  -5.802  28.565  1.00  0.00    -0.025 C 
ATOM      5  C   UNL     1     -10.484  -7.018  29.062  1.00  0.00     0.020 C 
BRANCH   5   6
ATOM      6  C   UNL     1     -11.592  -7.905  28.650  1.00  0.00     0.064 C 
ATOM      7  O   UNL     1     -12.527  -7.508  27.908  1.00  0.00    -0.545 OA
ATOM      8  O   UNL     1     -11.612  -9.213  29.116  1.00  0.00    -0.545 OA
ENDBRANCH   5   6
ENDBRANCH   3   4
ENDBRANCH   2   3
ENDBRANCH   1   2
BRANCH   1   9
ATOM      9  C   UNL     1     -10.871  -7.156  24.951  1.00  0.00     0.000 C 
BRANCH   9  10
ATOM     10  C   UNL     1     -10.906  -8.680  25.144  1.00  0.00     0.000 C 
BRANCH  10  11
ATOM     11  C   UNL     1     -10.832  -9.447  23.815  1.00  0.00    -0.000 C 
BRANCH  11  12
ATOM     12  C   UNL     1      -9.515  -9.148  23.082  1.00  0.00    -0.000 C 
BRANCH  12  13
ATOM     13  C   UNL     1      -9.681  -8.095  21.976  1.00  0.00    -0.003 C 
ATOM     14  C   UNL     1      -9.339  -8.636  20.587  1.00  0.00     0.004 C 
ENDBRANCH  12  13
ENDBRANCH  11  12
ENDBRANCH  10  11
ENDBRANCH   9  10
ENDBRANCH   1   9
TORSDOF 9
ENDMDL
MODEL 4
REMARK VINA RESULT:    -1.503      2.539      5.596
REMARK INTER + INTRA:          -3.389
REMARK INTER:                  -3.131
REMARK INTRA:                  -0.258
REMARK UNBOUND:                -1.095
REMARK SMILES CCCCCCCCCC=CC(=O)[O-]
REMARK SMILES IDX 7 1 8 2 9 3 10 4 11 5 12 6 13 7 14 8 6 9 5 10 4 11 3 12 2 13
REMARK SMILES IDX 1 14
REMARK H PARENT
REMARK Flexibility Score: inf
ROOT
ATOM      1  C   UNL     1      -8.933   3.182  15.536  1.00  0.00     0.000 C 
ENDROOT
BRANCH   1   2
ATOM      2  C   UNL     1      -8.548   3.752  16.906  1.00  0.00     0.004 C 
BRANCH   2   3
ATOM      3  C   UNL     1      -7.658   4.993  16.755  1.00  0.00     0.027 C 
BRANCH   3   4
ATOM      4  C   UNL     1      -8.373   6.091  16.017  1.00  0.00    -0.025 C 
ATOM      5  C   UNL     1      -8.098   6.514  14.772  1.00  0.00     0.020 C 
BRANCH   5   6
ATOM      6  C   UNL     1      -7.020   6.019  13.890  1.00  0.00     0.064 C 
ATOM      7  O   UNL     1      -6.098   5.275  14.312  1.00  0.00    -0.545 OA
ATOM      8  O   UNL     1      -7.015   6.408  12.556  1.00  0.00    -0.545 OA
ENDBRANCH   5   6
ENDBRANCH   3   4
ENDBRANCH   2   3
ENDBRANCH   1   2
BRANCH   1   9
ATOM      9  C   UNL     1      -7.796   2.326  14.957  1.00  0.00     0.000 C 
BRANCH   9  10
ATOM     10  C   UNL     1      -7.686   2.444  13.429  1.00  0.00     0.000 C 
BRANCH  10  11
ATOM     11  C   UNL     1      -7.774   1.083  12.721  1.00  0.00    -0.000 C 
BRANCH  11  12
ATOM     12  C   UNL     1      -9.110   0.390  13.031  1.00  0.00    -0.000 C 
BRANCH  12  13
ATOM     13  C   UNL     1      -8.965  -0.736  14.066  1.00  0.00    -0.003 C 
ATOM     14  C   UNL     1      -9.310  -2.112  13.497  1.00  0.00     0.004 C 
ENDBRANCH  12  13
ENDBRANCH  11  12
ENDBRANCH  10  11
ENDBRANCH   9  10
ENDBRANCH   1   9
TORSDOF 9
ENDMDL
MODEL 5
REMARK VINA RESULT:    -1.158     15.108     17.013
REMARK INTER + INTRA:          -2.862
REMARK INTER:                  -2.103
REMARK INTRA:                  -0.759
REMARK UNBOUND:                -1.095
REMARK SMILES CCCCCCCCCC=CC(=O)[O-]
REMARK SMILES IDX 7 1 8 2 9 3 10 4 11 5 12 6 13 7 14 8 6 9 5 10 4 11 3 12 2 13
REMARK SMILES IDX 1 14
REMARK H PARENT
REMARK Flexibility Score: inf
ROOT
ATOM      1  C   UNL     1     -10.849  -4.993  26.585  1.00  0.00     0.000 C 
ENDROOT
BRANCH   1   2
ATOM      2  C   UNL     1     -10.255  -4.476  27.901  1.00  0.00     0.004 C 
BRANCH   2   3
ATOM      3  C   UNL     1     -10.770  -5.291  29.095  1.00  0.00     0.027 C 
BRANCH   3   4
ATOM      4  C   UNL     1      -9.954  -6.540  29.295  1.00  0.00    -0.025 C 
ATOM      5  C   UNL     1     -10.381  -7.800  29.106  1.00  0.00     0.020 C 
BRANCH   5   6
ATOM      6  C   UNL     1     -11.739  -8.221  28.702  1.00  0.00     0.064 C 
ATOM      7  O   UNL     1     -12.337  -7.701  27.726  1.00  0.00    -0.545 OA
ATOM      8  O   UNL     1     -12.382  -9.206  29.440  1.00  0.00    -0.545 OA
ENDBRANCH   5   6
ENDBRANCH   3   4
ENDBRANCH   2   3
ENDBRANCH   1   2
BRANCH   1   9
ATOM      9  C   UNL     1      -9.752  -5.566  25.675  1.00  0.00     0.000 C 
BRANCH   9  10
ATOM     10  C   UNL     1      -9.813  -7.098  25.567  1.00  0.00     0.000 C 
BRANCH  10  11
ATOM     11  C   UNL     1     -10.806  -7.578  24.498  1.00  0.00    -0.000 C 
BRANCH  11  12
ATOM     12  C   UNL     1     -10.668  -9.091  24.262  1.00  0.00    -0.000 C 
BRANCH  12  13
ATOM     13  C   UNL     1      -9.713  -9.423  23.105  1.00  0.00    -0.003 C 
ATOM     14  C   UNL     1      -9.673  -8.330  22.037  1.00  0.00     0.004 C 
ENDBRANCH  12  13
ENDBRANCH  11  12
ENDBRANCH  10  11
ENDBRANCH   9  10
ENDBRANCH   1   9
TORSDOF 9
ENDMDL
MODEL 6
REMARK VINA RESULT:    -0.670      1.118      2.233
REMARK INTER + INTRA:          -2.118
REMARK INTER:                  -1.890
REMARK INTRA:                  -0.228
REMARK UNBOUND:                -1.095
REMARK SMILES CCCCCCCCCC=CC(=O)[O-]
REMARK SMILES IDX 7 1 8 2 9 3 10 4 11 5 12 6 13 7 14 8 6 9 5 10 4 11 3 12 2 13
REMARK SMILES IDX 1 14
REMARK H PARENT
REMARK Flexibility Score: inf
ROOT
ATOM      1  C   UNL     1      -8.424   2.328  15.223  1.00  0.00     0.000 C 
ENDROOT
BRANCH   1   2
ATOM      2  C   UNL     1      -7.542   2.651  14.012  1.00  0.00     0.004 C 
BRANCH   2   3
ATOM      3  C   UNL     1      -7.339   1.410  13.132  1.00  0.00     0.027 C 
BRANCH   3   4
ATOM      4  C   UNL     1      -8.610   1.030  12.423  1.00  0.00    -0.025 C 
ATOM      5  C   UNL     1      -9.392  -0.023  12.717  1.00  0.00     0.020 C 
BRANCH   5   6
ATOM      6  C   UNL     1      -9.149  -1.038  13.763  1.00  0.00     0.064 C 
ATOM      7  O   UNL     1      -8.825  -0.725  14.937  1.00  0.00    -0.545 OA
ATOM      8  O   UNL     1      -9.262  -2.382  13.431  1.00  0.00    -0.545 OA
ENDBRANCH   5   6
ENDBRANCH   3   4
ENDBRANCH   2   3
ENDBRANCH   1   2
BRANCH   1   9
ATOM      9  C   UNL     1      -9.013   3.610  15.832  1.00  0.00     0.000 C 
BRANCH   9  10
ATOM     10  C   UNL     1      -7.931   4.560  16.369  1.00  0.00     0.000 C 
BRANCH  10  11
ATOM     11  C   UNL     1      -8.318   6.040  16.225  1.00  0.00    -0.000 C 
BRANCH  11  12
ATOM     12  C   UNL     1      -8.125   6.518  14.778  1.00  0.00    -0.000 C 
BRANCH  12  13
ATOM     13  C   UNL     1      -6.926   5.847  14.089  1.00  0.00    -0.003 C 
ATOM     14  C   UNL     1      -6.735   6.314  12.646  1.00  0.00     0.004 C 
ENDBRANCH  12  13
ENDBRANCH  11  12
ENDBRANCH  10  11
ENDBRANCH   9  10
ENDBRANCH   1   9
TORSDOF 9
ENDMDL
MODEL 7
REMARK VINA RESULT:    -0.632     14.291     15.839
REMARK INTER + INTRA:          -2.060
REMARK INTER:                  -1.633
REMARK INTRA:                  -0.426
REMARK UNBOUND:                -1.095
REMARK SMILES CCCCCCCCCC=CC(=O)[O-]
REMARK SMILES IDX 7 1 8 2 9 3 10 4 11 5 12 6 13 7 14 8 6 9 5 10 4 11 3 12 2 13
REMARK SMILES IDX 1 14
REMARK H PARENT
REMARK Flexibility Score: inf
ROOT
ATOM      1  C   UNL     1     -10.581  -8.994  23.772  1.00  0.00     0.000 C 
ENDROOT
BRANCH   1   2
ATOM      2  C   UNL     1     -10.911  -7.628  24.386  1.00  0.00     0.004 C 
BRANCH   2   3
ATOM      3  C   UNL     1      -9.768  -7.137  25.284  1.00  0.00     0.027 C 
BRANCH   3   4
ATOM      4  C   UNL     1     -10.115  -5.832  25.946  1.00  0.00    -0.025 C 
ATOM      5  C   UNL     1     -10.546  -5.679  27.210  1.00  0.00     0.020 C 
BRANCH   5   6
ATOM      6  C   UNL     1     -10.801  -6.753  28.192  1.00  0.00     0.064 C 
ATOM      7  O   UNL     1     -10.172  -6.831  29.278  1.00  0.00    -0.545 OA
ATOM      8  O   UNL     1     -11.752  -7.721  27.894  1.00  0.00    -0.545 OA
ENDBRANCH   5   6
ENDBRANCH   3   4
ENDBRANCH   2   3
ENDBRANCH   1   2
BRANCH   1   9
ATOM      9  C   UNL     1      -9.261  -8.939  22.987  1.00  0.00     0.000 C 
BRANCH   9  10
ATOM     10  C   UNL     1      -9.405  -8.219  21.637  1.00  0.00     0.000 C 
BRANCH  10  11
ATOM     11  C   UNL     1      -9.359  -9.184  20.443  1.00  0.00    -0.000 C 
BRANCH  11  12
ATOM     12  C   UNL     1      -8.726  -8.507  19.217  1.00  0.00    -0.000 C 
BRANCH  12  13
ATOM     13  C   UNL     1      -7.565  -9.321  18.626  1.00  0.00    -0.003 C 
ATOM     14  C   UNL     1      -6.254  -8.535  18.580  1.00  0.00     0.004 C 
ENDBRANCH  12  13
ENDBRANCH  11  12
ENDBRANCH  10  11
ENDBRANCH   9  10
ENDBRANCH   1   9
TORSDOF 9
ENDMDL
MODEL 8
REMARK VINA RESULT:    -0.461     14.379     16.234
REMARK INTER + INTRA:          -1.799
REMARK INTER:                  -1.618
REMARK INTRA:                  -0.181
REMARK UNBOUND:                -1.095
REMARK SMILES CCCCCCCCCC=CC(=O)[O-]
REMARK SMILES IDX 7 1 8 2 9 3 10 4 11 5 12 6 13 7 14 8 6 9 5 10 4 11 3 12 2 13
REMARK SMILES IDX 1 14
REMARK H PARENT
REMARK Flexibility Score: inf
ROOT
ATOM      1  C   UNL     1     -10.488  -6.727  24.963  1.00  0.00     0.000 C 
ENDROOT
BRANCH   1   2
ATOM      2  C   UNL     1     -11.017  -8.116  25.341  1.00  0.00     0.004 C 
BRANCH   2   3
ATOM      3  C   UNL     1     -11.165  -9.005  24.099  1.00  0.00     0.027 C 
BRANCH   3   4
ATOM      4  C   UNL     1      -9.856  -9.646  23.727  1.00  0.00    -0.025 C 
ATOM      5  C   UNL     1      -9.129  -9.376  22.629  1.00  0.00     0.020 C 
BRANCH   5   6
ATOM      6  C   UNL     1      -9.480  -8.430  21.549  1.00  0.00     0.064 C 
ATOM      7  O   UNL     1      -9.499  -8.774  20.339  1.00  0.00    -0.545 OA
ATOM      8  O   UNL     1      -9.776  -7.115  21.880  1.00  0.00    -0.545 OA
ENDBRANCH   5   6
ENDBRANCH   3   4
ENDBRANCH   2   3
ENDBRANCH   1   2
BRANCH   1   9
ATOM      9  C   UNL     1      -9.754  -6.078  26.147  1.00  0.00     0.000 C 
BRANCH   9  10
ATOM     10  C   UNL     1     -10.681  -5.212  27.015  1.00  0.00     0.000 C 
BRANCH  10  11
ATOM     11  C   UNL     1     -10.432  -5.402  28.519  1.00  0.00    -0.000 C 
BRANCH  11  12
ATOM     12  C   UNL     1     -10.436  -6.893  28.891  1.00  0.00    -0.000 C 
BRANCH  12  13
ATOM     13  C   UNL     1     -11.690  -7.624  28.387  1.00  0.00    -0.003 C 
ATOM     14  C   UNL     1     -11.923  -8.959  29.095  1.00  0.00     0.004 C 
ENDBRANCH  12  13
ENDBRANCH  11  12
ENDBRANCH  10  11
ENDBRANCH   9  10
ENDBRANCH   1   9
TORSDOF 9
ENDMDL
MODEL 9
REMARK VINA RESULT:    -0.376     14.462     16.394
REMARK INTER + INTRA:          -1.669
REMARK INTER:                  -1.600
REMARK INTRA:                  -0.069
REMARK UNBOUND:                -1.095
REMARK SMILES CCCCCCCCCC=CC(=O)[O-]
REMARK SMILES IDX 7 1 8 2 9 3 10 4 11 5 12 6 13 7 14 8 6 9 5 10 4 11 3 12 2 13
REMARK SMILES IDX 1 14
REMARK H PARENT
REMARK Flexibility Score: inf
ROOT
ATOM      1  C   UNL     1     -11.681  -8.242  28.892  1.00  0.00     0.000 C 
ENDROOT
BRANCH   1   2
ATOM      2  C   UNL     1     -12.053  -7.682  27.514  1.00  0.00     0.004 C 
BRANCH   2   3
ATOM      3  C   UNL     1     -11.195  -8.318  26.411  1.00  0.00     0.027 C 
BRANCH   3   4
ATOM      4  C   UNL     1     -10.518  -7.269  25.572  1.00  0.00    -0.025 C 
ATOM      5  C   UNL     1     -10.169  -7.396  24.281  1.00  0.00     0.020 C 
BRANCH   5   6
ATOM      6  C   UNL     1     -10.340  -8.595  23.434  1.00  0.00     0.064 C 
ATOM      7  O   UNL     1     -10.971  -9.609  23.829  1.00  0.00    -0.545 OA
ATOM      8  O   UNL     1      -9.767  -8.609  22.169  1.00  0.00    -0.545 OA
ENDBRANCH   5   6
ENDBRANCH   3   4
ENDBRANCH   2   3
ENDBRANCH   1   2
BRANCH   1   9
ATOM      9  C   UNL     1     -10.265  -7.806  29.298  1.00  0.00     0.000 C 
BRANCH   9  10
ATOM     10  C   UNL     1     -10.178  -6.306  29.622  1.00  0.00     0.000 C 
BRANCH  10  11
ATOM     11  C   UNL     1      -9.814  -5.455  28.396  1.00  0.00    -0.000 C 
BRANCH  11  12
ATOM     12  C   UNL     1     -10.803  -4.292  28.225  1.00  0.00    -0.000 C 
BRANCH  12  13
ATOM     13  C   UNL     1     -11.284  -4.134  26.774  1.00  0.00    -0.003 C 
ATOM     14  C   UNL     1     -10.135  -4.128  25.766  1.00  0.00     0.004 C 
ENDBRANCH  12  13
ENDBRANCH  11  12
ENDBRANCH  10  11
ENDBRANCH   9  10
ENDBRANCH   1   9
TORSDOF 9
ENDMDL
