MODEL 1
REMARK VINA RESULT:    -3.862      0.000      0.000
REMARK INTER + INTRA:          -4.215
REMARK INTER:                  -4.201
REMARK INTRA:                  -0.014
REMARK UNBOUND:                -0.014
REMARK SMILES OCc1ccco1
REMARK SMILES IDX 2 1 3 2 5 3 6 4 4 5 7 6 1 7
REMARK H PARENT 1 8
REMARK Flexibility Score: inf
ROOT
ATOM      1  C   UNL     1      22.431  54.597  31.283  1.00  0.00     0.231 C 
ENDROOT
BRANCH   1   2
ATOM      2  C   UNL     1      22.506  56.080  31.106  1.00  0.00     0.129 A 
ATOM      3  C   UNL     1      22.200  58.125  30.365  1.00  0.00     0.042 A 
ATOM      4  C   UNL     1      23.006  58.117  31.486  1.00  0.00     0.195 A 
ATOM      5  C   UNL     1      21.873  56.809  30.119  1.00  0.00     0.048 A 
ATOM      6  O   UNL     1      23.167  56.883  31.907  1.00  0.00    -0.467 OA
ENDBRANCH   1   2
BRANCH   1   7
ATOM      7  O   UNL     1      21.131  54.223  31.645  1.00  0.00    -0.388 OA
ATOM      8  H   UNL     1      20.681  55.042  31.979  1.00  0.00     0.211 HD
ENDBRANCH   1   7
TORSDOF 2
ENDMDL
MODEL 2
REMARK VINA RESULT:    -3.671      1.816      3.419
REMARK INTER + INTRA:          -4.007
REMARK INTER:                  -3.992
REMARK INTRA:                  -0.014
REMARK UNBOUND:                -0.014
REMARK SMILES OCc1ccco1
REMARK SMILES IDX 2 1 3 2 5 3 6 4 4 5 7 6 1 7
REMARK H PARENT 1 8
REMARK Flexibility Score: inf
ROOT
ATOM      1  C   UNL     1      22.380  56.474  30.994  1.00  0.00     0.231 C 
ENDROOT
BRANCH   1   2
ATOM      2  C   UNL     1      22.809  55.052  31.169  1.00  0.00     0.129 A 
ATOM      3  C   UNL     1      22.800  52.864  31.356  1.00  0.00     0.042 A 
ATOM      4  C   UNL     1      24.089  53.361  31.382  1.00  0.00     0.195 A 
ATOM      5  C   UNL     1      21.971  53.956  31.215  1.00  0.00     0.048 A 
ATOM      6  O   UNL     1      24.061  54.669  31.264  1.00  0.00    -0.467 OA
ENDBRANCH   1   2
BRANCH   1   7
ATOM      7  O   UNL     1      21.520  56.583  29.894  1.00  0.00    -0.388 OA
ATOM      8  H   UNL     1      21.613  57.510  29.552  1.00  0.00     0.211 HD
ENDBRANCH   1   7
TORSDOF 2
ENDMDL
MODEL 3
REMARK VINA RESULT:    -3.556     14.420     15.514
REMARK INTER + INTRA:          -3.881
REMARK INTER:                  -3.860
REMARK INTRA:                  -0.021
REMARK UNBOUND:                -0.014
REMARK SMILES OCc1ccco1
REMARK SMILES IDX 2 1 3 2 5 3 6 4 4 5 7 6 1 7
REMARK H PARENT 1 8
REMARK Flexibility Score: inf
ROOT
ATOM      1  C   UNL     1      13.642  48.080  24.442  1.00  0.00     0.231 C 
ENDROOT
BRANCH   1   2
ATOM      2  C   UNL     1      12.364  48.004  23.669  1.00  0.00     0.129 A 
ATOM      3  C   UNL     1      10.251  48.131  23.089  1.00  0.00     0.042 A 
ATOM      4  C   UNL     1      11.033  47.716  22.030  1.00  0.00     0.195 A 
ATOM      5  C   UNL     1      11.110  48.321  24.149  1.00  0.00     0.048 A 
ATOM      6  O   UNL     1      12.290  47.653  22.406  1.00  0.00    -0.467 OA
ENDBRANCH   1   2
BRANCH   1   7
ATOM      7  O   UNL     1      14.712  48.338  23.576  1.00  0.00    -0.388 OA
ATOM      8  H   UNL     1      15.212  49.104  23.961  1.00  0.00     0.211 HD
ENDBRANCH   1   7
TORSDOF 2
ENDMDL
MODEL 4
REMARK VINA RESULT:    -3.533     17.151     17.829
REMARK INTER + INTRA:          -3.856
REMARK INTER:                  -3.843
REMARK INTRA:                  -0.014
REMARK UNBOUND:                -0.014
REMARK SMILES OCc1ccco1
REMARK SMILES IDX 2 1 3 2 5 3 6 4 4 5 7 6 1 7
REMARK H PARENT 1 8
REMARK Flexibility Score: inf
ROOT
ATOM      1  C   UNL     1       9.395  49.857  19.212  1.00  0.00     0.231 C 
ENDROOT
BRANCH   1   2
ATOM      2  C   UNL     1       9.105  50.258  20.624  1.00  0.00     0.129 A 
ATOM      3  C   UNL     1       8.374  51.332  22.393  1.00  0.00     0.042 A 
ATOM      4  C   UNL     1       9.014  50.162  22.751  1.00  0.00     0.195 A 
ATOM      5  C   UNL     1       8.430  51.394  21.018  1.00  0.00     0.048 A 
ATOM      6  O   UNL     1       9.436  49.541  21.673  1.00  0.00    -0.467 OA
ENDBRANCH   1   2
BRANCH   1   7
ATOM      7  O   UNL     1      10.730  50.140  18.898  1.00  0.00    -0.388 OA
ATOM      8  H   UNL     1      10.880  49.814  17.972  1.00  0.00     0.211 HD
ENDBRANCH   1   7
TORSDOF 2
ENDMDL
MODEL 5
REMARK VINA RESULT:    -3.527     17.357     17.691
REMARK INTER + INTRA:          -3.851
REMARK INTER:                  -3.832
REMARK INTRA:                  -0.019
REMARK UNBOUND:                -0.014
REMARK SMILES OCc1ccco1
REMARK SMILES IDX 2 1 3 2 5 3 6 4 4 5 7 6 1 7
REMARK H PARENT 1 8
REMARK Flexibility Score: inf
ROOT
ATOM      1  C   UNL     1       8.415  51.360  21.366  1.00  0.00     0.231 C 
ENDROOT
BRANCH   1   2
ATOM      2  C   UNL     1       9.321  50.285  20.858  1.00  0.00     0.129 A 
ATOM      3  C   UNL     1      10.655  49.089  19.588  1.00  0.00     0.042 A 
ATOM      4  C   UNL     1      10.534  48.532  20.845  1.00  0.00     0.195 A 
ATOM      5  C   UNL     1       9.874  50.224  19.595  1.00  0.00     0.048 A 
ATOM      6  O   UNL     1       9.735  49.270  21.581  1.00  0.00    -0.467 OA
ENDBRANCH   1   2
BRANCH   1   7
ATOM      7  O   UNL     1       8.843  51.792  22.627  1.00  0.00    -0.388 OA
ATOM      8  H   UNL     1       8.644  52.763  22.678  1.00  0.00     0.211 HD
ENDBRANCH   1   7
TORSDOF 2
ENDMDL
MODEL 6
REMARK VINA RESULT:    -3.505     22.427     23.335
REMARK INTER + INTRA:          -3.826
REMARK INTER:                  -3.808
REMARK INTRA:                  -0.018
REMARK UNBOUND:                -0.014
REMARK SMILES OCc1ccco1
REMARK SMILES IDX 2 1 3 2 5 3 6 4 4 5 7 6 1 7
REMARK H PARENT 1 8
REMARK Flexibility Score: inf
ROOT
ATOM      1  C   UNL     1       7.382  45.736  14.627  1.00  0.00     0.231 C 
ENDROOT
BRANCH   1   2
ATOM      2  C   UNL     1       8.835  46.066  14.755  1.00  0.00     0.129 A 
ATOM      3  C   UNL     1      10.982  46.288  14.349  1.00  0.00     0.042 A 
ATOM      4  C   UNL     1      10.642  46.861  15.559  1.00  0.00     0.195 A 
ATOM      5  C   UNL     1       9.814  45.776  13.826  1.00  0.00     0.048 A 
ATOM      6  O   UNL     1       9.355  46.716  15.771  1.00  0.00    -0.467 OA
ENDBRANCH   1   2
BRANCH   1   7
ATOM      7  O   UNL     1       6.880  45.297  15.859  1.00  0.00    -0.388 OA
ATOM      8  H   UNL     1       5.892  45.372  15.806  1.00  0.00     0.211 HD
ENDBRANCH   1   7
TORSDOF 2
ENDMDL
MODEL 7
REMARK VINA RESULT:    -3.492     16.594     17.479
REMARK INTER + INTRA:          -3.812
REMARK INTER:                  -3.797
REMARK INTRA:                  -0.015
REMARK UNBOUND:                -0.014
REMARK SMILES OCc1ccco1
REMARK SMILES IDX 2 1 3 2 5 3 6 4 4 5 7 6 1 7
REMARK H PARENT 1 8
REMARK Flexibility Score: inf
ROOT
ATOM      1  C   UNL     1       5.370  50.246  26.716  1.00  0.00     0.231 C 
ENDROOT
BRANCH   1   2
ATOM      2  C   UNL     1       6.270  50.216  27.910  1.00  0.00     0.129 A 
ATOM      3  C   UNL     1       7.087  50.480  29.931  1.00  0.00     0.042 A 
ATOM      4  C   UNL     1       7.950  49.752  29.136  1.00  0.00     0.195 A 
ATOM      5  C   UNL     1       5.998  50.778  29.140  1.00  0.00     0.048 A 
ATOM      6  O   UNL     1       7.434  49.608  27.937  1.00  0.00    -0.467 OA
ENDBRANCH   1   2
BRANCH   1   7
ATOM      7  O   UNL     1       4.619  51.427  26.711  1.00  0.00    -0.388 OA
ATOM      8  H   UNL     1       4.034  51.397  27.512  1.00  0.00     0.211 HD
ENDBRANCH   1   7
TORSDOF 2
ENDMDL
MODEL 8
REMARK VINA RESULT:    -3.479     17.620     18.780
REMARK INTER + INTRA:          -3.798
REMARK INTER:                  -3.783
REMARK INTRA:                  -0.015
REMARK UNBOUND:                -0.014
REMARK SMILES OCc1ccco1
REMARK SMILES IDX 2 1 3 2 5 3 6 4 4 5 7 6 1 7
REMARK H PARENT 1 8
REMARK Flexibility Score: inf
ROOT
ATOM      1  C   UNL     1       9.492  47.139  24.846  1.00  0.00     0.231 C 
ENDROOT
BRANCH   1   2
ATOM      2  C   UNL     1       9.024  46.386  23.642  1.00  0.00     0.129 A 
ATOM      3  C   UNL     1       7.922  45.033  22.310  1.00  0.00     0.042 A 
ATOM      4  C   UNL     1       8.847  45.779  21.607  1.00  0.00     0.195 A 
ATOM      5  C   UNL     1       8.033  45.426  23.626  1.00  0.00     0.048 A 
ATOM      6  O   UNL     1       9.487  46.579  22.429  1.00  0.00    -0.467 OA
ENDBRANCH   1   2
BRANCH   1   7
ATOM      7  O   UNL     1       9.141  46.447  26.012  1.00  0.00    -0.388 OA
ATOM      8  H   UNL     1       8.150  46.463  26.065  1.00  0.00     0.211 HD
ENDBRANCH   1   7
TORSDOF 2
ENDMDL
MODEL 9
REMARK VINA RESULT:    -3.475     18.951     20.123
REMARK INTER + INTRA:          -3.794
REMARK INTER:                  -3.775
REMARK INTRA:                  -0.019
REMARK UNBOUND:                -0.014
REMARK SMILES OCc1ccco1
REMARK SMILES IDX 2 1 3 2 5 3 6 4 4 5 7 6 1 7
REMARK H PARENT 1 8
REMARK Flexibility Score: inf
ROOT
ATOM      1  C   UNL     1       8.748  46.183  24.563  1.00  0.00     0.231 C 
ENDROOT
BRANCH   1   2
ATOM      2  C   UNL     1       7.399  45.722  24.111  1.00  0.00     0.129 A 
ATOM      3  C   UNL     1       5.775  44.771  22.980  1.00  0.00     0.042 A 
ATOM      4  C   UNL     1       5.295  45.380  24.123  1.00  0.00     0.195 A 
ATOM      5  C   UNL     1       7.136  44.989  22.972  1.00  0.00     0.048 A 
ATOM      6  O   UNL     1       6.289  45.935  24.779  1.00  0.00    -0.467 OA
ENDBRANCH   1   2
BRANCH   1   7
ATOM      7  O   UNL     1       8.896  45.958  25.937  1.00  0.00    -0.388 OA
ATOM      8  H   UNL     1       8.396  45.127  26.145  1.00  0.00     0.211 HD
ENDBRANCH   1   7
TORSDOF 2
ENDMDL
