MODEL 1
REMARK VINA RESULT:    -4.197      0.000      0.000
REMARK INTER + INTRA:          -7.182
REMARK INTER:                  -6.405
REMARK INTRA:                  -0.777
REMARK UNBOUND:                -0.777
REMARK SMILES CCCCCCCCCCC(=O)[O-]
REMARK SMILES IDX 7 1 8 2 9 3 10 4 11 5 12 6 13 7 6 8 5 9 4 10 3 11 2 12 1 13
REMARK H PARENT
REMARK Flexibility Score: inf
ROOT
ATOM      1  C   UNL     1      17.849  12.666 -14.997  1.00  0.00     0.000 C 
ENDROOT
BRANCH   1   2
ATOM      2  C   UNL     1      18.444  11.933 -13.782  1.00  0.00     0.000 C 
BRANCH   2   3
ATOM      3  C   UNL     1      19.955  12.166 -13.633  1.00  0.00     0.006 C 
BRANCH   3   4
ATOM      4  C   UNL     1      20.419  13.465 -14.306  1.00  0.00     0.053 C 
BRANCH   4   5
ATOM      5  C   UNL     1      21.716  13.924 -13.716  1.00  0.00     0.041 C 
ATOM      6  O   UNL     1      22.205  15.034 -14.051  1.00  0.00    -0.550 OA
ATOM      7  O   UNL     1      22.407  13.103 -12.834  1.00  0.00    -0.550 OA
ENDBRANCH   4   5
ENDBRANCH   3   4
ENDBRANCH   2   3
ENDBRANCH   1   2
BRANCH   1   8
ATOM      8  C   UNL     1      16.324  12.502 -15.101  1.00  0.00     0.000 C 
BRANCH   8   9
ATOM      9  C   UNL     1      15.651  12.360 -13.724  1.00  0.00    -0.000 C 
BRANCH   9  10
ATOM     10  C   UNL     1      14.446  11.405 -13.751  1.00  0.00    -0.000 C 
BRANCH  10  11
ATOM     11  C   UNL     1      14.501  10.413 -14.923  1.00  0.00    -0.000 C 
BRANCH  11  12
ATOM     12  C   UNL     1      14.993   9.039 -14.454  1.00  0.00    -0.003 C 
ATOM     13  C   UNL     1      16.495   8.884 -14.678  1.00  0.00     0.004 C 
ENDBRANCH  11  12
ENDBRANCH  10  11
ENDBRANCH   9  10
ENDBRANCH   8   9
ENDBRANCH   1   8
TORSDOF 9
ENDMDL
MODEL 2
REMARK VINA RESULT:    -4.181      3.437      6.419
REMARK INTER + INTRA:          -7.158
REMARK INTER:                  -6.572
REMARK INTRA:                  -0.586
REMARK UNBOUND:                -0.777
REMARK SMILES CCCCCCCCCCC(=O)[O-]
REMARK SMILES IDX 7 1 8 2 9 3 10 4 11 5 12 6 13 7 6 8 5 9 4 10 3 11 2 12 1 13
REMARK H PARENT
REMARK Flexibility Score: inf
ROOT
ATOM      1  C   UNL     1      16.180  12.575 -15.231  1.00  0.00     0.000 C 
ENDROOT
BRANCH   1   2
ATOM      2  C   UNL     1      15.583  12.365 -13.828  1.00  0.00     0.000 C 
BRANCH   2   3
ATOM      3  C   UNL     1      14.500  11.276 -13.804  1.00  0.00     0.006 C 
BRANCH   3   4
ATOM      4  C   UNL     1      14.543  10.375 -15.046  1.00  0.00     0.053 C 
BRANCH   4   5
ATOM      5  C   UNL     1      15.159   9.053 -14.710  1.00  0.00     0.041 C 
ATOM      6  O   UNL     1      16.279   9.003 -14.139  1.00  0.00    -0.550 OA
ATOM      7  O   UNL     1      14.518   7.875 -15.072  1.00  0.00    -0.550 OA
ENDBRANCH   4   5
ENDBRANCH   3   4
ENDBRANCH   2   3
ENDBRANCH   1   2
BRANCH   1   8
ATOM      8  C   UNL     1      17.705  12.390 -15.261  1.00  0.00     0.000 C 
BRANCH   8   9
ATOM      9  C   UNL     1      18.261  11.865 -13.925  1.00  0.00    -0.000 C 
BRANCH   9  10
ATOM     10  C   UNL     1      19.797  11.781 -13.917  1.00  0.00    -0.000 C 
BRANCH  10  11
ATOM     11  C   UNL     1      20.468  13.163 -13.947  1.00  0.00    -0.000 C 
BRANCH  11  12
ATOM     12  C   UNL     1      21.757  13.164 -13.118  1.00  0.00    -0.003 C 
ATOM     13  C   UNL     1      22.682  14.303 -13.536  1.00  0.00     0.004 C 
ENDBRANCH  11  12
ENDBRANCH  10  11
ENDBRANCH   9  10
ENDBRANCH   8   9
ENDBRANCH   1   8
TORSDOF 9
ENDMDL
MODEL 3
REMARK VINA RESULT:    -4.094      1.009      2.515
REMARK INTER + INTRA:          -7.025
REMARK INTER:                  -6.029
REMARK INTRA:                  -0.997
REMARK UNBOUND:                -0.777
REMARK SMILES CCCCCCCCCCC(=O)[O-]
REMARK SMILES IDX 7 1 8 2 9 3 10 4 11 5 12 6 13 7 6 8 5 9 4 10 3 11 2 12 1 13
REMARK H PARENT
REMARK Flexibility Score: inf
ROOT
ATOM      1  C   UNL     1      17.866   9.716 -14.006  1.00  0.00     0.000 C 
ENDROOT
BRANCH   1   2
ATOM      2  C   UNL     1      18.651  10.910 -14.577  1.00  0.00     0.000 C 
BRANCH   2   3
ATOM      3  C   UNL     1      19.138  11.874 -13.485  1.00  0.00     0.006 C 
BRANCH   3   4
ATOM      4  C   UNL     1      20.074  12.960 -14.032  1.00  0.00     0.053 C 
BRANCH   4   5
ATOM      5  C   UNL     1      21.486  12.692 -13.612  1.00  0.00     0.041 C 
ATOM      6  O   UNL     1      22.098  11.687 -14.058  1.00  0.00    -0.550 OA
ATOM      7  O   UNL     1      22.107  13.525 -12.691  1.00  0.00    -0.550 OA
ENDBRANCH   4   5
ENDBRANCH   3   4
ENDBRANCH   2   3
ENDBRANCH   1   2
BRANCH   1   8
ATOM      8  C   UNL     1      16.860   9.131 -15.011  1.00  0.00     0.000 C 
BRANCH   8   9
ATOM      9  C   UNL     1      15.438   9.033 -14.432  1.00  0.00    -0.000 C 
BRANCH   9  10
ATOM     10  C   UNL     1      14.556  10.230 -14.827  1.00  0.00    -0.000 C 
BRANCH  10  11
ATOM     11  C   UNL     1      14.437  11.274 -13.707  1.00  0.00    -0.000 C 
BRANCH  11  12
ATOM     12  C   UNL     1      15.382  12.455 -13.956  1.00  0.00    -0.003 C 
ATOM     13  C   UNL     1      15.525  12.743 -15.448  1.00  0.00     0.004 C 
ENDBRANCH  11  12
ENDBRANCH  10  11
ENDBRANCH   9  10
ENDBRANCH   8   9
ENDBRANCH   1   8
TORSDOF 9
ENDMDL
MODEL 4
REMARK VINA RESULT:    -4.091      3.048      5.665
REMARK INTER + INTRA:          -7.021
REMARK INTER:                  -6.060
REMARK INTRA:                  -0.961
REMARK UNBOUND:                -0.777
REMARK SMILES CCCCCCCCCCC(=O)[O-]
REMARK SMILES IDX 7 1 8 2 9 3 10 4 11 5 12 6 13 7 6 8 5 9 4 10 3 11 2 12 1 13
REMARK H PARENT
REMARK Flexibility Score: inf
ROOT
ATOM      1  C   UNL     1      17.220   9.096 -15.462  1.00  0.00     0.000 C 
ENDROOT
BRANCH   1   2
ATOM      2  C   UNL     1      16.287   8.983 -14.244  1.00  0.00     0.000 C 
BRANCH   2   3
ATOM      3  C   UNL     1      14.905   9.603 -14.498  1.00  0.00     0.006 C 
BRANCH   3   4
ATOM      4  C   UNL     1      14.942  10.707 -15.564  1.00  0.00     0.053 C 
BRANCH   4   5
ATOM      5  C   UNL     1      15.208  12.036 -14.929  1.00  0.00     0.041 C 
ATOM      6  O   UNL     1      15.094  12.177 -13.683  1.00  0.00    -0.550 OA
ATOM      7  O   UNL     1      15.533  13.132 -15.719  1.00  0.00    -0.550 OA
ENDBRANCH   4   5
ENDBRANCH   3   4
ENDBRANCH   2   3
ENDBRANCH   1   2
BRANCH   1   8
ATOM      8  C   UNL     1      18.444   9.985 -15.193  1.00  0.00     0.000 C 
BRANCH   8   9
ATOM      9  C   UNL     1      18.630  10.294 -13.697  1.00  0.00    -0.000 C 
BRANCH   9  10
ATOM     10  C   UNL     1      18.782  11.799 -13.420  1.00  0.00    -0.000 C 
BRANCH  10  11
ATOM     11  C   UNL     1      18.986  12.622 -14.701  1.00  0.00    -0.000 C 
BRANCH  11  12
ATOM     12  C   UNL     1      20.160  13.595 -14.546  1.00  0.00    -0.003 C 
ATOM     13  C   UNL     1      21.138  13.115 -13.478  1.00  0.00     0.004 C 
ENDBRANCH  11  12
ENDBRANCH  10  11
ENDBRANCH   9  10
ENDBRANCH   8   9
ENDBRANCH   1   8
TORSDOF 9
ENDMDL
MODEL 5
REMARK VINA RESULT:    -4.085      3.682      6.601
REMARK INTER + INTRA:          -7.011
REMARK INTER:                  -6.451
REMARK INTRA:                  -0.560
REMARK UNBOUND:                -0.777
REMARK SMILES CCCCCCCCCCC(=O)[O-]
REMARK SMILES IDX 7 1 8 2 9 3 10 4 11 5 12 6 13 7 6 8 5 9 4 10 3 11 2 12 1 13
REMARK H PARENT
REMARK Flexibility Score: inf
ROOT
ATOM      1  C   UNL     1      18.352  10.197 -13.875  1.00  0.00     0.000 C 
ENDROOT
BRANCH   1   2
ATOM      2  C   UNL     1      17.748  10.109 -15.287  1.00  0.00     0.000 C 
BRANCH   2   3
ATOM      3  C   UNL     1      16.619   9.071 -15.383  1.00  0.00     0.006 C 
BRANCH   3   4
ATOM      4  C   UNL     1      15.600   9.204 -14.244  1.00  0.00     0.053 C 
BRANCH   4   5
ATOM      5  C   UNL     1      14.528  10.182 -14.615  1.00  0.00     0.041 C 
ATOM      6  O   UNL     1      13.939  10.085 -15.722  1.00  0.00    -0.550 OA
ATOM      7  O   UNL     1      14.216  11.229 -13.757  1.00  0.00    -0.550 OA
ENDBRANCH   4   5
ENDBRANCH   3   4
ENDBRANCH   2   3
ENDBRANCH   1   2
BRANCH   1   8
ATOM      8  C   UNL     1      18.587  11.646 -13.419  1.00  0.00     0.000 C 
BRANCH   8   9
ATOM      9  C   UNL     1      18.759  12.616 -14.601  1.00  0.00    -0.000 C 
BRANCH   9  10
ATOM     10  C   UNL     1      20.043  13.455 -14.495  1.00  0.00    -0.000 C 
BRANCH  10  11
ATOM     11  C   UNL     1      21.013  12.923 -13.429  1.00  0.00    -0.000 C 
BRANCH  11  12
ATOM     12  C   UNL     1      22.291  13.769 -13.381  1.00  0.00    -0.003 C 
ATOM     13  C   UNL     1      23.125  13.440 -12.146  1.00  0.00     0.004 C 
ENDBRANCH  11  12
ENDBRANCH  10  11
ENDBRANCH   9  10
ENDBRANCH   8   9
ENDBRANCH   1   8
TORSDOF 9
ENDMDL
MODEL 6
REMARK VINA RESULT:    -4.061      3.331      6.059
REMARK INTER + INTRA:          -6.974
REMARK INTER:                  -6.057
REMARK INTRA:                  -0.916
REMARK UNBOUND:                -0.777
REMARK SMILES CCCCCCCCCCC(=O)[O-]
REMARK SMILES IDX 7 1 8 2 9 3 10 4 11 5 12 6 13 7 6 8 5 9 4 10 3 11 2 12 1 13
REMARK H PARENT
REMARK Flexibility Score: inf
ROOT
ATOM      1  C   UNL     1      18.534  10.175 -13.712  1.00  0.00     0.000 C 
ENDROOT
BRANCH   1   2
ATOM      2  C   UNL     1      17.533   9.849 -14.834  1.00  0.00     0.000 C 
BRANCH   2   3
ATOM      3  C   UNL     1      16.257   9.174 -14.310  1.00  0.00     0.006 C 
BRANCH   3   4
ATOM      4  C   UNL     1      14.981   9.788 -14.901  1.00  0.00     0.053 C 
BRANCH   4   5
ATOM      5  C   UNL     1      14.845  11.217 -14.477  1.00  0.00     0.041 C 
ATOM      6  O   UNL     1      14.439  11.497 -13.319  1.00  0.00    -0.550 OA
ATOM      7  O   UNL     1      15.119  12.238 -15.377  1.00  0.00    -0.550 OA
ENDBRANCH   4   5
ENDBRANCH   3   4
ENDBRANCH   2   3
ENDBRANCH   1   2
BRANCH   1   8
ATOM      8  C   UNL     1      18.571  11.672 -13.365  1.00  0.00     0.000 C 
BRANCH   8   9
ATOM      9  C   UNL     1      18.688  12.563 -14.615  1.00  0.00    -0.000 C 
BRANCH   9  10
ATOM     10  C   UNL     1      20.088  13.180 -14.771  1.00  0.00    -0.000 C 
BRANCH  10  11
ATOM     11  C   UNL     1      20.905  13.135 -13.470  1.00  0.00    -0.000 C 
BRANCH  11  12
ATOM     12  C   UNL     1      22.264  12.465 -13.700  1.00  0.00    -0.003 C 
ATOM     13  C   UNL     1      22.113  11.163 -14.482  1.00  0.00     0.004 C 
ENDBRANCH  11  12
ENDBRANCH  10  11
ENDBRANCH   9  10
ENDBRANCH   8   9
ENDBRANCH   1   8
TORSDOF 9
ENDMDL
MODEL 7
REMARK VINA RESULT:    -4.005      1.333      2.431
REMARK INTER + INTRA:          -6.889
REMARK INTER:                  -6.004
REMARK INTRA:                  -0.885
REMARK UNBOUND:                -0.777
REMARK SMILES CCCCCCCCCCC(=O)[O-]
REMARK SMILES IDX 7 1 8 2 9 3 10 4 11 5 12 6 13 7 6 8 5 9 4 10 3 11 2 12 1 13
REMARK H PARENT
REMARK Flexibility Score: inf
ROOT
ATOM      1  C   UNL     1      18.588  11.589 -13.406  1.00  0.00     0.000 C 
ENDROOT
BRANCH   1   2
ATOM      2  C   UNL     1      18.691  12.549 -14.605  1.00  0.00     0.000 C 
BRANCH   2   3
ATOM      3  C   UNL     1      19.969  13.400 -14.571  1.00  0.00     0.006 C 
BRANCH   3   4
ATOM      4  C   UNL     1      20.956  12.938 -13.491  1.00  0.00     0.053 C 
BRANCH   4   5
ATOM      5  C   UNL     1      22.122  12.237 -14.115  1.00  0.00     0.041 C 
ATOM      6  O   UNL     1      23.123  12.895 -14.500  1.00  0.00    -0.550 OA
ATOM      7  O   UNL     1      22.082  10.863 -14.316  1.00  0.00    -0.550 OA
ENDBRANCH   4   5
ENDBRANCH   3   4
ENDBRANCH   2   3
ENDBRANCH   1   2
BRANCH   1   8
ATOM      8  C   UNL     1      18.325  10.135 -13.831  1.00  0.00     0.000 C 
BRANCH   8   9
ATOM      9  C   UNL     1      17.589  10.039 -15.179  1.00  0.00    -0.000 C 
BRANCH   9  10
ATOM     10  C   UNL     1      16.526   8.927 -15.193  1.00  0.00    -0.000 C 
BRANCH  10  11
ATOM     11  C   UNL     1      15.355   9.214 -14.240  1.00  0.00    -0.000 C 
BRANCH  11  12
ATOM     12  C   UNL     1      14.567  10.447 -14.697  1.00  0.00    -0.003 C 
ATOM     13  C   UNL     1      14.560  11.528 -13.620  1.00  0.00     0.004 C 
ENDBRANCH  11  12
ENDBRANCH  10  11
ENDBRANCH   9  10
ENDBRANCH   8   9
ENDBRANCH   1   8
TORSDOF 9
ENDMDL
MODEL 8
REMARK VINA RESULT:    -3.930      1.240      2.479
REMARK INTER + INTRA:          -6.775
REMARK INTER:                  -5.595
REMARK INTRA:                  -1.180
REMARK UNBOUND:                -0.777
REMARK SMILES CCCCCCCCCCC(=O)[O-]
REMARK SMILES IDX 7 1 8 2 9 3 10 4 11 5 12 6 13 7 6 8 5 9 4 10 3 11 2 12 1 13
REMARK H PARENT
REMARK Flexibility Score: inf
ROOT
ATOM      1  C   UNL     1      15.760  12.312 -13.826  1.00  0.00     0.000 C 
ENDROOT
BRANCH   1   2
ATOM      2  C   UNL     1      16.202  12.539 -15.282  1.00  0.00     0.000 C 
BRANCH   2   3
ATOM      3  C   UNL     1      17.727  12.657 -15.425  1.00  0.00     0.006 C 
BRANCH   3   4
ATOM      4  C   UNL     1      18.467  12.332 -14.120  1.00  0.00     0.053 C 
BRANCH   4   5
ATOM      5  C   UNL     1      19.916  12.690 -14.239  1.00  0.00     0.041 C 
ATOM      6  O   UNL     1      20.256  13.878 -14.476  1.00  0.00    -0.550 OA
ATOM      7  O   UNL     1      20.887  11.702 -14.136  1.00  0.00    -0.550 OA
ENDBRANCH   4   5
ENDBRANCH   3   4
ENDBRANCH   2   3
ENDBRANCH   1   2
BRANCH   1   8
ATOM      8  C   UNL     1      14.501  11.437 -13.717  1.00  0.00     0.000 C 
BRANCH   8   9
ATOM      9  C   UNL     1      14.325  10.505 -14.928  1.00  0.00    -0.000 C 
BRANCH   9  10
ATOM     10  C   UNL     1      14.871   9.090 -14.669  1.00  0.00    -0.000 C 
BRANCH  10  11
ATOM     11  C   UNL     1      16.069   8.743 -15.565  1.00  0.00    -0.000 C 
BRANCH  11  12
ATOM     12  C   UNL     1      17.392   8.985 -14.829  1.00  0.00    -0.003 C 
ATOM     13  C   UNL     1      18.575   8.953 -15.793  1.00  0.00     0.004 C 
ENDBRANCH  11  12
ENDBRANCH  10  11
ENDBRANCH   9  10
ENDBRANCH   8   9
ENDBRANCH   1   8
TORSDOF 9
ENDMDL
MODEL 9
REMARK VINA RESULT:    -3.856      3.611      7.040
REMARK INTER + INTRA:          -6.661
REMARK INTER:                  -6.177
REMARK INTRA:                  -0.484
REMARK UNBOUND:                -0.777
REMARK SMILES CCCCCCCCCCC(=O)[O-]
REMARK SMILES IDX 7 1 8 2 9 3 10 4 11 5 12 6 13 7 6 8 5 9 4 10 3 11 2 12 1 13
REMARK H PARENT
REMARK Flexibility Score: inf
ROOT
ATOM      1  C   UNL     1      18.584  12.675 -14.714  1.00  0.00     0.000 C 
ENDROOT
BRANCH   1   2
ATOM      2  C   UNL     1      18.371  11.587 -13.646  1.00  0.00     0.000 C 
BRANCH   2   3
ATOM      3  C   UNL     1      17.800  10.287 -14.234  1.00  0.00     0.006 C 
BRANCH   3   4
ATOM      4  C   UNL     1      16.544  10.526 -15.082  1.00  0.00     0.053 C 
BRANCH   4   5
ATOM      5  C   UNL     1      15.316  10.152 -14.311  1.00  0.00     0.041 C 
ATOM      6  O   UNL     1      14.943   8.951 -14.260  1.00  0.00    -0.550 OA
ATOM      7  O   UNL     1      14.558  11.137 -13.691  1.00  0.00    -0.550 OA
ENDBRANCH   4   5
ENDBRANCH   3   4
ENDBRANCH   2   3
ENDBRANCH   1   2
BRANCH   1   8
ATOM      8  C   UNL     1      19.976  13.322 -14.631  1.00  0.00     0.000 C 
BRANCH   8   9
ATOM      9  C   UNL     1      20.812  12.776 -13.461  1.00  0.00    -0.000 C 
BRANCH   9  10
ATOM     10  C   UNL     1      22.048  13.642 -13.163  1.00  0.00    -0.000 C 
BRANCH  10  11
ATOM     11  C   UNL     1      22.403  14.587 -14.320  1.00  0.00    -0.000 C 
BRANCH  11  12
ATOM     12  C   UNL     1      22.977  15.907 -13.793  1.00  0.00    -0.003 C 
ATOM     13  C   UNL     1      22.500  17.090 -14.630  1.00  0.00     0.004 C 
ENDBRANCH  11  12
ENDBRANCH  10  11
ENDBRANCH   9  10
ENDBRANCH   8   9
ENDBRANCH   1   8
TORSDOF 9
ENDMDL
