MODEL 1
REMARK VINA RESULT:    -4.146      0.000      0.000
REMARK INTER + INTRA:          -4.655
REMARK INTER:                  -4.631
REMARK INTRA:                  -0.024
REMARK UNBOUND:                -0.024
REMARK SMILES CCCC(=O)[O-]
REMARK SMILES IDX 3 1 4 2 5 3 6 4 2 5 1 6
REMARK H PARENT
REMARK Flexibility Score: inf
ROOT
ATOM      1  C   UNL     1      -5.511   5.262   4.566  1.00  0.00     0.052 C 
ENDROOT
BRANCH   1   2
ATOM      2  C   UNL     1      -4.157   5.068   5.172  1.00  0.00     0.041 C 
ATOM      3  O   UNL     1      -3.153   5.646   4.679  1.00  0.00    -0.550 OA
ATOM      4  O   UNL     1      -3.997   4.211   6.253  1.00  0.00    -0.550 OA
ENDBRANCH   1   2
BRANCH   1   5
ATOM      5  C   UNL     1      -5.533   6.523   3.697  1.00  0.00     0.003 C 
ATOM      6  C   UNL     1      -6.369   6.309   2.439  1.00  0.00     0.004 C 
ENDBRANCH   1   5
TORSDOF 2
ENDMDL
MODEL 2
REMARK VINA RESULT:    -4.146      0.888      1.602
REMARK INTER + INTRA:          -4.655
REMARK INTER:                  -4.647
REMARK INTRA:                  -0.008
REMARK UNBOUND:                -0.024
REMARK SMILES CCCC(=O)[O-]
REMARK SMILES IDX 3 1 4 2 5 3 6 4 2 5 1 6
REMARK H PARENT
REMARK Flexibility Score: inf
ROOT
ATOM      1  C   UNL     1      -5.255   6.674   3.964  1.00  0.00     0.052 C 
ENDROOT
BRANCH   1   2
ATOM      2  C   UNL     1      -4.419   5.691   4.719  1.00  0.00     0.041 C 
ATOM      3  O   UNL     1      -4.960   4.874   5.511  1.00  0.00    -0.550 OA
ATOM      4  O   UNL     1      -3.036   5.708   4.586  1.00  0.00    -0.550 OA
ENDBRANCH   1   2
BRANCH   1   5
ATOM      5  C   UNL     1      -6.318   5.948   3.135  1.00  0.00     0.003 C 
ATOM      6  C   UNL     1      -6.409   6.528   1.727  1.00  0.00     0.004 C 
ENDBRANCH   1   5
TORSDOF 2
ENDMDL
MODEL 3
REMARK VINA RESULT:    -4.029     10.567     10.864
REMARK INTER + INTRA:          -4.524
REMARK INTER:                  -4.486
REMARK INTRA:                  -0.038
REMARK UNBOUND:                -0.024
REMARK SMILES CCCC(=O)[O-]
REMARK SMILES IDX 3 1 4 2 5 3 6 4 2 5 1 6
REMARK H PARENT
REMARK Flexibility Score: inf
ROOT
ATOM      1  C   UNL     1      -4.745  -1.813  -3.586  1.00  0.00     0.052 C 
ENDROOT
BRANCH   1   2
ATOM      2  C   UNL     1      -4.014  -3.064  -3.212  1.00  0.00     0.041 C 
ATOM      3  O   UNL     1      -2.756  -3.075  -3.171  1.00  0.00    -0.550 OA
ATOM      4  O   UNL     1      -4.721  -4.231  -2.956  1.00  0.00    -0.550 OA
ENDBRANCH   1   2
BRANCH   1   5
ATOM      5  C   UNL     1      -4.775  -0.837  -2.406  1.00  0.00     0.003 C 
ATOM      6  C   UNL     1      -3.788   0.307  -2.614  1.00  0.00     0.004 C 
ENDBRANCH   1   5
TORSDOF 2
ENDMDL
MODEL 4
REMARK VINA RESULT:    -3.974      8.337      8.745
REMARK INTER + INTRA:          -4.462
REMARK INTER:                  -4.450
REMARK INTRA:                  -0.012
REMARK UNBOUND:                -0.024
REMARK SMILES CCCC(=O)[O-]
REMARK SMILES IDX 3 1 4 2 5 3 6 4 2 5 1 6
REMARK H PARENT
REMARK Flexibility Score: inf
ROOT
ATOM      1  C   UNL     1       2.143   6.178  -1.711  1.00  0.00     0.052 C 
ENDROOT
BRANCH   1   2
ATOM      2  C   UNL     1       1.904   6.143  -0.234  1.00  0.00     0.041 C 
ATOM      3  O   UNL     1       0.799   6.518   0.238  1.00  0.00    -0.550 OA
ATOM      4  O   UNL     1       2.920   5.742   0.624  1.00  0.00    -0.550 OA
ENDBRANCH   1   2
BRANCH   1   5
ATOM      5  C   UNL     1       0.931   5.623  -2.463  1.00  0.00     0.003 C 
ATOM      6  C   UNL     1       0.962   6.029  -3.933  1.00  0.00     0.004 C 
ENDBRANCH   1   5
TORSDOF 2
ENDMDL
MODEL 5
REMARK VINA RESULT:    -3.938     10.880     11.213
REMARK INTER + INTRA:          -4.422
REMARK INTER:                  -4.388
REMARK INTRA:                  -0.034
REMARK UNBOUND:                -0.024
REMARK SMILES CCCC(=O)[O-]
REMARK SMILES IDX 3 1 4 2 5 3 6 4 2 5 1 6
REMARK H PARENT
REMARK Flexibility Score: inf
ROOT
ATOM      1  C   UNL     1      -4.740  -1.775  -3.629  1.00  0.00     0.052 C 
ENDROOT
BRANCH   1   2
ATOM      2  C   UNL     1      -4.346  -3.203  -3.418  1.00  0.00     0.041 C 
ATOM      3  O   UNL     1      -5.119  -4.132  -3.770  1.00  0.00    -0.550 OA
ATOM      4  O   UNL     1      -3.145  -3.507  -2.789  1.00  0.00    -0.550 OA
ENDBRANCH   1   2
BRANCH   1   5
ATOM      5  C   UNL     1      -3.503  -0.872  -3.626  1.00  0.00     0.003 C 
ATOM      6  C   UNL     1      -3.645   0.251  -2.603  1.00  0.00     0.004 C 
ENDBRANCH   1   5
TORSDOF 2
ENDMDL
MODEL 6
REMARK VINA RESULT:    -3.877      2.638      3.110
REMARK INTER + INTRA:          -4.354
REMARK INTER:                  -4.348
REMARK INTRA:                  -0.006
REMARK UNBOUND:                -0.024
REMARK SMILES CCCC(=O)[O-]
REMARK SMILES IDX 3 1 4 2 5 3 6 4 2 5 1 6
REMARK H PARENT
REMARK Flexibility Score: inf
ROOT
ATOM      1  C   UNL     1      -5.847   6.664   2.819  1.00  0.00     0.052 C 
ENDROOT
BRANCH   1   2
ATOM      2  C   UNL     1      -6.567   5.652   3.652  1.00  0.00     0.041 C 
ATOM      3  O   UNL     1      -6.101   4.489   3.779  1.00  0.00    -0.550 OA
ATOM      4  O   UNL     1      -7.778   5.977   4.249  1.00  0.00    -0.550 OA
ENDBRANCH   1   2
BRANCH   1   5
ATOM      5  C   UNL     1      -6.330   6.605   1.367  1.00  0.00     0.003 C 
ATOM      6  C   UNL     1      -5.415   7.410   0.449  1.00  0.00     0.004 C 
ENDBRANCH   1   5
TORSDOF 2
ENDMDL
MODEL 7
REMARK VINA RESULT:    -3.868     10.010     10.316
REMARK INTER + INTRA:          -4.344
REMARK INTER:                  -4.305
REMARK INTRA:                  -0.038
REMARK UNBOUND:                -0.024
REMARK SMILES CCCC(=O)[O-]
REMARK SMILES IDX 3 1 4 2 5 3 6 4 2 5 1 6
REMARK H PARENT
REMARK Flexibility Score: inf
ROOT
ATOM      1  C   UNL     1      -3.735  -1.316  -3.466  1.00  0.00     0.052 C 
ENDROOT
BRANCH   1   2
ATOM      2  C   UNL     1      -2.506  -2.110  -3.153  1.00  0.00     0.041 C 
ATOM      3  O   UNL     1      -2.027  -2.900  -4.008  1.00  0.00    -0.550 OA
ATOM      4  O   UNL     1      -1.918  -2.013  -1.898  1.00  0.00    -0.550 OA
ENDBRANCH   1   2
BRANCH   1   5
ATOM      5  C   UNL     1      -3.650   0.075  -2.832  1.00  0.00     0.003 C 
ATOM      6  C   UNL     1      -4.706   0.250  -1.746  1.00  0.00     0.004 C 
ENDBRANCH   1   5
TORSDOF 2
ENDMDL
MODEL 8
REMARK VINA RESULT:    -3.825      4.273      4.962
REMARK INTER + INTRA:          -4.297
REMARK INTER:                  -4.286
REMARK INTRA:                  -0.011
REMARK UNBOUND:                -0.024
REMARK SMILES CCCC(=O)[O-]
REMARK SMILES IDX 3 1 4 2 5 3 6 4 2 5 1 6
REMARK H PARENT
REMARK Flexibility Score: inf
ROOT
ATOM      1  C   UNL     1      -8.631   5.929   2.088  1.00  0.00     0.052 C 
ENDROOT
BRANCH   1   2
ATOM      2  C   UNL     1      -9.568   5.610   3.210  1.00  0.00     0.041 C 
ATOM      3  O   UNL     1      -9.550   6.295   4.266  1.00  0.00    -0.550 OA
ATOM      4  O   UNL     1     -10.428   4.524   3.108  1.00  0.00    -0.550 OA
ENDBRANCH   1   2
BRANCH   1   5
ATOM      5  C   UNL     1      -7.186   5.964   2.591  1.00  0.00     0.003 C 
ATOM      6  C   UNL     1      -6.279   6.700   1.609  1.00  0.00     0.004 C 
ENDBRANCH   1   5
TORSDOF 2
ENDMDL
MODEL 9
REMARK VINA RESULT:    -3.669      2.857      3.665
REMARK INTER + INTRA:          -4.122
REMARK INTER:                  -4.107
REMARK INTRA:                  -0.015
REMARK UNBOUND:                -0.024
REMARK SMILES CCCC(=O)[O-]
REMARK SMILES IDX 3 1 4 2 5 3 6 4 2 5 1 6
REMARK H PARENT
REMARK Flexibility Score: inf
ROOT
ATOM      1  C   UNL     1      -5.558   6.414   3.652  1.00  0.00     0.052 C 
ENDROOT
BRANCH   1   2
ATOM      2  C   UNL     1      -6.680   6.117   2.708  1.00  0.00     0.041 C 
ATOM      3  O   UNL     1      -6.598   6.455   1.498  1.00  0.00    -0.550 OA
ATOM      4  O   UNL     1      -7.838   5.509   3.175  1.00  0.00    -0.550 OA
ENDBRANCH   1   2
BRANCH   1   5
ATOM      5  C   UNL     1      -5.617   5.482   4.865  1.00  0.00     0.003 C 
ATOM      6  C   UNL     1      -4.259   4.840   5.132  1.00  0.00     0.004 C 
ENDBRANCH   1   5
TORSDOF 2
ENDMDL
