MODEL 1
REMARK VINA RESULT:    -8.454      0.000      0.000
REMARK INTER + INTRA:          -9.295
REMARK INTER:                  -9.195
REMARK INTRA:                  -0.100
REMARK UNBOUND:                -0.100
REMARK SMILES C[C@@H]1[C@H]2C3=CC[C@@H]4[C@]5(C)CC[C@H](O)C(C)(C)[C@H]5CC[C@@]4(C)[C@]3(C)CC[C@@]2(C(=O)[O-])CC[C@@H]1C
REMARK SMILES IDX 26 1 30 2 25 3 3 4 31 5 24 6 4 7 2 8 32 9 22 10 5 11 1 12
REMARK SMILES IDX 33 13 23 14 20 15 6 16 7 17 19 18 21 19 8 20 18 21 17 22
REMARK SMILES IDX 10 23 9 24 14 25 11 26 12 27 15 28 16 29 27 30 28 31 29 32
REMARK SMILES IDX 13 33
REMARK H PARENT 13 34
REMARK Flexibility Score: inf
ROOT
ATOM      1  C   UNL     1      15.750  -6.132 128.517  1.00  0.00     0.017 C 
ATOM      2  C   UNL     1      14.259  -6.105 128.941  1.00  0.00     0.014 C 
ATOM      3  C   UNL     1      15.887  -6.797 127.122  1.00  0.00     0.014 C 
ATOM      4  C   UNL     1      16.632  -6.918 129.555  1.00  0.00     0.030 C 
ATOM      5  C   UNL     1      13.697  -7.484 129.313  1.00  0.00     0.004 C 
ATOM      6  C   UNL     1      17.331  -6.770 126.595  1.00  0.00     0.013 C 
ATOM      7  C   UNL     1      18.076  -7.090 129.060  1.00  0.00    -0.063 C 
ATOM      8  C   UNL     1      16.003  -8.291 129.978  1.00  0.00    -0.003 C 
ATOM      9  C   UNL     1      14.519  -8.150 130.423  1.00  0.00    -0.011 C 
ATOM     10  C   UNL     1      18.399  -7.372 127.569  1.00  0.00    -0.006 C 
ATOM     11  C   UNL     1      19.081  -7.048 129.986  1.00  0.00    -0.027 C 
ATOM     12  C   UNL     1      16.822  -9.006 131.068  1.00  0.00     0.008 C 
ATOM     13  C   UNL     1      14.332  -7.427 131.774  1.00  0.00     0.008 C 
ATOM     14  C   UNL     1      18.340  -8.925 127.388  1.00  0.00     0.017 C 
ATOM     15  C   UNL     1      19.840  -6.729 127.256  1.00  0.00    -0.020 C 
ATOM     16  C   UNL     1      20.578  -7.109 129.680  1.00  0.00     0.032 C 
ATOM     17  C   UNL     1      20.901  -7.427 128.196  1.00  0.00     0.006 C 
ATOM     18  C   UNL     1      20.277  -6.916 125.764  1.00  0.00     0.008 C 
ATOM     19  C   UNL     1      19.763  -5.172 127.542  1.00  0.00     0.012 C 
ATOM     20  C   UNL     1      22.435  -7.346 127.704  1.00  0.00    -0.025 C 
ATOM     21  C   UNL     1      21.699  -6.388 125.424  1.00  0.00     0.005 C 
ATOM     22  C   UNL     1      22.621  -6.179 126.656  1.00  0.00     0.003 C 
ATOM     23  C   UNL     1      23.409  -7.119 128.894  1.00  0.00     0.010 C 
ATOM     24  C   UNL     1      22.789  -8.728 127.057  1.00  0.00     0.012 C 
ATOM     25  C   UNL     1      24.099  -5.684 126.306  1.00  0.00    -0.006 C 
ATOM     26  C   UNL     1      24.858  -6.902 128.439  1.00  0.00     0.033 C 
ATOM     27  C   UNL     1      24.975  -5.619 127.596  1.00  0.00     0.120 C 
ATOM     28  C   UNL     1      24.013  -4.250 125.703  1.00  0.00     0.014 C 
ATOM     29  C   UNL     1      24.839  -6.535 125.240  1.00  0.00     0.014 C 
ENDROOT
BRANCH   1  30
ATOM     30  C   UNL     1      16.181  -4.667 128.450  1.00  0.00     0.048 C 
ATOM     31  O   UNL     1      16.963  -4.191 129.317  1.00  0.00    -0.550 OA
ATOM     32  O   UNL     1      15.624  -3.804 127.520  1.00  0.00    -0.550 OA
ENDBRANCH   1  30
BRANCH  27  33
ATOM     33  O   UNL     1      24.624  -4.499 128.382  1.00  0.00    -0.393 OA
ATOM     34  H   UNL     1      24.826  -3.687 127.825  1.00  0.00     0.210 HD
ENDBRANCH  27  33
TORSDOF 2
ENDMDL
MODEL 2
REMARK VINA RESULT:    -7.503      1.410      7.854
REMARK INTER + INTRA:          -8.261
REMARK INTER:                  -8.108
REMARK INTRA:                  -0.153
REMARK UNBOUND:                -0.100
REMARK SMILES C[C@@H]1[C@H]2C3=CC[C@@H]4[C@]5(C)CC[C@H](O)C(C)(C)[C@H]5CC[C@@]4(C)[C@]3(C)CC[C@@]2(C(=O)[O-])CC[C@@H]1C
REMARK SMILES IDX 26 1 30 2 25 3 3 4 31 5 24 6 4 7 2 8 32 9 22 10 5 11 1 12
REMARK SMILES IDX 33 13 23 14 20 15 6 16 7 17 19 18 21 19 8 20 18 21 17 22
REMARK SMILES IDX 10 23 9 24 14 25 11 26 12 27 15 28 16 29 27 30 28 31 29 32
REMARK SMILES IDX 13 33
REMARK H PARENT 13 34
REMARK Flexibility Score: inf
ROOT
ATOM      1  C   UNL     1      23.749  -5.847 127.243  1.00  0.00     0.017 C 
ATOM      2  C   UNL     1      25.248  -5.682 126.884  1.00  0.00     0.014 C 
ATOM      3  C   UNL     1      23.611  -6.349 128.705  1.00  0.00     0.014 C 
ATOM      4  C   UNL     1      23.032  -6.860 126.277  1.00  0.00     0.030 C 
ATOM      5  C   UNL     1      25.995  -7.012 126.718  1.00  0.00     0.004 C 
ATOM      6  C   UNL     1      22.146  -6.442 129.160  1.00  0.00     0.013 C 
ATOM      7  C   UNL     1      21.593  -7.154 126.726  1.00  0.00    -0.063 C 
ATOM      8  C   UNL     1      23.848  -8.183 126.062  1.00  0.00    -0.003 C 
ATOM      9  C   UNL     1      25.328  -7.909 125.668  1.00  0.00    -0.011 C 
ATOM     10  C   UNL     1      21.218  -7.291 128.225  1.00  0.00    -0.006 C 
ATOM     11  C   UNL     1      20.648  -7.355 125.760  1.00  0.00    -0.027 C 
ATOM     12  C   UNL     1      23.188  -9.125 125.038  1.00  0.00     0.008 C 
ATOM     13  C   UNL     1      25.506  -7.338 124.245  1.00  0.00     0.008 C 
ATOM     14  C   UNL     1      21.455  -8.789 128.607  1.00  0.00     0.017 C 
ATOM     15  C   UNL     1      19.694  -6.804 128.389  1.00  0.00    -0.020 C 
ATOM     16  C   UNL     1      19.153  -7.569 126.004  1.00  0.00     0.032 C 
ATOM     17  C   UNL     1      18.784  -7.742 127.502  1.00  0.00     0.006 C 
ATOM     18  C   UNL     1      19.195  -6.862 129.872  1.00  0.00     0.008 C 
ATOM     19  C   UNL     1      19.598  -5.297 127.910  1.00  0.00     0.012 C 
ATOM     20  C   UNL     1      17.225  -7.798 127.912  1.00  0.00    -0.025 C 
ATOM     21  C   UNL     1      17.702  -6.483 130.079  1.00  0.00     0.005 C 
ATOM     22  C   UNL     1      16.836  -6.546 128.791  1.00  0.00     0.003 C 
ATOM     23  C   UNL     1      16.303  -7.845 126.660  1.00  0.00     0.010 C 
ATOM     24  C   UNL     1      17.003  -9.124 128.714  1.00  0.00     0.012 C 
ATOM     25  C   UNL     1      15.291  -6.204 129.010  1.00  0.00    -0.006 C 
ATOM     26  C   UNL     1      14.814  -7.761 127.019  1.00  0.00     0.033 C 
ATOM     27  C   UNL     1      14.492  -6.410 127.685  1.00  0.00     0.120 C 
ATOM     28  C   UNL     1      15.166  -4.708 129.426  1.00  0.00     0.014 C 
ATOM     29  C   UNL     1      14.597  -7.006 130.143  1.00  0.00     0.014 C 
ENDROOT
BRANCH   1  30
ATOM     30  C   UNL     1      23.140  -4.453 127.102  1.00  0.00     0.048 C 
ATOM     31  O   UNL     1      22.496  -4.138 126.064  1.00  0.00    -0.550 OA
ATOM     32  O   UNL     1      23.392  -3.468 128.045  1.00  0.00    -0.550 OA
ENDBRANCH   1  30
BRANCH  27  33
ATOM     33  O   UNL     1      14.750  -5.359 126.778  1.00  0.00    -0.393 OA
ATOM     34  H   UNL     1      14.317  -4.538 127.163  1.00  0.00     0.210 HD
ENDBRANCH  27  33
TORSDOF 2
ENDMDL
MODEL 3
REMARK VINA RESULT:    -6.797      2.077      3.583
REMARK INTER + INTRA:          -7.493
REMARK INTER:                  -8.690
REMARK INTRA:                   1.197
REMARK UNBOUND:                -0.100
REMARK SMILES C[C@@H]1[C@H]2C3=CC[C@@H]4[C@]5(C)CC[C@H](O)C(C)(C)[C@H]5CC[C@@]4(C)[C@]3(C)CC[C@@]2(C(=O)[O-])CC[C@@H]1C
REMARK SMILES IDX 26 1 30 2 25 3 3 4 31 5 24 6 4 7 2 8 32 9 22 10 5 11 1 12
REMARK SMILES IDX 33 13 23 14 20 15 6 16 7 17 19 18 21 19 8 20 18 21 17 22
REMARK SMILES IDX 10 23 9 24 14 25 11 26 12 27 15 28 16 29 27 30 28 31 29 32
REMARK SMILES IDX 13 33
REMARK H PARENT 13 34
REMARK Flexibility Score: inf
ROOT
ATOM      1  C   UNL     1      16.401  -7.440 128.077  1.00  0.00     0.017 C 
ATOM      2  C   UNL     1      14.858  -7.479 128.224  1.00  0.00     0.014 C 
ATOM      3  C   UNL     1      17.066  -7.667 129.461  1.00  0.00     0.014 C 
ATOM      4  C   UNL     1      16.890  -6.068 127.485  1.00  0.00     0.030 C 
ATOM      5  C   UNL     1      14.273  -6.254 128.939  1.00  0.00     0.004 C 
ATOM      6  C   UNL     1      18.599  -7.737 129.372  1.00  0.00     0.013 C 
ATOM      7  C   UNL     1      18.422  -5.959 127.491  1.00  0.00    -0.063 C 
ATOM      8  C   UNL     1      16.224  -4.829 128.180  1.00  0.00    -0.003 C 
ATOM      9  C   UNL     1      14.674  -4.948 128.242  1.00  0.00    -0.011 C 
ATOM     10  C   UNL     1      19.275  -6.517 128.661  1.00  0.00    -0.006 C 
ATOM     11  C   UNL     1      19.023  -5.297 126.457  1.00  0.00    -0.027 C 
ATOM     12  C   UNL     1      16.632  -3.495 127.528  1.00  0.00     0.008 C 
ATOM     13  C   UNL     1      13.975  -4.801 126.874  1.00  0.00     0.008 C 
ATOM     14  C   UNL     1      19.367  -5.376 129.727  1.00  0.00     0.017 C 
ATOM     15  C   UNL     1      20.696  -6.964 128.053  1.00  0.00    -0.020 C 
ATOM     16  C   UNL     1      20.530  -5.162 126.239  1.00  0.00     0.032 C 
ATOM     17  C   UNL     1      21.382  -5.687 127.425  1.00  0.00     0.006 C 
ATOM     18  C   UNL     1      21.650  -7.580 129.131  1.00  0.00     0.008 C 
ATOM     19  C   UNL     1      20.439  -8.073 126.950  1.00  0.00     0.012 C 
ATOM     20  C   UNL     1      22.984  -5.766 127.252  1.00  0.00    -0.025 C 
ATOM     21  C   UNL     1      23.069  -7.953 128.617  1.00  0.00     0.005 C 
ATOM     22  C   UNL     1      23.473  -7.267 127.284  1.00  0.00     0.003 C 
ATOM     23  C   UNL     1      23.451  -5.109 125.922  1.00  0.00     0.010 C 
ATOM     24  C   UNL     1      23.619  -4.954 128.430  1.00  0.00     0.012 C 
ATOM     25  C   UNL     1      24.949  -7.610 126.779  1.00  0.00    -0.006 C 
ATOM     26  C   UNL     1      24.952  -5.291 125.667  1.00  0.00     0.033 C 
ATOM     27  C   UNL     1      25.297  -6.783 125.502  1.00  0.00     0.120 C 
ATOM     28  C   UNL     1      25.011  -9.122 126.411  1.00  0.00     0.014 C 
ATOM     29  C   UNL     1      26.068  -7.397 127.833  1.00  0.00     0.014 C 
ENDROOT
BRANCH   1  30
ATOM     30  C   UNL     1      16.749  -8.586 127.127  1.00  0.00     0.048 C 
ATOM     31  O   UNL     1      17.888  -9.125 127.167  1.00  0.00    -0.550 OA
ATOM     32  O   UNL     1      15.874  -8.967 126.122  1.00  0.00    -0.550 OA
ENDBRANCH   1  30
BRANCH  27  33
ATOM     33  O   UNL     1      24.628  -7.304 124.372  1.00  0.00    -0.393 OA
ATOM     34  H   UNL     1      24.938  -6.762 123.585  1.00  0.00     0.210 HD
ENDBRANCH  27  33
TORSDOF 2
ENDMDL
MODEL 4
REMARK VINA RESULT:    -6.101      1.488      8.073
REMARK INTER + INTRA:          -6.735
REMARK INTER:                  -6.866
REMARK INTRA:                   0.130
REMARK UNBOUND:                -0.100
REMARK SMILES C[C@@H]1[C@H]2C3=CC[C@@H]4[C@]5(C)CC[C@H](O)C(C)(C)[C@H]5CC[C@@]4(C)[C@]3(C)CC[C@@]2(C(=O)[O-])CC[C@@H]1C
REMARK SMILES IDX 26 1 30 2 25 3 3 4 31 5 24 6 4 7 2 8 32 9 22 10 5 11 1 12
REMARK SMILES IDX 33 13 23 14 20 15 6 16 7 17 19 18 21 19 8 20 18 21 17 22
REMARK SMILES IDX 10 23 9 24 14 25 11 26 12 27 15 28 16 29 27 30 28 31 29 32
REMARK SMILES IDX 13 33
REMARK H PARENT 13 34
REMARK Flexibility Score: inf
ROOT
ATOM      1  C   UNL     1      25.057  -6.878 127.858  1.00  0.00     0.017 C 
ATOM      2  C   UNL     1      26.590  -7.053 127.712  1.00  0.00     0.014 C 
ATOM      3  C   UNL     1      24.481  -8.017 128.741  1.00  0.00     0.014 C 
ATOM      4  C   UNL     1      24.337  -6.892 126.461  1.00  0.00     0.030 C 
ATOM      5  C   UNL     1      26.997  -8.233 126.819  1.00  0.00     0.004 C 
ATOM      6  C   UNL     1      22.977  -7.851 129.009  1.00  0.00     0.013 C 
ATOM      7  C   UNL     1      22.809  -6.886 126.607  1.00  0.00    -0.063 C 
ATOM      8  C   UNL     1      24.821  -8.062 125.535  1.00  0.00    -0.003 C 
ATOM      9  C   UNL     1      26.371  -8.127 125.422  1.00  0.00    -0.011 C 
ATOM     10  C   UNL     1      22.093  -7.686 127.727  1.00  0.00    -0.006 C 
ATOM     11  C   UNL     1      22.078  -6.198 125.678  1.00  0.00    -0.027 C 
ATOM     12  C   UNL     1      24.186  -8.008 124.133  1.00  0.00     0.008 C 
ATOM     13  C   UNL     1      26.994  -6.970 124.613  1.00  0.00     0.008 C 
ATOM     14  C   UNL     1      21.856  -9.125 127.162  1.00  0.00     0.017 C 
ATOM     15  C   UNL     1      20.743  -6.895 128.099  1.00  0.00    -0.020 C 
ATOM     16  C   UNL     1      20.562  -6.001 125.704  1.00  0.00     0.032 C 
ATOM     17  C   UNL     1      19.842  -6.829 126.802  1.00  0.00     0.006 C 
ATOM     18  C   UNL     1      19.933  -7.584 129.248  1.00  0.00     0.008 C 
ATOM     19  C   UNL     1      21.136  -5.442 128.594  1.00  0.00     0.012 C 
ATOM     20  C   UNL     1      18.269  -6.580 127.052  1.00  0.00    -0.025 C 
ATOM     21  C   UNL     1      18.575  -6.910 129.593  1.00  0.00     0.005 C 
ATOM     22  C   UNL     1      18.025  -5.968 128.488  1.00  0.00     0.003 C 
ATOM     23  C   UNL     1      17.661  -5.626 125.985  1.00  0.00     0.010 C 
ATOM     24  C   UNL     1      17.551  -7.964 126.915  1.00  0.00     0.012 C 
ATOM     25  C   UNL     1      16.606  -5.312 128.818  1.00  0.00    -0.006 C 
ATOM     26  C   UNL     1      16.200  -5.263 126.278  1.00  0.00     0.033 C 
ATOM     27  C   UNL     1      16.091  -4.481 127.601  1.00  0.00     0.120 C 
ATOM     28  C   UNL     1      16.774  -4.347 130.029  1.00  0.00     0.014 C 
ATOM     29  C   UNL     1      15.503  -6.317 129.241  1.00  0.00     0.014 C 
ENDROOT
BRANCH   1  30
ATOM     30  C   UNL     1      24.864  -5.527 128.545  1.00  0.00     0.048 C 
ATOM     31  O   UNL     1      24.184  -4.620 127.993  1.00  0.00    -0.550 OA
ATOM     32  O   UNL     1      25.536  -5.223 129.719  1.00  0.00    -0.550 OA
ENDBRANCH   1  30
BRANCH  27  33
ATOM     33  O   UNL     1      16.797  -3.263 127.493  1.00  0.00    -0.393 OA
ATOM     34  H   UNL     1      16.247  -2.668 126.899  1.00  0.00     0.210 HD
ENDBRANCH  27  33
TORSDOF 2
ENDMDL
MODEL 5
REMARK VINA RESULT:    -5.974      4.301      8.829
REMARK INTER + INTRA:          -6.598
REMARK INTER:                  -6.842
REMARK INTRA:                   0.244
REMARK UNBOUND:                -0.100
REMARK SMILES C[C@@H]1[C@H]2C3=CC[C@@H]4[C@]5(C)CC[C@H](O)C(C)(C)[C@H]5CC[C@@]4(C)[C@]3(C)CC[C@@]2(C(=O)[O-])CC[C@@H]1C
REMARK SMILES IDX 26 1 30 2 25 3 3 4 31 5 24 6 4 7 2 8 32 9 22 10 5 11 1 12
REMARK SMILES IDX 33 13 23 14 20 15 6 16 7 17 19 18 21 19 8 20 18 21 17 22
REMARK SMILES IDX 10 23 9 24 14 25 11 26 12 27 15 28 16 29 27 30 28 31 29 32
REMARK SMILES IDX 13 33
REMARK H PARENT 13 34
REMARK Flexibility Score: inf
ROOT
ATOM      1  C   UNL     1      23.123  -0.204 124.195  1.00  0.00     0.017 C 
ATOM      2  C   UNL     1      23.128   1.183 123.501  1.00  0.00     0.014 C 
ATOM      3  C   UNL     1      23.566  -0.052 125.674  1.00  0.00     0.014 C 
ATOM      4  C   UNL     1      24.081  -1.216 123.467  1.00  0.00     0.030 C 
ATOM      5  C   UNL     1      24.534   1.740 123.240  1.00  0.00     0.004 C 
ATOM      6  C   UNL     1      23.491  -1.377 126.450  1.00  0.00     0.013 C 
ATOM      7  C   UNL     1      24.208  -2.536 124.242  1.00  0.00    -0.063 C 
ATOM      8  C   UNL     1      25.488  -0.603 123.143  1.00  0.00    -0.003 C 
ATOM      9  C   UNL     1      25.384   0.767 122.414  1.00  0.00    -0.011 C 
ATOM     10  C   UNL     1      24.263  -2.571 125.792  1.00  0.00    -0.006 C 
ATOM     11  C   UNL     1      24.335  -3.692 123.523  1.00  0.00    -0.027 C 
ATOM     12  C   UNL     1      26.383  -1.567 122.343  1.00  0.00     0.008 C 
ATOM     13  C   UNL     1      24.875   0.670 120.960  1.00  0.00     0.008 C 
ATOM     14  C   UNL     1      25.766  -2.399 126.187  1.00  0.00     0.017 C 
ATOM     15  C   UNL     1      23.612  -3.962 126.268  1.00  0.00    -0.020 C 
ATOM     16  C   UNL     1      24.382  -5.105 124.107  1.00  0.00     0.032 C 
ATOM     17  C   UNL     1      24.473  -5.138 125.656  1.00  0.00     0.006 C 
ATOM     18  C   UNL     1      23.575  -4.114 127.826  1.00  0.00     0.008 C 
ATOM     19  C   UNL     1      22.118  -4.019 125.745  1.00  0.00     0.012 C 
ATOM     20  C   UNL     1      24.353  -6.560 126.408  1.00  0.00    -0.025 C 
ATOM     21  C   UNL     1      23.034  -5.477 128.342  1.00  0.00     0.005 C 
ATOM     22  C   UNL     1      23.042  -6.615 127.286  1.00  0.00     0.003 C 
ATOM     23  C   UNL     1      24.336  -7.744 125.399  1.00  0.00     0.010 C 
ATOM     24  C   UNL     1      25.624  -6.720 127.306  1.00  0.00     0.012 C 
ATOM     25  C   UNL     1      22.532  -8.029 127.828  1.00  0.00    -0.006 C 
ATOM     26  C   UNL     1      24.085  -9.096 126.077  1.00  0.00     0.033 C 
ATOM     27  C   UNL     1      22.689  -9.125 126.728  1.00  0.00     0.120 C 
ATOM     28  C   UNL     1      21.020  -7.910 128.184  1.00  0.00     0.014 C 
ATOM     29  C   UNL     1      23.224  -8.520 129.127  1.00  0.00     0.014 C 
ENDROOT
BRANCH   1  30
ATOM     30  C   UNL     1      21.676  -0.691 124.122  1.00  0.00     0.048 C 
ATOM     31  O   UNL     1      20.750  -0.023 124.657  1.00  0.00    -0.550 OA
ATOM     32  O   UNL     1      21.370  -1.931 123.585  1.00  0.00    -0.550 OA
ENDBRANCH   1  30
BRANCH  27  33
ATOM     33  O   UNL     1      21.697  -8.980 125.733  1.00  0.00    -0.393 OA
ATOM     34  H   UNL     1      21.183  -8.149 125.964  1.00  0.00     0.210 HD
ENDBRANCH  27  33
TORSDOF 2
ENDMDL
MODEL 6
REMARK VINA RESULT:    -5.856      3.829      7.446
REMARK INTER + INTRA:          -6.469
REMARK INTER:                  -6.325
REMARK INTRA:                  -0.144
REMARK UNBOUND:                -0.100
REMARK SMILES C[C@@H]1[C@H]2C3=CC[C@@H]4[C@]5(C)CC[C@H](O)C(C)(C)[C@H]5CC[C@@]4(C)[C@]3(C)CC[C@@]2(C(=O)[O-])CC[C@@H]1C
REMARK SMILES IDX 26 1 30 2 25 3 3 4 31 5 24 6 4 7 2 8 32 9 22 10 5 11 1 12
REMARK SMILES IDX 33 13 23 14 20 15 6 16 7 17 19 18 21 19 8 20 18 21 17 22
REMARK SMILES IDX 10 23 9 24 14 25 11 26 12 27 15 28 16 29 27 30 28 31 29 32
REMARK SMILES IDX 13 33
REMARK H PARENT 13 34
REMARK Flexibility Score: inf
ROOT
ATOM      1  C   UNL     1      23.275  -7.079 127.449  1.00  0.00     0.017 C 
ATOM      2  C   UNL     1      22.755  -8.379 128.115  1.00  0.00     0.014 C 
ATOM      3  C   UNL     1      24.112  -6.265 128.471  1.00  0.00     0.014 C 
ATOM      4  C   UNL     1      22.092  -6.188 126.921  1.00  0.00     0.030 C 
ATOM      5  C   UNL     1      21.647  -8.145 129.150  1.00  0.00     0.004 C 
ATOM      6  C   UNL     1      24.741  -5.008 127.848  1.00  0.00     0.013 C 
ATOM      7  C   UNL     1      22.588  -4.827 126.410  1.00  0.00    -0.063 C 
ATOM      8  C   UNL     1      20.936  -6.022 127.968  1.00  0.00    -0.003 C 
ATOM      9  C   UNL     1      20.460  -7.385 128.546  1.00  0.00    -0.011 C 
ATOM     10  C   UNL     1      23.731  -4.056 127.122  1.00  0.00    -0.006 C 
ATOM     11  C   UNL     1      21.951  -4.274 125.334  1.00  0.00    -0.027 C 
ATOM     12  C   UNL     1      19.739  -5.233 127.406  1.00  0.00     0.008 C 
ATOM     13  C   UNL     1      19.685  -8.261 127.539  1.00  0.00     0.008 C 
ATOM     14  C   UNL     1      23.055  -3.192 128.237  1.00  0.00     0.017 C 
ATOM     15  C   UNL     1      24.505  -3.197 126.004  1.00  0.00    -0.020 C 
ATOM     16  C   UNL     1      22.354  -2.979 124.628  1.00  0.00     0.032 C 
ATOM     17  C   UNL     1      23.472  -2.189 125.361  1.00  0.00     0.006 C 
ATOM     18  C   UNL     1      25.712  -2.388 126.588  1.00  0.00     0.008 C 
ATOM     19  C   UNL     1      25.078  -4.196 124.917  1.00  0.00     0.012 C 
ATOM     20  C   UNL     1      24.110  -0.899 124.634  1.00  0.00    -0.025 C 
ATOM     21  C   UNL     1      26.445  -1.473 125.568  1.00  0.00     0.005 C 
ATOM     22  C   UNL     1      25.630  -1.153 124.286  1.00  0.00     0.003 C 
ATOM     23  C   UNL     1      23.346  -0.537 123.329  1.00  0.00     0.010 C 
ATOM     24  C   UNL     1      23.965   0.309 125.619  1.00  0.00     0.012 C 
ATOM     25  C   UNL     1      26.362  -0.173 123.259  1.00  0.00    -0.006 C 
ATOM     26  C   UNL     1      24.014   0.600 122.547  1.00  0.00     0.033 C 
ATOM     27  C   UNL     1      25.416   0.178 122.068  1.00  0.00     0.120 C 
ATOM     28  C   UNL     1      27.616  -0.898 122.686  1.00  0.00     0.014 C 
ATOM     29  C   UNL     1      26.896   1.146 123.878  1.00  0.00     0.014 C 
ENDROOT
BRANCH   1  30
ATOM     30  C   UNL     1      24.156  -7.540 126.289  1.00  0.00     0.048 C 
ATOM     31  O   UNL     1      23.728  -7.494 125.104  1.00  0.00    -0.550 OA
ATOM     32  O   UNL     1      25.386  -8.135 126.523  1.00  0.00    -0.550 OA
ENDBRANCH   1  30
BRANCH  27  33
ATOM     33  O   UNL     1      25.305  -0.915 121.179  1.00  0.00    -0.393 OA
ATOM     34  H   UNL     1      25.649  -0.594 120.291  1.00  0.00     0.210 HD
ENDBRANCH  27  33
TORSDOF 2
ENDMDL
