MODEL 1
REMARK VINA RESULT:     6.660      0.000      0.000
REMARK INTER + INTRA:          10.313
REMARK INTER:                  11.332
REMARK INTRA:                  -1.019
REMARK UNBOUND:                -1.019
REMARK SMILES CCCCCCCCCCCCCC(=O)[O-]
REMARK SMILES IDX 8 1 9 2 10 3 11 4 12 5 13 6 14 7 15 8 16 9 7 10 6 11 5 12
REMARK SMILES IDX 4 13 3 14 2 15 1 16
REMARK H PARENT
REMARK Flexibility Score: inf
ROOT
ATOM      1  C   UNL     1       4.107  -8.557  11.002  1.00  0.00     0.000 C 
ENDROOT
BRANCH   1   2
ATOM      2  C   UNL     1       4.254  -8.586  12.533  1.00  0.00     0.000 C 
BRANCH   2   3
ATOM      3  C   UNL     1       5.046  -7.385  13.079  1.00  0.00     0.000 C 
BRANCH   3   4
ATOM      4  C   UNL     1       5.951  -6.752  12.002  1.00  0.00     0.000 C 
BRANCH   4   5
ATOM      5  C   UNL     1       7.419  -6.591  12.436  1.00  0.00     0.006 C 
BRANCH   5   6
ATOM      6  C   UNL     1       7.661  -6.822  13.940  1.00  0.00     0.053 C 
BRANCH   6   7
ATOM      7  C   UNL     1       7.932  -5.552  14.692  1.00  0.00     0.041 C 
ATOM      8  O   UNL     1       9.108  -5.118  14.809  1.00  0.00    -0.550 OA
ATOM      9  O   UNL     1       6.891  -4.883  15.325  1.00  0.00    -0.550 OA
ENDBRANCH   6   7
ENDBRANCH   5   6
ENDBRANCH   4   5
ENDBRANCH   3   4
ENDBRANCH   2   3
ENDBRANCH   1   2
BRANCH   1  10
ATOM     10  C   UNL     1       2.693  -8.214  10.493  1.00  0.00     0.000 C 
BRANCH  10  11
ATOM     11  C   UNL     1       1.960  -7.118  11.294  1.00  0.00    -0.000 C 
BRANCH  11  12
ATOM     12  C   UNL     1       0.857  -7.633  12.239  1.00  0.00    -0.000 C 
BRANCH  12  13
ATOM     13  C   UNL     1      -0.581  -7.478  11.705  1.00  0.00    -0.000 C 
BRANCH  13  14
ATOM     14  C   UNL     1      -1.032  -8.571  10.717  1.00  0.00    -0.000 C 
BRANCH  14  15
ATOM     15  C   UNL     1      -1.059  -8.138   9.240  1.00  0.00    -0.003 C 
ATOM     16  C   UNL     1      -1.125  -6.621   9.066  1.00  0.00     0.004 C 
ENDBRANCH  14  15
ENDBRANCH  13  14
ENDBRANCH  12  13
ENDBRANCH  11  12
ENDBRANCH  10  11
ENDBRANCH   1  10
TORSDOF 12
ENDMDL
MODEL 2
REMARK VINA RESULT:     7.852      3.834      7.430
REMARK INTER + INTRA:          12.342
REMARK INTER:                  11.976
REMARK INTRA:                   0.367
REMARK UNBOUND:                -1.019
REMARK SMILES CCCCCCCCCCCCCC(=O)[O-]
REMARK SMILES IDX 8 1 9 2 10 3 11 4 12 5 13 6 14 7 15 8 16 9 7 10 6 11 5 12
REMARK SMILES IDX 4 13 3 14 2 15 1 16
REMARK H PARENT
REMARK Flexibility Score: inf
ROOT
ATOM      1  C   UNL     1       4.058  -9.030  12.538  1.00  0.00     0.000 C 
ENDROOT
BRANCH   1   2
ATOM      2  C   UNL     1       4.129  -8.598  11.063  1.00  0.00     0.000 C 
BRANCH   2   3
ATOM      3  C   UNL     1       2.781  -8.085  10.526  1.00  0.00     0.000 C 
BRANCH   3   4
ATOM      4  C   UNL     1       2.533  -6.610  10.904  1.00  0.00     0.000 C 
BRANCH   4   5
ATOM      5  C   UNL     1       1.248  -6.382  11.719  1.00  0.00     0.006 C 
BRANCH   5   6
ATOM      6  C   UNL     1       0.399  -7.651  11.925  1.00  0.00     0.053 C 
BRANCH   6   7
ATOM      7  C   UNL     1      -0.426  -8.006  10.723  1.00  0.00     0.041 C 
ATOM      8  O   UNL     1      -0.999  -7.107  10.053  1.00  0.00    -0.550 OA
ATOM      9  O   UNL     1      -0.621  -9.340  10.384  1.00  0.00    -0.550 OA
ENDBRANCH   6   7
ENDBRANCH   5   6
ENDBRANCH   4   5
ENDBRANCH   3   4
ENDBRANCH   2   3
ENDBRANCH   1   2
BRANCH   1  10
ATOM     10  C   UNL     1       4.217  -7.885  13.556  1.00  0.00     0.000 C 
BRANCH  10  11
ATOM     11  C   UNL     1       4.929  -6.628  13.019  1.00  0.00    -0.000 C 
BRANCH  11  12
ATOM     12  C   UNL     1       5.992  -6.896  11.935  1.00  0.00    -0.000 C 
BRANCH  12  13
ATOM     13  C   UNL     1       7.446  -6.622  12.369  1.00  0.00    -0.000 C 
BRANCH  13  14
ATOM     14  C   UNL     1       7.720  -6.785  13.876  1.00  0.00    -0.000 C 
BRANCH  14  15
ATOM     15  C   UNL     1       8.145  -5.495  14.600  1.00  0.00    -0.003 C 
ATOM     16  C   UNL     1       7.015  -4.873  15.420  1.00  0.00     0.004 C 
ENDBRANCH  14  15
ENDBRANCH  13  14
ENDBRANCH  12  13
ENDBRANCH  11  12
ENDBRANCH  10  11
ENDBRANCH   1  10
TORSDOF 12
ENDMDL
MODEL 3
REMARK VINA RESULT:     8.714      2.585      6.650
REMARK INTER + INTRA:          13.809
REMARK INTER:                  13.981
REMARK INTRA:                  -0.173
REMARK UNBOUND:                -1.019
REMARK SMILES CCCCCCCCCCCCCC(=O)[O-]
REMARK SMILES IDX 8 1 9 2 10 3 11 4 12 5 13 6 14 7 15 8 16 9 7 10 6 11 5 12
REMARK SMILES IDX 4 13 3 14 2 15 1 16
REMARK H PARENT
REMARK Flexibility Score: inf
ROOT
ATOM      1  C   UNL     1       1.498  -7.869  12.027  1.00  0.00     0.000 C 
ENDROOT
BRANCH   1   2
ATOM      2  C   UNL     1      -0.006  -7.615  11.823  1.00  0.00     0.000 C 
BRANCH   2   3
ATOM      3  C   UNL     1      -0.541  -8.221  10.514  1.00  0.00     0.000 C 
BRANCH   3   4
ATOM      4  C   UNL     1      -0.693  -7.158   9.406  1.00  0.00     0.000 C 
BRANCH   4   5
ATOM      5  C   UNL     1      -0.088  -5.789   9.767  1.00  0.00     0.006 C 
BRANCH   5   6
ATOM      6  C   UNL     1       1.309  -5.540   9.167  1.00  0.00     0.053 C 
BRANCH   6   7
ATOM      7  C   UNL     1       2.226  -4.808  10.102  1.00  0.00     0.041 C 
ATOM      8  O   UNL     1       2.612  -5.350  11.172  1.00  0.00    -0.550 OA
ATOM      9  O   UNL     1       2.598  -3.498   9.826  1.00  0.00    -0.550 OA
ENDBRANCH   6   7
ENDBRANCH   5   6
ENDBRANCH   4   5
ENDBRANCH   3   4
ENDBRANCH   2   3
ENDBRANCH   1   2
BRANCH   1  10
ATOM     10  C   UNL     1       2.214  -8.519  10.827  1.00  0.00     0.000 C 
BRANCH  10  11
ATOM     11  C   UNL     1       3.754  -8.449  10.870  1.00  0.00    -0.000 C 
BRANCH  11  12
ATOM     12  C   UNL     1       4.360  -8.328  12.282  1.00  0.00    -0.000 C 
BRANCH  12  13
ATOM     13  C   UNL     1       4.973  -6.952  12.610  1.00  0.00    -0.000 C 
BRANCH  13  14
ATOM     14  C   UNL     1       6.413  -6.741  12.106  1.00  0.00    -0.000 C 
BRANCH  14  15
ATOM     15  C   UNL     1       7.500  -6.837  13.190  1.00  0.00    -0.003 C 
ATOM     16  C   UNL     1       7.320  -5.809  14.307  1.00  0.00     0.004 C 
ENDBRANCH  14  15
ENDBRANCH  13  14
ENDBRANCH  12  13
ENDBRANCH  11  12
ENDBRANCH  10  11
ENDBRANCH   1  10
TORSDOF 12
ENDMDL
MODEL 4
REMARK VINA RESULT:     8.870      3.614      7.539
REMARK INTER + INTRA:          14.074
REMARK INTER:                  14.268
REMARK INTRA:                  -0.194
REMARK UNBOUND:                -1.019
REMARK SMILES CCCCCCCCCCCCCC(=O)[O-]
REMARK SMILES IDX 8 1 9 2 10 3 11 4 12 5 13 6 14 7 15 8 16 9 7 10 6 11 5 12
REMARK SMILES IDX 4 13 3 14 2 15 1 16
REMARK H PARENT
REMARK Flexibility Score: inf
ROOT
ATOM      1  C   UNL     1       3.064  -8.213  11.356  1.00  0.00     0.000 C 
ENDROOT
BRANCH   1   2
ATOM      2  C   UNL     1       2.245  -7.058  11.958  1.00  0.00     0.000 C 
BRANCH   2   3
ATOM      3  C   UNL     1       2.639  -5.685  11.384  1.00  0.00     0.000 C 
BRANCH   3   4
ATOM      4  C   UNL     1       1.649  -5.206  10.302  1.00  0.00     0.000 C 
BRANCH   4   5
ATOM      5  C   UNL     1       1.022  -6.347   9.481  1.00  0.00     0.006 C 
BRANCH   5   6
ATOM      6  C   UNL     1      -0.449  -6.642   9.832  1.00  0.00     0.053 C 
BRANCH   6   7
ATOM      7  C   UNL     1      -0.606  -7.811  10.760  1.00  0.00     0.041 C 
ATOM      8  O   UNL     1      -1.005  -7.639  11.942  1.00  0.00    -0.550 OA
ATOM      9  O   UNL     1      -0.244  -9.085  10.338  1.00  0.00    -0.550 OA
ENDBRANCH   6   7
ENDBRANCH   5   6
ENDBRANCH   4   5
ENDBRANCH   3   4
ENDBRANCH   2   3
ENDBRANCH   1   2
BRANCH   1  10
ATOM     10  C   UNL     1       4.252  -8.682  12.217  1.00  0.00     0.000 C 
BRANCH  10  11
ATOM     11  C   UNL     1       5.043  -7.553  12.908  1.00  0.00    -0.000 C 
BRANCH  11  12
ATOM     12  C   UNL     1       5.982  -6.756  11.981  1.00  0.00    -0.000 C 
BRANCH  12  13
ATOM     13  C   UNL     1       7.451  -6.691  12.443  1.00  0.00    -0.000 C 
BRANCH  13  14
ATOM     14  C   UNL     1       7.659  -6.751  13.969  1.00  0.00    -0.000 C 
BRANCH  14  15
ATOM     15  C   UNL     1       8.056  -5.415  14.621  1.00  0.00    -0.003 C 
ATOM     16  C   UNL     1       6.967  -4.849  15.531  1.00  0.00     0.004 C 
ENDBRANCH  14  15
ENDBRANCH  13  14
ENDBRANCH  12  13
ENDBRANCH  11  12
ENDBRANCH  10  11
ENDBRANCH   1  10
TORSDOF 12
ENDMDL
MODEL 5
REMARK VINA RESULT:     9.055      2.504      6.858
REMARK INTER + INTRA:          14.389
REMARK INTER:                  14.760
REMARK INTRA:                  -0.371
REMARK UNBOUND:                -1.019
REMARK SMILES CCCCCCCCCCCCCC(=O)[O-]
REMARK SMILES IDX 8 1 9 2 10 3 11 4 12 5 13 6 14 7 15 8 16 9 7 10 6 11 5 12
REMARK SMILES IDX 4 13 3 14 2 15 1 16
REMARK H PARENT
REMARK Flexibility Score: inf
ROOT
ATOM      1  C   UNL     1       3.913  -8.601  10.990  1.00  0.00     0.000 C 
ENDROOT
BRANCH   1   2
ATOM      2  C   UNL     1       2.482  -8.864  10.489  1.00  0.00     0.000 C 
BRANCH   2   3
ATOM      3  C   UNL     1       1.409  -8.504  11.531  1.00  0.00     0.000 C 
BRANCH   3   4
ATOM      4  C   UNL     1       0.086  -8.063  10.870  1.00  0.00     0.000 C 
BRANCH   4   5
ATOM      5  C   UNL     1       0.043  -6.571  10.497  1.00  0.00     0.006 C 
BRANCH   5   6
ATOM      6  C   UNL     1       1.275  -6.081   9.712  1.00  0.00     0.053 C 
BRANCH   6   7
ATOM      7  C   UNL     1       2.183  -5.210  10.530  1.00  0.00     0.041 C 
ATOM      8  O   UNL     1       2.572  -5.585  11.667  1.00  0.00    -0.550 OA
ATOM      9  O   UNL     1       2.543  -3.952  10.064  1.00  0.00    -0.550 OA
ENDBRANCH   6   7
ENDBRANCH   5   6
ENDBRANCH   4   5
ENDBRANCH   3   4
ENDBRANCH   2   3
ENDBRANCH   1   2
BRANCH   1  10
ATOM     10  C   UNL     1       4.058  -8.520  12.522  1.00  0.00     0.000 C 
BRANCH  10  11
ATOM     11  C   UNL     1       4.895  -7.332  13.036  1.00  0.00    -0.000 C 
BRANCH  11  12
ATOM     12  C   UNL     1       5.811  -6.678  11.982  1.00  0.00    -0.000 C 
BRANCH  12  13
ATOM     13  C   UNL     1       7.312  -6.685  12.332  1.00  0.00    -0.000 C 
BRANCH  13  14
ATOM     14  C   UNL     1       7.634  -6.860  13.828  1.00  0.00    -0.000 C 
BRANCH  14  15
ATOM     15  C   UNL     1       8.130  -5.588  14.537  1.00  0.00    -0.003 C 
ATOM     16  C   UNL     1       7.042  -4.904  15.364  1.00  0.00     0.004 C 
ENDBRANCH  14  15
ENDBRANCH  13  14
ENDBRANCH  12  13
ENDBRANCH  11  12
ENDBRANCH  10  11
ENDBRANCH   1  10
TORSDOF 12
ENDMDL
MODEL 6
REMARK VINA RESULT:     9.148      0.977      1.927
REMARK INTER + INTRA:          14.547
REMARK INTER:                  14.815
REMARK INTRA:                  -0.268
REMARK UNBOUND:                -1.019
REMARK SMILES CCCCCCCCCCCCCC(=O)[O-]
REMARK SMILES IDX 8 1 9 2 10 3 11 4 12 5 13 6 14 7 15 8 16 9 7 10 6 11 5 12
REMARK SMILES IDX 4 13 3 14 2 15 1 16
REMARK H PARENT
REMARK Flexibility Score: inf
ROOT
ATOM      1  C   UNL     1       4.104  -8.796  10.926  1.00  0.00     0.000 C 
ENDROOT
BRANCH   1   2
ATOM      2  C   UNL     1       3.969  -8.614  12.448  1.00  0.00     0.000 C 
BRANCH   2   3
ATOM      3  C   UNL     1       4.905  -7.527  13.004  1.00  0.00     0.000 C 
BRANCH   3   4
ATOM      4  C   UNL     1       5.769  -6.887  11.898  1.00  0.00     0.000 C 
BRANCH   4   5
ATOM      5  C   UNL     1       7.190  -6.511  12.356  1.00  0.00     0.006 C 
BRANCH   5   6
ATOM      6  C   UNL     1       7.472  -6.804  13.843  1.00  0.00     0.053 C 
BRANCH   6   7
ATOM      7  C   UNL     1       7.890  -5.585  14.611  1.00  0.00     0.041 C 
ATOM      8  O   UNL     1       9.107  -5.277  14.707  1.00  0.00    -0.550 OA
ATOM      9  O   UNL     1       6.937  -4.828  15.283  1.00  0.00    -0.550 OA
ENDBRANCH   6   7
ENDBRANCH   5   6
ENDBRANCH   4   5
ENDBRANCH   3   4
ENDBRANCH   2   3
ENDBRANCH   1   2
BRANCH   1  10
ATOM     10  C   UNL     1       2.801  -8.586  10.131  1.00  0.00     0.000 C 
BRANCH  10  11
ATOM     11  C   UNL     1       1.564  -9.305  10.703  1.00  0.00    -0.000 C 
BRANCH  11  12
ATOM     12  C   UNL     1       0.234  -8.545  10.534  1.00  0.00    -0.000 C 
BRANCH  12  13
ATOM     13  C   UNL     1       0.233  -7.106  11.087  1.00  0.00    -0.000 C 
BRANCH  13  14
ATOM     14  C   UNL     1       1.383  -6.778  12.057  1.00  0.00    -0.000 C 
BRANCH  14  15
ATOM     15  C   UNL     1       2.283  -5.607  11.624  1.00  0.00    -0.003 C 
ATOM     16  C   UNL     1       2.233  -5.344  10.119  1.00  0.00     0.004 C 
ENDBRANCH  14  15
ENDBRANCH  13  14
ENDBRANCH  12  13
ENDBRANCH  11  12
ENDBRANCH  10  11
ENDBRANCH   1  10
TORSDOF 12
ENDMDL
MODEL 7
REMARK VINA RESULT:     9.418      4.302      6.855
REMARK INTER + INTRA:          15.006
REMARK INTER:                  15.493
REMARK INTRA:                  -0.487
REMARK UNBOUND:                -1.019
REMARK SMILES CCCCCCCCCCCCCC(=O)[O-]
REMARK SMILES IDX 8 1 9 2 10 3 11 4 12 5 13 6 14 7 15 8 16 9 7 10 6 11 5 12
REMARK SMILES IDX 4 13 3 14 2 15 1 16
REMARK H PARENT
REMARK Flexibility Score: inf
ROOT
ATOM      1  C   UNL     1       5.207  -6.997  11.871  1.00  0.00     0.000 C 
ENDROOT
BRANCH   1   2
ATOM      2  C   UNL     1       4.759  -7.817  10.649  1.00  0.00     0.000 C 
BRANCH   2   3
ATOM      3  C   UNL     1       3.290  -8.266  10.737  1.00  0.00     0.000 C 
BRANCH   3   4
ATOM      4  C   UNL     1       2.363  -7.123  11.201  1.00  0.00     0.000 C 
BRANCH   4   5
ATOM      5  C   UNL     1       1.298  -7.560  12.223  1.00  0.00     0.006 C 
BRANCH   5   6
ATOM      6  C   UNL     1      -0.153  -7.355  11.748  1.00  0.00     0.053 C 
BRANCH   6   7
ATOM      7  C   UNL     1      -0.452  -8.059  10.457  1.00  0.00     0.041 C 
ATOM      8  O   UNL     1      -0.043  -9.234  10.261  1.00  0.00    -0.550 OA
ATOM      9  O   UNL     1      -1.124  -7.391   9.441  1.00  0.00    -0.550 OA
ENDBRANCH   6   7
ENDBRANCH   5   6
ENDBRANCH   4   5
ENDBRANCH   3   4
ENDBRANCH   2   3
ENDBRANCH   1   2
BRANCH   1  10
ATOM     10  C   UNL     1       5.217  -7.772  13.203  1.00  0.00     0.000 C 
BRANCH  10  11
ATOM     11  C   UNL     1       4.850  -9.266  13.091  1.00  0.00    -0.000 C 
BRANCH  11  12
ATOM     12  C   UNL     1       4.486  -9.947  14.425  1.00  0.00    -0.000 C 
BRANCH  12  13
ATOM     13  C   UNL     1       3.049  -9.687  14.917  1.00  0.00    -0.000 C 
BRANCH  13  14
ATOM     14  C   UNL     1       2.859  -9.751  16.445  1.00  0.00    -0.000 C 
BRANCH  14  15
ATOM     15  C   UNL     1       2.126  -8.545  17.058  1.00  0.00    -0.003 C 
ATOM     16  C   UNL     1       1.084  -8.949  18.100  1.00  0.00     0.004 C 
ENDBRANCH  14  15
ENDBRANCH  13  14
ENDBRANCH  12  13
ENDBRANCH  11  12
ENDBRANCH  10  11
ENDBRANCH   1  10
TORSDOF 12
ENDMDL
