MODEL 1
REMARK VINA RESULT:    -4.574      0.000      0.000
REMARK INTER + INTRA:          -6.431
REMARK INTER:                  -6.179
REMARK INTRA:                  -0.252
REMARK UNBOUND:                -0.252
REMARK SMILES CCCCCCCC(=O)[O-]
REMARK SMILES IDX 5 1 6 2 7 3 8 4 9 5 10 6 4 7 3 8 2 9 1 10
REMARK H PARENT
REMARK Flexibility Score: inf
ROOT
ATOM      1  C   UNL     1     -13.250 -17.336  29.675  1.00  0.00     0.000 C 
ENDROOT
BRANCH   1   2
ATOM      2  C   UNL     1     -12.270 -17.195  30.857  1.00  0.00     0.006 C 
BRANCH   2   3
ATOM      3  C   UNL     1     -11.636 -18.516  31.322  1.00  0.00     0.053 C 
BRANCH   3   4
ATOM      4  C   UNL     1     -10.286 -18.738  30.712  1.00  0.00     0.041 C 
ATOM      5  O   UNL     1     -10.188 -19.129  29.520  1.00  0.00    -0.550 OA
ATOM      6  O   UNL     1      -9.138 -18.477  31.448  1.00  0.00    -0.550 OA
ENDBRANCH   3   4
ENDBRANCH   2   3
ENDBRANCH   1   2
BRANCH   1   7
ATOM      7  C   UNL     1     -13.016 -16.352  28.514  1.00  0.00     0.000 C 
BRANCH   7   8
ATOM      8  C   UNL     1     -11.664 -16.560  27.814  1.00  0.00    -0.000 C 
BRANCH   8   9
ATOM      9  C   UNL     1     -11.497 -15.588  26.642  1.00  0.00    -0.003 C 
ATOM     10  C   UNL     1     -10.034 -15.199  26.451  1.00  0.00     0.004 C 
ENDBRANCH   8   9
ENDBRANCH   7   8
ENDBRANCH   1   7
TORSDOF 6
ENDMDL
MODEL 2
REMARK VINA RESULT:    -4.562      1.810      3.341
REMARK INTER + INTRA:          -6.414
REMARK INTER:                  -6.232
REMARK INTRA:                  -0.182
REMARK UNBOUND:                -0.252
REMARK SMILES CCCCCCCC(=O)[O-]
REMARK SMILES IDX 5 1 6 2 7 3 8 4 9 5 10 6 4 7 3 8 2 9 1 10
REMARK H PARENT
REMARK Flexibility Score: inf
ROOT
ATOM      1  C   UNL     1     -10.685 -15.876  27.440  1.00  0.00     0.000 C 
ENDROOT
BRANCH   1   2
ATOM      2  C   UNL     1     -12.058 -16.571  27.543  1.00  0.00     0.006 C 
BRANCH   2   3
ATOM      3  C   UNL     1     -12.581 -16.744  28.978  1.00  0.00     0.053 C 
BRANCH   3   4
ATOM      4  C   UNL     1     -12.354 -18.131  29.495  1.00  0.00     0.041 C 
ATOM      5  O   UNL     1     -13.292 -18.761  30.050  1.00  0.00    -0.550 OA
ATOM      6  O   UNL     1     -11.117 -18.742  29.332  1.00  0.00    -0.550 OA
ENDBRANCH   3   4
ENDBRANCH   2   3
ENDBRANCH   1   2
BRANCH   1   7
ATOM      7  C   UNL     1     -10.463 -15.060  26.154  1.00  0.00     0.000 C 
BRANCH   7   8
ATOM      8  C   UNL     1      -9.129 -14.296  26.152  1.00  0.00    -0.000 C 
BRANCH   8   9
ATOM      9  C   UNL     1      -7.980 -15.198  26.616  1.00  0.00    -0.003 C 
ATOM     10  C   UNL     1      -6.751 -14.376  26.991  1.00  0.00     0.004 C 
ENDBRANCH   8   9
ENDBRANCH   7   8
ENDBRANCH   1   7
TORSDOF 6
ENDMDL
MODEL 3
REMARK VINA RESULT:    -4.452      2.793      4.837
REMARK INTER + INTRA:          -6.266
REMARK INTER:                  -5.986
REMARK INTRA:                  -0.280
REMARK UNBOUND:                -0.252
REMARK SMILES CCCCCCCC(=O)[O-]
REMARK SMILES IDX 5 1 6 2 7 3 8 4 9 5 10 6 4 7 3 8 2 9 1 10
REMARK H PARENT
REMARK Flexibility Score: inf
ROOT
ATOM      1  C   UNL     1     -12.626 -16.277  27.862  1.00  0.00     0.000 C 
ENDROOT
BRANCH   1   2
ATOM      2  C   UNL     1     -11.123 -16.049  27.601  1.00  0.00     0.006 C 
BRANCH   2   3
ATOM      3  C   UNL     1     -10.809 -15.305  26.293  1.00  0.00     0.053 C 
BRANCH   3   4
ATOM      4  C   UNL     1      -9.472 -14.631  26.338  1.00  0.00     0.041 C 
ATOM      5  O   UNL     1      -8.525 -15.145  26.989  1.00  0.00    -0.550 OA
ATOM      6  O   UNL     1      -9.261 -13.455  25.630  1.00  0.00    -0.550 OA
ENDBRANCH   3   4
ENDBRANCH   2   3
ENDBRANCH   1   2
BRANCH   1   7
ATOM      7  C   UNL     1     -12.976 -16.744  29.287  1.00  0.00     0.000 C 
BRANCH   7   8
ATOM      8  C   UNL     1     -12.567 -18.200  29.558  1.00  0.00    -0.000 C 
BRANCH   8   9
ATOM      9  C   UNL     1     -11.619 -18.289  30.759  1.00  0.00    -0.003 C 
ATOM     10  C   UNL     1     -10.216 -18.703  30.325  1.00  0.00     0.004 C 
ENDBRANCH   8   9
ENDBRANCH   7   8
ENDBRANCH   1   7
TORSDOF 6
ENDMDL
MODEL 4
REMARK VINA RESULT:    -4.427      1.295      2.047
REMARK INTER + INTRA:          -6.232
REMARK INTER:                  -5.947
REMARK INTRA:                  -0.284
REMARK UNBOUND:                -0.252
REMARK SMILES CCCCCCCC(=O)[O-]
REMARK SMILES IDX 5 1 6 2 7 3 8 4 9 5 10 6 4 7 3 8 2 9 1 10
REMARK H PARENT
REMARK Flexibility Score: inf
ROOT
ATOM      1  C   UNL     1     -12.069 -16.760  27.857  1.00  0.00     0.000 C 
ENDROOT
BRANCH   1   2
ATOM      2  C   UNL     1     -12.602 -16.588  29.294  1.00  0.00     0.006 C 
BRANCH   2   3
ATOM      3  C   UNL     1     -11.514 -16.361  30.355  1.00  0.00     0.053 C 
BRANCH   3   4
ATOM      4  C   UNL     1     -10.924 -17.649  30.841  1.00  0.00     0.041 C 
ATOM      5  O   UNL     1     -11.665 -18.535  31.340  1.00  0.00    -0.550 OA
ATOM      6  O   UNL     1      -9.562 -17.886  30.709  1.00  0.00    -0.550 OA
ENDBRANCH   3   4
ENDBRANCH   2   3
ENDBRANCH   1   2
BRANCH   1   7
ATOM      7  C   UNL     1     -10.753 -16.019  27.557  1.00  0.00     0.000 C 
BRANCH   7   8
ATOM      8  C   UNL     1     -10.817 -15.181  26.271  1.00  0.00    -0.000 C 
BRANCH   8   9
ATOM      9  C   UNL     1      -9.434 -14.631  25.906  1.00  0.00    -0.003 C 
ATOM     10  C   UNL     1      -8.373 -15.101  26.896  1.00  0.00     0.004 C 
ENDBRANCH   8   9
ENDBRANCH   7   8
ENDBRANCH   1   7
TORSDOF 6
ENDMDL
MODEL 5
REMARK VINA RESULT:    -4.303      1.904      2.966
REMARK INTER + INTRA:          -6.064
REMARK INTER:                  -5.797
REMARK INTRA:                  -0.267
REMARK UNBOUND:                -0.252
REMARK SMILES CCCCCCCC(=O)[O-]
REMARK SMILES IDX 5 1 6 2 7 3 8 4 9 5 10 6 4 7 3 8 2 9 1 10
REMARK H PARENT
REMARK Flexibility Score: inf
ROOT
ATOM      1  C   UNL     1     -11.492 -16.125  27.465  1.00  0.00     0.000 C 
ENDROOT
BRANCH   1   2
ATOM      2  C   UNL     1     -10.594 -16.667  28.596  1.00  0.00     0.006 C 
BRANCH   2   3
ATOM      3  C   UNL     1     -11.087 -17.977  29.230  1.00  0.00     0.053 C 
BRANCH   3   4
ATOM      4  C   UNL     1     -11.893 -17.733  30.469  1.00  0.00     0.041 C 
ATOM      5  O   UNL     1     -11.768 -16.653  31.103  1.00  0.00    -0.550 OA
ATOM      6  O   UNL     1     -12.809 -18.683  30.902  1.00  0.00    -0.550 OA
ENDBRANCH   3   4
ENDBRANCH   2   3
ENDBRANCH   1   2
BRANCH   1   7
ATOM      7  C   UNL     1     -10.764 -15.282  26.402  1.00  0.00     0.000 C 
BRANCH   7   8
ATOM      8  C   UNL     1      -9.260 -15.135  26.681  1.00  0.00    -0.000 C 
BRANCH   8   9
ATOM      9  C   UNL     1      -8.715 -13.835  26.079  1.00  0.00    -0.003 C 
ATOM     10  C   UNL     1      -9.685 -13.251  25.056  1.00  0.00     0.004 C 
ENDBRANCH   8   9
ENDBRANCH   7   8
ENDBRANCH   1   7
TORSDOF 6
ENDMDL
MODEL 6
REMARK VINA RESULT:    -4.216      3.166      3.901
REMARK INTER + INTRA:          -5.946
REMARK INTER:                  -5.720
REMARK INTRA:                  -0.227
REMARK UNBOUND:                -0.252
REMARK SMILES CCCCCCCC(=O)[O-]
REMARK SMILES IDX 5 1 6 2 7 3 8 4 9 5 10 6 4 7 3 8 2 9 1 10
REMARK H PARENT
REMARK Flexibility Score: inf
ROOT
ATOM      1  C   UNL     1     -12.133 -18.538  31.322  1.00  0.00     0.000 C 
ENDROOT
BRANCH   1   2
ATOM      2  C   UNL     1     -12.764 -18.892  32.684  1.00  0.00     0.006 C 
BRANCH   2   3
ATOM      3  C   UNL     1     -12.157 -20.127  33.368  1.00  0.00     0.053 C 
BRANCH   3   4
ATOM      4  C   UNL     1     -13.202 -21.133  33.741  1.00  0.00     0.041 C 
ATOM      5  O   UNL     1     -13.063 -21.834  34.777  1.00  0.00    -0.550 OA
ATOM      6  O   UNL     1     -14.346 -21.271  32.965  1.00  0.00    -0.550 OA
ENDBRANCH   3   4
ENDBRANCH   2   3
ENDBRANCH   1   2
BRANCH   1   7
ATOM      7  C   UNL     1     -13.106 -18.552  30.129  1.00  0.00     0.000 C 
BRANCH   7   8
ATOM      8  C   UNL     1     -13.477 -17.143  29.642  1.00  0.00    -0.000 C 
BRANCH   8   9
ATOM      9  C   UNL     1     -12.226 -16.352  29.246  1.00  0.00    -0.003 C 
ATOM     10  C   UNL     1     -11.895 -16.548  27.769  1.00  0.00     0.004 C 
ENDBRANCH   8   9
ENDBRANCH   7   8
ENDBRANCH   1   7
TORSDOF 6
ENDMDL
MODEL 7
REMARK VINA RESULT:    -4.196      3.369      5.318
REMARK INTER + INTRA:          -5.919
REMARK INTER:                  -5.734
REMARK INTRA:                  -0.185
REMARK UNBOUND:                -0.252
REMARK SMILES CCCCCCCC(=O)[O-]
REMARK SMILES IDX 5 1 6 2 7 3 8 4 9 5 10 6 4 7 3 8 2 9 1 10
REMARK H PARENT
REMARK Flexibility Score: inf
ROOT
ATOM      1  C   UNL     1      -9.249 -14.471  26.235  1.00  0.00     0.000 C 
ENDROOT
BRANCH   1   2
ATOM      2  C   UNL     1      -8.251 -14.939  27.313  1.00  0.00     0.006 C 
BRANCH   2   3
ATOM      3  C   UNL     1      -6.772 -14.766  26.932  1.00  0.00     0.053 C 
BRANCH   3   4
ATOM      4  C   UNL     1      -5.895 -14.609  28.136  1.00  0.00     0.041 C 
ATOM      5  O   UNL     1      -4.658 -14.422  27.998  1.00  0.00    -0.550 OA
ATOM      6  O   UNL     1      -6.450 -14.633  29.410  1.00  0.00    -0.550 OA
ENDBRANCH   3   4
ENDBRANCH   2   3
ENDBRANCH   1   2
BRANCH   1   7
ATOM      7  C   UNL     1     -10.590 -15.228  26.217  1.00  0.00     0.000 C 
BRANCH   7   8
ATOM      8  C   UNL     1     -10.857 -16.006  27.514  1.00  0.00    -0.000 C 
BRANCH   8   9
ATOM      9  C   UNL     1     -12.343 -16.356  27.648  1.00  0.00    -0.003 C 
ATOM     10  C   UNL     1     -12.773 -16.382  29.111  1.00  0.00     0.004 C 
ENDBRANCH   8   9
ENDBRANCH   7   8
ENDBRANCH   1   7
TORSDOF 6
ENDMDL
MODEL 8
REMARK VINA RESULT:    -4.188      2.203      2.424
REMARK INTER + INTRA:          -5.908
REMARK INTER:                  -5.671
REMARK INTRA:                  -0.237
REMARK UNBOUND:                -0.252
REMARK SMILES CCCCCCCC(=O)[O-]
REMARK SMILES IDX 5 1 6 2 7 3 8 4 9 5 10 6 4 7 3 8 2 9 1 10
REMARK H PARENT
REMARK Flexibility Score: inf
ROOT
ATOM      1  C   UNL     1     -13.077 -16.781  29.338  1.00  0.00     0.000 C 
ENDROOT
BRANCH   1   2
ATOM      2  C   UNL     1     -13.475 -17.894  30.329  1.00  0.00     0.006 C 
BRANCH   2   3
ATOM      3  C   UNL     1     -12.323 -18.408  31.208  1.00  0.00     0.053 C 
BRANCH   3   4
ATOM      4  C   UNL     1     -12.802 -18.863  32.552  1.00  0.00     0.041 C 
ATOM      5  O   UNL     1     -12.505 -20.010  32.975  1.00  0.00    -0.550 OA
ATOM      6  O   UNL     1     -13.545 -18.005  33.354  1.00  0.00    -0.550 OA
ENDBRANCH   3   4
ENDBRANCH   2   3
ENDBRANCH   1   2
BRANCH   1   7
ATOM      7  C   UNL     1     -11.667 -16.198  29.546  1.00  0.00     0.000 C 
BRANCH   7   8
ATOM      8  C   UNL     1     -10.722 -16.479  28.367  1.00  0.00    -0.000 C 
BRANCH   8   9
ATOM      9  C   UNL     1     -11.267 -15.871  27.070  1.00  0.00    -0.003 C 
ATOM     10  C   UNL     1     -10.188 -15.083  26.334  1.00  0.00     0.004 C 
ENDBRANCH   8   9
ENDBRANCH   7   8
ENDBRANCH   1   7
TORSDOF 6
ENDMDL
MODEL 9
REMARK VINA RESULT:    -4.146      2.437      5.524
REMARK INTER + INTRA:          -5.852
REMARK INTER:                  -5.653
REMARK INTRA:                  -0.199
REMARK UNBOUND:                -0.252
REMARK SMILES CCCCCCCC(=O)[O-]
REMARK SMILES IDX 5 1 6 2 7 3 8 4 9 5 10 6 4 7 3 8 2 9 1 10
REMARK H PARENT
REMARK Flexibility Score: inf
ROOT
ATOM      1  C   UNL     1     -12.953 -17.731  31.805  1.00  0.00     0.000 C 
ENDROOT
BRANCH   1   2
ATOM      2  C   UNL     1     -13.489 -17.692  30.359  1.00  0.00     0.006 C 
BRANCH   2   3
ATOM      3  C   UNL     1     -12.728 -16.743  29.421  1.00  0.00     0.053 C 
BRANCH   3   4
ATOM      4  C   UNL     1     -11.460 -17.355  28.909  1.00  0.00     0.041 C 
ATOM      5  O   UNL     1     -10.477 -16.625  28.618  1.00  0.00    -0.550 OA
ATOM      6  O   UNL     1     -11.351 -18.735  28.790  1.00  0.00    -0.550 OA
ENDBRANCH   3   4
ENDBRANCH   2   3
ENDBRANCH   1   2
BRANCH   1   7
ATOM      7  C   UNL     1     -12.198 -19.018  32.185  1.00  0.00     0.000 C 
BRANCH   7   8
ATOM      8  C   UNL     1     -13.043 -19.980  33.034  1.00  0.00    -0.000 C 
BRANCH   8   9
ATOM      9  C   UNL     1     -12.164 -20.767  34.011  1.00  0.00    -0.003 C 
ATOM     10  C   UNL     1     -12.950 -21.891  34.679  1.00  0.00     0.004 C 
ENDBRANCH   8   9
ENDBRANCH   7   8
ENDBRANCH   1   7
TORSDOF 6
ENDMDL
