MODEL 1
REMARK VINA RESULT:    -4.556      0.000      0.000
REMARK INTER + INTRA:         -13.517
REMARK INTER:                  -9.883
REMARK INTRA:                  -3.634
REMARK UNBOUND:                -3.634
REMARK SMILES CCCCCCCCCCCCCCCCCCCCCC(=O)[O-]
REMARK SMILES IDX 12 1 11 2 10 3 9 4 8 5 7 6 6 7 5 8 4 9 3 10 2 11 1 12 13 13
REMARK SMILES IDX 14 14 15 15 16 16 17 17 18 18 19 19 20 20 21 21 22 22 23 23
REMARK SMILES IDX 24 24
REMARK H PARENT
REMARK Flexibility Score: inf
ROOT
ATOM      1  C   UNL     1       1.484   7.392  31.213  1.00  0.00     0.000 C 
ENDROOT
BRANCH   1   2
ATOM      2  C   UNL     1       1.319   6.179  32.141  1.00  0.00     0.000 C 
BRANCH   2   3
ATOM      3  C   UNL     1       1.897   4.889  31.533  1.00  0.00     0.000 C 
BRANCH   3   4
ATOM      4  C   UNL     1       3.257   5.117  30.854  1.00  0.00    -0.000 C 
BRANCH   4   5
ATOM      5  C   UNL     1       3.367   4.409  29.493  1.00  0.00    -0.000 C 
BRANCH   5   6
ATOM      6  C   UNL     1       2.036   3.785  29.037  1.00  0.00    -0.000 C 
BRANCH   6   7
ATOM      7  C   UNL     1       1.973   3.415  27.542  1.00  0.00    -0.000 C 
BRANCH   7   8
ATOM      8  C   UNL     1       3.221   3.796  26.721  1.00  0.00    -0.000 C 
BRANCH   8   9
ATOM      9  C   UNL     1       3.030   4.984  25.756  1.00  0.00    -0.000 C 
BRANCH   9  10
ATOM     10  C   UNL     1       3.848   6.240  26.102  1.00  0.00    -0.000 C 
BRANCH  10  11
ATOM     11  C   UNL     1       3.122   7.173  27.083  1.00  0.00    -0.003 C 
ATOM     12  C   UNL     1       4.099   7.793  28.077  1.00  0.00     0.004 C 
ENDBRANCH  10  11
ENDBRANCH   9  10
ENDBRANCH   8   9
ENDBRANCH   7   8
ENDBRANCH   6   7
ENDBRANCH   5   6
ENDBRANCH   4   5
ENDBRANCH   3   4
ENDBRANCH   2   3
ENDBRANCH   1   2
BRANCH   1  13
ATOM     13  C   UNL     1       0.188   7.748  30.462  1.00  0.00     0.000 C 
BRANCH  13  14
ATOM     14  C   UNL     1       0.045   6.984  29.136  1.00  0.00     0.000 C 
BRANCH  14  15
ATOM     15  C   UNL     1      -0.999   5.857  29.213  1.00  0.00     0.000 C 
BRANCH  15  16
ATOM     16  C   UNL     1      -1.493   5.419  27.826  1.00  0.00     0.000 C 
BRANCH  16  17
ATOM     17  C   UNL     1      -0.616   5.968  26.685  1.00  0.00     0.000 C 
BRANCH  17  18
ATOM     18  C   UNL     1      -0.613   5.054  25.449  1.00  0.00     0.000 C 
BRANCH  18  19
ATOM     19  C   UNL     1      -1.445   3.765  25.594  1.00  0.00     0.000 C 
BRANCH  19  20
ATOM     20  C   UNL     1      -2.797   3.808  24.849  1.00  0.00     0.006 C 
BRANCH  20  21
ATOM     21  C   UNL     1      -2.674   4.431  23.452  1.00  0.00     0.053 C 
BRANCH  21  22
ATOM     22  C   UNL     1      -3.595   3.749  22.490  1.00  0.00     0.041 C 
ATOM     23  O   UNL     1      -3.617   4.097  21.280  1.00  0.00    -0.550 OA
ATOM     24  O   UNL     1      -4.396   2.699  22.919  1.00  0.00    -0.550 OA
ENDBRANCH  21  22
ENDBRANCH  20  21
ENDBRANCH  19  20
ENDBRANCH  18  19
ENDBRANCH  17  18
ENDBRANCH  16  17
ENDBRANCH  15  16
ENDBRANCH  14  15
ENDBRANCH  13  14
ENDBRANCH   1  13
TORSDOF 20
ENDMDL
MODEL 2
REMARK VINA RESULT:    -4.524      3.426      7.511
REMARK INTER + INTRA:         -13.447
REMARK INTER:                  -9.934
REMARK INTRA:                  -3.514
REMARK UNBOUND:                -3.634
REMARK SMILES CCCCCCCCCCCCCCCCCCCCCC(=O)[O-]
REMARK SMILES IDX 12 1 11 2 10 3 9 4 8 5 7 6 6 7 5 8 4 9 3 10 2 11 1 12 13 13
REMARK SMILES IDX 14 14 15 15 16 16 17 17 18 18 19 19 20 20 21 21 22 22 23 23
REMARK SMILES IDX 24 24
REMARK H PARENT
REMARK Flexibility Score: inf
ROOT
ATOM      1  C   UNL     1      -4.557   6.978  24.474  1.00  0.00     0.000 C 
ENDROOT
BRANCH   1   2
ATOM      2  C   UNL     1      -5.696   6.575  23.524  1.00  0.00     0.000 C 
BRANCH   2   3
ATOM      3  C   UNL     1      -6.529   5.400  24.068  1.00  0.00     0.000 C 
BRANCH   3   4
ATOM      4  C   UNL     1      -6.453   4.158  23.165  1.00  0.00    -0.000 C 
BRANCH   4   5
ATOM      5  C   UNL     1      -5.662   3.006  23.807  1.00  0.00    -0.000 C 
BRANCH   5   6
ATOM      6  C   UNL     1      -4.198   2.954  23.337  1.00  0.00    -0.000 C 
BRANCH   6   7
ATOM      7  C   UNL     1      -3.929   3.637  21.982  1.00  0.00    -0.000 C 
BRANCH   7   8
ATOM      8  C   UNL     1      -2.707   4.577  21.956  1.00  0.00    -0.000 C 
BRANCH   8   9
ATOM      9  C   UNL     1      -1.859   4.582  23.244  1.00  0.00    -0.000 C 
BRANCH   9  10
ATOM     10  C   UNL     1      -0.338   4.522  23.021  1.00  0.00    -0.000 C 
BRANCH  10  11
ATOM     11  C   UNL     1       0.461   4.638  24.327  1.00  0.00    -0.003 C 
ATOM     12  C   UNL     1       0.585   6.094  24.768  1.00  0.00     0.004 C 
ENDBRANCH  10  11
ENDBRANCH   9  10
ENDBRANCH   8   9
ENDBRANCH   7   8
ENDBRANCH   6   7
ENDBRANCH   5   6
ENDBRANCH   4   5
ENDBRANCH   3   4
ENDBRANCH   2   3
ENDBRANCH   1   2
BRANCH   1  13
ATOM     13  C   UNL     1      -4.500   6.104  25.740  1.00  0.00     0.000 C 
BRANCH  13  14
ATOM     14  C   UNL     1      -3.068   5.915  26.263  1.00  0.00     0.000 C 
BRANCH  14  15
ATOM     15  C   UNL     1      -2.852   4.533  26.905  1.00  0.00     0.000 C 
BRANCH  15  16
ATOM     16  C   UNL     1      -2.070   4.616  28.225  1.00  0.00     0.000 C 
BRANCH  16  17
ATOM     17  C   UNL     1      -1.001   5.724  28.210  1.00  0.00     0.000 C 
BRANCH  17  18
ATOM     18  C   UNL     1       0.380   5.221  28.661  1.00  0.00     0.000 C 
BRANCH  18  19
ATOM     19  C   UNL     1       0.855   3.928  27.969  1.00  0.00     0.000 C 
BRANCH  19  20
ATOM     20  C   UNL     1       2.363   3.645  28.142  1.00  0.00     0.006 C 
BRANCH  20  21
ATOM     21  C   UNL     1       3.131   3.735  26.816  1.00  0.00     0.053 C 
BRANCH  21  22
ATOM     22  C   UNL     1       3.840   5.048  26.709  1.00  0.00     0.041 C 
ATOM     23  O   UNL     1       4.232   5.466  25.588  1.00  0.00    -0.550 OA
ATOM     24  O   UNL     1       4.028   5.832  27.840  1.00  0.00    -0.550 OA
ENDBRANCH  21  22
ENDBRANCH  20  21
ENDBRANCH  19  20
ENDBRANCH  18  19
ENDBRANCH  17  18
ENDBRANCH  16  17
ENDBRANCH  15  16
ENDBRANCH  14  15
ENDBRANCH  13  14
ENDBRANCH   1  13
TORSDOF 20
ENDMDL
MODEL 3
REMARK VINA RESULT:    -4.521      1.427      3.912
REMARK INTER + INTRA:         -13.440
REMARK INTER:                  -9.977
REMARK INTRA:                  -3.464
REMARK UNBOUND:                -3.634
REMARK SMILES CCCCCCCCCCCCCCCCCCCCCC(=O)[O-]
REMARK SMILES IDX 12 1 11 2 10 3 9 4 8 5 7 6 6 7 5 8 4 9 3 10 2 11 1 12 13 13
REMARK SMILES IDX 14 14 15 15 16 16 17 17 18 18 19 19 20 20 21 21 22 22 23 23
REMARK SMILES IDX 24 24
REMARK H PARENT
REMARK Flexibility Score: inf
ROOT
ATOM      1  C   UNL     1      -2.025   4.659  28.253  1.00  0.00     0.000 C 
ENDROOT
BRANCH   1   2
ATOM      2  C   UNL     1      -1.380   5.823  29.021  1.00  0.00     0.000 C 
BRANCH   2   3
ATOM      3  C   UNL     1      -0.968   6.983  28.097  1.00  0.00     0.000 C 
BRANCH   3   4
ATOM      4  C   UNL     1       0.479   7.440  28.338  1.00  0.00    -0.000 C 
BRANCH   4   5
ATOM      5  C   UNL     1       1.395   7.175  27.131  1.00  0.00    -0.000 C 
BRANCH   5   6
ATOM      6  C   UNL     1       2.737   6.538  27.530  1.00  0.00    -0.000 C 
BRANCH   6   7
ATOM      7  C   UNL     1       2.835   5.020  27.278  1.00  0.00    -0.000 C 
BRANCH   7   8
ATOM      8  C   UNL     1       3.005   4.157  28.544  1.00  0.00    -0.000 C 
BRANCH   8   9
ATOM      9  C   UNL     1       1.754   4.062  29.442  1.00  0.00    -0.000 C 
BRANCH   9  10
ATOM     10  C   UNL     1       2.027   4.194  30.951  1.00  0.00    -0.000 C 
BRANCH  10  11
ATOM     11  C   UNL     1       1.339   5.417  31.576  1.00  0.00    -0.003 C 
ATOM     12  C   UNL     1       2.218   6.659  31.462  1.00  0.00     0.004 C 
ENDBRANCH  10  11
ENDBRANCH   9  10
ENDBRANCH   8   9
ENDBRANCH   7   8
ENDBRANCH   6   7
ENDBRANCH   5   6
ENDBRANCH   4   5
ENDBRANCH   3   4
ENDBRANCH   2   3
ENDBRANCH   1   2
BRANCH   1  13
ATOM     13  C   UNL     1      -2.046   4.889  26.731  1.00  0.00     0.000 C 
BRANCH  13  14
ATOM     14  C   UNL     1      -1.351   3.761  25.953  1.00  0.00     0.000 C 
BRANCH  14  15
ATOM     15  C   UNL     1      -0.017   4.208  25.330  1.00  0.00     0.000 C 
BRANCH  15  16
ATOM     16  C   UNL     1      -0.202   5.311  24.276  1.00  0.00     0.000 C 
BRANCH  16  17
ATOM     17  C   UNL     1      -0.164   4.765  22.837  1.00  0.00     0.000 C 
BRANCH  17  18
ATOM     18  C   UNL     1      -1.306   5.315  21.966  1.00  0.00     0.000 C 
BRANCH  18  19
ATOM     19  C   UNL     1      -2.715   5.162  22.573  1.00  0.00     0.000 C 
BRANCH  19  20
ATOM     20  C   UNL     1      -3.434   3.860  22.161  1.00  0.00     0.006 C 
BRANCH  20  21
ATOM     21  C   UNL     1      -3.932   3.059  23.372  1.00  0.00     0.053 C 
BRANCH  21  22
ATOM     22  C   UNL     1      -5.427   3.071  23.430  1.00  0.00     0.041 C 
ATOM     23  O   UNL     1      -6.095   3.464  22.437  1.00  0.00    -0.550 OA
ATOM     24  O   UNL     1      -6.084   2.607  24.562  1.00  0.00    -0.550 OA
ENDBRANCH  21  22
ENDBRANCH  20  21
ENDBRANCH  19  20
ENDBRANCH  18  19
ENDBRANCH  17  18
ENDBRANCH  16  17
ENDBRANCH  15  16
ENDBRANCH  14  15
ENDBRANCH  13  14
ENDBRANCH   1  13
TORSDOF 20
ENDMDL
MODEL 4
REMARK VINA RESULT:    -4.496      1.669      3.422
REMARK INTER + INTRA:         -13.388
REMARK INTER:                  -9.703
REMARK INTRA:                  -3.685
REMARK UNBOUND:                -3.634
REMARK SMILES CCCCCCCCCCCCCCCCCCCCCC(=O)[O-]
REMARK SMILES IDX 12 1 11 2 10 3 9 4 8 5 7 6 6 7 5 8 4 9 3 10 2 11 1 12 13 13
REMARK SMILES IDX 14 14 15 15 16 16 17 17 18 18 19 19 20 20 21 21 22 22 23 23
REMARK SMILES IDX 24 24
REMARK H PARENT
REMARK Flexibility Score: inf
ROOT
ATOM      1  C   UNL     1       3.865   4.072  27.031  1.00  0.00     0.000 C 
ENDROOT
BRANCH   1   2
ATOM      2  C   UNL     1       3.727   3.706  28.516  1.00  0.00     0.000 C 
BRANCH   2   3
ATOM      3  C   UNL     1       4.687   4.507  29.413  1.00  0.00     0.000 C 
BRANCH   3   4
ATOM      4  C   UNL     1       4.033   4.942  30.734  1.00  0.00    -0.000 C 
BRANCH   4   5
ATOM      5  C   UNL     1       2.611   4.381  30.905  1.00  0.00    -0.000 C 
BRANCH   5   6
ATOM      6  C   UNL     1       1.532   5.479  30.894  1.00  0.00    -0.000 C 
BRANCH   6   7
ATOM      7  C   UNL     1       0.556   5.416  29.703  1.00  0.00    -0.000 C 
BRANCH   7   8
ATOM      8  C   UNL     1       0.755   6.511  28.637  1.00  0.00    -0.000 C 
BRANCH   8   9
ATOM      9  C   UNL     1       2.053   7.333  28.779  1.00  0.00    -0.000 C 
BRANCH   9  10
ATOM     10  C   UNL     1       2.760   7.665  27.454  1.00  0.00    -0.000 C 
BRANCH  10  11
ATOM     11  C   UNL     1       4.291   7.613  27.566  1.00  0.00    -0.003 C 
ATOM     12  C   UNL     1       4.773   8.318  28.830  1.00  0.00     0.004 C 
ENDBRANCH  10  11
ENDBRANCH   9  10
ENDBRANCH   8   9
ENDBRANCH   7   8
ENDBRANCH   6   7
ENDBRANCH   5   6
ENDBRANCH   4   5
ENDBRANCH   3   4
ENDBRANCH   2   3
ENDBRANCH   1   2
BRANCH   1  13
ATOM     13  C   UNL     1       2.506   4.177  26.314  1.00  0.00     0.000 C 
BRANCH  13  14
ATOM     14  C   UNL     1       1.474   3.176  26.857  1.00  0.00     0.000 C 
BRANCH  14  15
ATOM     15  C   UNL     1       0.046   3.479  26.369  1.00  0.00     0.000 C 
BRANCH  15  16
ATOM     16  C   UNL     1      -0.032   4.779  25.554  1.00  0.00     0.000 C 
BRANCH  16  17
ATOM     17  C   UNL     1      -1.428   5.427  25.609  1.00  0.00     0.000 C 
BRANCH  17  18
ATOM     18  C   UNL     1      -2.212   5.037  26.872  1.00  0.00     0.000 C 
BRANCH  18  19
ATOM     19  C   UNL     1      -3.666   4.589  26.620  1.00  0.00     0.000 C 
BRANCH  19  20
ATOM     20  C   UNL     1      -4.547   5.672  25.959  1.00  0.00     0.006 C 
BRANCH  20  21
ATOM     21  C   UNL     1      -5.920   5.131  25.539  1.00  0.00     0.053 C 
BRANCH  21  22
ATOM     22  C   UNL     1      -5.771   4.095  24.470  1.00  0.00     0.041 C 
ATOM     23  O   UNL     1      -6.150   2.912  24.679  1.00  0.00    -0.550 OA
ATOM     24  O   UNL     1      -5.258   4.444  23.228  1.00  0.00    -0.550 OA
ENDBRANCH  21  22
ENDBRANCH  20  21
ENDBRANCH  19  20
ENDBRANCH  18  19
ENDBRANCH  17  18
ENDBRANCH  16  17
ENDBRANCH  15  16
ENDBRANCH  14  15
ENDBRANCH  13  14
ENDBRANCH   1  13
TORSDOF 20
ENDMDL
MODEL 5
REMARK VINA RESULT:    -4.490      1.842      4.131
REMARK INTER + INTRA:         -13.373
REMARK INTER:                 -10.098
REMARK INTRA:                  -3.275
REMARK UNBOUND:                -3.634
REMARK SMILES CCCCCCCCCCCCCCCCCCCCCC(=O)[O-]
REMARK SMILES IDX 12 1 11 2 10 3 9 4 8 5 7 6 6 7 5 8 4 9 3 10 2 11 1 12 13 13
REMARK SMILES IDX 14 14 15 15 16 16 17 17 18 18 19 19 20 20 21 21 22 22 23 23
REMARK SMILES IDX 24 24
REMARK H PARENT
REMARK Flexibility Score: inf
ROOT
ATOM      1  C   UNL     1       4.305   5.063  30.140  1.00  0.00     0.000 C 
ENDROOT
BRANCH   1   2
ATOM      2  C   UNL     1       5.676   5.408  30.742  1.00  0.00     0.000 C 
BRANCH   2   3
ATOM      3  C   UNL     1       6.054   6.886  30.540  1.00  0.00     0.000 C 
BRANCH   3   4
ATOM      4  C   UNL     1       4.821   7.793  30.393  1.00  0.00    -0.000 C 
BRANCH   4   5
ATOM      5  C   UNL     1       4.888   8.689  29.145  1.00  0.00    -0.000 C 
BRANCH   5   6
ATOM      6  C   UNL     1       3.595   8.645  28.311  1.00  0.00    -0.000 C 
BRANCH   6   7
ATOM      7  C   UNL     1       3.365   7.329  27.541  1.00  0.00    -0.000 C 
BRANCH   7   8
ATOM      8  C   UNL     1       4.580   6.821  26.739  1.00  0.00    -0.000 C 
BRANCH   8   9
ATOM      9  C   UNL     1       4.236   5.919  25.535  1.00  0.00    -0.000 C 
BRANCH   9  10
ATOM     10  C   UNL     1       3.055   4.959  25.759  1.00  0.00    -0.000 C 
BRANCH  10  11
ATOM     11  C   UNL     1       3.409   3.783  26.682  1.00  0.00    -0.003 C 
ATOM     12  C   UNL     1       2.214   3.379  27.540  1.00  0.00     0.004 C 
ENDBRANCH  10  11
ENDBRANCH   9  10
ENDBRANCH   8   9
ENDBRANCH   7   8
ENDBRANCH   6   7
ENDBRANCH   5   6
ENDBRANCH   4   5
ENDBRANCH   3   4
ENDBRANCH   2   3
ENDBRANCH   1   2
BRANCH   1  13
ATOM     13  C   UNL     1       3.353   4.415  31.162  1.00  0.00     0.000 C 
BRANCH  13  14
ATOM     14  C   UNL     1       1.899   4.880  30.992  1.00  0.00     0.000 C 
BRANCH  14  15
ATOM     15  C   UNL     1       1.461   5.862  32.093  1.00  0.00     0.000 C 
BRANCH  15  16
ATOM     16  C   UNL     1       0.432   6.887  31.590  1.00  0.00     0.000 C 
BRANCH  16  17
ATOM     17  C   UNL     1       0.902   7.621  30.320  1.00  0.00     0.000 C 
BRANCH  17  18
ATOM     18  C   UNL     1       0.083   7.236  29.077  1.00  0.00     0.000 C 
BRANCH  18  19
ATOM     19  C   UNL     1      -1.180   6.401  29.367  1.00  0.00     0.000 C 
BRANCH  19  20
ATOM     20  C   UNL     1      -1.140   4.979  28.766  1.00  0.00     0.006 C 
BRANCH  20  21
ATOM     21  C   UNL     1      -2.375   4.673  27.907  1.00  0.00     0.053 C 
BRANCH  21  22
ATOM     22  C   UNL     1      -2.015   4.663  26.455  1.00  0.00     0.041 C 
ATOM     23  O   UNL     1      -0.928   5.169  26.070  1.00  0.00    -0.550 OA
ATOM     24  O   UNL     1      -2.857   4.055  25.533  1.00  0.00    -0.550 OA
ENDBRANCH  21  22
ENDBRANCH  20  21
ENDBRANCH  19  20
ENDBRANCH  18  19
ENDBRANCH  17  18
ENDBRANCH  16  17
ENDBRANCH  15  16
ENDBRANCH  14  15
ENDBRANCH  13  14
ENDBRANCH   1  13
TORSDOF 20
ENDMDL
MODEL 6
REMARK VINA RESULT:    -4.490      3.683      8.867
REMARK INTER + INTRA:         -13.373
REMARK INTER:                  -9.735
REMARK INTRA:                  -3.637
REMARK UNBOUND:                -3.634
REMARK SMILES CCCCCCCCCCCCCCCCCCCCCC(=O)[O-]
REMARK SMILES IDX 12 1 11 2 10 3 9 4 8 5 7 6 6 7 5 8 4 9 3 10 2 11 1 12 13 13
REMARK SMILES IDX 14 14 15 15 16 16 17 17 18 18 19 19 20 20 21 21 22 22 23 23
REMARK SMILES IDX 24 24
REMARK H PARENT
REMARK Flexibility Score: inf
ROOT
ATOM      1  C   UNL     1      -2.913   6.820  19.970  1.00  0.00     0.000 C 
ENDROOT
BRANCH   1   2
ATOM      2  C   UNL     1      -3.988   6.011  19.227  1.00  0.00     0.000 C 
BRANCH   2   3
ATOM      3  C   UNL     1      -3.682   4.503  19.208  1.00  0.00     0.000 C 
BRANCH   3   4
ATOM      4  C   UNL     1      -4.332   3.757  20.385  1.00  0.00    -0.000 C 
BRANCH   4   5
ATOM      5  C   UNL     1      -5.789   4.187  20.627  1.00  0.00    -0.000 C 
BRANCH   5   6
ATOM      6  C   UNL     1      -6.051   4.608  22.084  1.00  0.00    -0.000 C 
BRANCH   6   7
ATOM      7  C   UNL     1      -6.528   3.472  23.011  1.00  0.00    -0.000 C 
BRANCH   7   8
ATOM      8  C   UNL     1      -5.464   2.939  23.991  1.00  0.00    -0.000 C 
BRANCH   8   9
ATOM      9  C   UNL     1      -4.317   3.921  24.307  1.00  0.00    -0.000 C 
BRANCH   9  10
ATOM     10  C   UNL     1      -4.551   4.822  25.531  1.00  0.00    -0.000 C 
BRANCH  10  11
ATOM     11  C   UNL     1      -4.735   6.300  25.158  1.00  0.00    -0.003 C 
ATOM     12  C   UNL     1      -3.760   7.186  25.928  1.00  0.00     0.004 C 
ENDBRANCH  10  11
ENDBRANCH   9  10
ENDBRANCH   8   9
ENDBRANCH   7   8
ENDBRANCH   6   7
ENDBRANCH   5   6
ENDBRANCH   4   5
ENDBRANCH   3   4
ENDBRANCH   2   3
ENDBRANCH   1   2
BRANCH   1  13
ATOM     13  C   UNL     1      -3.301   7.125  21.428  1.00  0.00     0.000 C 
BRANCH  13  14
ATOM     14  C   UNL     1      -2.224   6.682  22.431  1.00  0.00     0.000 C 
BRANCH  14  15
ATOM     15  C   UNL     1      -1.267   5.630  21.844  1.00  0.00     0.000 C 
BRANCH  15  16
ATOM     16  C   UNL     1      -0.961   4.497  22.836  1.00  0.00     0.000 C 
BRANCH  16  17
ATOM     17  C   UNL     1       0.503   4.510  23.313  1.00  0.00     0.000 C 
BRANCH  17  18
ATOM     18  C   UNL     1       0.630   4.773  24.823  1.00  0.00     0.000 C 
BRANCH  18  19
ATOM     19  C   UNL     1      -0.698   5.090  25.540  1.00  0.00     0.000 C 
BRANCH  19  20
ATOM     20  C   UNL     1      -1.065   4.080  26.648  1.00  0.00     0.006 C 
BRANCH  20  21
ATOM     21  C   UNL     1      -1.168   4.741  28.030  1.00  0.00     0.053 C 
BRANCH  21  22
ATOM     22  C   UNL     1       0.195   5.024  28.579  1.00  0.00     0.041 C 
ATOM     23  O   UNL     1       0.953   4.074  28.908  1.00  0.00    -0.550 OA
ATOM     24  O   UNL     1       0.645   6.333  28.684  1.00  0.00    -0.550 OA
ENDBRANCH  21  22
ENDBRANCH  20  21
ENDBRANCH  19  20
ENDBRANCH  18  19
ENDBRANCH  17  18
ENDBRANCH  16  17
ENDBRANCH  15  16
ENDBRANCH  14  15
ENDBRANCH  13  14
ENDBRANCH   1  13
TORSDOF 20
ENDMDL
MODEL 7
REMARK VINA RESULT:    -4.476      1.383      3.805
REMARK INTER + INTRA:         -13.344
REMARK INTER:                  -9.155
REMARK INTRA:                  -4.189
REMARK UNBOUND:                -3.634
REMARK SMILES CCCCCCCCCCCCCCCCCCCCCC(=O)[O-]
REMARK SMILES IDX 12 1 11 2 10 3 9 4 8 5 7 6 6 7 5 8 4 9 3 10 2 11 1 12 13 13
REMARK SMILES IDX 14 14 15 15 16 16 17 17 18 18 19 19 20 20 21 21 22 22 23 23
REMARK SMILES IDX 24 24
REMARK H PARENT
REMARK Flexibility Score: inf
ROOT
ATOM      1  C   UNL     1       0.194   4.265  27.784  1.00  0.00     0.000 C 
ENDROOT
BRANCH   1   2
ATOM      2  C   UNL     1      -1.211   4.511  28.354  1.00  0.00     0.000 C 
BRANCH   2   3
ATOM      3  C   UNL     1      -1.363   5.916  28.964  1.00  0.00     0.000 C 
BRANCH   3   4
ATOM      4  C   UNL     1      -0.266   6.884  28.490  1.00  0.00    -0.000 C 
BRANCH   4   5
ATOM      5  C   UNL     1       0.318   7.726  29.637  1.00  0.00    -0.000 C 
BRANCH   5   6
ATOM      6  C   UNL     1       0.138   7.063  31.013  1.00  0.00    -0.000 C 
BRANCH   6   7
ATOM      7  C   UNL     1       1.439   6.538  31.653  1.00  0.00    -0.000 C 
BRANCH   7   8
ATOM      8  C   UNL     1       1.598   5.005  31.647  1.00  0.00    -0.000 C 
BRANCH   8   9
ATOM      9  C   UNL     1       2.471   4.444  30.506  1.00  0.00    -0.000 C 
BRANCH   9  10
ATOM     10  C   UNL     1       3.485   5.439  29.915  1.00  0.00    -0.000 C 
BRANCH  10  11
ATOM     11  C   UNL     1       3.471   5.462  28.379  1.00  0.00    -0.003 C 
ATOM     12  C   UNL     1       3.560   6.891  27.851  1.00  0.00     0.004 C 
ENDBRANCH  10  11
ENDBRANCH   9  10
ENDBRANCH   8   9
ENDBRANCH   7   8
ENDBRANCH   6   7
ENDBRANCH   5   6
ENDBRANCH   4   5
ENDBRANCH   3   4
ENDBRANCH   2   3
ENDBRANCH   1   2
BRANCH   1  13
ATOM     13  C   UNL     1       0.171   3.829  26.308  1.00  0.00     0.000 C 
BRANCH  13  14
ATOM     14  C   UNL     1       1.233   4.548  25.462  1.00  0.00     0.000 C 
BRANCH  14  15
ATOM     15  C   UNL     1       0.722   5.875  24.875  1.00  0.00     0.000 C 
BRANCH  15  16
ATOM     16  C   UNL     1      -0.380   5.666  23.825  1.00  0.00     0.000 C 
BRANCH  16  17
ATOM     17  C   UNL     1      -1.566   6.630  24.013  1.00  0.00     0.000 C 
BRANCH  17  18
ATOM     18  C   UNL     1      -2.337   6.372  25.318  1.00  0.00     0.000 C 
BRANCH  18  19
ATOM     19  C   UNL     1      -3.641   5.568  25.152  1.00  0.00     0.000 C 
BRANCH  19  20
ATOM     20  C   UNL     1      -3.531   4.098  25.614  1.00  0.00     0.006 C 
BRANCH  20  21
ATOM     21  C   UNL     1      -3.060   3.166  24.489  1.00  0.00     0.053 C 
BRANCH  21  22
ATOM     22  C   UNL     1      -4.121   3.026  23.444  1.00  0.00     0.041 C 
ATOM     23  O   UNL     1      -3.862   3.293  22.241  1.00  0.00    -0.550 OA
ATOM     24  O   UNL     1      -5.381   2.558  23.789  1.00  0.00    -0.550 OA
ENDBRANCH  21  22
ENDBRANCH  20  21
ENDBRANCH  19  20
ENDBRANCH  18  19
ENDBRANCH  17  18
ENDBRANCH  16  17
ENDBRANCH  15  16
ENDBRANCH  14  15
ENDBRANCH  13  14
ENDBRANCH   1  13
TORSDOF 20
ENDMDL
MODEL 8
REMARK VINA RESULT:    -4.453      1.841      4.220
REMARK INTER + INTRA:         -13.294
REMARK INTER:                  -9.217
REMARK INTRA:                  -4.077
REMARK UNBOUND:                -3.634
REMARK SMILES CCCCCCCCCCCCCCCCCCCCCC(=O)[O-]
REMARK SMILES IDX 12 1 11 2 10 3 9 4 8 5 7 6 6 7 5 8 4 9 3 10 2 11 1 12 13 13
REMARK SMILES IDX 14 14 15 15 16 16 17 17 18 18 19 19 20 20 21 21 22 22 23 23
REMARK SMILES IDX 24 24
REMARK H PARENT
REMARK Flexibility Score: inf
ROOT
ATOM      1  C   UNL     1       3.496   4.125  28.976  1.00  0.00     0.000 C 
ENDROOT
BRANCH   1   2
ATOM      2  C   UNL     1       1.987   3.863  28.853  1.00  0.00     0.000 C 
BRANCH   2   3
ATOM      3  C   UNL     1       1.179   4.533  29.978  1.00  0.00     0.000 C 
BRANCH   3   4
ATOM      4  C   UNL     1       1.995   4.698  31.270  1.00  0.00    -0.000 C 
BRANCH   4   5
ATOM      5  C   UNL     1       1.683   6.013  32.005  1.00  0.00    -0.000 C 
BRANCH   5   6
ATOM      6  C   UNL     1       0.580   6.834  31.314  1.00  0.00    -0.000 C 
BRANCH   6   7
ATOM      7  C   UNL     1       0.995   8.262  30.908  1.00  0.00    -0.000 C 
BRANCH   7   8
ATOM      8  C   UNL     1       2.474   8.425  30.508  1.00  0.00    -0.000 C 
BRANCH   8   9
ATOM      9  C   UNL     1       2.808   8.008  29.061  1.00  0.00    -0.000 C 
BRANCH   9  10
ATOM     10  C   UNL     1       4.241   7.490  28.848  1.00  0.00    -0.000 C 
BRANCH  10  11
ATOM     11  C   UNL     1       5.160   7.770  30.047  1.00  0.00    -0.003 C 
ATOM     12  C   UNL     1       5.754   6.477  30.597  1.00  0.00     0.004 C 
ENDBRANCH  10  11
ENDBRANCH   9  10
ENDBRANCH   8   9
ENDBRANCH   7   8
ENDBRANCH   6   7
ENDBRANCH   5   6
ENDBRANCH   4   5
ENDBRANCH   3   4
ENDBRANCH   2   3
ENDBRANCH   1   2
BRANCH   1  13
ATOM     13  C   UNL     1       4.248   3.912  27.650  1.00  0.00     0.000 C 
BRANCH  13  14
ATOM     14  C   UNL     1       3.330   4.044  26.424  1.00  0.00     0.000 C 
BRANCH  14  15
ATOM     15  C   UNL     1       3.668   5.274  25.563  1.00  0.00     0.000 C 
BRANCH  15  16
ATOM     16  C   UNL     1       2.601   6.374  25.669  1.00  0.00     0.000 C 
BRANCH  16  17
ATOM     17  C   UNL     1       1.176   5.805  25.804  1.00  0.00     0.000 C 
BRANCH  17  18
ATOM     18  C   UNL     1       0.154   6.866  26.241  1.00  0.00     0.000 C 
BRANCH  18  19
ATOM     19  C   UNL     1      -0.286   6.774  27.716  1.00  0.00     0.000 C 
BRANCH  19  20
ATOM     20  C   UNL     1      -1.721   6.238  27.907  1.00  0.00     0.006 C 
BRANCH  20  21
ATOM     21  C   UNL     1      -1.856   4.768  27.488  1.00  0.00     0.053 C 
BRANCH  21  22
ATOM     22  C   UNL     1      -2.755   4.641  26.299  1.00  0.00     0.041 C 
ATOM     23  O   UNL     1      -3.680   5.475  26.114  1.00  0.00    -0.550 OA
ATOM     24  O   UNL     1      -2.543   3.631  25.370  1.00  0.00    -0.550 OA
ENDBRANCH  21  22
ENDBRANCH  20  21
ENDBRANCH  19  20
ENDBRANCH  18  19
ENDBRANCH  17  18
ENDBRANCH  16  17
ENDBRANCH  15  16
ENDBRANCH  14  15
ENDBRANCH  13  14
ENDBRANCH   1  13
TORSDOF 20
ENDMDL
MODEL 9
REMARK VINA RESULT:    -4.417      3.615      6.926
REMARK INTER + INTRA:         -13.216
REMARK INTER:                  -9.276
REMARK INTRA:                  -3.940
REMARK UNBOUND:                -3.634
REMARK SMILES CCCCCCCCCCCCCCCCCCCCCC(=O)[O-]
REMARK SMILES IDX 12 1 11 2 10 3 9 4 8 5 7 6 6 7 5 8 4 9 3 10 2 11 1 12 13 13
REMARK SMILES IDX 14 14 15 15 16 16 17 17 18 18 19 19 20 20 21 21 22 22 23 23
REMARK SMILES IDX 24 24
REMARK H PARENT
REMARK Flexibility Score: inf
ROOT
ATOM      1  C   UNL     1      -0.217   6.027  28.914  1.00  0.00     0.000 C 
ENDROOT
BRANCH   1   2
ATOM      2  C   UNL     1      -1.730   5.910  28.671  1.00  0.00     0.000 C 
BRANCH   2   3
ATOM      3  C   UNL     1      -2.139   4.518  28.159  1.00  0.00     0.000 C 
BRANCH   3   4
ATOM      4  C   UNL     1      -2.449   4.513  26.653  1.00  0.00    -0.000 C 
BRANCH   4   5
ATOM      5  C   UNL     1      -2.856   5.900  26.127  1.00  0.00    -0.000 C 
BRANCH   5   6
ATOM      6  C   UNL     1      -4.310   5.944  25.627  1.00  0.00    -0.000 C 
BRANCH   6   7
ATOM      7  C   UNL     1      -4.993   4.568  25.498  1.00  0.00    -0.000 C 
BRANCH   7   8
ATOM      8  C   UNL     1      -5.198   4.073  24.053  1.00  0.00    -0.000 C 
BRANCH   8   9
ATOM      9  C   UNL     1      -3.986   3.348  23.432  1.00  0.00    -0.000 C 
BRANCH   9  10
ATOM     10  C   UNL     1      -3.083   4.229  22.552  1.00  0.00    -0.000 C 
BRANCH  10  11
ATOM     11  C   UNL     1      -1.610   4.192  22.984  1.00  0.00    -0.003 C 
ATOM     12  C   UNL     1      -0.824   5.339  22.354  1.00  0.00     0.004 C 
ENDBRANCH  10  11
ENDBRANCH   9  10
ENDBRANCH   8   9
ENDBRANCH   7   8
ENDBRANCH   6   7
ENDBRANCH   5   6
ENDBRANCH   4   5
ENDBRANCH   3   4
ENDBRANCH   2   3
ENDBRANCH   1   2
BRANCH   1  13
ATOM     13  C   UNL     1       0.342   7.411  28.537  1.00  0.00     0.000 C 
BRANCH  13  14
ATOM     14  C   UNL     1       1.379   7.341  27.406  1.00  0.00     0.000 C 
BRANCH  14  15
ATOM     15  C   UNL     1       0.840   6.629  26.153  1.00  0.00     0.000 C 
BRANCH  15  16
ATOM     16  C   UNL     1       1.728   5.454  25.717  1.00  0.00     0.000 C 
BRANCH  16  17
ATOM     17  C   UNL     1       0.944   4.135  25.593  1.00  0.00     0.000 C 
BRANCH  17  18
ATOM     18  C   UNL     1       1.146   3.210  26.805  1.00  0.00     0.000 C 
BRANCH  18  19
ATOM     19  C   UNL     1       2.483   3.400  27.549  1.00  0.00     0.000 C 
BRANCH  19  20
ATOM     20  C   UNL     1       2.320   3.759  29.042  1.00  0.00     0.006 C 
BRANCH  20  21
ATOM     21  C   UNL     1       3.387   4.752  29.524  1.00  0.00     0.053 C 
BRANCH  21  22
ATOM     22  C   UNL     1       2.878   5.546  30.685  1.00  0.00     0.041 C 
ATOM     23  O   UNL     1       3.207   6.754  30.817  1.00  0.00    -0.550 OA
ATOM     24  O   UNL     1       2.005   4.966  31.596  1.00  0.00    -0.550 OA
ENDBRANCH  21  22
ENDBRANCH  20  21
ENDBRANCH  19  20
ENDBRANCH  18  19
ENDBRANCH  17  18
ENDBRANCH  16  17
ENDBRANCH  15  16
ENDBRANCH  14  15
ENDBRANCH  13  14
ENDBRANCH   1  13
TORSDOF 20
ENDMDL
