MODEL 1
REMARK VINA RESULT:    -7.267      0.000      0.000
REMARK INTER + INTRA:         -11.522
REMARK INTER:                  -9.816
REMARK INTRA:                  -1.706
REMARK UNBOUND:                -1.706
REMARK SMILES CC[C@@H](CC[C@H](C)[C@@H]1CC[C@@H]2[C@@H]3CC(=O)C4=CC(=O)CC[C@@]4(C)[C@@H]3CC[C@]21C)C(C)C
REMARK SMILES IDX 4 1 3 2 2 3 1 4 29 5 30 6 31 7 5 8 6 9 7 10 8 11 9 12 27 13
REMARK SMILES IDX 10 14 11 15 26 16 28 17 12 18 25 19 24 20 13 21 22 22 14 23
REMARK SMILES IDX 16 24 21 25 23 26 15 27 17 28 20 29 18 30 19 31
REMARK H PARENT
REMARK Flexibility Score: inf
ROOT
ATOM      1  C   UNL     1      13.605 -31.333  23.882  1.00  0.00     0.004 C 
ENDROOT
BRANCH   1   2
ATOM      2  C   UNL     1      13.213 -30.319  22.767  1.00  0.00    -0.009 C 
BRANCH   2   3
ATOM      3  C   UNL     1      14.196 -29.114  22.769  1.00  0.00     0.000 C 
ATOM      4  C   UNL     1      15.145 -29.087  21.569  1.00  0.00     0.004 C 
ENDBRANCH   2   3
BRANCH   2   5
ATOM      5  C   UNL     1      11.713 -29.878  22.863  1.00  0.00    -0.014 C 
ATOM      6  C   UNL     1      11.565 -28.373  23.147  1.00  0.00     0.007 C 
ATOM      7  C   UNL     1      10.876 -30.270  21.634  1.00  0.00     0.007 C 
ENDBRANCH   2   5
ENDBRANCH   1   2
BRANCH   1   8
ATOM      8  C   UNL     1      13.927 -32.740  23.333  1.00  0.00     0.004 C 
BRANCH   8   9
ATOM      9  C   UNL     1      15.029 -32.725  22.230  1.00  0.00    -0.011 C 
ATOM     10  C   UNL     1      14.463 -33.351  20.939  1.00  0.00     0.008 C 
BRANCH   9  11
ATOM     11  C   UNL     1      16.318 -33.479  22.720  1.00  0.00    -0.002 C 
ATOM     12  C   UNL     1      16.128 -34.132  24.121  1.00  0.00     0.005 C 
ATOM     13  C   UNL     1      17.653 -32.675  22.868  1.00  0.00    -0.026 C 
ATOM     14  C   UNL     1      17.486 -34.104  24.835  1.00  0.00     0.005 C 
ATOM     15  C   UNL     1      18.447 -33.650  23.752  1.00  0.00    -0.001 C 
ATOM     16  C   UNL     1      18.472 -32.499  21.562  1.00  0.00     0.007 C 
ATOM     17  C   UNL     1      17.380 -31.300  23.551  1.00  0.00     0.012 C 
ATOM     18  C   UNL     1      19.902 -33.272  24.123  1.00  0.00     0.004 C 
ATOM     19  C   UNL     1      19.902 -31.987  21.846  1.00  0.00     0.005 C 
ATOM     20  C   UNL     1      20.715 -32.868  22.849  1.00  0.00     0.003 C 
ATOM     21  C   UNL     1      20.116 -32.296  25.291  1.00  0.00     0.085 C 
ATOM     22  C   UNL     1      22.187 -32.316  23.162  1.00  0.00    -0.000 C 
ATOM     23  C   UNL     1      21.560 -32.348  25.679  1.00  0.00     0.159 C 
ATOM     24  C   UNL     1      22.586 -32.558  24.627  1.00  0.00     0.005 C 
ATOM     25  C   UNL     1      23.188 -33.044  22.211  1.00  0.00     0.020 C 
ATOM     26  C   UNL     1      22.304 -30.782  22.941  1.00  0.00     0.017 C 
ATOM     27  O   UNL     1      21.887 -32.191  26.888  1.00  0.00    -0.295 OA
ATOM     28  C   UNL     1      23.861 -32.816  24.979  1.00  0.00     0.055 C 
ATOM     29  C   UNL     1      24.657 -32.743  22.526  1.00  0.00     0.081 C 
ATOM     30  C   UNL     1      24.934 -32.946  23.982  1.00  0.00     0.156 C 
ATOM     31  O   UNL     1      26.111 -33.186  24.364  1.00  0.00    -0.295 OA
ENDBRANCH   9  11
ENDBRANCH   8   9
ENDBRANCH   1   8
TORSDOF 6
ENDMDL
MODEL 2
REMARK VINA RESULT:    -7.128      1.208      1.684
REMARK INTER + INTRA:         -11.334
REMARK INTER:                  -9.740
REMARK INTRA:                  -1.594
REMARK UNBOUND:                -1.706
REMARK SMILES CC[C@@H](CC[C@H](C)[C@@H]1CC[C@@H]2[C@@H]3CC(=O)C4=CC(=O)CC[C@@]4(C)[C@@H]3CC[C@]21C)C(C)C
REMARK SMILES IDX 4 1 3 2 2 3 1 4 29 5 30 6 31 7 5 8 6 9 7 10 8 11 9 12 27 13
REMARK SMILES IDX 10 14 11 15 26 16 28 17 12 18 25 19 24 20 13 21 22 22 14 23
REMARK SMILES IDX 16 24 21 25 23 26 15 27 17 28 20 29 18 30 19 31
REMARK H PARENT
REMARK Flexibility Score: inf
ROOT
ATOM      1  C   UNL     1      13.289 -31.864  23.406  1.00  0.00     0.004 C 
ENDROOT
BRANCH   1   2
ATOM      2  C   UNL     1      13.805 -30.395  23.391  1.00  0.00    -0.009 C 
BRANCH   2   3
ATOM      3  C   UNL     1      12.858 -29.485  24.222  1.00  0.00     0.000 C 
ATOM      4  C   UNL     1      12.039 -28.506  23.376  1.00  0.00     0.004 C 
ENDBRANCH   2   3
BRANCH   2   5
ATOM      5  C   UNL     1      14.039 -29.860  21.937  1.00  0.00    -0.014 C 
ATOM      6  C   UNL     1      15.510 -29.486  21.683  1.00  0.00     0.007 C 
ATOM      7  C   UNL     1      13.538 -30.816  20.841  1.00  0.00     0.007 C 
ENDBRANCH   2   5
ENDBRANCH   1   2
BRANCH   1   8
ATOM      8  C   UNL     1      14.372 -32.881  23.829  1.00  0.00     0.004 C 
BRANCH   8   9
ATOM      9  C   UNL     1      15.463 -33.099  22.737  1.00  0.00    -0.011 C 
ATOM     10  C   UNL     1      14.926 -34.079  21.673  1.00  0.00     0.008 C 
BRANCH   9  11
ATOM     11  C   UNL     1      16.798 -33.619  23.379  1.00  0.00    -0.002 C 
ATOM     12  C   UNL     1      16.581 -34.217  24.801  1.00  0.00     0.005 C 
ATOM     13  C   UNL     1      17.981 -32.613  23.582  1.00  0.00    -0.026 C 
ATOM     14  C   UNL     1      17.849 -33.943  25.620  1.00  0.00     0.005 C 
ATOM     15  C   UNL     1      18.827 -33.407  24.591  1.00  0.00    -0.001 C 
ATOM     16  C   UNL     1      18.880 -32.385  22.339  1.00  0.00     0.007 C 
ATOM     17  C   UNL     1      17.447 -31.262  24.147  1.00  0.00     0.012 C 
ATOM     18  C   UNL     1      20.170 -32.791  25.054  1.00  0.00     0.004 C 
ATOM     19  C   UNL     1      20.187 -31.645  22.703  1.00  0.00     0.005 C 
ATOM     20  C   UNL     1      21.027 -32.336  23.826  1.00  0.00     0.003 C 
ATOM     21  C   UNL     1      20.131 -31.732  26.168  1.00  0.00     0.085 C 
ATOM     22  C   UNL     1      22.367 -31.549  24.221  1.00  0.00    -0.000 C 
ATOM     23  C   UNL     1      21.525 -31.541  26.675  1.00  0.00     0.159 C 
ATOM     24  C   UNL     1      22.662 -31.649  25.727  1.00  0.00     0.005 C 
ATOM     25  C   UNL     1      23.546 -32.166  23.406  1.00  0.00     0.020 C 
ATOM     26  C   UNL     1      22.276 -30.030  23.908  1.00  0.00     0.017 C 
ATOM     27  O   UNL     1      21.714 -31.272  27.893  1.00  0.00    -0.295 OA
ATOM     28  C   UNL     1      23.924 -31.690  26.198  1.00  0.00     0.055 C 
ATOM     29  C   UNL     1      24.920 -31.627  23.818  1.00  0.00     0.081 C 
ATOM     30  C   UNL     1      25.090 -31.707  25.303  1.00  0.00     0.156 C 
ATOM     31  O   UNL     1      26.250 -31.743  25.795  1.00  0.00    -0.295 OA
ENDBRANCH   9  11
ENDBRANCH   8   9
ENDBRANCH   1   8
TORSDOF 6
ENDMDL
MODEL 3
REMARK VINA RESULT:    -6.906      1.912      2.805
REMARK INTER + INTRA:         -11.034
REMARK INTER:                  -9.216
REMARK INTRA:                  -1.818
REMARK UNBOUND:                -1.706
REMARK SMILES CC[C@@H](CC[C@H](C)[C@@H]1CC[C@@H]2[C@@H]3CC(=O)C4=CC(=O)CC[C@@]4(C)[C@@H]3CC[C@]21C)C(C)C
REMARK SMILES IDX 4 1 3 2 2 3 1 4 29 5 30 6 31 7 5 8 6 9 7 10 8 11 9 12 27 13
REMARK SMILES IDX 10 14 11 15 26 16 28 17 12 18 25 19 24 20 13 21 22 22 14 23
REMARK SMILES IDX 16 24 21 25 23 26 15 27 17 28 20 29 18 30 19 31
REMARK H PARENT
REMARK Flexibility Score: inf
ROOT
ATOM      1  C   UNL     1      14.662 -33.798  20.726  1.00  0.00     0.004 C 
ENDROOT
BRANCH   1   2
ATOM      2  C   UNL     1      14.776 -32.708  21.832  1.00  0.00    -0.009 C 
BRANCH   2   3
ATOM      3  C   UNL     1      14.598 -33.348  23.237  1.00  0.00     0.000 C 
ATOM      4  C   UNL     1      13.813 -32.476  24.221  1.00  0.00     0.004 C 
ENDBRANCH   2   3
BRANCH   2   5
ATOM      5  C   UNL     1      13.801 -31.507  21.586  1.00  0.00    -0.014 C 
ATOM      6  C   UNL     1      14.553 -30.186  21.342  1.00  0.00     0.007 C 
ATOM      7  C   UNL     1      12.788 -31.756  20.455  1.00  0.00     0.007 C 
ENDBRANCH   2   5
ENDBRANCH   1   2
BRANCH   1   8
ATOM      8  C   UNL     1      15.960 -34.617  20.549  1.00  0.00     0.004 C 
BRANCH   8   9
ATOM      9  C   UNL     1      17.193 -33.732  20.193  1.00  0.00    -0.011 C 
ATOM     10  C   UNL     1      17.668 -34.074  18.765  1.00  0.00     0.008 C 
BRANCH   9  11
ATOM     11  C   UNL     1      18.343 -33.929  21.246  1.00  0.00    -0.002 C 
ATOM     12  C   UNL     1      17.862 -34.693  22.515  1.00  0.00     0.005 C 
ATOM     13  C   UNL     1      19.058 -32.663  21.829  1.00  0.00    -0.026 C 
ATOM     14  C   UNL     1      18.666 -34.163  23.709  1.00  0.00     0.005 C 
ATOM     15  C   UNL     1      19.725 -33.289  23.064  1.00  0.00    -0.001 C 
ATOM     16  C   UNL     1      20.202 -32.085  20.956  1.00  0.00     0.007 C 
ATOM     17  C   UNL     1      18.008 -31.566  22.180  1.00  0.00     0.012 C 
ATOM     18  C   UNL     1      20.613 -32.378  23.947  1.00  0.00     0.004 C 
ATOM     19  C   UNL     1      21.053 -31.057  21.734  1.00  0.00     0.005 C 
ATOM     20  C   UNL     1      21.650 -31.596  23.075  1.00  0.00     0.003 C 
ATOM     21  C   UNL     1      19.918 -31.479  24.981  1.00  0.00     0.085 C 
ATOM     22  C   UNL     1      22.508 -30.516  23.892  1.00  0.00    -0.000 C 
ATOM     23  C   UNL     1      20.960 -30.965  25.925  1.00  0.00     0.159 C 
ATOM     24  C   UNL     1      22.321 -30.672  25.411  1.00  0.00     0.005 C 
ATOM     25  C   UNL     1      24.011 -30.711  23.519  1.00  0.00     0.020 C 
ATOM     26  C   UNL     1      22.091 -29.056  23.563  1.00  0.00     0.017 C 
ATOM     27  O   UNL     1      20.663 -30.769  27.135  1.00  0.00    -0.295 OA
ATOM     28  C   UNL     1      23.320 -30.413  26.276  1.00  0.00     0.055 C 
ATOM     29  C   UNL     1      24.965 -29.862  24.365  1.00  0.00     0.081 C 
ATOM     30  C   UNL     1      24.666 -30.030  25.821  1.00  0.00     0.156 C 
ATOM     31  O   UNL     1      25.565 -29.797  26.673  1.00  0.00    -0.295 OA
ENDBRANCH   9  11
ENDBRANCH   8   9
ENDBRANCH   1   8
TORSDOF 6
ENDMDL
MODEL 4
REMARK VINA RESULT:    -6.885      2.118      2.836
REMARK INTER + INTRA:         -11.006
REMARK INTER:                  -9.932
REMARK INTRA:                  -1.074
REMARK UNBOUND:                -1.706
REMARK SMILES CC[C@@H](CC[C@H](C)[C@@H]1CC[C@@H]2[C@@H]3CC(=O)C4=CC(=O)CC[C@@]4(C)[C@@H]3CC[C@]21C)C(C)C
REMARK SMILES IDX 4 1 3 2 2 3 1 4 29 5 30 6 31 7 5 8 6 9 7 10 8 11 9 12 27 13
REMARK SMILES IDX 10 14 11 15 26 16 28 17 12 18 25 19 24 20 13 21 22 22 14 23
REMARK SMILES IDX 16 24 21 25 23 26 15 27 17 28 20 29 18 30 19 31
REMARK H PARENT
REMARK Flexibility Score: inf
ROOT
ATOM      1  C   UNL     1      14.521 -30.037  22.553  1.00  0.00     0.004 C 
ENDROOT
BRANCH   1   2
ATOM      2  C   UNL     1      13.115 -30.338  23.150  1.00  0.00    -0.009 C 
BRANCH   2   3
ATOM      3  C   UNL     1      12.207 -31.002  22.077  1.00  0.00     0.000 C 
ATOM      4  C   UNL     1      12.947 -31.390  20.794  1.00  0.00     0.004 C 
ENDBRANCH   2   3
BRANCH   2   5
ATOM      5  C   UNL     1      12.460 -29.072  23.799  1.00  0.00    -0.014 C 
ATOM      6  C   UNL     1      13.432 -27.880  23.862  1.00  0.00     0.007 C 
ATOM      7  C   UNL     1      11.143 -28.647  23.128  1.00  0.00     0.007 C 
ENDBRANCH   2   5
ENDBRANCH   1   2
BRANCH   1   8
ATOM      8  C   UNL     1      15.626 -30.962  23.111  1.00  0.00     0.004 C 
BRANCH   8   9
ATOM      9  C   UNL     1      17.060 -30.519  22.688  1.00  0.00    -0.011 C 
ATOM     10  C   UNL     1      16.954 -29.386  21.646  1.00  0.00     0.008 C 
BRANCH   9  11
ATOM     11  C   UNL     1      17.878 -31.740  22.133  1.00  0.00    -0.002 C 
ATOM     12  C   UNL     1      17.084 -33.076  22.217  1.00  0.00     0.005 C 
ATOM     13  C   UNL     1      19.255 -32.090  22.794  1.00  0.00    -0.026 C 
ATOM     14  C   UNL     1      18.096 -34.206  22.450  1.00  0.00     0.005 C 
ATOM     15  C   UNL     1      19.438 -33.522  22.268  1.00  0.00    -0.001 C 
ATOM     16  C   UNL     1      20.467 -31.273  22.277  1.00  0.00     0.007 C 
ATOM     17  C   UNL     1      19.142 -32.008  24.347  1.00  0.00     0.012 C 
ATOM     18  C   UNL     1      20.740 -34.271  22.645  1.00  0.00     0.004 C 
ATOM     19  C   UNL     1      21.810 -31.887  22.734  1.00  0.00     0.005 C 
ATOM     20  C   UNL     1      21.997 -33.390  22.344  1.00  0.00     0.003 C 
ATOM     21  C   UNL     1      20.810 -34.944  24.025  1.00  0.00     0.085 C 
ATOM     22  C   UNL     1      23.378 -34.030  22.846  1.00  0.00    -0.000 C 
ATOM     23  C   UNL     1      21.986 -35.870  24.030  1.00  0.00     0.159 C 
ATOM     24  C   UNL     1      23.205 -35.497  23.269  1.00  0.00     0.005 C 
ATOM     25  C   UNL     1      24.408 -33.932  21.677  1.00  0.00     0.020 C 
ATOM     26  C   UNL     1      23.954 -33.297  24.089  1.00  0.00     0.017 C 
ATOM     27  O   UNL     1      21.933 -36.941  24.695  1.00  0.00    -0.295 OA
ATOM     28  C   UNL     1      24.184 -36.405  23.091  1.00  0.00     0.055 C 
ATOM     29  C   UNL     1      25.721 -34.670  21.958  1.00  0.00     0.081 C 
ATOM     30  C   UNL     1      25.449 -36.066  22.423  1.00  0.00     0.156 C 
ATOM     31  O   UNL     1      26.335 -36.952  22.283  1.00  0.00    -0.295 OA
ENDBRANCH   9  11
ENDBRANCH   8   9
ENDBRANCH   1   8
TORSDOF 6
ENDMDL
MODEL 5
REMARK VINA RESULT:    -6.842      1.544      2.644
REMARK INTER + INTRA:         -10.947
REMARK INTER:                 -10.238
REMARK INTRA:                  -0.709
REMARK UNBOUND:                -1.706
REMARK SMILES CC[C@@H](CC[C@H](C)[C@@H]1CC[C@@H]2[C@@H]3CC(=O)C4=CC(=O)CC[C@@]4(C)[C@@H]3CC[C@]21C)C(C)C
REMARK SMILES IDX 4 1 3 2 2 3 1 4 29 5 30 6 31 7 5 8 6 9 7 10 8 11 9 12 27 13
REMARK SMILES IDX 10 14 11 15 26 16 28 17 12 18 25 19 24 20 13 21 22 22 14 23
REMARK SMILES IDX 16 24 21 25 23 26 15 27 17 28 20 29 18 30 19 31
REMARK H PARENT
REMARK Flexibility Score: inf
ROOT
ATOM      1  C   UNL     1      13.293 -31.494  23.171  1.00  0.00     0.004 C 
ENDROOT
BRANCH   1   2
ATOM      2  C   UNL     1      13.406 -29.974  22.854  1.00  0.00    -0.009 C 
BRANCH   2   3
ATOM      3  C   UNL     1      14.888 -29.514  22.951  1.00  0.00     0.000 C 
ATOM      4  C   UNL     1      15.504 -29.119  21.606  1.00  0.00     0.004 C 
ENDBRANCH   2   3
BRANCH   2   5
ATOM      5  C   UNL     1      12.444 -29.108  23.735  1.00  0.00    -0.014 C 
ATOM      6  C   UNL     1      13.106 -27.803  24.212  1.00  0.00     0.007 C 
ATOM      7  C   UNL     1      11.097 -28.803  23.059  1.00  0.00     0.007 C 
ENDBRANCH   2   5
ENDBRANCH   1   2
BRANCH   1   8
ATOM      8  C   UNL     1      13.826 -32.391  22.032  1.00  0.00     0.004 C 
BRANCH   8   9
ATOM      9  C   UNL     1      15.067 -33.236  22.453  1.00  0.00    -0.011 C 
ATOM     10  C   UNL     1      14.996 -33.522  23.967  1.00  0.00     0.008 C 
BRANCH   9  11
ATOM     11  C   UNL     1      16.399 -32.499  22.067  1.00  0.00    -0.002 C 
ATOM     12  C   UNL     1      16.908 -32.894  20.649  1.00  0.00     0.005 C 
ATOM     13  C   UNL     1      17.661 -32.693  22.975  1.00  0.00    -0.026 C 
ATOM     14  C   UNL     1      18.440 -32.834  20.671  1.00  0.00     0.005 C 
ATOM     15  C   UNL     1      18.752 -32.198  22.012  1.00  0.00    -0.001 C 
ATOM     16  C   UNL     1      17.727 -31.776  24.224  1.00  0.00     0.007 C 
ATOM     17  C   UNL     1      17.814 -34.194  23.369  1.00  0.00     0.012 C 
ATOM     18  C   UNL     1      20.212 -32.164  22.528  1.00  0.00     0.004 C 
ATOM     19  C   UNL     1      19.127 -31.799  24.879  1.00  0.00     0.005 C 
ATOM     20  C   UNL     1      20.298 -31.435  23.909  1.00  0.00     0.003 C 
ATOM     21  C   UNL     1      21.014 -33.475  22.504  1.00  0.00     0.085 C 
ATOM     22  C   UNL     1      21.751 -31.490  24.586  1.00  0.00    -0.000 C 
ATOM     23  C   UNL     1      22.457 -33.139  22.713  1.00  0.00     0.159 C 
ATOM     24  C   UNL     1      22.816 -32.010  23.607  1.00  0.00     0.005 C 
ATOM     25  C   UNL     1      22.119 -30.047  25.055  1.00  0.00     0.020 C 
ATOM     26  C   UNL     1      21.799 -32.447  25.810  1.00  0.00     0.017 C 
ATOM     27  O   UNL     1      23.347 -33.831  22.146  1.00  0.00    -0.295 OA
ATOM     28  C   UNL     1      24.086 -31.563  23.641  1.00  0.00     0.055 C 
ATOM     29  C   UNL     1      23.560 -29.919  25.560  1.00  0.00     0.081 C 
ATOM     30  C   UNL     1      24.516 -30.507  24.571  1.00  0.00     0.156 C 
ATOM     31  O   UNL     1      25.717 -30.126  24.565  1.00  0.00    -0.295 OA
ENDBRANCH   9  11
ENDBRANCH   8   9
ENDBRANCH   1   8
TORSDOF 6
ENDMDL
MODEL 6
REMARK VINA RESULT:    -6.812      3.781      7.135
REMARK INTER + INTRA:         -10.907
REMARK INTER:                  -9.750
REMARK INTRA:                  -1.157
REMARK UNBOUND:                -1.706
REMARK SMILES CC[C@@H](CC[C@H](C)[C@@H]1CC[C@@H]2[C@@H]3CC(=O)C4=CC(=O)CC[C@@]4(C)[C@@H]3CC[C@]21C)C(C)C
REMARK SMILES IDX 4 1 3 2 2 3 1 4 29 5 30 6 31 7 5 8 6 9 7 10 8 11 9 12 27 13
REMARK SMILES IDX 10 14 11 15 26 16 28 17 12 18 25 19 24 20 13 21 22 22 14 23
REMARK SMILES IDX 16 24 21 25 23 26 15 27 17 28 20 29 18 30 19 31
REMARK H PARENT
REMARK Flexibility Score: inf
ROOT
ATOM      1  C   UNL     1      21.083 -26.193  20.512  1.00  0.00     0.004 C 
ENDROOT
BRANCH   1   2
ATOM      2  C   UNL     1      21.529 -25.002  21.409  1.00  0.00    -0.009 C 
BRANCH   2   3
ATOM      3  C   UNL     1      23.030 -24.678  21.163  1.00  0.00     0.000 C 
ATOM      4  C   UNL     1      23.427 -24.667  19.684  1.00  0.00     0.004 C 
ENDBRANCH   2   3
BRANCH   2   5
ATOM      5  C   UNL     1      21.201 -25.239  22.922  1.00  0.00    -0.014 C 
ATOM      6  C   UNL     1      22.429 -25.028  23.826  1.00  0.00     0.007 C 
ATOM      7  C   UNL     1      20.017 -24.403  23.435  1.00  0.00     0.007 C 
ENDBRANCH   2   5
ENDBRANCH   1   2
BRANCH   1   8
ATOM      8  C   UNL     1      21.631 -27.554  20.996  1.00  0.00     0.004 C 
BRANCH   8   9
ATOM      9  C   UNL     1      20.564 -28.689  20.956  1.00  0.00    -0.011 C 
ATOM     10  C   UNL     1      19.164 -28.063  20.781  1.00  0.00     0.008 C 
BRANCH   9  11
ATOM     11  C   UNL     1      20.642 -29.574  22.251  1.00  0.00    -0.002 C 
ATOM     12  C   UNL     1      22.110 -29.849  22.695  1.00  0.00     0.005 C 
ATOM     13  C   UNL     1      19.992 -30.999  22.234  1.00  0.00    -0.026 C 
ATOM     14  C   UNL     1      22.145 -31.237  23.349  1.00  0.00     0.005 C 
ATOM     15  C   UNL     1      20.680 -31.614  23.463  1.00  0.00    -0.001 C 
ATOM     16  C   UNL     1      18.468 -31.037  22.518  1.00  0.00     0.007 C 
ATOM     17  C   UNL     1      20.335 -31.730  20.900  1.00  0.00     0.012 C 
ATOM     18  C   UNL     1      20.286 -33.055  23.869  1.00  0.00     0.004 C 
ATOM     19  C   UNL     1      17.972 -32.474  22.798  1.00  0.00     0.005 C 
ATOM     20  C   UNL     1      18.731 -33.204  23.954  1.00  0.00     0.003 C 
ATOM     21  C   UNL     1      20.948 -34.221  23.119  1.00  0.00     0.085 C 
ATOM     22  C   UNL     1      18.233 -34.704  24.220  1.00  0.00    -0.000 C 
ATOM     23  C   UNL     1      20.687 -35.477  23.890  1.00  0.00     0.159 C 
ATOM     24  C   UNL     1      19.397 -35.630  24.608  1.00  0.00     0.005 C 
ATOM     25  C   UNL     1      17.178 -34.666  25.370  1.00  0.00     0.020 C 
ATOM     26  C   UNL     1      17.585 -35.346  22.961  1.00  0.00     0.017 C 
ATOM     27  O   UNL     1      21.554 -36.393  23.901  1.00  0.00    -0.295 OA
ATOM     28  C   UNL     1      19.231 -36.651  25.472  1.00  0.00     0.055 C 
ATOM     29  C   UNL     1      16.749 -36.056  25.851  1.00  0.00     0.081 C 
ATOM     30  C   UNL     1      17.947 -36.903  26.143  1.00  0.00     0.156 C 
ATOM     31  O   UNL     1      17.844 -37.873  26.941  1.00  0.00    -0.295 OA
ENDBRANCH   9  11
ENDBRANCH   8   9
ENDBRANCH   1   8
TORSDOF 6
ENDMDL
MODEL 7
REMARK VINA RESULT:    -6.734      2.207      2.648
REMARK INTER + INTRA:         -10.801
REMARK INTER:                  -9.171
REMARK INTRA:                  -1.630
REMARK UNBOUND:                -1.706
REMARK SMILES CC[C@@H](CC[C@H](C)[C@@H]1CC[C@@H]2[C@@H]3CC(=O)C4=CC(=O)CC[C@@]4(C)[C@@H]3CC[C@]21C)C(C)C
REMARK SMILES IDX 4 1 3 2 2 3 1 4 29 5 30 6 31 7 5 8 6 9 7 10 8 11 9 12 27 13
REMARK SMILES IDX 10 14 11 15 26 16 28 17 12 18 25 19 24 20 13 21 22 22 14 23
REMARK SMILES IDX 16 24 21 25 23 26 15 27 17 28 20 29 18 30 19 31
REMARK H PARENT
REMARK Flexibility Score: inf
ROOT
ATOM      1  C   UNL     1      14.320 -31.250  20.886  1.00  0.00     0.004 C 
ENDROOT
BRANCH   1   2
ATOM      2  C   UNL     1      13.991 -30.056  21.830  1.00  0.00    -0.009 C 
BRANCH   2   3
ATOM      3  C   UNL     1      15.260 -29.633  22.622  1.00  0.00     0.000 C 
ATOM      4  C   UNL     1      16.562 -29.776  21.829  1.00  0.00     0.004 C 
ENDBRANCH   2   3
BRANCH   2   5
ATOM      5  C   UNL     1      12.766 -30.352  22.760  1.00  0.00    -0.014 C 
ATOM      6  C   UNL     1      12.638 -29.325  23.900  1.00  0.00     0.007 C 
ATOM      7  C   UNL     1      11.432 -30.473  22.004  1.00  0.00     0.007 C 
ENDBRANCH   2   5
ENDBRANCH   1   2
BRANCH   1   8
ATOM      8  C   UNL     1      14.252 -32.619  21.597  1.00  0.00     0.004 C 
BRANCH   8   9
ATOM      9  C   UNL     1      15.487 -33.522  21.298  1.00  0.00    -0.011 C 
ATOM     10  C   UNL     1      15.028 -34.761  20.501  1.00  0.00     0.008 C 
BRANCH   9  11
ATOM     11  C   UNL     1      16.215 -33.930  22.629  1.00  0.00    -0.002 C 
ATOM     12  C   UNL     1      15.968 -32.908  23.779  1.00  0.00     0.005 C 
ATOM     13  C   UNL     1      17.772 -34.098  22.618  1.00  0.00    -0.026 C 
ATOM     14  C   UNL     1      17.224 -32.886  24.659  1.00  0.00     0.005 C 
ATOM     15  C   UNL     1      18.050 -34.042  24.128  1.00  0.00    -0.001 C 
ATOM     16  C   UNL     1      18.288 -35.476  22.127  1.00  0.00     0.007 C 
ATOM     17  C   UNL     1      18.434 -32.933  21.821  1.00  0.00     0.012 C 
ATOM     18  C   UNL     1      19.513 -34.225  24.603  1.00  0.00     0.004 C 
ATOM     19  C   UNL     1      19.787 -35.674  22.444  1.00  0.00     0.005 C 
ATOM     20  C   UNL     1      20.155 -35.494  23.953  1.00  0.00     0.003 C 
ATOM     21  C   UNL     1      20.444 -33.003  24.552  1.00  0.00     0.085 C 
ATOM     22  C   UNL     1      21.716 -35.672  24.272  1.00  0.00    -0.000 C 
ATOM     23  C   UNL     1      21.665 -33.317  25.358  1.00  0.00     0.159 C 
ATOM     24  C   UNL     1      22.185 -34.707  25.374  1.00  0.00     0.005 C 
ATOM     25  C   UNL     1      21.952 -37.148  24.723  1.00  0.00     0.020 C 
ATOM     26  C   UNL     1      22.612 -35.372  23.038  1.00  0.00     0.017 C 
ATOM     27  O   UNL     1      22.246 -32.395  25.995  1.00  0.00    -0.295 OA
ATOM     28  C   UNL     1      23.148 -35.050  26.251  1.00  0.00     0.055 C 
ATOM     29  C   UNL     1      23.373 -37.411  25.233  1.00  0.00     0.081 C 
ATOM     30  C   UNL     1      23.762 -36.387  26.252  1.00  0.00     0.156 C 
ATOM     31  O   UNL     1      24.661 -36.656  27.093  1.00  0.00    -0.295 OA
ENDBRANCH   9  11
ENDBRANCH   8   9
ENDBRANCH   1   8
TORSDOF 6
ENDMDL
MODEL 8
REMARK VINA RESULT:    -6.716      2.468      3.838
REMARK INTER + INTRA:         -10.778
REMARK INTER:                  -9.147
REMARK INTRA:                  -1.630
REMARK UNBOUND:                -1.706
REMARK SMILES CC[C@@H](CC[C@H](C)[C@@H]1CC[C@@H]2[C@@H]3CC(=O)C4=CC(=O)CC[C@@]4(C)[C@@H]3CC[C@]21C)C(C)C
REMARK SMILES IDX 4 1 3 2 2 3 1 4 29 5 30 6 31 7 5 8 6 9 7 10 8 11 9 12 27 13
REMARK SMILES IDX 10 14 11 15 26 16 28 17 12 18 25 19 24 20 13 21 22 22 14 23
REMARK SMILES IDX 16 24 21 25 23 26 15 27 17 28 20 29 18 30 19 31
REMARK H PARENT
REMARK Flexibility Score: inf
ROOT
ATOM      1  C   UNL     1      15.831 -30.520  22.997  1.00  0.00     0.004 C 
ENDROOT
BRANCH   1   2
ATOM      2  C   UNL     1      14.457 -31.237  22.844  1.00  0.00    -0.009 C 
BRANCH   2   3
ATOM      3  C   UNL     1      13.407 -30.593  23.794  1.00  0.00     0.000 C 
ATOM      4  C   UNL     1      12.945 -29.201  23.354  1.00  0.00     0.004 C 
ENDBRANCH   2   3
BRANCH   2   5
ATOM      5  C   UNL     1      14.570 -32.788  23.028  1.00  0.00    -0.014 C 
ATOM      6  C   UNL     1      14.656 -33.530  21.682  1.00  0.00     0.007 C 
ATOM      7  C   UNL     1      15.728 -33.217  23.945  1.00  0.00     0.007 C 
ENDBRANCH   2   5
ENDBRANCH   1   2
BRANCH   1   8
ATOM      8  C   UNL     1      16.473 -30.148  21.643  1.00  0.00     0.004 C 
BRANCH   8   9
ATOM      9  C   UNL     1      18.019 -29.965  21.732  1.00  0.00    -0.011 C 
ATOM     10  C   UNL     1      18.431 -28.729  20.906  1.00  0.00     0.008 C 
BRANCH   9  11
ATOM     11  C   UNL     1      18.762 -31.260  21.244  1.00  0.00    -0.002 C 
ATOM     12  C   UNL     1      17.776 -32.407  20.874  1.00  0.00     0.005 C 
ATOM     13  C   UNL     1      19.785 -31.952  22.207  1.00  0.00    -0.026 C 
ATOM     14  C   UNL     1      18.467 -33.737  21.199  1.00  0.00     0.005 C 
ATOM     15  C   UNL     1      19.891 -33.327  21.528  1.00  0.00    -0.001 C 
ATOM     16  C   UNL     1      21.214 -31.349  22.203  1.00  0.00     0.007 C 
ATOM     17  C   UNL     1      19.204 -32.017  23.652  1.00  0.00     0.012 C 
ATOM     18  C   UNL     1      20.870 -34.362  22.135  1.00  0.00     0.004 C 
ATOM     19  C   UNL     1      22.227 -32.270  22.920  1.00  0.00     0.005 C 
ATOM     20  C   UNL     1      22.282 -33.728  22.359  1.00  0.00     0.003 C 
ATOM     21  C   UNL     1      20.392 -35.179  23.346  1.00  0.00     0.085 C 
ATOM     22  C   UNL     1      23.313 -34.687  23.126  1.00  0.00    -0.000 C 
ATOM     23  C   UNL     1      21.341 -36.321  23.538  1.00  0.00     0.159 C 
ATOM     24  C   UNL     1      22.781 -36.125  23.234  1.00  0.00     0.005 C 
ATOM     25  C   UNL     1      24.660 -34.676  22.336  1.00  0.00     0.020 C 
ATOM     26  C   UNL     1      23.579 -34.225  24.586  1.00  0.00     0.017 C 
ATOM     27  O   UNL     1      20.909 -37.423  23.973  1.00  0.00    -0.295 OA
ATOM     28  C   UNL     1      23.606 -37.189  23.198  1.00  0.00     0.055 C 
ATOM     29  C   UNL     1      25.681 -35.692  22.859  1.00  0.00     0.081 C 
ATOM     30  C   UNL     1      25.055 -37.045  22.989  1.00  0.00     0.156 C 
ATOM     31  O   UNL     1      25.784 -38.073  22.967  1.00  0.00    -0.295 OA
ENDBRANCH   9  11
ENDBRANCH   8   9
ENDBRANCH   1   8
TORSDOF 6
ENDMDL
