MODEL 1
REMARK VINA RESULT:    -5.588      0.000      0.000
REMARK INTER + INTRA:          -8.230
REMARK INTER:                  -7.875
REMARK INTRA:                  -0.355
REMARK UNBOUND:                -0.355
REMARK SMILES C=CCCCCCCC(=O)[O-]
REMARK SMILES IDX 6 1 7 2 8 3 9 4 10 5 11 6 5 7 4 8 3 9 2 10 1 11
REMARK H PARENT
REMARK Flexibility Score: inf
ROOT
ATOM      1  C   UNL     1      16.217  72.872  72.257  1.00  0.00     0.000 C 
ENDROOT
BRANCH   1   2
ATOM      2  C   UNL     1      17.404  71.911  72.070  1.00  0.00     0.006 C 
BRANCH   2   3
ATOM      3  C   UNL     1      18.733  72.659  71.906  1.00  0.00     0.053 C 
BRANCH   3   4
ATOM      4  C   UNL     1      19.852  71.731  71.543  1.00  0.00     0.041 C 
ATOM      5  O   UNL     1      19.602  70.586  71.085  1.00  0.00    -0.550 OA
ATOM      6  O   UNL     1      21.171  72.119  71.744  1.00  0.00    -0.550 OA
ENDBRANCH   3   4
ENDBRANCH   2   3
ENDBRANCH   1   2
BRANCH   1   7
ATOM      7  C   UNL     1      14.879  72.135  72.423  1.00  0.00     0.000 C 
BRANCH   7   8
ATOM      8  C   UNL     1      15.046  70.606  72.461  1.00  0.00     0.004 C 
BRANCH   8   9
ATOM      9  C   UNL     1      14.144  69.952  73.518  1.00  0.00     0.027 C 
BRANCH   9  10
ATOM     10  C   UNL     1      14.477  70.405  74.916  1.00  0.00    -0.035 C 
ATOM     11  C   UNL     1      13.941  69.820  75.992  1.00  0.00     0.004 C 
ENDBRANCH   9  10
ENDBRANCH   8   9
ENDBRANCH   7   8
ENDBRANCH   1   7
TORSDOF 7
ENDMDL
MODEL 2
REMARK VINA RESULT:    -5.583      4.520      5.509
REMARK INTER + INTRA:          -8.223
REMARK INTER:                  -7.526
REMARK INTRA:                  -0.697
REMARK UNBOUND:                -0.355
REMARK SMILES C=CCCCCCCC(=O)[O-]
REMARK SMILES IDX 6 1 7 2 8 3 9 4 10 5 11 6 5 7 4 8 3 9 2 10 1 11
REMARK H PARENT
REMARK Flexibility Score: inf
ROOT
ATOM      1  C   UNL     1      14.764  72.921  72.497  1.00  0.00     0.000 C 
ENDROOT
BRANCH   1   2
ATOM      2  C   UNL     1      13.362  72.765  71.882  1.00  0.00     0.006 C 
BRANCH   2   3
ATOM      3  C   UNL     1      12.271  73.385  72.765  1.00  0.00     0.053 C 
BRANCH   3   4
ATOM      4  C   UNL     1      11.398  72.338  73.386  1.00  0.00     0.041 C 
ATOM      5  O   UNL     1      11.440  72.132  74.627  1.00  0.00    -0.550 OA
ATOM      6  O   UNL     1      10.562  71.565  72.589  1.00  0.00    -0.550 OA
ENDBRANCH   3   4
ENDBRANCH   2   3
ENDBRANCH   1   2
BRANCH   1   7
ATOM      7  C   UNL     1      15.483  71.576  72.681  1.00  0.00     0.000 C 
BRANCH   7   8
ATOM      8  C   UNL     1      14.588  70.374  72.335  1.00  0.00     0.004 C 
BRANCH   8   9
ATOM      9  C   UNL     1      14.141  69.606  73.588  1.00  0.00     0.027 C 
BRANCH   9  10
ATOM     10  C   UNL     1      14.545  70.300  74.862  1.00  0.00    -0.035 C 
ATOM     11  C   UNL     1      13.965  70.018  76.033  1.00  0.00     0.004 C 
ENDBRANCH   9  10
ENDBRANCH   8   9
ENDBRANCH   7   8
ENDBRANCH   1   7
TORSDOF 7
ENDMDL
MODEL 3
REMARK VINA RESULT:    -5.501      1.142      1.324
REMARK INTER + INTRA:          -8.108
REMARK INTER:                  -7.735
REMARK INTRA:                  -0.373
REMARK UNBOUND:                -0.355
REMARK SMILES C=CCCCCCCC(=O)[O-]
REMARK SMILES IDX 6 1 7 2 8 3 9 4 10 5 11 6 5 7 4 8 3 9 2 10 1 11
REMARK H PARENT
REMARK Flexibility Score: inf
ROOT
ATOM      1  C   UNL     1      16.370  72.560  72.101  1.00  0.00     0.000 C 
ENDROOT
BRANCH   1   2
ATOM      2  C   UNL     1      17.876  72.845  71.964  1.00  0.00     0.006 C 
BRANCH   2   3
ATOM      3  C   UNL     1      18.686  71.565  71.721  1.00  0.00     0.053 C 
BRANCH   3   4
ATOM      4  C   UNL     1      19.806  71.421  72.705  1.00  0.00     0.041 C 
ATOM      5  O   UNL     1      19.856  72.163  73.721  1.00  0.00    -0.550 OA
ATOM      6  O   UNL     1      20.813  70.490  72.482  1.00  0.00    -0.550 OA
ENDBRANCH   3   4
ENDBRANCH   2   3
ENDBRANCH   1   2
BRANCH   1   7
ATOM      7  C   UNL     1      16.080  71.254  72.856  1.00  0.00     0.000 C 
BRANCH   7   8
ATOM      8  C   UNL     1      14.828  70.531  72.330  1.00  0.00     0.004 C 
BRANCH   8   9
ATOM      9  C   UNL     1      13.982  69.938  73.466  1.00  0.00     0.027 C 
BRANCH   9  10
ATOM     10  C   UNL     1      14.527  70.280  74.827  1.00  0.00    -0.035 C 
ATOM     11  C   UNL     1      13.969  69.812  75.948  1.00  0.00     0.004 C 
ENDBRANCH   9  10
ENDBRANCH   8   9
ENDBRANCH   7   8
ENDBRANCH   1   7
TORSDOF 7
ENDMDL
MODEL 4
REMARK VINA RESULT:    -5.381      5.324      6.736
REMARK INTER + INTRA:          -7.939
REMARK INTER:                  -7.366
REMARK INTRA:                  -0.572
REMARK UNBOUND:                -0.355
REMARK SMILES C=CCCCCCCC(=O)[O-]
REMARK SMILES IDX 6 1 7 2 8 3 9 4 10 5 11 6 5 7 4 8 3 9 2 10 1 11
REMARK H PARENT
REMARK Flexibility Score: inf
ROOT
ATOM      1  C   UNL     1      13.025  72.447  72.876  1.00  0.00     0.000 C 
ENDROOT
BRANCH   1   2
ATOM      2  C   UNL     1      11.645  73.031  73.224  1.00  0.00     0.006 C 
BRANCH   2   3
ATOM      3  C   UNL     1      10.614  71.938  73.527  1.00  0.00     0.053 C 
BRANCH   3   4
ATOM      4  C   UNL     1      10.078  72.050  74.922  1.00  0.00     0.041 C 
ATOM      5  O   UNL     1      10.858  72.276  75.884  1.00  0.00    -0.550 OA
ATOM      6  O   UNL     1       8.722  71.870  75.163  1.00  0.00    -0.550 OA
ENDBRANCH   3   4
ENDBRANCH   2   3
ENDBRANCH   1   2
BRANCH   1   7
ATOM      7  C   UNL     1      12.934  71.058  72.225  1.00  0.00     0.000 C 
BRANCH   7   8
ATOM      8  C   UNL     1      14.196  70.210  72.460  1.00  0.00     0.004 C 
BRANCH   8   9
ATOM      9  C   UNL     1      14.790  70.432  73.858  1.00  0.00     0.027 C 
BRANCH   9  10
ATOM     10  C   UNL     1      14.044  69.677  74.926  1.00  0.00    -0.035 C 
ATOM     11  C   UNL     1      14.009  70.099  76.194  1.00  0.00     0.004 C 
ENDBRANCH   9  10
ENDBRANCH   8   9
ENDBRANCH   7   8
ENDBRANCH   1   7
TORSDOF 7
ENDMDL
MODEL 5
REMARK VINA RESULT:    -5.324      1.354      1.830
REMARK INTER + INTRA:          -7.857
REMARK INTER:                  -7.682
REMARK INTRA:                  -0.175
REMARK UNBOUND:                -0.355
REMARK SMILES C=CCCCCCCC(=O)[O-]
REMARK SMILES IDX 6 1 7 2 8 3 9 4 10 5 11 6 5 7 4 8 3 9 2 10 1 11
REMARK H PARENT
REMARK Flexibility Score: inf
ROOT
ATOM      1  C   UNL     1      17.548  72.108  71.982  1.00  0.00     0.000 C 
ENDROOT
BRANCH   1   2
ATOM      2  C   UNL     1      18.842  71.463  72.508  1.00  0.00     0.006 C 
BRANCH   2   3
ATOM      3  C   UNL     1      19.844  71.176  71.383  1.00  0.00     0.053 C 
BRANCH   3   4
ATOM      4  C   UNL     1      20.724  70.008  71.707  1.00  0.00     0.041 C 
ATOM      5  O   UNL     1      21.559  70.085  72.647  1.00  0.00    -0.550 OA
ATOM      6  O   UNL     1      20.647  68.847  70.948  1.00  0.00    -0.550 OA
ENDBRANCH   3   4
ENDBRANCH   2   3
ENDBRANCH   1   2
BRANCH   1   7
ATOM      7  C   UNL     1      16.325  71.190  72.132  1.00  0.00     0.000 C 
BRANCH   7   8
ATOM      8  C   UNL     1      15.663  71.308  73.515  1.00  0.00     0.004 C 
BRANCH   8   9
ATOM      9  C   UNL     1      14.269  70.664  73.546  1.00  0.00     0.027 C 
BRANCH   9  10
ATOM     10  C   UNL     1      14.104  69.705  74.694  1.00  0.00    -0.035 C 
ATOM     11  C   UNL     1      14.057  70.125  75.962  1.00  0.00     0.004 C 
ENDBRANCH   9  10
ENDBRANCH   8   9
ENDBRANCH   7   8
ENDBRANCH   1   7
TORSDOF 7
ENDMDL
MODEL 6
REMARK VINA RESULT:    -5.226      6.023      7.315
REMARK INTER + INTRA:          -7.719
REMARK INTER:                  -7.259
REMARK INTRA:                  -0.460
REMARK UNBOUND:                -0.355
REMARK SMILES C=CCCCCCCC(=O)[O-]
REMARK SMILES IDX 6 1 7 2 8 3 9 4 10 5 11 6 5 7 4 8 3 9 2 10 1 11
REMARK H PARENT
REMARK Flexibility Score: inf
ROOT
ATOM      1  C   UNL     1      11.186  71.938  72.897  1.00  0.00     0.000 C 
ENDROOT
BRANCH   1   2
ATOM      2  C   UNL     1      10.967  71.635  71.405  1.00  0.00     0.006 C 
BRANCH   2   3
ATOM      3  C   UNL     1      10.219  70.313  71.188  1.00  0.00     0.053 C 
BRANCH   3   4
ATOM      4  C   UNL     1       8.748  70.530  71.006  1.00  0.00     0.041 C 
ATOM      5  O   UNL     1       8.264  70.655  69.851  1.00  0.00    -0.550 OA
ATOM      6  O   UNL     1       7.917  70.629  72.115  1.00  0.00    -0.550 OA
ENDBRANCH   3   4
ENDBRANCH   2   3
ENDBRANCH   1   2
BRANCH   1   7
ATOM      7  C   UNL     1      12.663  72.182  73.242  1.00  0.00     0.000 C 
BRANCH   7   8
ATOM      8  C   UNL     1      13.616  71.293  72.425  1.00  0.00     0.004 C 
BRANCH   8   9
ATOM      9  C   UNL     1      14.018  70.022  73.188  1.00  0.00     0.027 C 
BRANCH   9  10
ATOM     10  C   UNL     1      14.524  70.320  74.574  1.00  0.00    -0.035 C 
ATOM     11  C   UNL     1      13.965  69.779  75.661  1.00  0.00     0.004 C 
ENDBRANCH   9  10
ENDBRANCH   8   9
ENDBRANCH   7   8
ENDBRANCH   1   7
TORSDOF 7
ENDMDL
MODEL 7
REMARK VINA RESULT:    -5.105      3.145      5.154
REMARK INTER + INTRA:          -7.549
REMARK INTER:                  -7.060
REMARK INTRA:                  -0.488
REMARK UNBOUND:                -0.355
REMARK SMILES C=CCCCCCCC(=O)[O-]
REMARK SMILES IDX 6 1 7 2 8 3 9 4 10 5 11 6 5 7 4 8 3 9 2 10 1 11
REMARK H PARENT
REMARK Flexibility Score: inf
ROOT
ATOM      1  C   UNL     1      16.412  72.877  72.196  1.00  0.00     0.000 C 
ENDROOT
BRANCH   1   2
ATOM      2  C   UNL     1      16.037  71.411  72.470  1.00  0.00     0.006 C 
BRANCH   2   3
ATOM      3  C   UNL     1      15.325  71.238  73.818  1.00  0.00     0.053 C 
BRANCH   3   4
ATOM      4  C   UNL     1      14.416  70.048  73.818  1.00  0.00     0.041 C 
ATOM      5  O   UNL     1      14.097  69.494  74.903  1.00  0.00    -0.550 OA
ATOM      6  O   UNL     1      13.949  69.528  72.617  1.00  0.00    -0.550 OA
ENDBRANCH   3   4
ENDBRANCH   2   3
ENDBRANCH   1   2
BRANCH   1   7
ATOM      7  C   UNL     1      17.899  73.054  71.850  1.00  0.00     0.000 C 
BRANCH   7   8
ATOM      8  C   UNL     1      18.635  71.711  71.700  1.00  0.00     0.004 C 
BRANCH   8   9
ATOM      9  C   UNL     1      19.843  71.606  72.643  1.00  0.00     0.027 C 
BRANCH   9  10
ATOM     10  C   UNL     1      19.463  71.100  74.009  1.00  0.00    -0.035 C 
ATOM     11  C   UNL     1      20.294  70.349  74.739  1.00  0.00     0.004 C 
ENDBRANCH   9  10
ENDBRANCH   8   9
ENDBRANCH   7   8
ENDBRANCH   1   7
TORSDOF 7
ENDMDL
MODEL 8
REMARK VINA RESULT:    -5.095      4.930      6.067
REMARK INTER + INTRA:          -7.535
REMARK INTER:                  -7.021
REMARK INTRA:                  -0.513
REMARK UNBOUND:                -0.355
REMARK SMILES C=CCCCCCCC(=O)[O-]
REMARK SMILES IDX 6 1 7 2 8 3 9 4 10 5 11 6 5 7 4 8 3 9 2 10 1 11
REMARK H PARENT
REMARK Flexibility Score: inf
ROOT
ATOM      1  C   UNL     1      13.445  72.949  72.090  1.00  0.00     0.000 C 
ENDROOT
BRANCH   1   2
ATOM      2  C   UNL     1      12.504  71.752  72.309  1.00  0.00     0.006 C 
BRANCH   2   3
ATOM      3  C   UNL     1      11.687  71.421  71.053  1.00  0.00     0.053 C 
BRANCH   3   4
ATOM      4  C   UNL     1      10.470  70.612  71.379  1.00  0.00     0.041 C 
ATOM      5  O   UNL     1      10.244  69.533  70.770  1.00  0.00    -0.550 OA
ATOM      6  O   UNL     1       9.565  71.067  72.331  1.00  0.00    -0.550 OA
ENDBRANCH   3   4
ENDBRANCH   2   3
ENDBRANCH   1   2
BRANCH   1   7
ATOM      7  C   UNL     1      14.924  72.587  72.296  1.00  0.00     0.000 C 
BRANCH   7   8
ATOM      8  C   UNL     1      15.111  71.179  72.886  1.00  0.00     0.004 C 
BRANCH   8   9
ATOM      9  C   UNL     1      15.791  71.214  74.263  1.00  0.00     0.027 C 
BRANCH   9  10
ATOM     10  C   UNL     1      14.945  70.587  75.338  1.00  0.00    -0.035 C 
ATOM     11  C   UNL     1      14.006  69.679  75.057  1.00  0.00     0.004 C 
ENDBRANCH   9  10
ENDBRANCH   8   9
ENDBRANCH   7   8
ENDBRANCH   1   7
TORSDOF 7
ENDMDL
MODEL 9
REMARK VINA RESULT:    -5.080      3.235      5.813
REMARK INTER + INTRA:          -7.514
REMARK INTER:                  -7.181
REMARK INTRA:                  -0.333
REMARK UNBOUND:                -0.355
REMARK SMILES C=CCCCCCCC(=O)[O-]
REMARK SMILES IDX 6 1 7 2 8 3 9 4 10 5 11 6 5 7 4 8 3 9 2 10 1 11
REMARK H PARENT
REMARK Flexibility Score: inf
ROOT
ATOM      1  C   UNL     1      17.962  72.795  72.171  1.00  0.00     0.000 C 
ENDROOT
BRANCH   1   2
ATOM      2  C   UNL     1      16.439  72.580  72.126  1.00  0.00     0.006 C 
BRANCH   2   3
ATOM      3  C   UNL     1      16.062  71.094  72.175  1.00  0.00     0.053 C 
BRANCH   3   4
ATOM      4  C   UNL     1      14.602  70.899  72.444  1.00  0.00     0.041 C 
ATOM      5  O   UNL     1      13.831  71.893  72.507  1.00  0.00    -0.550 OA
ATOM      6  O   UNL     1      14.098  69.623  72.662  1.00  0.00    -0.550 OA
ENDBRANCH   3   4
ENDBRANCH   2   3
ENDBRANCH   1   2
BRANCH   1   7
ATOM      7  C   UNL     1      18.746  71.584  71.643  1.00  0.00     0.000 C 
BRANCH   7   8
ATOM      8  C   UNL     1      20.186  71.942  71.237  1.00  0.00     0.004 C 
BRANCH   8   9
ATOM      9  C   UNL     1      20.892  70.780  70.524  1.00  0.00     0.027 C 
BRANCH   9  10
ATOM     10  C   UNL     1      20.044  69.536  70.474  1.00  0.00    -0.035 C 
ATOM     11  C   UNL     1      20.100  68.686  69.444  1.00  0.00     0.004 C 
ENDBRANCH   9  10
ENDBRANCH   8   9
ENDBRANCH   7   8
ENDBRANCH   1   7
TORSDOF 7
ENDMDL
