MODEL 1
REMARK VINA RESULT:    -4.550      0.000      0.000
REMARK INTER + INTRA:          -5.290
REMARK INTER:                  -5.215
REMARK INTRA:                  -0.075
REMARK UNBOUND:                -0.075
REMARK SMILES COc1cc(C(=O)[O-])ccc1O
REMARK SMILES IDX 5 1 9 2 4 3 10 4 3 5 11 6 6 7 7 8 8 9 2 10 1 11 12 12
REMARK H PARENT 12 13
REMARK Flexibility Score: inf
ROOT
ATOM      1  C   UNL     1     124.915 123.589 128.769  1.00  0.00     0.001 A 
ATOM      2  C   UNL     1     124.227 122.378 128.596  1.00  0.00     0.014 A 
ATOM      3  C   UNL     1     125.487 124.217 127.648  1.00  0.00     0.060 A 
ATOM      4  C   UNL     1     124.112 121.805 127.328  1.00  0.00     0.051 A 
ATOM      5  C   UNL     1     125.374 123.643 126.365  1.00  0.00     0.161 A 
ATOM      6  C   UNL     1     124.680 122.429 126.214  1.00  0.00     0.157 A 
ENDROOT
BRANCH   1   7
ATOM      7  C   UNL     1     125.034 124.191 130.116  1.00  0.00     0.072 C 
ATOM      8  O   UNL     1     126.123 124.139 130.747  1.00  0.00    -0.545 OA
ATOM      9  O   UNL     1     123.945 124.825 130.704  1.00  0.00    -0.545 OA
ENDBRANCH   1   7
BRANCH   5  10
ATOM     10  O   UNL     1     125.934 124.248 125.228  1.00  0.00    -0.493 OA
ATOM     11  C   UNL     1     126.228 125.636 125.113  1.00  0.00     0.278 C 
ENDBRANCH   5  10
BRANCH   6  12
ATOM     12  O   UNL     1     124.544 121.827 124.964  1.00  0.00    -0.504 OA
ATOM     13  H   UNL     1     124.363 120.836 124.858  1.00  0.00     0.293 HD
ENDBRANCH   6  12
TORSDOF 3
ENDMDL
MODEL 2
REMARK VINA RESULT:    -4.539      1.679      4.301
REMARK INTER + INTRA:          -5.277
REMARK INTER:                  -5.184
REMARK INTRA:                  -0.093
REMARK UNBOUND:                -0.075
REMARK SMILES COc1cc(C(=O)[O-])ccc1O
REMARK SMILES IDX 5 1 9 2 4 3 10 4 3 5 11 6 6 7 7 8 8 9 2 10 1 11 12 12
REMARK H PARENT 12 13
REMARK Flexibility Score: inf
ROOT
ATOM      1  C   UNL     1     124.464 122.801 126.443  1.00  0.00     0.001 A 
ATOM      2  C   UNL     1     124.326 121.908 127.517  1.00  0.00     0.014 A 
ATOM      3  C   UNL     1     124.270 124.176 126.668  1.00  0.00     0.060 A 
ATOM      4  C   UNL     1     124.000 122.379 128.791  1.00  0.00     0.051 A 
ATOM      5  C   UNL     1     123.941 124.657 127.952  1.00  0.00     0.161 A 
ATOM      6  C   UNL     1     123.807 123.745 129.014  1.00  0.00     0.157 A 
ENDROOT
BRANCH   1   7
ATOM      7  C   UNL     1     124.808 122.296 125.095  1.00  0.00     0.072 C 
ATOM      8  O   UNL     1     125.844 122.701 124.504  1.00  0.00    -0.545 OA
ATOM      9  O   UNL     1     123.992 121.365 124.462  1.00  0.00    -0.545 OA
ENDBRANCH   1   7
BRANCH   5  10
ATOM     10  O   UNL     1     123.742 126.024 128.205  1.00  0.00    -0.493 OA
ATOM     11  C   UNL     1     122.669 126.797 127.678  1.00  0.00     0.278 C 
ENDBRANCH   5  10
BRANCH   6  12
ATOM     12  O   UNL     1     123.483 124.177 130.299  1.00  0.00    -0.504 OA
ATOM     13  H   UNL     1     123.994 124.917 130.765  1.00  0.00     0.293 HD
ENDBRANCH   6  12
TORSDOF 3
ENDMDL
MODEL 3
REMARK VINA RESULT:    -4.508      3.182      5.027
REMARK INTER + INTRA:          -5.241
REMARK INTER:                  -5.161
REMARK INTRA:                  -0.080
REMARK UNBOUND:                -0.075
REMARK SMILES COc1cc(C(=O)[O-])ccc1O
REMARK SMILES IDX 5 1 9 2 4 3 10 4 3 5 11 6 6 7 7 8 8 9 2 10 1 11 12 12
REMARK H PARENT 12 13
REMARK Flexibility Score: inf
ROOT
ATOM      1  C   UNL     1     127.256 125.817 127.377  1.00  0.00     0.001 A 
ATOM      2  C   UNL     1     127.916 125.173 128.435  1.00  0.00     0.014 A 
ATOM      3  C   UNL     1     125.909 126.188 127.537  1.00  0.00     0.060 A 
ATOM      4  C   UNL     1     127.245 124.904 129.629  1.00  0.00     0.051 A 
ATOM      5  C   UNL     1     125.226 125.920 128.741  1.00  0.00     0.161 A 
ATOM      6  C   UNL     1     125.906 125.273 129.788  1.00  0.00     0.157 A 
ENDROOT
BRANCH   1   7
ATOM      7  C   UNL     1     127.973 126.099 126.113  1.00  0.00     0.072 C 
ATOM      8  O   UNL     1     127.510 126.927 125.284  1.00  0.00    -0.545 OA
ATOM      9  O   UNL     1     129.169 125.452 125.821  1.00  0.00    -0.545 OA
ENDBRANCH   1   7
BRANCH   5  10
ATOM     10  O   UNL     1     123.881 126.280 128.929  1.00  0.00    -0.493 OA
ATOM     11  C   UNL     1     122.975 126.601 127.879  1.00  0.00     0.278 C 
ENDBRANCH   5  10
BRANCH   6  12
ATOM     12  O   UNL     1     125.269 124.988 130.995  1.00  0.00    -0.504 OA
ATOM     13  H   UNL     1     124.348 125.346 131.217  1.00  0.00     0.293 HD
ENDBRANCH   6  12
TORSDOF 3
ENDMDL
MODEL 4
REMARK VINA RESULT:    -4.456      2.188      5.102
REMARK INTER + INTRA:          -5.182
REMARK INTER:                  -5.091
REMARK INTRA:                  -0.091
REMARK UNBOUND:                -0.075
REMARK SMILES COc1cc(C(=O)[O-])ccc1O
REMARK SMILES IDX 5 1 9 2 4 3 10 4 3 5 11 6 6 7 7 8 8 9 2 10 1 11 12 12
REMARK H PARENT 12 13
REMARK Flexibility Score: inf
ROOT
ATOM      1  C   UNL     1     127.219 125.710 126.515  1.00  0.00     0.001 A 
ATOM      2  C   UNL     1     128.060 126.070 127.580  1.00  0.00     0.014 A 
ATOM      3  C   UNL     1     126.152 124.826 126.756  1.00  0.00     0.060 A 
ATOM      4  C   UNL     1     127.841 125.558 128.860  1.00  0.00     0.051 A 
ATOM      5  C   UNL     1     125.925 124.306 128.047  1.00  0.00     0.161 A 
ATOM      6  C   UNL     1     126.780 124.680 129.099  1.00  0.00     0.157 A 
ENDROOT
BRANCH   1   7
ATOM      7  C   UNL     1     127.458 126.256 125.160  1.00  0.00     0.072 C 
ATOM      8  O   UNL     1     126.554 126.893 124.557  1.00  0.00    -0.545 OA
ATOM      9  O   UNL     1     128.685 126.073 124.533  1.00  0.00    -0.545 OA
ENDBRANCH   1   7
BRANCH   5  10
ATOM     10  O   UNL     1     124.867 123.423 128.317  1.00  0.00    -0.493 OA
ATOM     11  C   UNL     1     124.714 122.138 127.724  1.00  0.00     0.278 C 
ENDBRANCH   5  10
BRANCH   6  12
ATOM     12  O   UNL     1     126.592 124.189 130.391  1.00  0.00    -0.504 OA
ATOM     13  H   UNL     1     126.389 124.797 131.175  1.00  0.00     0.293 HD
ENDBRANCH   6  12
TORSDOF 3
ENDMDL
MODEL 5
REMARK VINA RESULT:    -4.455      3.410      5.298
REMARK INTER + INTRA:          -5.181
REMARK INTER:                  -5.087
REMARK INTRA:                  -0.095
REMARK UNBOUND:                -0.075
REMARK SMILES COc1cc(C(=O)[O-])ccc1O
REMARK SMILES IDX 5 1 9 2 4 3 10 4 3 5 11 6 6 7 7 8 8 9 2 10 1 11 12 12
REMARK H PARENT 12 13
REMARK Flexibility Score: inf
ROOT
ATOM      1  C   UNL     1     123.382 126.774 126.468  1.00  0.00     0.001 A 
ATOM      2  C   UNL     1     122.693 127.298 127.572  1.00  0.00     0.014 A 
ATOM      3  C   UNL     1     124.676 126.255 126.652  1.00  0.00     0.060 A 
ATOM      4  C   UNL     1     123.284 127.304 128.837  1.00  0.00     0.051 A 
ATOM      5  C   UNL     1     125.279 126.259 127.927  1.00  0.00     0.161 A 
ATOM      6  C   UNL     1     124.570 126.789 129.021  1.00  0.00     0.157 A 
ENDROOT
BRANCH   1   7
ATOM      7  C   UNL     1     122.750 126.771 125.129  1.00  0.00     0.072 C 
ATOM      8  O   UNL     1     122.411 125.688 124.582  1.00  0.00    -0.545 OA
ATOM      9  O   UNL     1     122.521 127.966 124.455  1.00  0.00    -0.545 OA
ENDBRANCH   1   7
BRANCH   5  10
ATOM     10  O   UNL     1     126.568 125.747 128.142  1.00  0.00    -0.493 OA
ATOM     11  C   UNL     1     127.769 126.364 127.689  1.00  0.00     0.278 C 
ENDBRANCH   5  10
BRANCH   6  12
ATOM     12  O   UNL     1     125.127 126.812 130.299  1.00  0.00    -0.504 OA
ATOM     13  H   UNL     1     124.790 126.217 131.046  1.00  0.00     0.293 HD
ENDBRANCH   6  12
TORSDOF 3
ENDMDL
MODEL 6
REMARK VINA RESULT:    -4.453      2.827      3.601
REMARK INTER + INTRA:          -5.179
REMARK INTER:                  -5.091
REMARK INTRA:                  -0.088
REMARK UNBOUND:                -0.075
REMARK SMILES COc1cc(C(=O)[O-])ccc1O
REMARK SMILES IDX 5 1 9 2 4 3 10 4 3 5 11 6 6 7 7 8 8 9 2 10 1 11 12 12
REMARK H PARENT 12 13
REMARK Flexibility Score: inf
ROOT
ATOM      1  C   UNL     1     126.444 125.758 128.717  1.00  0.00     0.001 A 
ATOM      2  C   UNL     1     127.834 125.815 128.531  1.00  0.00     0.014 A 
ATOM      3  C   UNL     1     125.598 125.940 127.609  1.00  0.00     0.060 A 
ATOM      4  C   UNL     1     128.369 126.047 127.262  1.00  0.00     0.051 A 
ATOM      5  C   UNL     1     126.132 126.175 126.325  1.00  0.00     0.161 A 
ATOM      6  C   UNL     1     127.528 126.227 126.161  1.00  0.00     0.157 A 
ENDROOT
BRANCH   1   7
ATOM      7  C   UNL     1     125.883 125.513 130.065  1.00  0.00     0.072 C 
ATOM      8  O   UNL     1     125.392 126.458 130.737  1.00  0.00    -0.545 OA
ATOM      9  O   UNL     1     125.890 124.233 130.608  1.00  0.00    -0.545 OA
ENDBRANCH   1   7
BRANCH   5  10
ATOM     10  O   UNL     1     125.312 126.359 125.201  1.00  0.00    -0.493 OA
ATOM     11  C   UNL     1     124.380 125.400 124.714  1.00  0.00     0.278 C 
ENDBRANCH   5  10
BRANCH   6  12
ATOM     12  O   UNL     1     128.099 126.457 124.909  1.00  0.00    -0.504 OA
ATOM     13  H   UNL     1     128.106 125.753 124.182  1.00  0.00     0.293 HD
ENDBRANCH   6  12
TORSDOF 3
ENDMDL
MODEL 7
REMARK VINA RESULT:    -4.448      3.063      5.138
REMARK INTER + INTRA:          -5.173
REMARK INTER:                  -5.087
REMARK INTRA:                  -0.086
REMARK UNBOUND:                -0.075
REMARK SMILES COc1cc(C(=O)[O-])ccc1O
REMARK SMILES IDX 5 1 9 2 4 3 10 4 3 5 11 6 6 7 7 8 8 9 2 10 1 11 12 12
REMARK H PARENT 12 13
REMARK Flexibility Score: inf
ROOT
ATOM      1  C   UNL     1     123.364 126.660 127.472  1.00  0.00     0.001 A 
ATOM      2  C   UNL     1     123.774 127.540 128.486  1.00  0.00     0.014 A 
ATOM      3  C   UNL     1     123.502 125.275 127.671  1.00  0.00     0.060 A 
ATOM      4  C   UNL     1     124.311 127.046 129.677  1.00  0.00     0.051 A 
ATOM      5  C   UNL     1     124.043 124.770 128.871  1.00  0.00     0.161 A 
ATOM      6  C   UNL     1     124.447 125.669 129.875  1.00  0.00     0.157 A 
ENDROOT
BRANCH   1   7
ATOM      7  C   UNL     1     122.798 127.190 126.211  1.00  0.00     0.072 C 
ATOM      8  O   UNL     1     122.383 126.407 125.315  1.00  0.00    -0.545 OA
ATOM      9  O   UNL     1     122.714 128.562 125.998  1.00  0.00    -0.545 OA
ENDBRANCH   1   7
BRANCH   5  10
ATOM     10  O   UNL     1     124.191 123.392 129.098  1.00  0.00    -0.493 OA
ATOM     11  C   UNL     1     124.647 122.457 128.128  1.00  0.00     0.278 C 
ENDBRANCH   5  10
BRANCH   6  12
ATOM     12  O   UNL     1     124.986 125.213 131.077  1.00  0.00    -0.504 OA
ATOM     13  H   UNL     1     125.835 125.601 131.470  1.00  0.00     0.293 HD
ENDBRANCH   6  12
TORSDOF 3
ENDMDL
MODEL 8
REMARK VINA RESULT:    -4.434      3.073      3.821
REMARK INTER + INTRA:          -5.157
REMARK INTER:                  -5.058
REMARK INTRA:                  -0.099
REMARK UNBOUND:                -0.075
REMARK SMILES COc1cc(C(=O)[O-])ccc1O
REMARK SMILES IDX 5 1 9 2 4 3 10 4 3 5 11 6 6 7 7 8 8 9 2 10 1 11 12 12
REMARK H PARENT 12 13
REMARK Flexibility Score: inf
ROOT
ATOM      1  C   UNL     1     123.672 125.453 128.451  1.00  0.00     0.001 A 
ATOM      2  C   UNL     1     123.153 126.718 128.771  1.00  0.00     0.014 A 
ATOM      3  C   UNL     1     123.892 125.127 127.101  1.00  0.00     0.060 A 
ATOM      4  C   UNL     1     122.859 127.638 127.763  1.00  0.00     0.051 A 
ATOM      5  C   UNL     1     123.598 126.052 126.079  1.00  0.00     0.161 A 
ATOM      6  C   UNL     1     123.078 127.313 126.422  1.00  0.00     0.157 A 
ENDROOT
BRANCH   1   7
ATOM      7  C   UNL     1     123.980 124.481 129.524  1.00  0.00     0.072 C 
ATOM      8  O   UNL     1     124.046 124.853 130.726  1.00  0.00    -0.545 OA
ATOM      9  O   UNL     1     124.200 123.142 129.220  1.00  0.00    -0.545 OA
ENDBRANCH   1   7
BRANCH   5  10
ATOM     10  O   UNL     1     123.808 125.753 124.723  1.00  0.00    -0.493 OA
ATOM     11  C   UNL     1     123.084 124.772 123.988  1.00  0.00     0.278 C 
ENDBRANCH   5  10
BRANCH   6  12
ATOM     12  O   UNL     1     122.774 128.258 125.443  1.00  0.00    -0.504 OA
ATOM     13  H   UNL     1     122.026 128.121 124.774  1.00  0.00     0.293 HD
ENDBRANCH   6  12
TORSDOF 3
ENDMDL
MODEL 9
REMARK VINA RESULT:    -4.421      1.461      4.067
REMARK INTER + INTRA:          -5.142
REMARK INTER:                  -5.058
REMARK INTRA:                  -0.084
REMARK UNBOUND:                -0.075
REMARK SMILES COc1cc(C(=O)[O-])ccc1O
REMARK SMILES IDX 5 1 9 2 4 3 10 4 3 5 11 6 6 7 7 8 8 9 2 10 1 11 12 12
REMARK H PARENT 12 13
REMARK Flexibility Score: inf
ROOT
ATOM      1  C   UNL     1     124.821 122.964 126.885  1.00  0.00     0.001 A 
ATOM      2  C   UNL     1     124.169 122.430 128.008  1.00  0.00     0.014 A 
ATOM      3  C   UNL     1     125.590 124.131 127.033  1.00  0.00     0.060 A 
ATOM      4  C   UNL     1     124.285 123.049 129.254  1.00  0.00     0.051 A 
ATOM      5  C   UNL     1     125.711 124.761 128.288  1.00  0.00     0.161 A 
ATOM      6  C   UNL     1     125.051 124.209 129.400  1.00  0.00     0.157 A 
ENDROOT
BRANCH   1   7
ATOM      7  C   UNL     1     124.693 122.303 125.566  1.00  0.00     0.072 C 
ATOM      8  O   UNL     1     125.596 122.427 124.697  1.00  0.00    -0.545 OA
ATOM      9  O   UNL     1     123.573 121.535 125.269  1.00  0.00    -0.545 OA
ENDBRANCH   1   7
BRANCH   5  10
ATOM     10  O   UNL     1     126.474 125.927 128.465  1.00  0.00    -0.493 OA
ATOM     11  C   UNL     1     127.737 126.167 127.854  1.00  0.00     0.278 C 
ENDBRANCH   5  10
BRANCH   6  12
ATOM     12  O   UNL     1     125.143 124.799 130.661  1.00  0.00    -0.504 OA
ATOM     13  H   UNL     1     124.376 125.316 131.072  1.00  0.00     0.293 HD
ENDBRANCH   6  12
TORSDOF 3
ENDMDL
