MODEL 1
REMARK VINA RESULT:    -4.019      0.000      0.000
REMARK INTER + INTRA:          -6.668
REMARK INTER:                  -6.133
REMARK INTRA:                  -0.535
REMARK UNBOUND:                -0.535
REMARK SMILES O=C([O-])CCCCCCCCC(=O)[O-]
REMARK SMILES IDX 7 1 6 2 5 3 4 4 2 5 1 6 3 7 8 8 9 9 10 10 11 11 12 12 13 13
REMARK SMILES IDX 14 14
REMARK H PARENT
REMARK Flexibility Score: inf
ROOT
ATOM      1  C   UNL     1      22.152 -15.979   2.626  1.00  0.00     0.000 C 
ENDROOT
BRANCH   1   2
ATOM      2  C   UNL     1      21.648 -15.163   1.424  1.00  0.00     0.000 C 
BRANCH   2   3
ATOM      3  C   UNL     1      21.706 -13.646   1.672  1.00  0.00     0.006 C 
BRANCH   3   4
ATOM      4  C   UNL     1      22.866 -12.981   0.919  1.00  0.00     0.053 C 
BRANCH   4   5
ATOM      5  C   UNL     1      23.775 -12.233   1.846  1.00  0.00     0.041 C 
ATOM      6  O   UNL     1      24.049 -11.024   1.625  1.00  0.00    -0.550 OA
ATOM      7  O   UNL     1      24.343 -12.879   2.937  1.00  0.00    -0.550 OA
ENDBRANCH   4   5
ENDBRANCH   3   4
ENDBRANCH   2   3
ENDBRANCH   1   2
BRANCH   1   8
ATOM      8  C   UNL     1      21.919 -15.267   3.966  1.00  0.00     0.000 C 
BRANCH   8   9
ATOM      9  C   UNL     1      21.684 -16.281   5.092  1.00  0.00     0.000 C 
BRANCH   9  10
ATOM     10  C   UNL     1      20.945 -15.636   6.271  1.00  0.00     0.006 C 
BRANCH  10  11
ATOM     11  C   UNL     1      21.530 -14.259   6.599  1.00  0.00     0.053 C 
BRANCH  11  12
ATOM     12  C   UNL     1      21.646 -14.078   8.080  1.00  0.00     0.041 C 
ATOM     13  O   UNL     1      21.805 -15.077   8.829  1.00  0.00    -0.550 OA
ATOM     14  O   UNL     1      21.628 -12.802   8.627  1.00  0.00    -0.550 OA
ENDBRANCH  11  12
ENDBRANCH  10  11
ENDBRANCH   9  10
ENDBRANCH   8   9
ENDBRANCH   1   8
TORSDOF 9
ENDMDL
MODEL 2
REMARK VINA RESULT:    -3.991      0.487      5.609
REMARK INTER + INTRA:          -6.627
REMARK INTER:                  -6.066
REMARK INTRA:                  -0.561
REMARK UNBOUND:                -0.535
REMARK SMILES O=C([O-])CCCCCCCCC(=O)[O-]
REMARK SMILES IDX 7 1 6 2 5 3 4 4 2 5 1 6 3 7 8 8 9 9 10 10 11 11 12 12 13 13
REMARK SMILES IDX 14 14
REMARK H PARENT
REMARK Flexibility Score: inf
ROOT
ATOM      1  C   UNL     1      21.885 -15.405   4.073  1.00  0.00     0.000 C 
ENDROOT
BRANCH   1   2
ATOM      2  C   UNL     1      21.098 -16.215   5.116  1.00  0.00     0.000 C 
BRANCH   2   3
ATOM      3  C   UNL     1      21.395 -15.769   6.558  1.00  0.00     0.006 C 
BRANCH   3   4
ATOM      4  C   UNL     1      21.577 -14.250   6.668  1.00  0.00     0.053 C 
BRANCH   4   5
ATOM      5  C   UNL     1      21.603 -13.794   8.095  1.00  0.00     0.041 C 
ATOM      6  O   UNL     1      21.641 -12.565   8.367  1.00  0.00    -0.550 OA
ATOM      7  O   UNL     1      21.617 -14.727   9.125  1.00  0.00    -0.550 OA
ENDBRANCH   4   5
ENDBRANCH   3   4
ENDBRANCH   2   3
ENDBRANCH   1   2
BRANCH   1   8
ATOM      8  C   UNL     1      22.072 -16.164   2.751  1.00  0.00     0.000 C 
BRANCH   8   9
ATOM      9  C   UNL     1      21.527 -15.351   1.570  1.00  0.00     0.000 C 
BRANCH   9  10
ATOM     10  C   UNL     1      21.721 -13.847   1.800  1.00  0.00     0.006 C 
BRANCH  10  11
ATOM     11  C   UNL     1      22.998 -13.347   1.120  1.00  0.00     0.053 C 
BRANCH  11  12
ATOM     12  C   UNL     1      23.963 -12.825   2.138  1.00  0.00     0.041 C 
ATOM     13  O   UNL     1      24.668 -13.622   2.810  1.00  0.00    -0.550 OA
ATOM     14  O   UNL     1      24.119 -11.455   2.308  1.00  0.00    -0.550 OA
ENDBRANCH  11  12
ENDBRANCH  10  11
ENDBRANCH   9  10
ENDBRANCH   8   9
ENDBRANCH   1   8
TORSDOF 9
ENDMDL
MODEL 3
REMARK VINA RESULT:    -3.886      1.013      5.571
REMARK INTER + INTRA:          -6.466
REMARK INTER:                  -5.825
REMARK INTRA:                  -0.641
REMARK UNBOUND:                -0.535
REMARK SMILES O=C([O-])CCCCCCCCC(=O)[O-]
REMARK SMILES IDX 7 1 6 2 5 3 4 4 2 5 1 6 3 7 8 8 9 9 10 10 11 11 12 12 13 13
REMARK SMILES IDX 14 14
REMARK H PARENT
REMARK Flexibility Score: inf
ROOT
ATOM      1  C   UNL     1      21.441 -16.009   2.399  1.00  0.00     0.000 C 
ENDROOT
BRANCH   1   2
ATOM      2  C   UNL     1      22.312 -16.139   3.659  1.00  0.00     0.000 C 
BRANCH   2   3
ATOM      3  C   UNL     1      21.561 -15.744   4.942  1.00  0.00     0.006 C 
BRANCH   3   4
ATOM      4  C   UNL     1      22.144 -14.480   5.588  1.00  0.00     0.053 C 
BRANCH   4   5
ATOM      5  C   UNL     1      21.853 -14.420   7.056  1.00  0.00     0.041 C 
ATOM      6  O   UNL     1      21.224 -15.356   7.616  1.00  0.00    -0.550 OA
ATOM      7  O   UNL     1      22.251 -13.316   7.801  1.00  0.00    -0.550 OA
ENDBRANCH   4   5
ENDBRANCH   3   4
ENDBRANCH   2   3
ENDBRANCH   1   2
BRANCH   1   8
ATOM      8  C   UNL     1      22.141 -15.237   1.271  1.00  0.00     0.000 C 
BRANCH   8   9
ATOM      9  C   UNL     1      21.761 -13.752   1.305  1.00  0.00     0.000 C 
BRANCH   9  10
ATOM     10  C   UNL     1      22.986 -12.864   1.057  1.00  0.00     0.006 C 
BRANCH  10  11
ATOM     11  C   UNL     1      23.839 -12.737   2.322  1.00  0.00     0.053 C 
BRANCH  11  12
ATOM     12  C   UNL     1      24.429 -11.364   2.421  1.00  0.00     0.041 C 
ATOM     13  O   UNL     1      25.174 -11.064   3.390  1.00  0.00    -0.550 OA
ATOM     14  O   UNL     1      24.196 -10.434   1.417  1.00  0.00    -0.550 OA
ENDBRANCH  11  12
ENDBRANCH  10  11
ENDBRANCH   9  10
ENDBRANCH   8   9
ENDBRANCH   1   8
TORSDOF 9
ENDMDL
MODEL 4
REMARK VINA RESULT:    -3.858      1.114      1.841
REMARK INTER + INTRA:          -6.423
REMARK INTER:                  -5.924
REMARK INTRA:                  -0.500
REMARK UNBOUND:                -0.535
REMARK SMILES O=C([O-])CCCCCCCCC(=O)[O-]
REMARK SMILES IDX 7 1 6 2 5 3 4 4 2 5 1 6 3 7 8 8 9 9 10 10 11 11 12 12 13 13
REMARK SMILES IDX 14 14
REMARK H PARENT
REMARK Flexibility Score: inf
ROOT
ATOM      1  C   UNL     1      21.873 -14.376   2.784  1.00  0.00     0.000 C 
ENDROOT
BRANCH   1   2
ATOM      2  C   UNL     1      21.828 -14.043   1.284  1.00  0.00     0.000 C 
BRANCH   2   3
ATOM      3  C   UNL     1      22.892 -13.011   0.875  1.00  0.00     0.006 C 
BRANCH   3   4
ATOM      4  C   UNL     1      23.816 -12.638   2.043  1.00  0.00     0.053 C 
BRANCH   4   5
ATOM      5  C   UNL     1      24.274 -11.214   1.958  1.00  0.00     0.041 C 
ATOM      6  O   UNL     1      25.084 -10.758   2.807  1.00  0.00    -0.550 OA
ATOM      7  O   UNL     1      23.782 -10.382   0.959  1.00  0.00    -0.550 OA
ENDBRANCH   4   5
ENDBRANCH   3   4
ENDBRANCH   2   3
ENDBRANCH   1   2
BRANCH   1   8
ATOM      8  C   UNL     1      21.667 -15.872   3.066  1.00  0.00     0.000 C 
BRANCH   8   9
ATOM      9  C   UNL     1      22.183 -16.243   4.462  1.00  0.00     0.000 C 
BRANCH   9  10
ATOM     10  C   UNL     1      22.155 -15.031   5.400  1.00  0.00     0.006 C 
BRANCH  10  11
ATOM     11  C   UNL     1      21.116 -15.217   6.508  1.00  0.00     0.053 C 
BRANCH  11  12
ATOM     12  C   UNL     1      21.787 -15.518   7.812  1.00  0.00     0.041 C 
ATOM     13  O   UNL     1      21.767 -14.673   8.745  1.00  0.00    -0.550 OA
ATOM     14  O   UNL     1      22.392 -16.752   8.012  1.00  0.00    -0.550 OA
ENDBRANCH  11  12
ENDBRANCH  10  11
ENDBRANCH   9  10
ENDBRANCH   8   9
ENDBRANCH   1   8
TORSDOF 9
ENDMDL
MODEL 5
REMARK VINA RESULT:    -3.786     13.076     14.821
REMARK INTER + INTRA:          -6.313
REMARK INTER:                  -5.679
REMARK INTRA:                  -0.634
REMARK UNBOUND:                -0.535
REMARK SMILES O=C([O-])CCCCCCCCC(=O)[O-]
REMARK SMILES IDX 7 1 6 2 5 3 4 4 2 5 1 6 3 7 8 8 9 9 10 10 11 11 12 12 13 13
REMARK SMILES IDX 14 14
REMARK H PARENT
REMARK Flexibility Score: inf
ROOT
ATOM      1  C   UNL     1      28.404  -0.338  12.242  1.00  0.00     0.000 C 
ENDROOT
BRANCH   1   2
ATOM      2  C   UNL     1      29.416  -1.488  12.370  1.00  0.00     0.000 C 
BRANCH   2   3
ATOM      3  C   UNL     1      28.859  -2.826  11.854  1.00  0.00     0.006 C 
BRANCH   3   4
ATOM      4  C   UNL     1      29.760  -3.453  10.781  1.00  0.00     0.053 C 
BRANCH   4   5
ATOM      5  C   UNL     1      28.965  -3.990   9.631  1.00  0.00     0.041 C 
ATOM      6  O   UNL     1      28.074  -3.282   9.091  1.00  0.00    -0.550 OA
ATOM      7  O   UNL     1      29.187  -5.284   9.173  1.00  0.00    -0.550 OA
ENDBRANCH   4   5
ENDBRANCH   3   4
ENDBRANCH   2   3
ENDBRANCH   1   2
BRANCH   1   8
ATOM      8  C   UNL     1      27.557  -0.432  10.965  1.00  0.00     0.000 C 
BRANCH   8   9
ATOM      9  C   UNL     1      26.060  -0.426  11.298  1.00  0.00     0.000 C 
BRANCH   9  10
ATOM     10  C   UNL     1      25.235  -1.005  10.142  1.00  0.00     0.006 C 
BRANCH  10  11
ATOM     11  C   UNL     1      24.777  -2.432  10.455  1.00  0.00     0.053 C 
BRANCH  11  12
ATOM     12  C   UNL     1      23.448  -2.706   9.824  1.00  0.00     0.041 C 
ATOM     13  O   UNL     1      22.745  -1.756   9.390  1.00  0.00    -0.550 OA
ATOM     14  O   UNL     1      23.008  -4.014   9.670  1.00  0.00    -0.550 OA
ENDBRANCH  11  12
ENDBRANCH  10  11
ENDBRANCH   9  10
ENDBRANCH   8   9
ENDBRANCH   1   8
TORSDOF 9
ENDMDL
MODEL 6
REMARK VINA RESULT:    -3.750     10.274     11.935
REMARK INTER + INTRA:          -6.259
REMARK INTER:                  -5.747
REMARK INTRA:                  -0.511
REMARK UNBOUND:                -0.535
REMARK SMILES O=C([O-])CCCCCCCCC(=O)[O-]
REMARK SMILES IDX 7 1 6 2 5 3 4 4 2 5 1 6 3 7 8 8 9 9 10 10 11 11 12 12 13 13
REMARK SMILES IDX 14 14
REMARK H PARENT
REMARK Flexibility Score: inf
ROOT
ATOM      1  C   UNL     1      26.406  -3.956   7.204  1.00  0.00     0.000 C 
ENDROOT
BRANCH   1   2
ATOM      2  C   UNL     1      25.960  -4.987   6.154  1.00  0.00     0.000 C 
BRANCH   2   3
ATOM      3  C   UNL     1      25.920  -6.420   6.711  1.00  0.00     0.006 C 
BRANCH   3   4
ATOM      4  C   UNL     1      24.607  -7.138   6.368  1.00  0.00     0.053 C 
BRANCH   4   5
ATOM      5  C   UNL     1      23.720  -7.279   7.566  1.00  0.00     0.041 C 
ATOM      6  O   UNL     1      23.572  -8.401   8.117  1.00  0.00    -0.550 OA
ATOM      7  O   UNL     1      23.031  -6.175   8.057  1.00  0.00    -0.550 OA
ENDBRANCH   4   5
ENDBRANCH   3   4
ENDBRANCH   2   3
ENDBRANCH   1   2
BRANCH   1   8
ATOM      8  C   UNL     1      25.244  -3.456   8.075  1.00  0.00     0.000 C 
BRANCH   8   9
ATOM      9  C   UNL     1      25.717  -2.371   9.050  1.00  0.00     0.000 C 
BRANCH   9  10
ATOM     10  C   UNL     1      24.985  -2.480  10.393  1.00  0.00     0.006 C 
BRANCH  10  11
ATOM     11  C   UNL     1      24.264  -1.173  10.733  1.00  0.00     0.053 C 
BRANCH  11  12
ATOM     12  C   UNL     1      23.116  -0.949   9.799  1.00  0.00     0.041 C 
ATOM     13  O   UNL     1      22.973   0.164   9.228  1.00  0.00    -0.550 OA
ATOM     14  O   UNL     1      22.235  -1.985   9.521  1.00  0.00    -0.550 OA
ENDBRANCH  11  12
ENDBRANCH  10  11
ENDBRANCH   9  10
ENDBRANCH   8   9
ENDBRANCH   1   8
TORSDOF 9
ENDMDL
MODEL 7
REMARK VINA RESULT:    -3.664      8.702     10.373
REMARK INTER + INTRA:          -6.126
REMARK INTER:                  -5.726
REMARK INTRA:                  -0.400
REMARK UNBOUND:                -0.535
REMARK SMILES O=C([O-])CCCCCCCCC(=O)[O-]
REMARK SMILES IDX 7 1 6 2 5 3 4 4 2 5 1 6 3 7 8 8 9 9 10 10 11 11 12 12 13 13
REMARK SMILES IDX 14 14
REMARK H PARENT
REMARK Flexibility Score: inf
ROOT
ATOM      1  C   UNL     1      24.768  -4.547   6.924  1.00  0.00     0.000 C 
ENDROOT
BRANCH   1   2
ATOM      2  C   UNL     1      25.865  -3.882   7.771  1.00  0.00     0.000 C 
BRANCH   2   3
ATOM      3  C   UNL     1      25.390  -2.580   8.439  1.00  0.00     0.006 C 
BRANCH   3   4
ATOM      4  C   UNL     1      24.665  -2.842   9.766  1.00  0.00     0.053 C 
BRANCH   4   5
ATOM      5  C   UNL     1      23.177  -2.855   9.594  1.00  0.00     0.041 C 
ATOM      6  O   UNL     1      22.549  -1.777   9.422  1.00  0.00    -0.550 OA
ATOM      7  O   UNL     1      22.479  -4.056   9.653  1.00  0.00    -0.550 OA
ENDBRANCH   4   5
ENDBRANCH   3   4
ENDBRANCH   2   3
ENDBRANCH   1   2
BRANCH   1   8
ATOM      8  C   UNL     1      24.887  -6.077   6.894  1.00  0.00     0.000 C 
BRANCH   8   9
ATOM      9  C   UNL     1      23.522  -6.738   7.123  1.00  0.00     0.000 C 
BRANCH   9  10
ATOM     10  C   UNL     1      23.665  -8.036   7.927  1.00  0.00     0.006 C 
BRANCH  10  11
ATOM     11  C   UNL     1      24.877  -8.844   7.456  1.00  0.00     0.053 C 
BRANCH  11  12
ATOM     12  C   UNL     1      24.788 -10.255   7.945  1.00  0.00     0.041 C 
ATOM     13  O   UNL     1      25.441 -11.167   7.371  1.00  0.00    -0.550 OA
ATOM     14  O   UNL     1      24.024 -10.556   9.064  1.00  0.00    -0.550 OA
ENDBRANCH  11  12
ENDBRANCH  10  11
ENDBRANCH   9  10
ENDBRANCH   8   9
ENDBRANCH   1   8
TORSDOF 9
ENDMDL
MODEL 8
REMARK VINA RESULT:    -3.628      9.732     11.348
REMARK INTER + INTRA:          -6.072
REMARK INTER:                  -5.611
REMARK INTRA:                  -0.461
REMARK UNBOUND:                -0.535
REMARK SMILES O=C([O-])CCCCCCCCC(=O)[O-]
REMARK SMILES IDX 7 1 6 2 5 3 4 4 2 5 1 6 3 7 8 8 9 9 10 10 11 11 12 12 13 13
REMARK SMILES IDX 14 14
REMARK H PARENT
REMARK Flexibility Score: inf
ROOT
ATOM      1  C   UNL     1      24.663  -4.886   7.021  1.00  0.00     0.000 C 
ENDROOT
BRANCH   1   2
ATOM      2  C   UNL     1      23.705  -6.049   7.332  1.00  0.00     0.000 C 
BRANCH   2   3
ATOM      3  C   UNL     1      24.380  -7.424   7.193  1.00  0.00     0.006 C 
BRANCH   3   4
ATOM      4  C   UNL     1      23.710  -8.489   8.072  1.00  0.00     0.053 C 
BRANCH   4   5
ATOM      5  C   UNL     1      24.528  -9.741   8.151  1.00  0.00     0.041 C 
ATOM      6  O   UNL     1      25.737  -9.732   7.800  1.00  0.00    -0.550 OA
ATOM      7  O   UNL     1      23.946 -10.927   8.585  1.00  0.00    -0.550 OA
ENDBRANCH   4   5
ENDBRANCH   3   4
ENDBRANCH   2   3
ENDBRANCH   1   2
BRANCH   1   8
ATOM      8  C   UNL     1      24.658  -3.806   8.113  1.00  0.00     0.000 C 
BRANCH   8   9
ATOM      9  C   UNL     1      23.384  -3.889   8.961  1.00  0.00     0.000 C 
BRANCH   9  10
ATOM     10  C   UNL     1      23.565  -3.165  10.301  1.00  0.00     0.006 C 
BRANCH  10  11
ATOM     11  C   UNL     1      24.904  -2.425  10.349  1.00  0.00     0.053 C 
BRANCH  11  12
ATOM     12  C   UNL     1      24.684  -0.955  10.528  1.00  0.00     0.041 C 
ATOM     13  O   UNL     1      25.247  -0.341  11.472  1.00  0.00    -0.550 OA
ATOM     14  O   UNL     1      23.896  -0.255   9.624  1.00  0.00    -0.550 OA
ENDBRANCH  11  12
ENDBRANCH  10  11
ENDBRANCH   9  10
ENDBRANCH   8   9
ENDBRANCH   1   8
TORSDOF 9
ENDMDL
MODEL 9
REMARK VINA RESULT:    -3.534     13.591     15.394
REMARK INTER + INTRA:          -5.928
REMARK INTER:                  -5.270
REMARK INTRA:                  -0.658
REMARK UNBOUND:                -0.535
REMARK SMILES O=C([O-])CCCCCCCCC(=O)[O-]
REMARK SMILES IDX 7 1 6 2 5 3 4 4 2 5 1 6 3 7 8 8 9 9 10 10 11 11 12 12 13 13
REMARK SMILES IDX 14 14
REMARK H PARENT
REMARK Flexibility Score: inf
ROOT
ATOM      1  C   UNL     1      27.003  -0.141  10.038  1.00  0.00     0.000 C 
ENDROOT
BRANCH   1   2
ATOM      2  C   UNL     1      25.661   0.146  10.732  1.00  0.00     0.000 C 
BRANCH   2   3
ATOM      3  C   UNL     1      24.841  -1.131  10.984  1.00  0.00     0.006 C 
BRANCH   3   4
ATOM      4  C   UNL     1      24.555  -1.901   9.688  1.00  0.00     0.053 C 
BRANCH   4   5
ATOM      5  C   UNL     1      23.127  -2.344   9.606  1.00  0.00     0.041 C 
ATOM      6  O   UNL     1      22.211  -1.500   9.419  1.00  0.00    -0.550 OA
ATOM      7  O   UNL     1      22.803  -3.686   9.767  1.00  0.00    -0.550 OA
ENDBRANCH   4   5
ENDBRANCH   3   4
ENDBRANCH   2   3
ENDBRANCH   1   2
BRANCH   1   8
ATOM      8  C   UNL     1      28.210   0.326  10.865  1.00  0.00     0.000 C 
BRANCH   8   9
ATOM      9  C   UNL     1      28.298  -0.442  12.189  1.00  0.00     0.000 C 
BRANCH   9  10
ATOM     10  C   UNL     1      29.481  -1.417  12.184  1.00  0.00     0.006 C 
BRANCH  10  11
ATOM     11  C   UNL     1      29.026  -2.833  11.824  1.00  0.00     0.053 C 
BRANCH  11  12
ATOM     12  C   UNL     1      29.562  -3.232  10.485  1.00  0.00     0.041 C 
ATOM     13  O   UNL     1      30.119  -2.378   9.746  1.00  0.00    -0.550 OA
ATOM     14  O   UNL     1      29.492  -4.557  10.075  1.00  0.00    -0.550 OA
ENDBRANCH  11  12
ENDBRANCH  10  11
ENDBRANCH   9  10
ENDBRANCH   8   9
ENDBRANCH   1   8
TORSDOF 9
ENDMDL
