MODEL 1
REMARK VINA RESULT:    -1.830      0.000      0.000
REMARK INTER + INTRA:          -3.378
REMARK INTER:                  -2.578
REMARK INTRA:                  -0.799
REMARK UNBOUND:                -0.799
REMARK SMILES CCCCCCCCC(=O)[O-]
REMARK SMILES IDX 6 1 7 2 8 3 9 4 10 5 11 6 5 7 4 8 3 9 2 10 1 11
REMARK H PARENT
REMARK Flexibility Score: inf
ROOT
ATOM      1  C   UNL     1     -33.374 -35.434  12.349  1.00  0.00     0.000 C 
ENDROOT
BRANCH   1   2
ATOM      2  C   UNL     1     -31.896 -35.048  12.196  1.00  0.00     0.006 C 
BRANCH   2   3
ATOM      3  C   UNL     1     -30.959 -36.060  12.868  1.00  0.00     0.053 C 
BRANCH   3   4
ATOM      4  C   UNL     1     -29.839 -35.383  13.597  1.00  0.00     0.041 C 
ATOM      5  O   UNL     1     -29.893 -34.148  13.837  1.00  0.00    -0.550 OA
ATOM      6  O   UNL     1     -28.750 -36.123  14.041  1.00  0.00    -0.550 OA
ENDBRANCH   3   4
ENDBRANCH   2   3
ENDBRANCH   1   2
BRANCH   1   7
ATOM      7  C   UNL     1     -33.991 -34.772  13.588  1.00  0.00     0.000 C 
BRANCH   7   8
ATOM      8  C   UNL     1     -34.551 -35.826  14.553  1.00  0.00    -0.000 C 
BRANCH   8   9
ATOM      9  C   UNL     1     -33.600 -36.120  15.725  1.00  0.00    -0.000 C 
BRANCH   9  10
ATOM     10  C   UNL     1     -32.698 -34.925  16.069  1.00  0.00    -0.003 C 
ATOM     11  C   UNL     1     -31.494 -35.366  16.896  1.00  0.00     0.004 C 
ENDBRANCH   9  10
ENDBRANCH   8   9
ENDBRANCH   7   8
ENDBRANCH   1   7
TORSDOF 7
ENDMDL
MODEL 2
REMARK VINA RESULT:    -1.828      2.826      4.186
REMARK INTER + INTRA:          -3.375
REMARK INTER:                  -2.606
REMARK INTRA:                  -0.769
REMARK UNBOUND:                -0.799
REMARK SMILES CCCCCCCCC(=O)[O-]
REMARK SMILES IDX 6 1 7 2 8 3 9 4 10 5 11 6 5 7 4 8 3 9 2 10 1 11
REMARK H PARENT
REMARK Flexibility Score: inf
ROOT
ATOM      1  C   UNL     1     -31.715 -35.828  12.348  1.00  0.00     0.000 C 
ENDROOT
BRANCH   1   2
ATOM      2  C   UNL     1     -33.200 -36.117  12.614  1.00  0.00     0.006 C 
BRANCH   2   3
ATOM      3  C   UNL     1     -34.040 -34.834  12.665  1.00  0.00     0.053 C 
BRANCH   3   4
ATOM      4  C   UNL     1     -34.706 -34.656  13.995  1.00  0.00     0.041 C 
ATOM      5  O   UNL     1     -34.906 -35.650  14.741  1.00  0.00    -0.550 OA
ATOM      6  O   UNL     1     -35.075 -33.387  14.424  1.00  0.00    -0.550 OA
ENDBRANCH   3   4
ENDBRANCH   2   3
ENDBRANCH   1   2
BRANCH   1   7
ATOM      7  C   UNL     1     -31.511 -34.383  11.877  1.00  0.00     0.000 C 
BRANCH   7   8
ATOM      8  C   UNL     1     -30.101 -33.885  12.226  1.00  0.00    -0.000 C 
BRANCH   8   9
ATOM      9  C   UNL     1     -29.923 -33.620  13.730  1.00  0.00    -0.000 C 
BRANCH   9  10
ATOM     10  C   UNL     1     -31.156 -32.958  14.364  1.00  0.00    -0.003 C 
ATOM     11  C   UNL     1     -31.566 -33.676  15.647  1.00  0.00     0.004 C 
ENDBRANCH   9  10
ENDBRANCH   8   9
ENDBRANCH   7   8
ENDBRANCH   1   7
TORSDOF 7
ENDMDL
MODEL 3
REMARK VINA RESULT:    -1.760      2.738      4.288
REMARK INTER + INTRA:          -3.279
REMARK INTER:                  -2.712
REMARK INTRA:                  -0.567
REMARK UNBOUND:                -0.799
REMARK SMILES CCCCCCCCC(=O)[O-]
REMARK SMILES IDX 6 1 7 2 8 3 9 4 10 5 11 6 5 7 4 8 3 9 2 10 1 11
REMARK H PARENT
REMARK Flexibility Score: inf
ROOT
ATOM      1  C   UNL     1     -33.130 -34.478  15.743  1.00  0.00     0.000 C 
ENDROOT
BRANCH   1   2
ATOM      2  C   UNL     1     -32.855 -35.798  16.478  1.00  0.00     0.006 C 
BRANCH   2   3
ATOM      3  C   UNL     1     -31.510 -35.781  17.217  1.00  0.00     0.053 C 
BRANCH   3   4
ATOM      4  C   UNL     1     -31.691 -35.714  18.702  1.00  0.00     0.041 C 
ATOM      5  O   UNL     1     -32.847 -35.730  19.201  1.00  0.00    -0.550 OA
ATOM      6  O   UNL     1     -30.581 -35.669  19.537  1.00  0.00    -0.550 OA
ENDBRANCH   3   4
ENDBRANCH   2   3
ENDBRANCH   1   2
BRANCH   1   7
ATOM      7  C   UNL     1     -34.173 -34.671  14.635  1.00  0.00     0.000 C 
BRANCH   7   8
ATOM      8  C   UNL     1     -34.100 -36.090  14.054  1.00  0.00    -0.000 C 
BRANCH   8   9
ATOM      9  C   UNL     1     -33.465 -36.125  12.654  1.00  0.00    -0.000 C 
BRANCH   9  10
ATOM     10  C   UNL     1     -31.930 -36.125  12.701  1.00  0.00    -0.003 C 
ATOM     11  C   UNL     1     -31.364 -34.818  12.153  1.00  0.00     0.004 C 
ENDBRANCH   9  10
ENDBRANCH   8   9
ENDBRANCH   7   8
ENDBRANCH   1   7
TORSDOF 7
ENDMDL
MODEL 4
REMARK VINA RESULT:    -1.704      2.834      4.097
REMARK INTER + INTRA:          -3.201
REMARK INTER:                  -2.588
REMARK INTRA:                  -0.613
REMARK UNBOUND:                -0.799
REMARK SMILES CCCCCCCCC(=O)[O-]
REMARK SMILES IDX 6 1 7 2 8 3 9 4 10 5 11 6 5 7 4 8 3 9 2 10 1 11
REMARK H PARENT
REMARK Flexibility Score: inf
ROOT
ATOM      1  C   UNL     1     -34.427 -33.510  13.181  1.00  0.00     0.000 C 
ENDROOT
BRANCH   1   2
ATOM      2  C   UNL     1     -33.499 -32.298  13.347  1.00  0.00     0.006 C 
BRANCH   2   3
ATOM      3  C   UNL     1     -33.178 -31.624  12.006  1.00  0.00     0.053 C 
BRANCH   3   4
ATOM      4  C   UNL     1     -31.977 -30.735  12.103  1.00  0.00     0.041 C 
ATOM      5  O   UNL     1     -32.082 -29.501  11.875  1.00  0.00    -0.550 OA
ATOM      6  O   UNL     1     -30.748 -31.264  12.477  1.00  0.00    -0.550 OA
ENDBRANCH   3   4
ENDBRANCH   2   3
ENDBRANCH   1   2
BRANCH   1   7
ATOM      7  C   UNL     1     -33.942 -34.425  12.050  1.00  0.00     0.000 C 
BRANCH   7   8
ATOM      8  C   UNL     1     -33.566 -35.812  12.589  1.00  0.00    -0.000 C 
BRANCH   8   9
ATOM      9  C   UNL     1     -32.070 -35.933  12.922  1.00  0.00    -0.000 C 
BRANCH   9  10
ATOM     10  C   UNL     1     -31.219 -34.867  12.214  1.00  0.00    -0.003 C 
ATOM     11  C   UNL     1     -29.869 -34.694  12.904  1.00  0.00     0.004 C 
ENDBRANCH   9  10
ENDBRANCH   8   9
ENDBRANCH   7   8
ENDBRANCH   1   7
TORSDOF 7
ENDMDL
MODEL 5
REMARK VINA RESULT:    -1.668      2.269      4.309
REMARK INTER + INTRA:          -3.149
REMARK INTER:                  -2.290
REMARK INTRA:                  -0.859
REMARK UNBOUND:                -0.799
REMARK SMILES CCCCCCCCC(=O)[O-]
REMARK SMILES IDX 6 1 7 2 8 3 9 4 10 5 11 6 5 7 4 8 3 9 2 10 1 11
REMARK H PARENT
REMARK Flexibility Score: inf
ROOT
ATOM      1  C   UNL     1     -29.521 -34.797  13.966  1.00  0.00     0.000 C 
ENDROOT
BRANCH   1   2
ATOM      2  C   UNL     1     -30.174 -34.647  15.348  1.00  0.00     0.006 C 
BRANCH   2   3
ATOM      3  C   UNL     1     -31.069 -33.404  15.435  1.00  0.00     0.053 C 
BRANCH   3   4
ATOM      4  C   UNL     1     -32.521 -33.767  15.505  1.00  0.00     0.041 C 
ATOM      5  O   UNL     1     -32.866 -34.947  15.774  1.00  0.00    -0.550 OA
ATOM      6  O   UNL     1     -33.492 -32.793  15.307  1.00  0.00    -0.550 OA
ENDBRANCH   3   4
ENDBRANCH   2   3
ENDBRANCH   1   2
BRANCH   1   7
ATOM      7  C   UNL     1     -29.966 -36.097  13.285  1.00  0.00     0.000 C 
BRANCH   7   8
ATOM      8  C   UNL     1     -31.369 -35.948  12.679  1.00  0.00    -0.000 C 
BRANCH   8   9
ATOM      9  C   UNL     1     -31.549 -34.623  11.922  1.00  0.00    -0.000 C 
BRANCH   9  10
ATOM     10  C   UNL     1     -33.014 -34.162  11.875  1.00  0.00    -0.003 C 
ATOM     11  C   UNL     1     -33.954 -35.275  12.327  1.00  0.00     0.004 C 
ENDBRANCH   9  10
ENDBRANCH   8   9
ENDBRANCH   7   8
ENDBRANCH   1   7
TORSDOF 7
ENDMDL
MODEL 6
REMARK VINA RESULT:    -1.640     23.932     25.872
REMARK INTER + INTRA:          -3.111
REMARK INTER:                  -2.358
REMARK INTRA:                  -0.753
REMARK UNBOUND:                -0.799
REMARK SMILES CCCCCCCCC(=O)[O-]
REMARK SMILES IDX 6 1 7 2 8 3 9 4 10 5 11 6 5 7 4 8 3 9 2 10 1 11
REMARK H PARENT
REMARK Flexibility Score: inf
ROOT
ATOM      1  C   UNL     1     -15.989 -21.517  30.369  1.00  0.00     0.000 C 
ENDROOT
BRANCH   1   2
ATOM      2  C   UNL     1     -15.214 -22.843  30.356  1.00  0.00     0.006 C 
BRANCH   2   3
ATOM      3  C   UNL     1     -15.317 -23.588  31.693  1.00  0.00     0.053 C 
BRANCH   3   4
ATOM      4  C   UNL     1     -15.789 -24.998  31.509  1.00  0.00     0.041 C 
ATOM      5  O   UNL     1     -16.887 -25.230  30.940  1.00  0.00    -0.550 OA
ATOM      6  O   UNL     1     -14.998 -26.058  31.938  1.00  0.00    -0.550 OA
ENDBRANCH   3   4
ENDBRANCH   2   3
ENDBRANCH   1   2
BRANCH   1   7
ATOM      7  C   UNL     1     -16.531 -21.210  31.770  1.00  0.00     0.000 C 
BRANCH   7   8
ATOM      8  C   UNL     1     -18.038 -20.918  31.726  1.00  0.00    -0.000 C 
BRANCH   8   9
ATOM      9  C   UNL     1     -18.876 -22.176  31.449  1.00  0.00    -0.000 C 
BRANCH   9  10
ATOM     10  C   UNL     1     -19.636 -22.098  30.115  1.00  0.00    -0.003 C 
ATOM     11  C   UNL     1     -19.111 -23.131  29.123  1.00  0.00     0.004 C 
ENDBRANCH   9  10
ENDBRANCH   8   9
ENDBRANCH   7   8
ENDBRANCH   1   7
TORSDOF 7
ENDMDL
MODEL 7
REMARK VINA RESULT:    -1.575      2.582      4.279
REMARK INTER + INTRA:          -3.019
REMARK INTER:                  -2.450
REMARK INTRA:                  -0.569
REMARK UNBOUND:                -0.799
REMARK SMILES CCCCCCCCC(=O)[O-]
REMARK SMILES IDX 6 1 7 2 8 3 9 4 10 5 11 6 5 7 4 8 3 9 2 10 1 11
REMARK H PARENT
REMARK Flexibility Score: inf
ROOT
ATOM      1  C   UNL     1     -30.461 -34.309  14.170  1.00  0.00     0.000 C 
ENDROOT
BRANCH   1   2
ATOM      2  C   UNL     1     -30.953 -34.907  15.496  1.00  0.00     0.006 C 
BRANCH   2   3
ATOM      3  C   UNL     1     -31.874 -36.115  15.282  1.00  0.00     0.053 C 
BRANCH   3   4
ATOM      4  C   UNL     1     -33.198 -35.933  15.959  1.00  0.00     0.041 C 
ATOM      5  O   UNL     1     -34.264 -35.988  15.292  1.00  0.00    -0.550 OA
ATOM      6  O   UNL     1     -33.254 -35.737  17.334  1.00  0.00    -0.550 OA
ENDBRANCH   3   4
ENDBRANCH   2   3
ENDBRANCH   1   2
BRANCH   1   7
ATOM      7  C   UNL     1     -31.002 -35.102  12.974  1.00  0.00     0.000 C 
BRANCH   7   8
ATOM      8  C   UNL     1     -31.644 -34.166  11.939  1.00  0.00    -0.000 C 
BRANCH   8   9
ATOM      9  C   UNL     1     -33.174 -34.309  11.880  1.00  0.00    -0.000 C 
BRANCH   9  10
ATOM     10  C   UNL     1     -33.895 -32.952  11.876  1.00  0.00    -0.003 C 
ATOM     11  C   UNL     1     -34.010 -32.388  13.289  1.00  0.00     0.004 C 
ENDBRANCH   9  10
ENDBRANCH   8   9
ENDBRANCH   7   8
ENDBRANCH   1   7
TORSDOF 7
ENDMDL
MODEL 8
REMARK VINA RESULT:    -1.156     24.615     25.752
REMARK INTER + INTRA:          -2.428
REMARK INTER:                  -1.684
REMARK INTRA:                  -0.743
REMARK UNBOUND:                -0.799
REMARK SMILES CCCCCCCCC(=O)[O-]
REMARK SMILES IDX 6 1 7 2 8 3 9 4 10 5 11 6 5 7 4 8 3 9 2 10 1 11
REMARK H PARENT
REMARK Flexibility Score: inf
ROOT
ATOM      1  C   UNL     1     -16.386 -21.515  29.373  1.00  0.00     0.000 C 
ENDROOT
BRANCH   1   2
ATOM      2  C   UNL     1     -16.386 -21.393  30.904  1.00  0.00     0.006 C 
BRANCH   2   3
ATOM      3  C   UNL     1     -17.789 -21.126  31.464  1.00  0.00     0.053 C 
BRANCH   3   4
ATOM      4  C   UNL     1     -18.779 -22.151  31.001  1.00  0.00     0.041 C 
ATOM      5  O   UNL     1     -18.674 -23.347  31.377  1.00  0.00    -0.550 OA
ATOM      6  O   UNL     1     -19.836 -21.776  30.181  1.00  0.00    -0.550 OA
ENDBRANCH   3   4
ENDBRANCH   2   3
ENDBRANCH   1   2
BRANCH   1   7
ATOM      7  C   UNL     1     -15.433 -22.624  28.909  1.00  0.00     0.000 C 
BRANCH   7   8
ATOM      8  C   UNL     1     -16.115 -23.998  28.973  1.00  0.00    -0.000 C 
BRANCH   8   9
ATOM      9  C   UNL     1     -15.265 -25.048  29.706  1.00  0.00    -0.000 C 
BRANCH   9  10
ATOM     10  C   UNL     1     -15.705 -25.253  31.164  1.00  0.00    -0.003 C 
ATOM     11  C   UNL     1     -14.875 -24.397  32.114  1.00  0.00     0.004 C 
ENDBRANCH   9  10
ENDBRANCH   8   9
ENDBRANCH   7   8
ENDBRANCH   1   7
TORSDOF 7
ENDMDL
