MODEL 1
REMARK VINA RESULT:    -3.327      0.000      0.000
REMARK INTER + INTRA:          -3.926
REMARK INTER:                  -3.910
REMARK INTRA:                  -0.016
REMARK UNBOUND:                -0.016
REMARK SMILES CCCCC(=O)[O-]
REMARK SMILES IDX 4 1 5 2 6 3 7 4 3 5 2 6 1 7
REMARK H PARENT
REMARK Flexibility Score: inf
ROOT
ATOM      1  C   UNL     1      32.995   7.040  47.209  1.00  0.00     0.053 C 
ENDROOT
BRANCH   1   2
ATOM      2  C   UNL     1      33.876   6.380  46.197  1.00  0.00     0.041 C 
ATOM      3  O   UNL     1      34.609   5.411  46.530  1.00  0.00    -0.550 OA
ATOM      4  O   UNL     1      33.853   6.802  44.873  1.00  0.00    -0.550 OA
ENDBRANCH   1   2
BRANCH   1   5
ATOM      5  C   UNL     1      31.737   6.202  47.453  1.00  0.00     0.006 C 
BRANCH   5   6
ATOM      6  C   UNL     1      30.665   7.021  48.182  1.00  0.00    -0.003 C 
ATOM      7  C   UNL     1      29.355   6.244  48.286  1.00  0.00     0.004 C 
ENDBRANCH   5   6
ENDBRANCH   1   5
TORSDOF 3
ENDMDL
MODEL 2
REMARK VINA RESULT:    -3.260      1.866      2.410
REMARK INTER + INTRA:          -3.848
REMARK INTER:                  -3.784
REMARK INTRA:                  -0.063
REMARK UNBOUND:                -0.016
REMARK SMILES CCCCC(=O)[O-]
REMARK SMILES IDX 4 1 5 2 6 3 7 4 3 5 2 6 1 7
REMARK H PARENT
REMARK Flexibility Score: inf
ROOT
ATOM      1  C   UNL     1      31.540   6.330  47.419  1.00  0.00     0.053 C 
ENDROOT
BRANCH   1   2
ATOM      2  C   UNL     1      32.720   5.955  48.257  1.00  0.00     0.041 C 
ATOM      3  O   UNL     1      33.490   5.030  47.888  1.00  0.00    -0.550 OA
ATOM      4  O   UNL     1      32.997   6.657  49.423  1.00  0.00    -0.550 OA
ENDBRANCH   1   2
BRANCH   1   5
ATOM      5  C   UNL     1      30.446   6.962  48.285  1.00  0.00     0.006 C 
BRANCH   5   6
ATOM      6  C   UNL     1      29.537   5.887  48.892  1.00  0.00    -0.003 C 
ATOM      7  C   UNL     1      28.376   5.555  47.958  1.00  0.00     0.004 C 
ENDBRANCH   5   6
ENDBRANCH   1   5
TORSDOF 3
ENDMDL
MODEL 3
REMARK VINA RESULT:    -3.164     16.561     17.407
REMARK INTER + INTRA:          -3.735
REMARK INTER:                  -3.699
REMARK INTRA:                  -0.037
REMARK UNBOUND:                -0.016
REMARK SMILES CCCCC(=O)[O-]
REMARK SMILES IDX 4 1 5 2 6 3 7 4 3 5 2 6 1 7
REMARK H PARENT
REMARK Flexibility Score: inf
ROOT
ATOM      1  C   UNL     1      21.634  12.649  35.531  1.00  0.00     0.053 C 
ENDROOT
BRANCH   1   2
ATOM      2  C   UNL     1      20.460  13.564  35.388  1.00  0.00     0.041 C 
ATOM      3  O   UNL     1      20.462  14.465  34.508  1.00  0.00    -0.550 OA
ATOM      4  O   UNL     1      19.341  13.393  36.194  1.00  0.00    -0.550 OA
ENDBRANCH   1   2
BRANCH   1   5
ATOM      5  C   UNL     1      21.168  11.225  35.845  1.00  0.00     0.006 C 
BRANCH   5   6
ATOM      6  C   UNL     1      22.350  10.248  35.849  1.00  0.00    -0.003 C 
ATOM      7  C   UNL     1      23.665  10.975  35.579  1.00  0.00     0.004 C 
ENDBRANCH   5   6
ENDBRANCH   1   5
TORSDOF 3
ENDMDL
MODEL 4
REMARK VINA RESULT:    -3.143      1.532      2.258
REMARK INTER + INTRA:          -3.710
REMARK INTER:                  -3.617
REMARK INTRA:                  -0.093
REMARK UNBOUND:                -0.016
REMARK SMILES CCCCC(=O)[O-]
REMARK SMILES IDX 4 1 5 2 6 3 7 4 3 5 2 6 1 7
REMARK H PARENT
REMARK Flexibility Score: inf
ROOT
ATOM      1  C   UNL     1      34.591   4.846  47.464  1.00  0.00     0.053 C 
ENDROOT
BRANCH   1   2
ATOM      2  C   UNL     1      34.857   5.042  46.005  1.00  0.00     0.041 C 
ATOM      3  O   UNL     1      34.420   6.064  45.414  1.00  0.00    -0.550 OA
ATOM      4  O   UNL     1      35.627   4.120  45.309  1.00  0.00    -0.550 OA
ENDBRANCH   1   2
BRANCH   1   5
ATOM      5  C   UNL     1      33.658   5.941  47.990  1.00  0.00     0.006 C 
BRANCH   5   6
ATOM      6  C   UNL     1      32.219   5.426  48.111  1.00  0.00    -0.003 C 
ATOM      7  C   UNL     1      31.232   6.394  47.466  1.00  0.00     0.004 C 
ENDBRANCH   5   6
ENDBRANCH   1   5
TORSDOF 3
ENDMDL
MODEL 5
REMARK VINA RESULT:    -3.142      1.164      1.525
REMARK INTER + INTRA:          -3.709
REMARK INTER:                  -3.667
REMARK INTRA:                  -0.042
REMARK UNBOUND:                -0.016
REMARK SMILES CCCCC(=O)[O-]
REMARK SMILES IDX 4 1 5 2 6 3 7 4 3 5 2 6 1 7
REMARK H PARENT
REMARK Flexibility Score: inf
ROOT
ATOM      1  C   UNL     1      31.511   6.244  47.491  1.00  0.00     0.053 C 
ENDROOT
BRANCH   1   2
ATOM      2  C   UNL     1      33.005   6.225  47.428  1.00  0.00     0.041 C 
ATOM      3  O   UNL     1      33.664   5.520  48.238  1.00  0.00    -0.550 OA
ATOM      4  O   UNL     1      33.670   6.947  46.445  1.00  0.00    -0.550 OA
ENDBRANCH   1   2
BRANCH   1   5
ATOM      5  C   UNL     1      31.024   7.465  48.277  1.00  0.00     0.006 C 
BRANCH   5   6
ATOM      6  C   UNL     1      29.746   7.139  49.060  1.00  0.00    -0.003 C 
ATOM      7  C   UNL     1      29.131   5.824  48.589  1.00  0.00     0.004 C 
ENDBRANCH   5   6
ENDBRANCH   1   5
TORSDOF 3
ENDMDL
MODEL 6
REMARK VINA RESULT:    -3.125      3.471      4.517
REMARK INTER + INTRA:          -3.689
REMARK INTER:                  -3.667
REMARK INTRA:                  -0.023
REMARK UNBOUND:                -0.016
REMARK SMILES CCCCC(=O)[O-]
REMARK SMILES IDX 4 1 5 2 6 3 7 4 3 5 2 6 1 7
REMARK H PARENT
REMARK Flexibility Score: inf
ROOT
ATOM      1  C   UNL     1      30.476   6.580  47.891  1.00  0.00     0.053 C 
ENDROOT
BRANCH   1   2
ATOM      2  C   UNL     1      29.323   5.983  48.633  1.00  0.00     0.041 C 
ATOM      3  O   UNL     1      29.346   5.916  49.891  1.00  0.00    -0.550 OA
ATOM      4  O   UNL     1      28.202   5.543  47.941  1.00  0.00    -0.550 OA
ENDBRANCH   1   2
BRANCH   1   5
ATOM      5  C   UNL     1      31.709   5.679  48.001  1.00  0.00     0.006 C 
BRANCH   5   6
ATOM      6  C   UNL     1      33.000   6.499  47.900  1.00  0.00    -0.003 C 
ATOM      7  C   UNL     1      33.469   6.612  46.452  1.00  0.00     0.004 C 
ENDBRANCH   5   6
ENDBRANCH   1   5
TORSDOF 3
ENDMDL
MODEL 7
REMARK VINA RESULT:    -3.116      3.916      4.542
REMARK INTER + INTRA:          -3.678
REMARK INTER:                  -3.630
REMARK INTRA:                  -0.048
REMARK UNBOUND:                -0.016
REMARK SMILES CCCCC(=O)[O-]
REMARK SMILES IDX 4 1 5 2 6 3 7 4 3 5 2 6 1 7
REMARK H PARENT
REMARK Flexibility Score: inf
ROOT
ATOM      1  C   UNL     1      30.368   6.512  47.889  1.00  0.00     0.053 C 
ENDROOT
BRANCH   1   2
ATOM      2  C   UNL     1      29.227   5.867  48.608  1.00  0.00     0.041 C 
ATOM      3  O   UNL     1      29.273   5.709  49.857  1.00  0.00    -0.550 OA
ATOM      4  O   UNL     1      28.090   5.483  47.908  1.00  0.00    -0.550 OA
ENDBRANCH   1   2
BRANCH   1   5
ATOM      5  C   UNL     1      31.256   7.280  48.872  1.00  0.00     0.006 C 
BRANCH   5   6
ATOM      6  C   UNL     1      30.845   8.756  48.947  1.00  0.00    -0.003 C 
ATOM      7  C   UNL     1      31.921   9.658  48.349  1.00  0.00     0.004 C 
ENDBRANCH   5   6
ENDBRANCH   1   5
TORSDOF 3
ENDMDL
MODEL 8
REMARK VINA RESULT:    -3.038     15.984     16.868
REMARK INTER + INTRA:          -3.586
REMARK INTER:                  -3.560
REMARK INTRA:                  -0.026
REMARK UNBOUND:                -0.016
REMARK SMILES CCCCC(=O)[O-]
REMARK SMILES IDX 4 1 5 2 6 3 7 4 3 5 2 6 1 7
REMARK H PARENT
REMARK Flexibility Score: inf
ROOT
ATOM      1  C   UNL     1      21.145   9.636  35.817  1.00  0.00     0.053 C 
ENDROOT
BRANCH   1   2
ATOM      2  C   UNL     1      19.661   9.669  36.005  1.00  0.00     0.041 C 
ATOM      3  O   UNL     1      18.939  10.347  35.227  1.00  0.00    -0.550 OA
ATOM      4  O   UNL     1      19.070   8.911  37.008  1.00  0.00    -0.550 OA
ENDBRANCH   1   2
BRANCH   1   5
ATOM      5  C   UNL     1      21.714  11.057  35.803  1.00  0.00     0.006 C 
BRANCH   5   6
ATOM      6  C   UNL     1      22.978  11.134  34.938  1.00  0.00    -0.003 C 
ATOM      7  C   UNL     1      24.232  10.875  35.770  1.00  0.00     0.004 C 
ENDBRANCH   5   6
ENDBRANCH   1   5
TORSDOF 3
ENDMDL
MODEL 9
REMARK VINA RESULT:    -2.991     16.292     17.054
REMARK INTER + INTRA:          -3.531
REMARK INTER:                  -3.443
REMARK INTRA:                  -0.088
REMARK UNBOUND:                -0.016
REMARK SMILES CCCCC(=O)[O-]
REMARK SMILES IDX 4 1 5 2 6 3 7 4 3 5 2 6 1 7
REMARK H PARENT
REMARK Flexibility Score: inf
ROOT
ATOM      1  C   UNL     1      22.226  10.382  35.864  1.00  0.00     0.053 C 
ENDROOT
BRANCH   1   2
ATOM      2  C   UNL     1      21.058   9.636  35.303  1.00  0.00     0.041 C 
ATOM      3  O   UNL     1      20.969   9.437  34.063  1.00  0.00    -0.550 OA
ATOM      4  O   UNL     1      20.090   9.116  36.154  1.00  0.00    -0.550 OA
ENDBRANCH   1   2
BRANCH   1   5
ATOM      5  C   UNL     1      22.192  11.846  35.414  1.00  0.00     0.006 C 
BRANCH   5   6
ATOM      6  C   UNL     1      20.868  12.511  35.806  1.00  0.00    -0.003 C 
ATOM      7  C   UNL     1      20.599  13.747  34.952  1.00  0.00     0.004 C 
ENDBRANCH   5   6
ENDBRANCH   1   5
TORSDOF 3
ENDMDL
