MODEL 1
REMARK VINA RESULT:    -2.687      0.000      0.000
REMARK INTER + INTRA:          -2.923
REMARK INTER:                  -2.923
REMARK INTRA:                   0.000
REMARK UNBOUND:                 0.000
REMARK SMILES [NH3+]CC(=O)[O-]
REMARK SMILES IDX 2 1 1 2 3 6 4 7 5 8
REMARK H PARENT 1 3 1 4 1 5
REMARK Flexibility Score: inf
ROOT
ATOM      1  C   UNL     1     -37.674  19.145 -28.146  1.00  0.00     0.312 C 
ENDROOT
BRANCH   1   2
ATOM      2  N   UNL     1     -37.359  17.969 -27.336  1.00  0.00    -0.353 N 
ATOM      3  H   UNL     1     -38.044  17.203 -27.537  1.00  0.00     0.344 HD
ATOM      4  H   UNL     1     -36.399  17.635 -27.578  1.00  0.00     0.344 HD
ATOM      5  H   UNL     1     -37.390  18.214 -26.320  1.00  0.00     0.344 HD
ENDBRANCH   1   2
BRANCH   1   6
ATOM      6  C   UNL     1     -39.021  19.001 -28.786  1.00  0.00     0.096 C 
ATOM      7  O   UNL     1     -39.115  18.624 -29.984  1.00  0.00    -0.544 OA
ATOM      8  O   UNL     1     -40.172  19.232 -28.044  1.00  0.00    -0.544 OA
ENDBRANCH   1   6
TORSDOF 2
ENDMDL
MODEL 2
REMARK VINA RESULT:    -2.658      2.343      2.743
REMARK INTER + INTRA:          -2.891
REMARK INTER:                  -2.891
REMARK INTRA:                   0.000
REMARK UNBOUND:                 0.000
REMARK SMILES [NH3+]CC(=O)[O-]
REMARK SMILES IDX 2 1 1 2 3 6 4 7 5 8
REMARK H PARENT 1 3 1 4 1 5
REMARK Flexibility Score: inf
ROOT
ATOM      1  C   UNL     1     -39.541  19.131 -28.378  1.00  0.00     0.312 C 
ENDROOT
BRANCH   1   2
ATOM      2  N   UNL     1     -40.794  19.458 -27.700  1.00  0.00    -0.353 N 
ATOM      3  H   UNL     1     -40.599  20.018 -26.838  1.00  0.00     0.344 HD
ATOM      4  H   UNL     1     -41.393  20.025 -28.343  1.00  0.00     0.344 HD
ATOM      5  H   UNL     1     -41.304  18.581 -27.445  1.00  0.00     0.344 HD
ENDBRANCH   1   2
BRANCH   1   6
ATOM      6  C   UNL     1     -39.126  20.246 -29.289  1.00  0.00     0.096 C 
ATOM      7  O   UNL     1     -39.682  21.373 -29.202  1.00  0.00    -0.544 OA
ATOM      8  O   UNL     1     -38.092  20.056 -30.196  1.00  0.00    -0.544 OA
ENDBRANCH   1   6
TORSDOF 2
ENDMDL
MODEL 3
REMARK VINA RESULT:    -2.625      1.324      1.659
REMARK INTER + INTRA:          -2.856
REMARK INTER:                  -2.856
REMARK INTRA:                   0.000
REMARK UNBOUND:                 0.000
REMARK SMILES [NH3+]CC(=O)[O-]
REMARK SMILES IDX 2 1 1 2 3 6 4 7 5 8
REMARK H PARENT 1 3 1 4 1 5
REMARK Flexibility Score: inf
ROOT
ATOM      1  C   UNL     1     -37.577  17.963 -27.774  1.00  0.00     0.312 C 
ENDROOT
BRANCH   1   2
ATOM      2  N   UNL     1     -36.482  18.524 -26.983  1.00  0.00    -0.353 N 
ATOM      3  H   UNL     1     -35.898  17.752 -26.584  1.00  0.00     0.344 HD
ATOM      4  H   UNL     1     -35.883  19.117 -27.601  1.00  0.00     0.344 HD
ATOM      5  H   UNL     1     -36.864  19.114 -26.209  1.00  0.00     0.344 HD
ENDBRANCH   1   2
BRANCH   1   6
ATOM      6  C   UNL     1     -38.468  19.052 -28.289  1.00  0.00     0.096 C 
ATOM      7  O   UNL     1     -39.717  18.958 -28.164  1.00  0.00    -0.544 OA
ATOM      8  O   UNL     1     -37.916  20.192 -28.858  1.00  0.00    -0.544 OA
ENDBRANCH   1   6
TORSDOF 2
ENDMDL
MODEL 4
REMARK VINA RESULT:    -2.598      2.069      2.203
REMARK INTER + INTRA:          -2.826
REMARK INTER:                  -2.826
REMARK INTRA:                   0.000
REMARK UNBOUND:                 0.000
REMARK SMILES [NH3+]CC(=O)[O-]
REMARK SMILES IDX 2 1 1 2 3 6 4 7 5 8
REMARK H PARENT 1 3 1 4 1 5
REMARK Flexibility Score: inf
ROOT
ATOM      1  C   UNL     1     -38.506  19.348 -29.913  1.00  0.00     0.312 C 
ENDROOT
BRANCH   1   2
ATOM      2  N   UNL     1     -38.726  18.251 -30.855  1.00  0.00    -0.353 N 
ATOM      3  H   UNL     1     -38.055  17.472 -30.661  1.00  0.00     0.344 HD
ATOM      4  H   UNL     1     -39.702  17.893 -30.740  1.00  0.00     0.344 HD
ATOM      5  H   UNL     1     -38.601  18.590 -31.836  1.00  0.00     0.344 HD
ENDBRANCH   1   2
BRANCH   1   6
ATOM      6  C   UNL     1     -38.929  18.951 -28.532  1.00  0.00     0.096 C 
ATOM      7  O   UNL     1     -38.115  18.374 -27.763  1.00  0.00    -0.544 OA
ATOM      8  O   UNL     1     -40.203  19.264 -28.077  1.00  0.00    -0.544 OA
ENDBRANCH   1   6
TORSDOF 2
ENDMDL
MODEL 5
REMARK VINA RESULT:    -2.570     13.150     13.373
REMARK INTER + INTRA:          -2.795
REMARK INTER:                  -2.795
REMARK INTRA:                   0.000
REMARK UNBOUND:                 0.000
REMARK SMILES [NH3+]CC(=O)[O-]
REMARK SMILES IDX 2 1 1 2 3 6 4 7 5 8
REMARK H PARENT 1 3 1 4 1 5
REMARK Flexibility Score: inf
ROOT
ATOM      1  C   UNL     1     -46.620   9.212 -29.986  1.00  0.00     0.312 C 
ENDROOT
BRANCH   1   2
ATOM      2  N   UNL     1     -45.925   8.035 -29.467  1.00  0.00    -0.353 N 
ATOM      3  H   UNL     1     -45.021   7.900 -29.976  1.00  0.00     0.344 HD
ATOM      4  H   UNL     1     -45.724   8.178 -28.451  1.00  0.00     0.344 HD
ATOM      5  H   UNL     1     -46.525   7.185 -29.579  1.00  0.00     0.344 HD
ENDBRANCH   1   2
BRANCH   1   6
ATOM      6  C   UNL     1     -47.390   8.868 -31.224  1.00  0.00     0.096 C 
ATOM      7  O   UNL     1     -47.025   7.904 -31.948  1.00  0.00    -0.544 OA
ATOM      8  O   UNL     1     -48.538   9.578 -31.550  1.00  0.00    -0.544 OA
ENDBRANCH   1   6
TORSDOF 2
ENDMDL
MODEL 6
REMARK VINA RESULT:    -2.534      2.457      2.918
REMARK INTER + INTRA:          -2.756
REMARK INTER:                  -2.756
REMARK INTRA:                   0.000
REMARK UNBOUND:                 0.000
REMARK SMILES [NH3+]CC(=O)[O-]
REMARK SMILES IDX 2 1 1 2 3 6 4 7 5 8
REMARK H PARENT 1 3 1 4 1 5
REMARK Flexibility Score: inf
ROOT
ATOM      1  C   UNL     1     -38.913  20.967 -29.241  1.00  0.00     0.312 C 
ENDROOT
BRANCH   1   2
ATOM      2  N   UNL     1     -40.152  21.741 -29.186  1.00  0.00    -0.353 N 
ATOM      3  H   UNL     1     -40.227  22.230 -28.264  1.00  0.00     0.344 HD
ATOM      4  H   UNL     1     -40.142  22.456 -29.948  1.00  0.00     0.344 HD
ATOM      5  H   UNL     1     -40.975  21.111 -29.321  1.00  0.00     0.344 HD
ENDBRANCH   1   2
BRANCH   1   6
ATOM      6  C   UNL     1     -39.198  19.503 -29.106  1.00  0.00     0.096 C 
ATOM      7  O   UNL     1     -39.771  19.063 -28.075  1.00  0.00    -0.544 OA
ATOM      8  O   UNL     1     -38.878  18.633 -30.140  1.00  0.00    -0.544 OA
ENDBRANCH   1   6
TORSDOF 2
ENDMDL
MODEL 7
REMARK VINA RESULT:    -2.533     12.926     12.959
REMARK INTER + INTRA:          -2.755
REMARK INTER:                  -2.755
REMARK INTRA:                   0.000
REMARK UNBOUND:                 0.000
REMARK SMILES [NH3+]CC(=O)[O-]
REMARK SMILES IDX 2 1 1 2 3 6 4 7 5 8
REMARK H PARENT 1 3 1 4 1 5
REMARK Flexibility Score: inf
ROOT
ATOM      1  C   UNL     1     -51.451  16.501 -30.979  1.00  0.00     0.312 C 
ENDROOT
BRANCH   1   2
ATOM      2  N   UNL     1     -50.047  16.090 -30.986  1.00  0.00    -0.353 N 
ATOM      3  H   UNL     1     -49.610  16.326 -31.907  1.00  0.00     0.344 HD
ATOM      4  H   UNL     1     -49.538  16.600 -30.229  1.00  0.00     0.344 HD
ATOM      5  H   UNL     1     -49.974  15.061 -30.813  1.00  0.00     0.344 HD
ENDBRANCH   1   2
BRANCH   1   6
ATOM      6  C   UNL     1     -51.605  17.843 -30.331  1.00  0.00     0.096 C 
ATOM      7  O   UNL     1     -51.582  18.890 -31.031  1.00  0.00    -0.544 OA
ATOM      8  O   UNL     1     -51.824  17.933 -28.963  1.00  0.00    -0.544 OA
ENDBRANCH   1   6
TORSDOF 2
ENDMDL
MODEL 8
REMARK VINA RESULT:    -2.479      2.285      2.399
REMARK INTER + INTRA:          -2.697
REMARK INTER:                  -2.697
REMARK INTRA:                   0.000
REMARK UNBOUND:                 0.000
REMARK SMILES [NH3+]CC(=O)[O-]
REMARK SMILES IDX 2 1 1 2 3 6 4 7 5 8
REMARK H PARENT 1 3 1 4 1 5
REMARK Flexibility Score: inf
ROOT
ATOM      1  C   UNL     1     -37.061  17.621 -29.925  1.00  0.00     0.312 C 
ENDROOT
BRANCH   1   2
ATOM      2  N   UNL     1     -36.917  16.220 -30.315  1.00  0.00    -0.353 N 
ATOM      3  H   UNL     1     -35.955  16.051 -30.693  1.00  0.00     0.344 HD
ATOM      4  H   UNL     1     -37.061  15.615 -29.475  1.00  0.00     0.344 HD
ATOM      5  H   UNL     1     -37.630  15.973 -31.039  1.00  0.00     0.344 HD
ENDBRANCH   1   2
BRANCH   1   6
ATOM      6  C   UNL     1     -38.366  18.174 -30.412  1.00  0.00     0.096 C 
ATOM      7  O   UNL     1     -38.891  17.721 -31.463  1.00  0.00    -0.544 OA
ATOM      8  O   UNL     1     -39.025  19.150 -29.677  1.00  0.00    -0.544 OA
ENDBRANCH   1   6
TORSDOF 2
ENDMDL
MODEL 9
REMARK VINA RESULT:    -2.459      1.629      2.055
REMARK INTER + INTRA:          -2.674
REMARK INTER:                  -2.674
REMARK INTRA:                   0.000
REMARK UNBOUND:                 0.000
REMARK SMILES [NH3+]CC(=O)[O-]
REMARK SMILES IDX 2 1 1 2 3 6 4 7 5 8
REMARK H PARENT 1 3 1 4 1 5
REMARK Flexibility Score: inf
ROOT
ATOM      1  C   UNL     1     -38.313  18.636 -28.246  1.00  0.00     0.312 C 
ENDROOT
BRANCH   1   2
ATOM      2  N   UNL     1     -37.306  18.150 -27.304  1.00  0.00    -0.353 N 
ATOM      3  H   UNL     1     -36.542  17.655 -27.821  1.00  0.00     0.344 HD
ATOM      4  H   UNL     1     -36.895  18.964 -26.793  1.00  0.00     0.344 HD
ATOM      5  H   UNL     1     -37.745  17.500 -26.613  1.00  0.00     0.344 HD
ENDBRANCH   1   2
BRANCH   1   6
ATOM      6  C   UNL     1     -37.944  18.269 -29.651  1.00  0.00     0.096 C 
ATOM      7  O   UNL     1     -38.243  19.035 -30.604  1.00  0.00    -0.544 OA
ATOM      8  O   UNL     1     -37.225  17.107 -29.900  1.00  0.00    -0.544 OA
ENDBRANCH   1   6
TORSDOF 2
ENDMDL
