MODEL 1
REMARK VINA RESULT:    -3.633      0.000      0.000
REMARK INTER + INTRA:          -5.923
REMARK INTER:                  -5.545
REMARK INTRA:                  -0.378
REMARK UNBOUND:                -0.378
REMARK SMILES CC1=CCC[C@H](C)C(=O)C[C@H](C(C)C)C(=O)C1
REMARK SMILES IDX 8 1 9 2 6 3 7 4 5 5 4 6 3 7 2 8 1 9 10 11 11 12 15 13 16 14
REMARK SMILES IDX 17 15 12 17 13 18 14 19
REMARK H PARENT
REMARK Flexibility Score: 70.00
ROOT
ATOM      1  C   UNL     1      17.113  21.560  10.905  1.00  0.00     0.136 C 
ATOM      2  O   UNL     1      17.475  22.153  11.913  1.00  0.00    -0.299 OA
ENDROOT
BRANCH   1   3
ATOM      3  C   UNL     1      16.067  20.469  11.016  1.00  0.00     0.053 C 
ATOM      4  C   UNL     1      15.404  20.262   9.651  1.00  0.00     0.016 C 
BRANCH   3   5
ATOM      5  C   UNL     1      16.664  19.132  11.524  1.00  0.00     0.015 C 
BRANCH   5   6
ATOM      6  C   UNL     1      16.993  18.124  10.410  1.00  0.00     0.028 C 
BRANCH   6   7
ATOM      7  C   UNL     1      18.464  17.783  10.387  1.00  0.00    -0.028 C 
ATOM      8  C   UNL     1      19.374  18.317   9.540  1.00  0.00    -0.070 CG0
ATOM      9  C   UNL     1      20.809  17.870   9.667  1.00  0.00     0.039 C 
ATOM     10  G   UNL     1      19.014  19.346   8.482  1.00  0.00     0.000 G0
ENDBRANCH   6   7
ENDBRANCH   5   6
ENDBRANCH   3   5
ENDBRANCH   1   3
BRANCH   1  11
ATOM     11  C   UNL     1      17.760  21.901   9.581  1.00  0.00     0.087 C 
BRANCH  11  12
ATOM     12  C   UNL     1      19.303  21.748   9.602  1.00  0.00     0.066 C 
BRANCH  12  13
ATOM     13  C   UNL     1      19.770  20.670   8.632  1.00  0.00     0.140 C 
ATOM     14  O   UNL     1      20.799  20.843   7.995  1.00  0.00    -0.299 OA
BRANCH  13  15
ATOM     15  C   UNL     1      19.045  19.353   8.471  1.00  0.00     0.106 CG0
ATOM     16  G   UNL     1      19.391  18.326   9.536  1.00  0.00     0.000 G0
ENDBRANCH  13  15
ENDBRANCH  12  13
BRANCH  12  17
ATOM     17  C   UNL     1      20.074  23.081   9.358  1.00  0.00    -0.006 C 
ATOM     18  C   UNL     1      20.782  23.573  10.631  1.00  0.00     0.008 C 
ATOM     19  C   UNL     1      19.211  24.210   8.768  1.00  0.00     0.008 C 
ENDBRANCH  12  17
ENDBRANCH  11  12
ENDBRANCH   1  11
TORSDOF 1
ENDMDL
MODEL 2
REMARK VINA RESULT:    -3.560      5.253      7.276
REMARK INTER + INTRA:          -5.811
REMARK INTER:                  -5.596
REMARK INTRA:                  -0.214
REMARK UNBOUND:                -0.378
REMARK SMILES CC1=CCC[C@H](C)C(=O)C[C@H](C(C)C)C(=O)C1
REMARK SMILES IDX 8 1 9 2 6 3 7 4 5 5 4 6 3 7 2 8 1 9 10 11 11 12 15 13 16 14
REMARK SMILES IDX 17 15 12 17 13 18 14 19
REMARK H PARENT
REMARK Flexibility Score: 70.00
ROOT
ATOM      1  C   UNL     1      14.349  17.783  16.367  1.00  0.00     0.136 C 
ATOM      2  O   UNL     1      13.382  18.293  15.819  1.00  0.00    -0.299 OA
ENDROOT
BRANCH   1   3
ATOM      3  C   UNL     1      14.460  16.273  16.432  1.00  0.00     0.053 C 
ATOM      4  C   UNL     1      13.349  15.720  17.329  1.00  0.00     0.016 C 
BRANCH   3   5
ATOM      5  C   UNL     1      14.386  15.617  15.030  1.00  0.00     0.015 C 
BRANCH   5   6
ATOM      6  C   UNL     1      15.732  15.561  14.288  1.00  0.00     0.028 C 
BRANCH   6   7
ATOM      7  C   UNL     1      15.787  16.565  13.161  1.00  0.00    -0.028 C 
ATOM      8  C   UNL     1      16.647  17.607  13.087  1.00  0.00    -0.070 CG0
ATOM      9  C   UNL     1      16.570  18.504  11.878  1.00  0.00     0.039 C 
ATOM     10  G   UNL     1      17.684  17.900  14.156  1.00  0.00     0.000 G0
ENDBRANCH   6   7
ENDBRANCH   5   6
ENDBRANCH   3   5
ENDBRANCH   1   3
BRANCH   1  11
ATOM     11  C   UNL     1      15.385  18.678  17.011  1.00  0.00     0.087 C 
BRANCH  11  12
ATOM     12  C   UNL     1      16.839  18.289  16.638  1.00  0.00     0.066 C 
BRANCH  12  13
ATOM     13  C   UNL     1      17.221  18.815  15.260  1.00  0.00     0.140 C 
ATOM     14  O   UNL     1      17.205  20.020  15.053  1.00  0.00    -0.299 OA
BRANCH  13  15
ATOM     15  C   UNL     1      17.690  17.906  14.146  1.00  0.00     0.106 CG0
ATOM     16  G   UNL     1      16.635  17.633  13.088  1.00  0.00     0.000 G0
ENDBRANCH  13  15
ENDBRANCH  12  13
BRANCH  12  17
ATOM     17  C   UNL     1      17.898  18.710  17.702  1.00  0.00    -0.006 C 
ATOM     18  C   UNL     1      17.934  17.735  18.890  1.00  0.00     0.008 C 
ATOM     19  C   UNL     1      17.741  20.153  18.212  1.00  0.00     0.008 C 
ENDBRANCH  12  17
ENDBRANCH  11  12
ENDBRANCH   1  11
TORSDOF 1
ENDMDL
MODEL 3
REMARK VINA RESULT:    -3.441      1.613      3.745
REMARK INTER + INTRA:          -5.630
REMARK INTER:                  -5.648
REMARK INTRA:                   0.018
REMARK UNBOUND:                -0.378
REMARK SMILES CC1=CCC[C@H](C)C(=O)C[C@H](C(C)C)C(=O)C1
REMARK SMILES IDX 8 1 9 2 6 3 7 4 5 5 4 6 3 7 2 8 1 9 10 11 11 12 15 13 16 14
REMARK SMILES IDX 17 15 12 17 13 18 14 19
REMARK H PARENT
REMARK Flexibility Score: 70.00
ROOT
ATOM      1  C   UNL     1      19.708  19.456   8.964  1.00  0.00     0.136 C 
ATOM      2  O   UNL     1      19.632  19.575   7.749  1.00  0.00    -0.299 OA
ENDROOT
BRANCH   1   3
ATOM      3  C   UNL     1      19.708  18.070   9.580  1.00  0.00     0.053 C 
ATOM      4  C   UNL     1      20.630  18.059  10.802  1.00  0.00     0.016 C 
BRANCH   3   5
ATOM      5  C   UNL     1      18.286  17.607   9.982  1.00  0.00     0.015 C 
BRANCH   5   6
ATOM      6  C   UNL     1      17.662  18.412  11.135  1.00  0.00     0.028 C 
BRANCH   6   7
ATOM      7  C   UNL     1      16.364  19.061  10.719  1.00  0.00    -0.028 C 
ATOM      8  C   UNL     1      16.145  20.395  10.654  1.00  0.00    -0.070 CG0
ATOM      9  C   UNL     1      14.787  20.869  10.204  1.00  0.00     0.039 C 
ATOM     10  G   UNL     1      17.207  21.423  11.000  1.00  0.00     0.000 G0
ENDBRANCH   6   7
ENDBRANCH   5   6
ENDBRANCH   3   5
ENDBRANCH   1   3
BRANCH   1  11
ATOM     11  C   UNL     1      19.750  20.699   9.824  1.00  0.00     0.087 C 
BRANCH  11  12
ATOM     12  C   UNL     1      19.055  21.918   9.163  1.00  0.00     0.066 C 
BRANCH  12  13
ATOM     13  C   UNL     1      17.725  22.233   9.835  1.00  0.00     0.140 C 
ATOM     14  O   UNL     1      17.019  23.122   9.379  1.00  0.00    -0.299 OA
BRANCH  13  15
ATOM     15  C   UNL     1      17.203  21.441  11.013  1.00  0.00     0.106 CG0
ATOM     16  G   UNL     1      16.169  20.393  10.641  1.00  0.00     0.000 G0
ENDBRANCH  13  15
ENDBRANCH  12  13
BRANCH  12  17
ATOM     17  C   UNL     1      19.950  23.192   9.087  1.00  0.00    -0.006 C 
ATOM     18  C   UNL     1      20.949  23.120   7.920  1.00  0.00     0.008 C 
ATOM     19  C   UNL     1      20.693  23.520  10.393  1.00  0.00     0.008 C 
ENDBRANCH  12  17
ENDBRANCH  11  12
ENDBRANCH   1  11
TORSDOF 1
ENDMDL
MODEL 4
REMARK VINA RESULT:    -3.418      1.710      4.031
REMARK INTER + INTRA:          -5.593
REMARK INTER:                  -5.480
REMARK INTRA:                  -0.114
REMARK UNBOUND:                -0.378
REMARK SMILES CC1=CCC[C@H](C)C(=O)C[C@H](C(C)C)C(=O)C1
REMARK SMILES IDX 8 1 9 2 6 3 7 4 5 5 4 6 3 7 2 8 1 9 10 11 11 12 15 13 16 14
REMARK SMILES IDX 17 15 12 17 13 18 14 19
REMARK H PARENT
REMARK Flexibility Score: 70.00
ROOT
ATOM      1  C   UNL     1      18.188  21.934   9.973  1.00  0.00     0.136 C 
ATOM      2  O   UNL     1      17.193  22.643   9.911  1.00  0.00    -0.299 OA
ENDROOT
BRANCH   1   3
ATOM      3  C   UNL     1      19.468  22.382   9.298  1.00  0.00     0.053 C 
ATOM      4  C   UNL     1      19.947  23.689   9.937  1.00  0.00     0.016 C 
BRANCH   3   5
ATOM      5  C   UNL     1      20.584  21.310   9.383  1.00  0.00     0.015 C 
BRANCH   5   6
ATOM      6  C   UNL     1      20.654  20.375   8.163  1.00  0.00     0.028 C 
BRANCH   6   7
ATOM      7  C   UNL     1      20.739  18.926   8.579  1.00  0.00    -0.028 C 
ATOM      8  C   UNL     1      19.690  18.075   8.657  1.00  0.00    -0.070 CG0
ATOM      9  C   UNL     1      19.961  16.653   9.079  1.00  0.00     0.039 C 
ATOM     10  G   UNL     1      18.266  18.487   8.328  1.00  0.00     0.000 G0
ENDBRANCH   6   7
ENDBRANCH   5   6
ENDBRANCH   3   5
ENDBRANCH   1   3
BRANCH   1  11
ATOM     11  C   UNL     1      18.096  20.600  10.682  1.00  0.00     0.087 C 
BRANCH  11  12
ATOM     12  C   UNL     1      16.883  19.751  10.222  1.00  0.00     0.066 C 
BRANCH  12  13
ATOM     13  C   UNL     1      17.329  18.465   9.539  1.00  0.00     0.140 C 
ATOM     14  O   UNL     1      16.884  17.394   9.928  1.00  0.00    -0.299 OA
BRANCH  13  15
ATOM     15  C   UNL     1      18.255  18.460   8.343  1.00  0.00     0.106 CG0
ATOM     16  G   UNL     1      19.685  18.069   8.672  1.00  0.00     0.000 G0
ENDBRANCH  13  15
ENDBRANCH  12  13
BRANCH  12  17
ATOM     17  C   UNL     1      15.859  19.445  11.358  1.00  0.00    -0.006 C 
ATOM     18  C   UNL     1      14.463  20.002  11.034  1.00  0.00     0.008 C 
ATOM     19  C   UNL     1      16.302  19.919  12.753  1.00  0.00     0.008 C 
ENDBRANCH  12  17
ENDBRANCH  11  12
ENDBRANCH   1  11
TORSDOF 1
ENDMDL
MODEL 5
REMARK VINA RESULT:    -3.381      3.576      5.793
REMARK INTER + INTRA:          -5.537
REMARK INTER:                  -5.166
REMARK INTRA:                  -0.372
REMARK UNBOUND:                -0.378
REMARK SMILES CC1=CCC[C@H](C)C(=O)C[C@H](C(C)C)C(=O)C1
REMARK SMILES IDX 8 1 9 2 6 3 7 4 5 5 4 6 3 7 2 8 1 9 10 11 11 12 15 13 16 14
REMARK SMILES IDX 17 15 12 17 13 18 14 19
REMARK H PARENT
REMARK Flexibility Score: 70.00
ROOT
ATOM      1  C   UNL     1      17.402  18.127  10.864  1.00  0.00     0.136 C 
ATOM      2  O   UNL     1      16.179  18.128  10.833  1.00  0.00    -0.299 OA
ENDROOT
BRANCH   1   3
ATOM      3  C   UNL     1      18.182  18.217   9.568  1.00  0.00     0.053 C 
ATOM      4  C   UNL     1      19.618  18.655   9.869  1.00  0.00     0.016 C 
BRANCH   3   5
ATOM      5  C   UNL     1      18.187  16.876   8.791  1.00  0.00     0.015 C 
BRANCH   5   6
ATOM      6  C   UNL     1      19.465  16.042   8.981  1.00  0.00     0.028 C 
BRANCH   6   7
ATOM      7  C   UNL     1      19.170  14.717   9.643  1.00  0.00    -0.028 C 
ATOM      8  C   UNL     1      19.353  14.444  10.955  1.00  0.00    -0.070 CG0
ATOM      9  C   UNL     1      18.991  13.067  11.450  1.00  0.00     0.039 C 
ATOM     10  G   UNL     1      19.892  15.464  11.943  1.00  0.00     0.000 G0
ENDBRANCH   6   7
ENDBRANCH   5   6
ENDBRANCH   3   5
ENDBRANCH   1   3
BRANCH   1  11
ATOM     11  C   UNL     1      18.102  17.985  12.197  1.00  0.00     0.087 C 
BRANCH  11  12
ATOM     12  C   UNL     1      17.742  16.669  12.935  1.00  0.00     0.066 C 
BRANCH  12  13
ATOM     13  C   UNL     1      18.961  15.769  13.097  1.00  0.00     0.140 C 
ATOM     14  O   UNL     1      19.160  15.219  14.171  1.00  0.00    -0.299 OA
BRANCH  13  15
ATOM     15  C   UNL     1      19.907  15.470  11.956  1.00  0.00     0.106 CG0
ATOM     16  G   UNL     1      19.375  14.447  10.967  1.00  0.00     0.000 G0
ENDBRANCH  13  15
ENDBRANCH  12  13
BRANCH  12  17
ATOM     17  C   UNL     1      17.032  16.888  14.305  1.00  0.00    -0.006 C 
ATOM     18  C   UNL     1      15.539  16.523  14.240  1.00  0.00     0.008 C 
ATOM     19  C   UNL     1      17.201  18.302  14.886  1.00  0.00     0.008 C 
ENDBRANCH  12  17
ENDBRANCH  11  12
ENDBRANCH   1  11
TORSDOF 1
ENDMDL
MODEL 6
REMARK VINA RESULT:    -3.360      3.637      6.106
REMARK INTER + INTRA:          -5.506
REMARK INTER:                  -5.110
REMARK INTRA:                  -0.396
REMARK UNBOUND:                -0.378
REMARK SMILES CC1=CCC[C@H](C)C(=O)C[C@H](C(C)C)C(=O)C1
REMARK SMILES IDX 8 1 9 2 6 3 7 4 5 5 4 6 3 7 2 8 1 9 10 11 11 12 15 13 16 14
REMARK SMILES IDX 17 15 12 17 13 18 14 19
REMARK H PARENT
REMARK Flexibility Score: 70.00
ROOT
ATOM      1  C   UNL     1      17.659  17.098  13.355  1.00  0.00     0.136 C 
ATOM      2  O   UNL     1      17.879  18.135  13.965  1.00  0.00    -0.299 OA
ENDROOT
BRANCH   1   3
ATOM      3  C   UNL     1      16.408  16.981  12.507  1.00  0.00     0.053 C 
ATOM      4  C   UNL     1      15.175  17.019  13.414  1.00  0.00     0.016 C 
BRANCH   3   5
ATOM      5  C   UNL     1      16.317  18.100  11.438  1.00  0.00     0.015 C 
BRANCH   5   6
ATOM      6  C   UNL     1      17.099  17.804  10.147  1.00  0.00     0.028 C 
BRANCH   6   7
ATOM      7  C   UNL     1      18.545  18.221  10.266  1.00  0.00    -0.028 C 
ATOM      8  C   UNL     1      19.604  17.380  10.226  1.00  0.00    -0.070 CG0
ATOM      9  C   UNL     1      20.985  17.972  10.348  1.00  0.00     0.039 C 
ATOM     10  G   UNL     1      19.459  15.878  10.054  1.00  0.00     0.000 G0
ENDBRANCH   6   7
ENDBRANCH   5   6
ENDBRANCH   3   5
ENDBRANCH   1   3
BRANCH   1  11
ATOM     11  C   UNL     1      18.620  15.939  13.505  1.00  0.00     0.087 C 
BRANCH  11  12
ATOM     12  C   UNL     1      18.523  14.916  12.344  1.00  0.00     0.066 C 
BRANCH  12  13
ATOM     13  C   UNL     1      19.658  15.098  11.343  1.00  0.00     0.140 C 
ATOM     14  O   UNL     1      20.732  14.551  11.550  1.00  0.00    -0.299 OA
BRANCH  13  15
ATOM     15  C   UNL     1      19.489  15.877  10.058  1.00  0.00     0.106 CG0
ATOM     16  G   UNL     1      19.605  17.382  10.230  1.00  0.00     0.000 G0
ENDBRANCH  13  15
ENDBRANCH  12  13
BRANCH  12  17
ATOM     17  C   UNL     1      18.437  13.432  12.815  1.00  0.00    -0.006 C 
ATOM     18  C   UNL     1      17.999  12.496  11.677  1.00  0.00     0.008 C 
ATOM     19  C   UNL     1      17.543  13.212  14.048  1.00  0.00     0.008 C 
ENDBRANCH  12  17
ENDBRANCH  11  12
ENDBRANCH   1  11
TORSDOF 1
ENDMDL
MODEL 7
REMARK VINA RESULT:    -3.292      4.526      6.087
REMARK INTER + INTRA:          -5.402
REMARK INTER:                  -4.929
REMARK INTRA:                  -0.473
REMARK UNBOUND:                -0.378
REMARK SMILES CC1=CCC[C@H](C)C(=O)C[C@H](C(C)C)C(=O)C1
REMARK SMILES IDX 8 1 9 2 6 3 7 4 5 5 4 6 3 7 2 8 1 9 10 11 11 12 15 13 16 14
REMARK SMILES IDX 17 15 12 17 13 18 14 19
REMARK H PARENT
REMARK Flexibility Score: 70.00
ROOT
ATOM      1  C   UNL     1      16.149  15.901  12.099  1.00  0.00     0.136 C 
ATOM      2  O   UNL     1      14.946  15.684  12.108  1.00  0.00    -0.299 OA
ENDROOT
BRANCH   1   3
ATOM      3  C   UNL     1      16.906  15.972  13.411  1.00  0.00     0.053 C 
ATOM      4  C   UNL     1      16.404  17.171  14.221  1.00  0.00     0.016 C 
BRANCH   3   5
ATOM      5  C   UNL     1      16.763  14.672  14.242  1.00  0.00     0.015 C 
BRANCH   5   6
ATOM      6  C   UNL     1      17.948  13.701  14.102  1.00  0.00     0.028 C 
BRANCH   6   7
ATOM      7  C   UNL     1      17.701  12.678  13.020  1.00  0.00    -0.028 C 
ATOM      8  C   UNL     1      18.326  12.647  11.820  1.00  0.00    -0.070 CG0
ATOM      9  C   UNL     1      17.965  11.541  10.861  1.00  0.00     0.039 C 
ATOM     10  G   UNL     1      19.375  13.665  11.409  1.00  0.00     0.000 G0
ENDBRANCH   6   7
ENDBRANCH   5   6
ENDBRANCH   3   5
ENDBRANCH   1   3
BRANCH   1  11
ATOM     11  C   UNL     1      16.842  16.143  10.776  1.00  0.00     0.087 C 
BRANCH  11  12
ATOM     12  C   UNL     1      18.388  16.073  10.878  1.00  0.00     0.066 C 
BRANCH  12  13
ATOM     13  C   UNL     1      18.915  14.716  10.428  1.00  0.00     0.140 C 
ATOM     14  O   UNL     1      19.012  14.478   9.233  1.00  0.00    -0.299 OA
BRANCH  13  15
ATOM     15  C   UNL     1      19.393  13.666  11.406  1.00  0.00     0.106 CG0
ATOM     16  G   UNL     1      18.323  12.668  11.811  1.00  0.00     0.000 G0
ENDBRANCH  13  15
ENDBRANCH  12  13
BRANCH  12  17
ATOM     17  C   UNL     1      19.124  17.226  10.131  1.00  0.00    -0.006 C 
ATOM     18  C   UNL     1      20.137  17.941  11.040  1.00  0.00     0.008 C 
ATOM     19  C   UNL     1      18.185  18.256   9.479  1.00  0.00     0.008 C 
ENDBRANCH  12  17
ENDBRANCH  11  12
ENDBRANCH   1  11
TORSDOF 1
ENDMDL
MODEL 8
REMARK VINA RESULT:    -3.273      4.269      6.527
REMARK INTER + INTRA:          -5.373
REMARK INTER:                  -5.278
REMARK INTRA:                  -0.095
REMARK UNBOUND:                -0.378
REMARK SMILES CC1=CCC[C@H](C)C(=O)C[C@H](C(C)C)C(=O)C1
REMARK SMILES IDX 8 1 9 2 6 3 7 4 5 5 4 6 3 7 2 8 1 9 10 11 11 12 15 13 16 14
REMARK SMILES IDX 17 15 12 17 13 18 14 19
REMARK H PARENT
REMARK Flexibility Score: 70.00
ROOT
ATOM      1  C   UNL     1      19.289  14.375  12.161  1.00  0.00     0.136 C 
ATOM      2  O   UNL     1      20.117  13.759  11.504  1.00  0.00    -0.299 OA
ENDROOT
BRANCH   1   3
ATOM      3  C   UNL     1      18.023  13.674  12.613  1.00  0.00     0.053 C 
ATOM      4  C   UNL     1      17.893  12.337  11.877  1.00  0.00     0.016 C 
BRANCH   3   5
ATOM      5  C   UNL     1      17.995  13.442  14.145  1.00  0.00     0.015 C 
BRANCH   5   6
ATOM      6  C   UNL     1      16.954  14.292  14.893  1.00  0.00     0.028 C 
BRANCH   6   7
ATOM      7  C   UNL     1      15.919  14.858  13.950  1.00  0.00    -0.028 C 
ATOM      8  C   UNL     1      15.947  16.101  13.417  1.00  0.00    -0.070 CG0
ATOM      9  C   UNL     1      14.835  16.496  12.480  1.00  0.00     0.039 C 
ATOM     10  G   UNL     1      17.051  17.102  13.713  1.00  0.00     0.000 G0
ENDBRANCH   6   7
ENDBRANCH   5   6
ENDBRANCH   3   5
ENDBRANCH   1   3
BRANCH   1  11
ATOM     11  C   UNL     1      19.530  15.838  12.461  1.00  0.00     0.087 C 
BRANCH  11  12
ATOM     12  C   UNL     1      18.655  16.786  11.600  1.00  0.00     0.066 C 
BRANCH  12  13
ATOM     13  C   UNL     1      17.737  17.638  12.466  1.00  0.00     0.140 C 
ATOM     14  O   UNL     1      17.491  18.788  12.129  1.00  0.00    -0.299 OA
BRANCH  13  15
ATOM     15  C   UNL     1      17.054  17.097  13.703  1.00  0.00     0.106 CG0
ATOM     16  G   UNL     1      15.953  16.093  13.408  1.00  0.00     0.000 G0
ENDBRANCH  13  15
ENDBRANCH  12  13
BRANCH  12  17
ATOM     17  C   UNL     1      19.472  17.680  10.617  1.00  0.00    -0.006 C 
ATOM     18  C   UNL     1      19.318  17.214   9.160  1.00  0.00     0.008 C 
ATOM     19  C   UNL     1      20.963  17.809  10.972  1.00  0.00     0.008 C 
ENDBRANCH  12  17
ENDBRANCH  11  12
ENDBRANCH   1  11
TORSDOF 1
ENDMDL
MODEL 9
REMARK VINA RESULT:    -3.165      4.616      6.949
REMARK INTER + INTRA:          -5.207
REMARK INTER:                  -4.993
REMARK INTRA:                  -0.215
REMARK UNBOUND:                -0.378
REMARK SMILES CC1=CCC[C@H](C)C(=O)C[C@H](C(C)C)C(=O)C1
REMARK SMILES IDX 8 1 9 2 6 3 7 4 5 5 4 6 3 7 2 8 1 9 10 11 11 12 15 13 16 14
REMARK SMILES IDX 17 15 12 17 13 18 14 19
REMARK H PARENT
REMARK Flexibility Score: 70.00
ROOT
ATOM      1  C   UNL     1      18.848  17.025  11.829  1.00  0.00     0.136 C 
ATOM      2  O   UNL     1      19.571  18.010  11.778  1.00  0.00    -0.299 OA
ENDROOT
BRANCH   1   3
ATOM      3  C   UNL     1      17.768  16.837  10.783  1.00  0.00     0.053 C 
ATOM      4  C   UNL     1      16.992  18.146  10.614  1.00  0.00     0.016 C 
BRANCH   3   5
ATOM      5  C   UNL     1      18.344  16.381   9.418  1.00  0.00     0.015 C 
BRANCH   5   6
ATOM      6  C   UNL     1      18.880  14.939   9.410  1.00  0.00     0.028 C 
BRANCH   6   7
ATOM      7  C   UNL     1      17.768  13.933   9.589  1.00  0.00    -0.028 C 
ATOM      8  C   UNL     1      17.603  13.139  10.672  1.00  0.00    -0.070 CG0
ATOM      9  C   UNL     1      16.424  12.199  10.689  1.00  0.00     0.039 C 
ATOM     10  G   UNL     1      18.542  13.164  11.866  1.00  0.00     0.000 G0
ENDBRANCH   6   7
ENDBRANCH   5   6
ENDBRANCH   3   5
ENDBRANCH   1   3
BRANCH   1  11
ATOM     11  C   UNL     1      19.021  16.045  12.968  1.00  0.00     0.087 C 
BRANCH  11  12
ATOM     12  C   UNL     1      17.727  15.253  13.289  1.00  0.00     0.066 C 
BRANCH  12  13
ATOM     13  C   UNL     1      17.933  13.754  13.115  1.00  0.00     0.140 C 
ATOM     14  O   UNL     1      17.543  12.990  13.987  1.00  0.00    -0.299 OA
BRANCH  13  15
ATOM     15  C   UNL     1      18.543  13.158  11.865  1.00  0.00     0.106 CG0
ATOM     16  G   UNL     1      17.607  13.145  10.669  1.00  0.00     0.000 G0
ENDBRANCH  13  15
ENDBRANCH  12  13
BRANCH  12  17
ATOM     17  C   UNL     1      17.126  15.567  14.693  1.00  0.00    -0.006 C 
ATOM     18  C   UNL     1      15.605  15.350  14.726  1.00  0.00     0.008 C 
ATOM     19  C   UNL     1      17.467  16.970  15.226  1.00  0.00     0.008 C 
ENDBRANCH  12  17
ENDBRANCH  11  12
ENDBRANCH   1  11
TORSDOF 1
ENDMDL
