MODEL 1
REMARK VINA RESULT:    -3.637      0.000      0.000
REMARK INTER + INTRA:          -4.259
REMARK INTER:                  -4.169
REMARK INTRA:                  -0.090
REMARK UNBOUND:                -0.090
REMARK SMILES COc1cc(C(=O)[O-])ccc1O
REMARK SMILES IDX 5 1 9 2 4 3 10 4 3 5 11 6 6 7 7 8 8 9 2 10 1 11 12 12
REMARK H PARENT 12 13
REMARK Flexibility Score: inf
ROOT
ATOM      1  C   UNL     1      -3.929 -10.598  -9.345  1.00  0.00     0.001 A 
ATOM      2  C   UNL     1      -4.499 -10.551  -8.062  1.00  0.00     0.014 A 
ATOM      3  C   UNL     1      -4.690 -11.104 -10.414  1.00  0.00     0.060 A 
ATOM      4  C   UNL     1      -5.804 -11.002  -7.851  1.00  0.00     0.051 A 
ATOM      5  C   UNL     1      -6.007 -11.560 -10.205  1.00  0.00     0.161 A 
ATOM      6  C   UNL     1      -6.558 -11.504  -8.918  1.00  0.00     0.157 A 
ENDROOT
BRANCH   1   7
ATOM      7  C   UNL     1      -2.546 -10.121  -9.572  1.00  0.00     0.072 C 
ATOM      8  O   UNL     1      -2.249  -9.490 -10.620  1.00  0.00    -0.545 OA
ATOM      9  O   UNL     1      -1.554 -10.361  -8.627  1.00  0.00    -0.545 OA
ENDBRANCH   1   7
BRANCH   5  10
ATOM     10  O   UNL     1      -6.797 -12.071 -11.248  1.00  0.00    -0.493 OA
ATOM     11  C   UNL     1      -7.589 -11.276 -12.125  1.00  0.00     0.278 C 
ENDBRANCH   5  10
BRANCH   6  12
ATOM     12  O   UNL     1      -7.861 -11.954  -8.706  1.00  0.00    -0.504 OA
ATOM     13  H   UNL     1      -8.604 -11.759  -9.367  1.00  0.00     0.293 HD
ENDBRANCH   6  12
TORSDOF 3
ENDMDL
MODEL 2
REMARK VINA RESULT:    -3.596      2.932      3.958
REMARK INTER + INTRA:          -4.211
REMARK INTER:                  -4.135
REMARK INTRA:                  -0.076
REMARK UNBOUND:                -0.090
REMARK SMILES COc1cc(C(=O)[O-])ccc1O
REMARK SMILES IDX 5 1 9 2 4 3 10 4 3 5 11 6 6 7 7 8 8 9 2 10 1 11 12 12
REMARK H PARENT 12 13
REMARK Flexibility Score: inf
ROOT
ATOM      1  C   UNL     1      -5.078  -8.155  -8.789  1.00  0.00     0.001 A 
ATOM      2  C   UNL     1      -3.678  -8.105  -8.689  1.00  0.00     0.014 A 
ATOM      3  C   UNL     1      -5.724  -9.403  -8.737  1.00  0.00     0.060 A 
ATOM      4  C   UNL     1      -2.938  -9.280  -8.540  1.00  0.00     0.051 A 
ATOM      5  C   UNL     1      -4.981 -10.591  -8.587  1.00  0.00     0.161 A 
ATOM      6  C   UNL     1      -3.585 -10.520  -8.488  1.00  0.00     0.157 A 
ENDROOT
BRANCH   1   7
ATOM      7  C   UNL     1      -5.866  -6.911  -8.947  1.00  0.00     0.072 C 
ATOM      8  O   UNL     1      -6.005  -6.114  -7.981  1.00  0.00    -0.545 OA
ATOM      9  O   UNL     1      -6.461  -6.603 -10.165  1.00  0.00    -0.545 OA
ENDBRANCH   1   7
BRANCH   5  10
ATOM     10  O   UNL     1      -5.591 -11.855  -8.531  1.00  0.00    -0.493 OA
ATOM     11  C   UNL     1      -6.926 -12.125  -8.949  1.00  0.00     0.278 C 
ENDBRANCH   5  10
BRANCH   6  12
ATOM     12  O   UNL     1      -2.844 -11.693  -8.340  1.00  0.00    -0.504 OA
ATOM     13  H   UNL     1      -2.295 -11.871  -7.508  1.00  0.00     0.293 HD
ENDBRANCH   6  12
TORSDOF 3
ENDMDL
MODEL 3
REMARK VINA RESULT:    -3.567      3.176      3.756
REMARK INTER + INTRA:          -4.178
REMARK INTER:                  -4.082
REMARK INTRA:                  -0.096
REMARK UNBOUND:                -0.090
REMARK SMILES COc1cc(C(=O)[O-])ccc1O
REMARK SMILES IDX 5 1 9 2 4 3 10 4 3 5 11 6 6 7 7 8 8 9 2 10 1 11 12 12
REMARK H PARENT 12 13
REMARK Flexibility Score: inf
ROOT
ATOM      1  C   UNL     1      -4.064  -8.689  -8.951  1.00  0.00     0.001 A 
ATOM      2  C   UNL     1      -3.764  -7.325  -8.805  1.00  0.00     0.014 A 
ATOM      3  C   UNL     1      -5.401  -9.111  -8.840  1.00  0.00     0.060 A 
ATOM      4  C   UNL     1      -4.779  -6.400  -8.553  1.00  0.00     0.051 A 
ATOM      5  C   UNL     1      -6.429  -8.181  -8.587  1.00  0.00     0.161 A 
ATOM      6  C   UNL     1      -6.109  -6.824  -8.445  1.00  0.00     0.157 A 
ENDROOT
BRANCH   1   7
ATOM      7  C   UNL     1      -2.989  -9.672  -9.218  1.00  0.00     0.072 C 
ATOM      8  O   UNL     1      -2.281  -9.582 -10.255  1.00  0.00    -0.545 OA
ATOM      9  O   UNL     1      -2.744 -10.709  -8.324  1.00  0.00    -0.545 OA
ENDBRANCH   1   7
BRANCH   5  10
ATOM     10  O   UNL     1      -7.776  -8.565  -8.471  1.00  0.00    -0.493 OA
ATOM     11  C   UNL     1      -8.314  -9.296  -7.374  1.00  0.00     0.278 C 
ENDBRANCH   5  10
BRANCH   6  12
ATOM     12  O   UNL     1      -7.123  -5.899  -8.194  1.00  0.00    -0.504 OA
ATOM     13  H   UNL     1      -7.760  -5.600  -8.923  1.00  0.00     0.293 HD
ENDBRANCH   6  12
TORSDOF 3
ENDMDL
MODEL 4
REMARK VINA RESULT:    -3.551      1.961      4.773
REMARK INTER + INTRA:          -4.160
REMARK INTER:                  -4.081
REMARK INTRA:                  -0.079
REMARK UNBOUND:                -0.090
REMARK SMILES COc1cc(C(=O)[O-])ccc1O
REMARK SMILES IDX 5 1 9 2 4 3 10 4 3 5 11 6 6 7 7 8 8 9 2 10 1 11 12 12
REMARK H PARENT 12 13
REMARK Flexibility Score: inf
ROOT
ATOM      1  C   UNL     1      -5.618  -9.899  -8.614  1.00  0.00     0.001 A 
ATOM      2  C   UNL     1      -4.865 -11.046  -8.315  1.00  0.00     0.014 A 
ATOM      3  C   UNL     1      -4.968  -8.778  -9.161  1.00  0.00     0.060 A 
ATOM      4  C   UNL     1      -3.490 -11.072  -8.556  1.00  0.00     0.051 A 
ATOM      5  C   UNL     1      -3.581  -8.800  -9.406  1.00  0.00     0.161 A 
ATOM      6  C   UNL     1      -2.847  -9.954  -9.101  1.00  0.00     0.157 A 
ENDROOT
BRANCH   1   7
ATOM      7  C   UNL     1      -7.076  -9.869  -8.360  1.00  0.00     0.072 C 
ATOM      8  O   UNL     1      -7.782 -10.895  -8.550  1.00  0.00    -0.545 OA
ATOM      9  O   UNL     1      -7.688  -8.706  -7.905  1.00  0.00    -0.545 OA
ENDBRANCH   1   7
BRANCH   5  10
ATOM     10  O   UNL     1      -2.899  -7.700  -9.952  1.00  0.00    -0.493 OA
ATOM     11  C   UNL     1      -3.460  -6.400 -10.109  1.00  0.00     0.278 C 
ENDBRANCH   5  10
BRANCH   6  12
ATOM     12  O   UNL     1      -1.473  -9.981  -9.341  1.00  0.00    -0.504 OA
ATOM     13  H   UNL     1      -0.837 -10.472  -8.724  1.00  0.00     0.293 HD
ENDBRANCH   6  12
TORSDOF 3
ENDMDL
MODEL 5
REMARK VINA RESULT:    -3.544      2.311      2.996
REMARK INTER + INTRA:          -4.152
REMARK INTER:                  -4.053
REMARK INTRA:                  -0.099
REMARK UNBOUND:                -0.090
REMARK SMILES COc1cc(C(=O)[O-])ccc1O
REMARK SMILES IDX 5 1 9 2 4 3 10 4 3 5 11 6 6 7 7 8 8 9 2 10 1 11 12 12
REMARK H PARENT 12 13
REMARK Flexibility Score: inf
ROOT
ATOM      1  C   UNL     1      -3.994  -9.878  -8.951  1.00  0.00     0.001 A 
ATOM      2  C   UNL     1      -4.632 -11.016  -8.430  1.00  0.00     0.014 A 
ATOM      3  C   UNL     1      -4.731  -8.690  -9.103  1.00  0.00     0.060 A 
ATOM      4  C   UNL     1      -5.980 -10.968  -8.070  1.00  0.00     0.051 A 
ATOM      5  C   UNL     1      -6.091  -8.638  -8.740  1.00  0.00     0.161 A 
ATOM      6  C   UNL     1      -6.710  -9.783  -8.222  1.00  0.00     0.157 A 
ENDROOT
BRANCH   1   7
ATOM      7  C   UNL     1      -2.564  -9.926  -9.334  1.00  0.00     0.072 C 
ATOM      8  O   UNL     1      -1.705 -10.405  -8.547  1.00  0.00    -0.545 OA
ATOM      9  O   UNL     1      -2.149  -9.445 -10.571  1.00  0.00    -0.545 OA
ENDBRANCH   1   7
BRANCH   5  10
ATOM     10  O   UNL     1      -6.859  -7.469  -8.878  1.00  0.00    -0.493 OA
ATOM     11  C   UNL     1      -6.749  -6.328  -8.033  1.00  0.00     0.278 C 
ENDBRANCH   5  10
BRANCH   6  12
ATOM     12  O   UNL     1      -8.056  -9.737  -7.862  1.00  0.00    -0.504 OA
ATOM     13  H   UNL     1      -8.409  -9.037  -7.220  1.00  0.00     0.293 HD
ENDBRANCH   6  12
TORSDOF 3
ENDMDL
MODEL 6
REMARK VINA RESULT:    -3.505     23.829     24.852
REMARK INTER + INTRA:          -4.108
REMARK INTER:                  -4.105
REMARK INTRA:                  -0.003
REMARK UNBOUND:                -0.090
REMARK SMILES COc1cc(C(=O)[O-])ccc1O
REMARK SMILES IDX 5 1 9 2 4 3 10 4 3 5 11 6 6 7 7 8 8 9 2 10 1 11 12 12
REMARK H PARENT 12 13
REMARK Flexibility Score: inf
ROOT
ATOM      1  C   UNL     1       9.047   6.424  -0.681  1.00  0.00     0.001 A 
ATOM      2  C   UNL     1       9.617   5.159  -0.459  1.00  0.00     0.014 A 
ATOM      3  C   UNL     1       8.598   7.174   0.420  1.00  0.00     0.060 A 
ATOM      4  C   UNL     1       9.734   4.654   0.837  1.00  0.00     0.051 A 
ATOM      5  C   UNL     1       8.715   6.668   1.730  1.00  0.00     0.161 A 
ATOM      6  C   UNL     1       9.286   5.404   1.931  1.00  0.00     0.157 A 
ENDROOT
BRANCH   1   7
ATOM      7  C   UNL     1       8.922   6.962  -2.055  1.00  0.00     0.072 C 
ATOM      8  O   UNL     1       9.755   6.646  -2.945  1.00  0.00    -0.545 OA
ATOM      9  O   UNL     1       7.880   7.822  -2.382  1.00  0.00    -0.545 OA
ENDBRANCH   1   7
BRANCH   5  10
ATOM     10  O   UNL     1       8.278   7.389   2.854  1.00  0.00    -0.493 OA
ATOM     11  C   UNL     1       9.133   8.124   3.723  1.00  0.00     0.278 C 
ENDBRANCH   5  10
BRANCH   6  12
ATOM     12  O   UNL     1       9.404   4.899   3.225  1.00  0.00    -0.504 OA
ATOM     13  H   UNL     1       8.632   4.937   3.881  1.00  0.00     0.293 HD
ENDBRANCH   6  12
TORSDOF 3
ENDMDL
MODEL 7
REMARK VINA RESULT:    -3.428      3.895      5.156
REMARK INTER + INTRA:          -4.019
REMARK INTER:                  -3.922
REMARK INTRA:                  -0.096
REMARK UNBOUND:                -0.090
REMARK SMILES COc1cc(C(=O)[O-])ccc1O
REMARK SMILES IDX 5 1 9 2 4 3 10 4 3 5 11 6 6 7 7 8 8 9 2 10 1 11 12 12
REMARK H PARENT 12 13
REMARK Flexibility Score: inf
ROOT
ATOM      1  C   UNL     1      -6.052  -6.868  -8.394  1.00  0.00     0.001 A 
ATOM      2  C   UNL     1      -4.838  -6.182  -8.566  1.00  0.00     0.014 A 
ATOM      3  C   UNL     1      -6.129  -8.223  -8.761  1.00  0.00     0.060 A 
ATOM      4  C   UNL     1      -3.725  -6.836  -9.095  1.00  0.00     0.051 A 
ATOM      5  C   UNL     1      -5.007  -8.888  -9.296  1.00  0.00     0.161 A 
ATOM      6  C   UNL     1      -3.806  -8.186  -9.459  1.00  0.00     0.157 A 
ENDROOT
BRANCH   1   7
ATOM      7  C   UNL     1      -7.235  -6.177  -7.832  1.00  0.00     0.072 C 
ATOM      8  O   UNL     1      -8.183  -5.818  -8.580  1.00  0.00    -0.545 OA
ATOM      9  O   UNL     1      -7.317  -5.915  -6.469  1.00  0.00    -0.545 OA
ENDBRANCH   1   7
BRANCH   5  10
ATOM     10  O   UNL     1      -5.047 -10.240  -9.674  1.00  0.00    -0.493 OA
ATOM     11  C   UNL     1      -5.006 -11.334  -8.762  1.00  0.00     0.278 C 
ENDBRANCH   5  10
BRANCH   6  12
ATOM     12  O   UNL     1      -2.692  -8.838  -9.988  1.00  0.00    -0.504 OA
ATOM     13  H   UNL     1      -2.101  -8.398 -10.683  1.00  0.00     0.293 HD
ENDBRANCH   6  12
TORSDOF 3
ENDMDL
MODEL 8
REMARK VINA RESULT:    -3.406      1.626      2.319
REMARK INTER + INTRA:          -3.994
REMARK INTER:                  -3.916
REMARK INTRA:                  -0.078
REMARK UNBOUND:                -0.090
REMARK SMILES COc1cc(C(=O)[O-])ccc1O
REMARK SMILES IDX 5 1 9 2 4 3 10 4 3 5 11 6 6 7 7 8 8 9 2 10 1 11 12 12
REMARK H PARENT 12 13
REMARK Flexibility Score: inf
ROOT
ATOM      1  C   UNL     1      -4.107 -10.179  -9.173  1.00  0.00     0.001 A 
ATOM      2  C   UNL     1      -4.285 -11.572  -9.172  1.00  0.00     0.014 A 
ATOM      3  C   UNL     1      -5.209  -9.348  -8.902  1.00  0.00     0.060 A 
ATOM      4  C   UNL     1      -5.540 -12.124  -8.907  1.00  0.00     0.051 A 
ATOM      5  C   UNL     1      -6.477  -9.901  -8.633  1.00  0.00     0.161 A 
ATOM      6  C   UNL     1      -6.634 -11.293  -8.637  1.00  0.00     0.157 A 
ENDROOT
BRANCH   1   7
ATOM      7  C   UNL     1      -2.777  -9.590  -9.453  1.00  0.00     0.072 C 
ATOM      8  O   UNL     1      -2.654  -8.650 -10.282  1.00  0.00    -0.545 OA
ATOM      9  O   UNL     1      -1.644 -10.067  -8.803  1.00  0.00    -0.545 OA
ENDBRANCH   1   7
BRANCH   5  10
ATOM     10  O   UNL     1      -7.599  -9.103  -8.358  1.00  0.00    -0.493 OA
ATOM     11  C   UNL     1      -7.550  -7.703  -8.103  1.00  0.00     0.278 C 
ENDBRANCH   5  10
BRANCH   6  12
ATOM     12  O   UNL     1      -7.887 -11.846  -8.373  1.00  0.00    -0.504 OA
ATOM     13  H   UNL     1      -8.088 -12.308  -7.494  1.00  0.00     0.293 HD
ENDBRANCH   6  12
TORSDOF 3
ENDMDL
MODEL 9
REMARK VINA RESULT:    -3.367      3.886      5.776
REMARK INTER + INTRA:          -3.949
REMARK INTER:                  -3.851
REMARK INTRA:                  -0.098
REMARK UNBOUND:                -0.090
REMARK SMILES COc1cc(C(=O)[O-])ccc1O
REMARK SMILES IDX 5 1 9 2 4 3 10 4 3 5 11 6 6 7 7 8 8 9 2 10 1 11 12 12
REMARK H PARENT 12 13
REMARK Flexibility Score: inf
ROOT
ATOM      1  C   UNL     1      -6.024  -7.240  -8.489  1.00  0.00     0.001 A 
ATOM      2  C   UNL     1      -5.910  -8.627  -8.675  1.00  0.00     0.014 A 
ATOM      3  C   UNL     1      -4.963  -6.407  -8.887  1.00  0.00     0.060 A 
ATOM      4  C   UNL     1      -4.759  -9.172  -9.246  1.00  0.00     0.051 A 
ATOM      5  C   UNL     1      -3.800  -6.953  -9.464  1.00  0.00     0.161 A 
ATOM      6  C   UNL     1      -3.705  -8.339  -9.642  1.00  0.00     0.157 A 
ENDROOT
BRANCH   1   7
ATOM      7  C   UNL     1      -7.245  -6.659  -7.883  1.00  0.00     0.072 C 
ATOM      8  O   UNL     1      -7.169  -5.944  -6.849  1.00  0.00    -0.545 OA
ATOM      9  O   UNL     1      -8.493  -6.895  -8.449  1.00  0.00    -0.545 OA
ENDBRANCH   1   7
BRANCH   5  10
ATOM     10  O   UNL     1      -2.720  -6.152  -9.874  1.00  0.00    -0.493 OA
ATOM     11  C   UNL     1      -2.720  -5.334 -11.040  1.00  0.00     0.278 C 
ENDBRANCH   5  10
BRANCH   6  12
ATOM     12  O   UNL     1      -2.555  -8.885 -10.212  1.00  0.00    -0.504 OA
ATOM     13  H   UNL     1      -1.674  -8.385 -10.210  1.00  0.00     0.293 HD
ENDBRANCH   6  12
TORSDOF 3
ENDMDL
