MODEL 1
REMARK VINA RESULT:    -3.839      0.000      0.000
REMARK INTER + INTRA:          -4.840
REMARK INTER:                  -4.737
REMARK INTRA:                  -0.103
REMARK UNBOUND:                -0.103
REMARK SMILES CCCCCC(=O)[O-]
REMARK SMILES IDX 4 1 5 2 6 3 7 4 8 5 3 6 2 7 1 8
REMARK H PARENT
REMARK Flexibility Score: inf
ROOT
ATOM      1  C   UNL     1      18.295   3.681  41.407  1.00  0.00     0.006 C 
ENDROOT
BRANCH   1   2
ATOM      2  C   UNL     1      19.433   2.797  40.881  1.00  0.00     0.053 C 
BRANCH   2   3
ATOM      3  C   UNL     1      20.752   3.173  41.481  1.00  0.00     0.041 C 
ATOM      4  O   UNL     1      21.660   2.309  41.608  1.00  0.00    -0.550 OA
ATOM      5  O   UNL     1      20.993   4.485  41.867  1.00  0.00    -0.550 OA
ENDBRANCH   2   3
ENDBRANCH   1   2
BRANCH   1   6
ATOM      6  C   UNL     1      16.914   3.031  41.206  1.00  0.00     0.000 C 
BRANCH   6   7
ATOM      7  C   UNL     1      17.009   1.604  40.648  1.00  0.00    -0.003 C 
ATOM      8  C   UNL     1      15.721   0.806  40.843  1.00  0.00     0.004 C 
ENDBRANCH   6   7
ENDBRANCH   1   6
TORSDOF 4
ENDMDL
MODEL 2
REMARK VINA RESULT:    -3.782      2.607      3.976
REMARK INTER + INTRA:          -4.769
REMARK INTER:                  -4.612
REMARK INTRA:                  -0.158
REMARK UNBOUND:                -0.103
REMARK SMILES CCCCCC(=O)[O-]
REMARK SMILES IDX 4 1 5 2 6 3 7 4 8 5 3 6 2 7 1 8
REMARK H PARENT
REMARK Flexibility Score: inf
ROOT
ATOM      1  C   UNL     1      17.255   3.326  41.501  1.00  0.00     0.006 C 
ENDROOT
BRANCH   1   2
ATOM      2  C   UNL     1      16.478   4.352  40.665  1.00  0.00     0.053 C 
BRANCH   2   3
ATOM      3  C   UNL     1      16.841   5.757  41.031  1.00  0.00     0.041 C 
ATOM      4  O   UNL     1      17.628   5.979  41.989  1.00  0.00    -0.550 OA
ATOM      5  O   UNL     1      16.339   6.822  40.293  1.00  0.00    -0.550 OA
ENDBRANCH   2   3
ENDBRANCH   1   2
BRANCH   1   6
ATOM      6  C   UNL     1      17.810   2.177  40.642  1.00  0.00     0.000 C 
BRANCH   6   7
ATOM      7  C   UNL     1      19.234   2.452  40.138  1.00  0.00    -0.003 C 
ATOM      8  C   UNL     1      20.151   3.003  41.230  1.00  0.00     0.004 C 
ENDBRANCH   6   7
ENDBRANCH   1   6
TORSDOF 4
ENDMDL
MODEL 3
REMARK VINA RESULT:    -3.727      6.087      7.845
REMARK INTER + INTRA:          -4.702
REMARK INTER:                  -4.657
REMARK INTRA:                  -0.045
REMARK UNBOUND:                -0.103
REMARK SMILES CCCCCC(=O)[O-]
REMARK SMILES IDX 4 1 5 2 6 3 7 4 8 5 3 6 2 7 1 8
REMARK H PARENT
REMARK Flexibility Score: inf
ROOT
ATOM      1  C   UNL     1      14.093  -1.501  40.333  1.00  0.00     0.006 C 
ENDROOT
BRANCH   1   2
ATOM      2  C   UNL     1      14.306  -2.988  40.644  1.00  0.00     0.053 C 
BRANCH   2   3
ATOM      3  C   UNL     1      13.626  -3.868  39.641  1.00  0.00     0.041 C 
ATOM      4  O   UNL     1      14.298  -4.682  38.953  1.00  0.00    -0.550 OA
ATOM      5  O   UNL     1      12.246  -3.816  39.489  1.00  0.00    -0.550 OA
ENDBRANCH   2   3
ENDBRANCH   1   2
BRANCH   1   6
ATOM      6  C   UNL     1      15.040  -0.597  41.142  1.00  0.00     0.000 C 
BRANCH   6   7
ATOM      7  C   UNL     1      15.088   0.840  40.602  1.00  0.00    -0.003 C 
ATOM      8  C   UNL     1      16.474   1.472  40.726  1.00  0.00     0.004 C 
ENDBRANCH   6   7
ENDBRANCH   1   6
TORSDOF 4
ENDMDL
MODEL 4
REMARK VINA RESULT:    -3.672      7.450      8.296
REMARK INTER + INTRA:          -4.633
REMARK INTER:                  -4.466
REMARK INTRA:                  -0.167
REMARK UNBOUND:                -0.103
REMARK SMILES CCCCCC(=O)[O-]
REMARK SMILES IDX 4 1 5 2 6 3 7 4 8 5 3 6 2 7 1 8
REMARK H PARENT
REMARK Flexibility Score: inf
ROOT
ATOM      1  C   UNL     1      14.004  -1.538  40.236  1.00  0.00     0.006 C 
ENDROOT
BRANCH   1   2
ATOM      2  C   UNL     1      14.286  -3.006  40.582  1.00  0.00     0.053 C 
BRANCH   2   3
ATOM      3  C   UNL     1      13.631  -3.941  39.614  1.00  0.00     0.041 C 
ATOM      4  O   UNL     1      12.380  -3.926  39.467  1.00  0.00    -0.550 OA
ATOM      5  O   UNL     1      14.403  -4.805  38.848  1.00  0.00    -0.550 OA
ENDBRANCH   2   3
ENDBRANCH   1   2
BRANCH   1   6
ATOM      6  C   UNL     1      13.769  -0.679  41.492  1.00  0.00     0.000 C 
BRANCH   6   7
ATOM      7  C   UNL     1      12.323  -0.175  41.599  1.00  0.00    -0.003 C 
ATOM      8  C   UNL     1      11.459  -0.601  40.412  1.00  0.00     0.004 C 
ENDBRANCH   6   7
ENDBRANCH   1   6
TORSDOF 4
ENDMDL
MODEL 5
REMARK VINA RESULT:    -3.664      1.023      2.190
REMARK INTER + INTRA:          -4.624
REMARK INTER:                  -4.506
REMARK INTRA:                  -0.118
REMARK UNBOUND:                -0.103
REMARK SMILES CCCCCC(=O)[O-]
REMARK SMILES IDX 4 1 5 2 6 3 7 4 8 5 3 6 2 7 1 8
REMARK H PARENT
REMARK Flexibility Score: inf
ROOT
ATOM      1  C   UNL     1      18.406   2.514  41.512  1.00  0.00     0.006 C 
ENDROOT
BRANCH   1   2
ATOM      2  C   UNL     1      19.623   2.817  40.627  1.00  0.00     0.053 C 
BRANCH   2   3
ATOM      3  C   UNL     1      20.824   3.185  41.441  1.00  0.00     0.041 C 
ATOM      4  O   UNL     1      20.931   4.343  41.925  1.00  0.00    -0.550 OA
ATOM      5  O   UNL     1      21.810   2.240  41.697  1.00  0.00    -0.550 OA
ENDBRANCH   2   3
ENDBRANCH   1   2
BRANCH   1   6
ATOM      6  C   UNL     1      17.079   2.665  40.748  1.00  0.00     0.000 C 
BRANCH   6   7
ATOM      7  C   UNL     1      16.696   4.134  40.516  1.00  0.00    -0.003 C 
ATOM      8  C   UNL     1      16.807   4.980  41.783  1.00  0.00     0.004 C 
ENDBRANCH   6   7
ENDBRANCH   1   6
TORSDOF 4
ENDMDL
MODEL 6
REMARK VINA RESULT:    -3.641      7.397      8.207
REMARK INTER + INTRA:          -4.596
REMARK INTER:                  -4.397
REMARK INTRA:                  -0.199
REMARK UNBOUND:                -0.103
REMARK SMILES CCCCCC(=O)[O-]
REMARK SMILES IDX 4 1 5 2 6 3 7 4 8 5 3 6 2 7 1 8
REMARK H PARENT
REMARK Flexibility Score: inf
ROOT
ATOM      1  C   UNL     1      13.477  -0.478  40.354  1.00  0.00     0.006 C 
ENDROOT
BRANCH   1   2
ATOM      2  C   UNL     1      12.512   0.156  41.365  1.00  0.00     0.053 C 
BRANCH   2   3
ATOM      3  C   UNL     1      11.148  -0.458  41.291  1.00  0.00     0.041 C 
ATOM      4  O   UNL     1      10.811  -1.132  40.282  1.00  0.00    -0.550 OA
ATOM      5  O   UNL     1      10.262  -0.318  42.351  1.00  0.00    -0.550 OA
ENDBRANCH   2   3
ENDBRANCH   1   2
BRANCH   1   6
ATOM      6  C   UNL     1      14.700  -1.113  41.039  1.00  0.00     0.000 C 
BRANCH   6   7
ATOM      7  C   UNL     1      14.618  -2.645  41.090  1.00  0.00    -0.003 C 
ATOM      8  C   UNL     1      13.802  -3.232  39.939  1.00  0.00     0.004 C 
ENDBRANCH   6   7
ENDBRANCH   1   6
TORSDOF 4
ENDMDL
MODEL 7
REMARK VINA RESULT:    -3.571      4.738      5.903
REMARK INTER + INTRA:          -4.509
REMARK INTER:                  -4.442
REMARK INTRA:                  -0.067
REMARK UNBOUND:                -0.103
REMARK SMILES CCCCCC(=O)[O-]
REMARK SMILES IDX 4 1 5 2 6 3 7 4 8 5 3 6 2 7 1 8
REMARK H PARENT
REMARK Flexibility Score: inf
ROOT
ATOM      1  C   UNL     1      15.747   1.396  40.649  1.00  0.00     0.006 C 
ENDROOT
BRANCH   1   2
ATOM      2  C   UNL     1      15.456  -0.057  41.049  1.00  0.00     0.053 C 
BRANCH   2   3
ATOM      3  C   UNL     1      14.034  -0.435  40.774  1.00  0.00     0.041 C 
ATOM      4  O   UNL     1      13.196  -0.475  41.713  1.00  0.00    -0.550 OA
ATOM      5  O   UNL     1      13.625  -0.710  39.475  1.00  0.00    -0.550 OA
ENDBRANCH   2   3
ENDBRANCH   1   2
BRANCH   1   6
ATOM      6  C   UNL     1      17.252   1.717  40.681  1.00  0.00     0.000 C 
BRANCH   6   7
ATOM      7  C   UNL     1      17.544   3.117  41.239  1.00  0.00    -0.003 C 
ATOM      8  C   UNL     1      16.648   4.195  40.630  1.00  0.00     0.004 C 
ENDBRANCH   6   7
ENDBRANCH   1   6
TORSDOF 4
ENDMDL
MODEL 8
REMARK VINA RESULT:    -3.561      2.672      4.080
REMARK INTER + INTRA:          -4.497
REMARK INTER:                  -4.438
REMARK INTRA:                  -0.059
REMARK UNBOUND:                -0.103
REMARK SMILES CCCCCC(=O)[O-]
REMARK SMILES IDX 4 1 5 2 6 3 7 4 8 5 3 6 2 7 1 8
REMARK H PARENT
REMARK Flexibility Score: inf
ROOT
ATOM      1  C   UNL     1      15.534   0.259  41.008  1.00  0.00     0.006 C 
ENDROOT
BRANCH   1   2
ATOM      2  C   UNL     1      15.883   1.687  40.566  1.00  0.00     0.053 C 
BRANCH   2   3
ATOM      3  C   UNL     1      17.262   2.081  40.996  1.00  0.00     0.041 C 
ATOM      4  O   UNL     1      17.444   2.634  42.112  1.00  0.00    -0.550 OA
ATOM      5  O   UNL     1      18.352   1.806  40.179  1.00  0.00    -0.550 OA
ENDBRANCH   2   3
ENDBRANCH   1   2
BRANCH   1   6
ATOM      6  C   UNL     1      14.090  -0.126  40.643  1.00  0.00     0.000 C 
BRANCH   6   7
ATOM      7  C   UNL     1      13.997  -1.510  39.985  1.00  0.00    -0.003 C 
ATOM      8  C   UNL     1      14.438  -2.638  40.917  1.00  0.00     0.004 C 
ENDBRANCH   6   7
ENDBRANCH   1   6
TORSDOF 4
ENDMDL
MODEL 9
REMARK VINA RESULT:    -3.466      6.263      8.106
REMARK INTER + INTRA:          -4.380
REMARK INTER:                  -4.155
REMARK INTRA:                  -0.224
REMARK UNBOUND:                -0.103
REMARK SMILES CCCCCC(=O)[O-]
REMARK SMILES IDX 4 1 5 2 6 3 7 4 8 5 3 6 2 7 1 8
REMARK H PARENT
REMARK Flexibility Score: inf
ROOT
ATOM      1  C   UNL     1      12.659  -0.506  39.725  1.00  0.00     0.006 C 
ENDROOT
BRANCH   1   2
ATOM      2  C   UNL     1      11.354  -0.914  40.421  1.00  0.00     0.053 C 
BRANCH   2   3
ATOM      3  C   UNL     1      11.099  -0.096  41.649  1.00  0.00     0.041 C 
ATOM      4  O   UNL     1      11.809   0.915  41.895  1.00  0.00    -0.550 OA
ATOM      5  O   UNL     1      10.055  -0.427  42.503  1.00  0.00    -0.550 OA
ENDBRANCH   2   3
ENDBRANCH   1   2
BRANCH   1   6
ATOM      6  C   UNL     1      13.750  -1.585  39.855  1.00  0.00     0.000 C 
BRANCH   6   7
ATOM      7  C   UNL     1      14.767  -1.264  40.960  1.00  0.00    -0.003 C 
ATOM      8  C   UNL     1      15.244   0.187  40.920  1.00  0.00     0.004 C 
ENDBRANCH   6   7
ENDBRANCH   1   6
TORSDOF 4
ENDMDL
