MODEL 1
REMARK VINA RESULT:    -5.175      0.000      0.000
REMARK INTER + INTRA:          -5.573
REMARK INTER:                  -5.477
REMARK INTRA:                  -0.096
REMARK UNBOUND:                -0.096
REMARK SMILES C=C(C)[C@H]1CC=C(C)C(=O)C1
REMARK SMILES IDX 8 1 7 2 6 3 5 4 4 5 11 6 9 7 10 8 2 9 1 10 3 11
REMARK H PARENT
REMARK Flexibility Score: inf
ROOT
ATOM      1  C   UNL     1      17.633  22.946  60.362  1.00  0.00     0.048 C 
ATOM      2  C   UNL     1      16.178  22.680  60.090  1.00  0.00    -0.012 C 
ATOM      3  C   UNL     1      15.344  22.383  61.103  1.00  0.00    -0.019 C 
ATOM      4  C   UNL     1      13.898  22.032  60.871  1.00  0.00     0.036 C 
ATOM      5  C   UNL     1      13.345  22.747  59.623  1.00  0.00     0.025 C 
ATOM      6  C   UNL     1      14.224  22.442  58.397  1.00  0.00     0.089 C 
ATOM      7  C   UNL     1      15.671  22.724  58.697  1.00  0.00     0.158 C 
ATOM      8  O   UNL     1      16.462  22.955  57.743  1.00  0.00    -0.295 OA
ENDROOT
BRANCH   5   9
ATOM      9  C   UNL     1      11.885  22.390  59.372  1.00  0.00    -0.077 C 
ATOM     10  C   UNL     1      11.514  21.685  58.289  1.00  0.00     0.008 C 
ATOM     11  C   UNL     1      10.822  22.828  60.347  1.00  0.00     0.039 C 
ENDBRANCH   5   9
TORSDOF 1
ENDMDL
MODEL 2
REMARK VINA RESULT:    -5.011      1.929      4.687
REMARK INTER + INTRA:          -5.400
REMARK INTER:                  -5.305
REMARK INTRA:                  -0.095
REMARK UNBOUND:                -0.096
REMARK SMILES C=C(C)[C@H]1CC=C(C)C(=O)C1
REMARK SMILES IDX 8 1 7 2 6 3 5 4 4 5 11 6 9 7 10 8 2 9 1 10 3 11
REMARK H PARENT
REMARK Flexibility Score: inf
ROOT
ATOM      1  C   UNL     1       9.260  21.955  57.751  1.00  0.00     0.048 C 
ATOM      2  C   UNL     1      10.654  22.208  58.254  1.00  0.00    -0.012 C 
ATOM      3  C   UNL     1      10.865  22.473  59.556  1.00  0.00    -0.019 C 
ATOM      4  C   UNL     1      12.231  22.810  60.092  1.00  0.00     0.036 C 
ATOM      5  C   UNL     1      13.337  22.114  59.275  1.00  0.00     0.025 C 
ATOM      6  C   UNL     1      13.195  22.456  57.781  1.00  0.00     0.089 C 
ATOM      7  C   UNL     1      11.794  22.186  57.305  1.00  0.00     0.158 C 
ATOM      8  O   UNL     1      11.590  21.985  56.077  1.00  0.00    -0.295 OA
ENDROOT
BRANCH   5   9
ATOM      9  C   UNL     1      14.725  22.457  59.802  1.00  0.00    -0.077 C 
ATOM     10  C   UNL     1      14.975  22.526  61.121  1.00  0.00     0.008 C 
ATOM     11  C   UNL     1      15.852  22.727  58.839  1.00  0.00     0.039 C 
ENDBRANCH   5   9
TORSDOF 1
ENDMDL
MODEL 3
REMARK VINA RESULT:    -4.987      1.465      2.171
REMARK INTER + INTRA:          -5.375
REMARK INTER:                  -5.280
REMARK INTRA:                  -0.094
REMARK UNBOUND:                -0.096
REMARK SMILES C=C(C)[C@H]1CC=C(C)C(=O)C1
REMARK SMILES IDX 8 1 7 2 6 3 5 4 4 5 11 6 9 7 10 8 2 9 1 10 3 11
REMARK H PARENT
REMARK Flexibility Score: inf
ROOT
ATOM      1  C   UNL     1      16.961  22.260  58.609  1.00  0.00     0.048 C 
ATOM      2  C   UNL     1      15.469  22.391  58.745  1.00  0.00    -0.012 C 
ATOM      3  C   UNL     1      14.686  22.360  57.652  1.00  0.00    -0.019 C 
ATOM      4  C   UNL     1      13.197  22.567  57.730  1.00  0.00     0.036 C 
ATOM      5  C   UNL     1      12.635  22.067  59.075  1.00  0.00     0.025 C 
ATOM      6  C   UNL     1      13.379  22.733  60.247  1.00  0.00     0.089 C 
ATOM      7  C   UNL     1      14.867  22.578  60.088  1.00  0.00     0.158 C 
ATOM      8  O   UNL     1      15.605  22.655  61.106  1.00  0.00    -0.295 OA
ENDROOT
BRANCH   5   9
ATOM      9  C   UNL     1      11.129  22.282  59.170  1.00  0.00    -0.077 C 
ATOM     10  C   UNL     1      10.308  21.930  58.165  1.00  0.00     0.008 C 
ATOM     11  C   UNL     1      10.531  22.901  60.407  1.00  0.00     0.039 C 
ENDBRANCH   5   9
TORSDOF 1
ENDMDL
MODEL 4
REMARK VINA RESULT:    -4.887     12.327     12.851
REMARK INTER + INTRA:          -5.268
REMARK INTER:                  -5.172
REMARK INTRA:                  -0.096
REMARK UNBOUND:                -0.096
REMARK SMILES C=C(C)[C@H]1CC=C(C)C(=O)C1
REMARK SMILES IDX 8 1 7 2 6 3 5 4 4 5 11 6 9 7 10 8 2 9 1 10 3 11
REMARK H PARENT
REMARK Flexibility Score: inf
ROOT
ATOM      1  C   UNL     1       7.768  32.242  54.742  1.00  0.00     0.048 C 
ATOM      2  C   UNL     1       7.058  31.100  54.069  1.00  0.00    -0.012 C 
ATOM      3  C   UNL     1       7.741  30.249  53.283  1.00  0.00    -0.019 C 
ATOM      4  C   UNL     1       7.060  29.140  52.525  1.00  0.00     0.036 C 
ATOM      5  C   UNL     1       5.812  28.637  53.276  1.00  0.00     0.025 C 
ATOM      6  C   UNL     1       4.860  29.809  53.576  1.00  0.00     0.089 C 
ATOM      7  C   UNL     1       5.596  30.930  54.256  1.00  0.00     0.158 C 
ATOM      8  O   UNL     1       4.948  31.756  54.954  1.00  0.00    -0.295 OA
ENDROOT
BRANCH   5   9
ATOM      9  C   UNL     1       5.108  27.522  52.512  1.00  0.00    -0.077 C 
ATOM     10  C   UNL     1       4.014  26.918  53.008  1.00  0.00     0.008 C 
ATOM     11  C   UNL     1       5.636  27.074  51.173  1.00  0.00     0.039 C 
ENDBRANCH   5   9
TORSDOF 1
ENDMDL
MODEL 5
REMARK VINA RESULT:    -4.803      2.202      4.606
REMARK INTER + INTRA:          -5.179
REMARK INTER:                  -5.085
REMARK INTRA:                  -0.094
REMARK UNBOUND:                -0.096
REMARK SMILES C=C(C)[C@H]1CC=C(C)C(=O)C1
REMARK SMILES IDX 8 1 7 2 6 3 5 4 4 5 11 6 9 7 10 8 2 9 1 10 3 11
REMARK H PARENT
REMARK Flexibility Score: inf
ROOT
ATOM      1  C   UNL     1      10.996  22.575  56.276  1.00  0.00     0.048 C 
ATOM      2  C   UNL     1      12.011  22.379  57.368  1.00  0.00    -0.012 C 
ATOM      3  C   UNL     1      13.325  22.390  57.079  1.00  0.00    -0.019 C 
ATOM      4  C   UNL     1      14.375  22.119  58.124  1.00  0.00     0.036 C 
ATOM      5  C   UNL     1      13.905  22.581  59.518  1.00  0.00     0.025 C 
ATOM      6  C   UNL     1      12.552  21.934  59.868  1.00  0.00     0.089 C 
ATOM      7  C   UNL     1      11.557  22.153  58.762  1.00  0.00     0.158 C 
ATOM      8  O   UNL     1      10.325  22.096  59.024  1.00  0.00    -0.295 OA
ENDROOT
BRANCH   5   9
ATOM      9  C   UNL     1      14.956  22.302  60.586  1.00  0.00    -0.077 C 
ATOM     10  C   UNL     1      16.232  22.695  60.430  1.00  0.00     0.008 C 
ATOM     11  C   UNL     1      14.574  21.573  61.848  1.00  0.00     0.039 C 
ENDBRANCH   5   9
TORSDOF 1
ENDMDL
MODEL 6
REMARK VINA RESULT:    -4.767     12.324     13.749
REMARK INTER + INTRA:          -5.141
REMARK INTER:                  -5.048
REMARK INTRA:                  -0.094
REMARK UNBOUND:                -0.096
REMARK SMILES C=C(C)[C@H]1CC=C(C)C(=O)C1
REMARK SMILES IDX 8 1 7 2 6 3 5 4 4 5 11 6 9 7 10 8 2 9 1 10 3 11
REMARK H PARENT
REMARK Flexibility Score: inf
ROOT
ATOM      1  C   UNL     1       2.341  29.062  54.024  1.00  0.00     0.048 C 
ATOM      2  C   UNL     1       3.678  29.742  53.936  1.00  0.00    -0.012 C 
ATOM      3  C   UNL     1       3.790  31.053  54.217  1.00  0.00    -0.019 C 
ATOM      4  C   UNL     1       5.092  31.795  54.066  1.00  0.00     0.036 C 
ATOM      5  C   UNL     1       6.295  30.865  54.315  1.00  0.00     0.025 C 
ATOM      6  C   UNL     1       6.216  29.630  53.398  1.00  0.00     0.089 C 
ATOM      7  C   UNL     1       4.871  28.967  53.514  1.00  0.00     0.158 C 
ATOM      8  O   UNL     1       4.757  27.751  53.204  1.00  0.00    -0.295 OA
ENDROOT
BRANCH   5   9
ATOM      9  C   UNL     1       7.619  31.602  54.153  1.00  0.00    -0.077 C 
ATOM     10  C   UNL     1       7.887  32.718  54.853  1.00  0.00     0.008 C 
ATOM     11  C   UNL     1       8.659  31.084  53.194  1.00  0.00     0.039 C 
ENDBRANCH   5   9
TORSDOF 1
ENDMDL
MODEL 7
REMARK VINA RESULT:    -4.759     12.312     13.715
REMARK INTER + INTRA:          -5.133
REMARK INTER:                  -5.039
REMARK INTRA:                  -0.094
REMARK UNBOUND:                -0.096
REMARK SMILES C=C(C)[C@H]1CC=C(C)C(=O)C1
REMARK SMILES IDX 8 1 7 2 6 3 5 4 4 5 11 6 9 7 10 8 2 9 1 10 3 11
REMARK H PARENT
REMARK Flexibility Score: inf
ROOT
ATOM      1  C   UNL     1       4.144  26.928  52.933  1.00  0.00     0.048 C 
ATOM      2  C   UNL     1       4.796  28.238  53.280  1.00  0.00    -0.012 C 
ATOM      3  C   UNL     1       6.137  28.338  53.313  1.00  0.00    -0.019 C 
ATOM      4  C   UNL     1       6.834  29.605  53.733  1.00  0.00     0.036 C 
ATOM      5  C   UNL     1       5.994  30.847  53.376  1.00  0.00     0.025 C 
ATOM      6  C   UNL     1       4.582  30.730  53.979  1.00  0.00     0.089 C 
ATOM      7  C   UNL     1       3.953  29.415  53.608  1.00  0.00     0.158 C 
ATOM      8  O   UNL     1       2.698  29.308  53.624  1.00  0.00    -0.295 OA
ENDROOT
BRANCH   5   9
ATOM      9  C   UNL     1       6.684  32.135  53.805  1.00  0.00    -0.077 C 
ATOM     10  C   UNL     1       7.402  32.198  54.940  1.00  0.00     0.008 C 
ATOM     11  C   UNL     1       6.571  33.373  52.954  1.00  0.00     0.039 C 
ENDBRANCH   5   9
TORSDOF 1
ENDMDL
MODEL 8
REMARK VINA RESULT:    -4.654      1.045      1.283
REMARK INTER + INTRA:          -5.022
REMARK INTER:                  -4.925
REMARK INTRA:                  -0.097
REMARK UNBOUND:                -0.096
REMARK SMILES C=C(C)[C@H]1CC=C(C)C(=O)C1
REMARK SMILES IDX 8 1 7 2 6 3 5 4 4 5 11 6 9 7 10 8 2 9 1 10 3 11
REMARK H PARENT
REMARK Flexibility Score: inf
ROOT
ATOM      1  C   UNL     1      16.756  22.810  60.344  1.00  0.00     0.048 C 
ATOM      2  C   UNL     1      15.403  22.565  59.737  1.00  0.00    -0.012 C 
ATOM      3  C   UNL     1      14.296  22.646  60.496  1.00  0.00    -0.019 C 
ATOM      4  C   UNL     1      12.928  22.331  59.951  1.00  0.00     0.036 C 
ATOM      5  C   UNL     1      12.837  22.663  58.448  1.00  0.00     0.025 C 
ATOM      6  C   UNL     1      13.955  21.941  57.673  1.00  0.00     0.089 C 
ATOM      7  C   UNL     1      15.296  22.211  58.299  1.00  0.00     0.158 C 
ATOM      8  O   UNL     1      16.336  22.088  57.599  1.00  0.00    -0.295 OA
ENDROOT
BRANCH   5   9
ATOM      9  C   UNL     1      11.460  22.338  57.883  1.00  0.00    -0.077 C 
ATOM     10  C   UNL     1      11.219  22.383  56.561  1.00  0.00     0.008 C 
ATOM     11  C   UNL     1      10.334  21.957  58.810  1.00  0.00     0.039 C 
ENDBRANCH   5   9
TORSDOF 1
ENDMDL
MODEL 9
REMARK VINA RESULT:    -4.644     12.228     13.106
REMARK INTER + INTRA:          -5.012
REMARK INTER:                  -4.916
REMARK INTRA:                  -0.096
REMARK UNBOUND:                -0.096
REMARK SMILES C=C(C)[C@H]1CC=C(C)C(=O)C1
REMARK SMILES IDX 8 1 7 2 6 3 5 4 4 5 11 6 9 7 10 8 2 9 1 10 3 11
REMARK H PARENT
REMARK Flexibility Score: inf
ROOT
ATOM      1  C   UNL     1       7.467  32.872  54.110  1.00  0.00     0.048 C 
ATOM      2  C   UNL     1       6.555  31.680  54.026  1.00  0.00    -0.012 C 
ATOM      3  C   UNL     1       5.270  31.783  54.409  1.00  0.00    -0.019 C 
ATOM      4  C   UNL     1       4.341  30.599  54.417  1.00  0.00     0.036 C 
ATOM      5  C   UNL     1       4.721  29.585  53.320  1.00  0.00     0.025 C 
ATOM      6  C   UNL     1       6.198  29.170  53.464  1.00  0.00     0.089 C 
ATOM      7  C   UNL     1       7.085  30.382  53.538  1.00  0.00     0.158 C 
ATOM      8  O   UNL     1       8.301  30.274  53.224  1.00  0.00    -0.295 OA
ENDROOT
BRANCH   5   9
ATOM      9  C   UNL     1       3.794  28.376  53.327  1.00  0.00    -0.077 C 
ATOM     10  C   UNL     1       2.571  28.436  53.882  1.00  0.00     0.008 C 
ATOM     11  C   UNL     1       4.241  27.078  52.703  1.00  0.00     0.039 C 
ENDBRANCH   5   9
TORSDOF 1
ENDMDL
