MODEL 1
REMARK VINA RESULT:    -6.292      0.000      0.000
REMARK INTER + INTRA:         -10.296
REMARK INTER:                  -8.499
REMARK INTRA:                  -1.798
REMARK UNBOUND:                -1.798
REMARK SMILES CC[C@@H](CC[C@H](C)[C@@H]1CC[C@@H]2[C@@H]3CC(=O)C4=CC(=O)CC[C@]4(C)[C@@H]3CC[C@]21C)C(C)C
REMARK SMILES IDX 4 1 3 2 2 3 1 4 29 5 30 6 31 7 5 8 6 9 7 10 8 11 9 12 27 13
REMARK SMILES IDX 10 14 11 15 26 16 28 17 12 18 25 19 24 20 13 21 22 22 14 23
REMARK SMILES IDX 16 24 21 25 23 26 15 27 17 28 20 29 18 30 19 31
REMARK H PARENT
REMARK Flexibility Score: inf
ROOT
ATOM      1  C   UNL     1      83.973  33.597  23.696  1.00  0.00     0.004 C 
ENDROOT
BRANCH   1   2
ATOM      2  C   UNL     1      85.180  34.503  23.331  1.00  0.00    -0.009 C 
BRANCH   2   3
ATOM      3  C   UNL     1      86.568  33.812  23.472  1.00  0.00     0.000 C 
ATOM      4  C   UNL     1      87.604  34.173  22.404  1.00  0.00     0.004 C 
ENDBRANCH   2   3
BRANCH   2   5
ATOM      5  C   UNL     1      85.128  35.927  23.971  1.00  0.00    -0.014 C 
ATOM      6  C   UNL     1      86.023  36.108  25.205  1.00  0.00     0.007 C 
ATOM      7  C   UNL     1      83.690  36.383  24.278  1.00  0.00     0.007 C 
ENDBRANCH   2   5
ENDBRANCH   1   2
BRANCH   1   8
ATOM      8  C   UNL     1      84.358  32.357  24.555  1.00  0.00     0.004 C 
BRANCH   8   9
ATOM      9  C   UNL     1      83.995  32.493  26.063  1.00  0.00    -0.011 C 
ATOM     10  C   UNL     1      82.748  33.372  26.223  1.00  0.00     0.008 C 
BRANCH   9  11
ATOM     11  C   UNL     1      85.204  33.014  26.931  1.00  0.00    -0.002 C 
ATOM     12  C   UNL     1      86.513  32.218  26.652  1.00  0.00     0.005 C 
ATOM     13  C   UNL     1      85.070  32.935  28.489  1.00  0.00    -0.026 C 
ATOM     14  C   UNL     1      87.321  32.139  27.942  1.00  0.00     0.005 C 
ATOM     15  C   UNL     1      86.554  33.014  28.911  1.00  0.00    -0.001 C 
ATOM     16  C   UNL     1      84.382  34.143  29.170  1.00  0.00     0.007 C 
ATOM     17  C   UNL     1      84.389  31.599  28.914  1.00  0.00     0.012 C 
ATOM     18  C   UNL     1      86.837  32.857  30.415  1.00  0.00     0.004 C 
ATOM     19  C   UNL     1      84.504  34.061  30.712  1.00  0.00     0.005 C 
ATOM     20  C   UNL     1      85.964  33.880  31.250  1.00  0.00     0.003 C 
ATOM     21  C   UNL     1      86.935  31.375  30.924  1.00  0.00     0.085 C 
ATOM     22  C   UNL     1      86.032  33.574  32.784  1.00  0.00    -0.000 C 
ATOM     23  C   UNL     1      86.329  31.103  32.267  1.00  0.00     0.159 C 
ATOM     24  C   UNL     1      85.571  32.142  32.978  1.00  0.00     0.005 C 
ATOM     25  C   UNL     1      85.228  34.582  33.685  1.00  0.00     0.020 C 
ATOM     26  C   UNL     1      87.516  33.684  33.250  1.00  0.00     0.017 C 
ATOM     27  O   UNL     1      86.429  29.941  32.776  1.00  0.00    -0.295 OA
ATOM     28  C   UNL     1      84.386  31.826  33.496  1.00  0.00     0.055 C 
ATOM     29  C   UNL     1      83.730  34.310  33.851  1.00  0.00     0.081 C 
ATOM     30  C   UNL     1      83.409  32.850  33.905  1.00  0.00     0.156 C 
ATOM     31  O   UNL     1      82.238  32.489  34.181  1.00  0.00    -0.295 OA
ENDBRANCH   9  11
ENDBRANCH   8   9
ENDBRANCH   1   8
TORSDOF 6
ENDMDL
MODEL 2
REMARK VINA RESULT:    -6.205      4.910     10.118
REMARK INTER + INTRA:         -10.179
REMARK INTER:                  -8.559
REMARK INTRA:                  -1.619
REMARK UNBOUND:                -1.798
REMARK SMILES CC[C@@H](CC[C@H](C)[C@@H]1CC[C@@H]2[C@@H]3CC(=O)C4=CC(=O)CC[C@]4(C)[C@@H]3CC[C@]21C)C(C)C
REMARK SMILES IDX 4 1 3 2 2 3 1 4 29 5 30 6 31 7 5 8 6 9 7 10 8 11 9 12 27 13
REMARK SMILES IDX 10 14 11 15 26 16 28 17 12 18 25 19 24 20 13 21 22 22 14 23
REMARK SMILES IDX 16 24 21 25 23 26 15 27 17 28 20 29 18 30 19 31
REMARK H PARENT
REMARK Flexibility Score: inf
ROOT
ATOM      1  C   UNL     1      82.820  35.634  30.230  1.00  0.00     0.004 C 
ENDROOT
BRANCH   1   2
ATOM      2  C   UNL     1      84.053  36.536  30.506  1.00  0.00    -0.009 C 
BRANCH   2   3
ATOM      3  C   UNL     1      83.810  38.053  30.254  1.00  0.00     0.000 C 
ATOM      4  C   UNL     1      85.048  38.950  30.341  1.00  0.00     0.004 C 
ENDBRANCH   2   3
BRANCH   2   5
ATOM      5  C   UNL     1      85.384  36.009  29.882  1.00  0.00    -0.014 C 
ATOM      6  C   UNL     1      85.421  36.020  28.348  1.00  0.00     0.007 C 
ATOM      7  C   UNL     1      85.778  34.621  30.420  1.00  0.00     0.007 C 
ENDBRANCH   2   5
ENDBRANCH   1   2
BRANCH   1   8
ATOM      8  C   UNL     1      81.673  36.359  29.466  1.00  0.00     0.004 C 
BRANCH   8   9
ATOM      9  C   UNL     1      81.550  35.947  27.969  1.00  0.00    -0.011 C 
ATOM     10  C   UNL     1      82.031  34.502  27.783  1.00  0.00     0.008 C 
BRANCH   9  11
ATOM     11  C   UNL     1      82.291  36.949  27.004  1.00  0.00    -0.002 C 
ATOM     12  C   UNL     1      81.850  38.424  27.237  1.00  0.00     0.005 C 
ATOM     13  C   UNL     1      82.089  36.761  25.462  1.00  0.00    -0.026 C 
ATOM     14  C   UNL     1      81.889  39.162  25.903  1.00  0.00     0.005 C 
ATOM     15  C   UNL     1      82.495  38.158  24.945  1.00  0.00    -0.001 C 
ATOM     16  C   UNL     1      83.054  35.768  24.770  1.00  0.00     0.007 C 
ATOM     17  C   UNL     1      80.606  36.404  25.143  1.00  0.00     0.012 C 
ATOM     18  C   UNL     1      82.319  38.396  23.435  1.00  0.00     0.004 C 
ATOM     19  C   UNL     1      82.910  35.830  23.229  1.00  0.00     0.005 C 
ATOM     20  C   UNL     1      83.051  37.261  22.610  1.00  0.00     0.003 C 
ATOM     21  C   UNL     1      80.876  38.825  22.991  1.00  0.00     0.085 C 
ATOM     22  C   UNL     1      82.678  37.325  21.091  1.00  0.00    -0.000 C 
ATOM     23  C   UNL     1      80.386  38.237  21.702  1.00  0.00     0.159 C 
ATOM     24  C   UNL     1      81.169  37.216  20.993  1.00  0.00     0.005 C 
ATOM     25  C   UNL     1      83.408  36.257  20.195  1.00  0.00     0.020 C 
ATOM     26  C   UNL     1      83.112  38.713  20.528  1.00  0.00     0.017 C 
ATOM     27  O   UNL     1      79.254  38.590  21.243  1.00  0.00    -0.295 OA
ATOM     28  C   UNL     1      80.547  36.118  20.565  1.00  0.00     0.055 C 
ATOM     29  C   UNL     1      82.776  34.863  20.136  1.00  0.00     0.081 C 
ATOM     30  C   UNL     1      81.281  34.903  20.171  1.00  0.00     0.156 C 
ATOM     31  O   UNL     1      80.635  33.843  19.986  1.00  0.00    -0.295 OA
ENDBRANCH   9  11
ENDBRANCH   8   9
ENDBRANCH   1   8
TORSDOF 6
ENDMDL
MODEL 3
REMARK VINA RESULT:    -6.155      2.506      4.480
REMARK INTER + INTRA:         -10.112
REMARK INTER:                  -8.419
REMARK INTRA:                  -1.694
REMARK UNBOUND:                -1.798
REMARK SMILES CC[C@@H](CC[C@H](C)[C@@H]1CC[C@@H]2[C@@H]3CC(=O)C4=CC(=O)CC[C@]4(C)[C@@H]3CC[C@]21C)C(C)C
REMARK SMILES IDX 4 1 3 2 2 3 1 4 29 5 30 6 31 7 5 8 6 9 7 10 8 11 9 12 27 13
REMARK SMILES IDX 10 14 11 15 26 16 28 17 12 18 25 19 24 20 13 21 22 22 14 23
REMARK SMILES IDX 16 24 21 25 23 26 15 27 17 28 20 29 18 30 19 31
REMARK H PARENT
REMARK Flexibility Score: inf
ROOT
ATOM      1  C   UNL     1      87.423  37.133  25.566  1.00  0.00     0.004 C 
ENDROOT
BRANCH   1   2
ATOM      2  C   UNL     1      88.119  37.864  26.746  1.00  0.00    -0.009 C 
BRANCH   2   3
ATOM      3  C   UNL     1      87.141  38.521  27.762  1.00  0.00     0.000 C 
ATOM      4  C   UNL     1      87.196  37.974  29.192  1.00  0.00     0.004 C 
ENDBRANCH   2   3
BRANCH   2   5
ATOM      5  C   UNL     1      89.290  38.804  26.316  1.00  0.00    -0.014 C 
ATOM      6  C   UNL     1      90.574  38.648  27.142  1.00  0.00     0.007 C 
ATOM      7  C   UNL     1      88.866  40.283  26.254  1.00  0.00     0.007 C 
ENDBRANCH   2   5
ENDBRANCH   1   2
BRANCH   1   8
ATOM      8  C   UNL     1      85.908  36.866  25.802  1.00  0.00     0.004 C 
BRANCH   8   9
ATOM      9  C   UNL     1      85.580  35.404  26.225  1.00  0.00    -0.011 C 
ATOM     10  C   UNL     1      85.297  34.551  24.982  1.00  0.00     0.008 C 
BRANCH   9  11
ATOM     11  C   UNL     1      84.408  35.328  27.277  1.00  0.00    -0.002 C 
ATOM     12  C   UNL     1      84.053  36.726  27.862  1.00  0.00     0.005 C 
ATOM     13  C   UNL     1      84.635  34.458  28.560  1.00  0.00    -0.026 C 
ATOM     14  C   UNL     1      83.609  36.551  29.311  1.00  0.00     0.005 C 
ATOM     15  C   UNL     1      83.566  35.050  29.504  1.00  0.00    -0.001 C 
ATOM     16  C   UNL     1      84.283  32.956  28.428  1.00  0.00     0.007 C 
ATOM     17  C   UNL     1      86.087  34.641  29.097  1.00  0.00     0.012 C 
ATOM     18  C   UNL     1      83.556  34.501  30.940  1.00  0.00     0.004 C 
ATOM     19  C   UNL     1      84.333  32.246  29.804  1.00  0.00     0.005 C 
ATOM     20  C   UNL     1      83.473  32.920  30.925  1.00  0.00     0.003 C 
ATOM     21  C   UNL     1      84.573  35.182  31.922  1.00  0.00     0.085 C 
ATOM     22  C   UNL     1      83.721  32.319  32.350  1.00  0.00    -0.000 C 
ATOM     23  C   UNL     1      85.257  34.269  32.894  1.00  0.00     0.159 C 
ATOM     24  C   UNL     1      85.076  32.813  32.817  1.00  0.00     0.005 C 
ATOM     25  C   UNL     1      83.603  30.752  32.425  1.00  0.00     0.020 C 
ATOM     26  C   UNL     1      82.631  32.869  33.320  1.00  0.00     0.017 C 
ATOM     27  O   UNL     1      86.044  34.758  33.766  1.00  0.00    -0.295 OA
ATOM     28  C   UNL     1      86.154  32.032  32.870  1.00  0.00     0.055 C 
ATOM     29  C   UNL     1      84.850  29.951  32.036  1.00  0.00     0.081 C 
ATOM     30  C   UNL     1      86.121  30.620  32.454  1.00  0.00     0.156 C 
ATOM     31  O   UNL     1      87.209  30.005  32.324  1.00  0.00    -0.295 OA
ENDBRANCH   9  11
ENDBRANCH   8   9
ENDBRANCH   1   8
TORSDOF 6
ENDMDL
MODEL 4
REMARK VINA RESULT:    -6.012      1.895      3.035
REMARK INTER + INTRA:          -9.919
REMARK INTER:                  -8.431
REMARK INTRA:                  -1.488
REMARK UNBOUND:                -1.798
REMARK SMILES CC[C@@H](CC[C@H](C)[C@@H]1CC[C@@H]2[C@@H]3CC(=O)C4=CC(=O)CC[C@]4(C)[C@@H]3CC[C@]21C)C(C)C
REMARK SMILES IDX 4 1 3 2 2 3 1 4 29 5 30 6 31 7 5 8 6 9 7 10 8 11 9 12 27 13
REMARK SMILES IDX 10 14 11 15 26 16 28 17 12 18 25 19 24 20 13 21 22 22 14 23
REMARK SMILES IDX 16 24 21 25 23 26 15 27 17 28 20 29 18 30 19 31
REMARK H PARENT
REMARK Flexibility Score: inf
ROOT
ATOM      1  C   UNL     1      82.495  36.534  23.958  1.00  0.00     0.004 C 
ENDROOT
BRANCH   1   2
ATOM      2  C   UNL     1      83.582  36.312  22.872  1.00  0.00    -0.009 C 
BRANCH   2   3
ATOM      3  C   UNL     1      83.177  36.793  21.448  1.00  0.00     0.000 C 
ATOM      4  C   UNL     1      83.508  35.833  20.301  1.00  0.00     0.004 C 
ENDBRANCH   2   3
BRANCH   2   5
ATOM      5  C   UNL     1      84.219  34.885  22.886  1.00  0.00    -0.014 C 
ATOM      6  C   UNL     1      83.531  33.886  23.826  1.00  0.00     0.007 C 
ATOM      7  C   UNL     1      85.735  34.920  23.154  1.00  0.00     0.007 C 
ENDBRANCH   2   5
ENDBRANCH   1   2
BRANCH   1   8
ATOM      8  C   UNL     1      82.915  37.544  25.066  1.00  0.00     0.004 C 
BRANCH   8   9
ATOM      9  C   UNL     1      82.713  37.014  26.516  1.00  0.00    -0.011 C 
ATOM     10  C   UNL     1      81.678  37.878  27.249  1.00  0.00     0.008 C 
BRANCH   9  11
ATOM     11  C   UNL     1      84.068  36.906  27.314  1.00  0.00    -0.002 C 
ATOM     12  C   UNL     1      85.227  36.355  26.431  1.00  0.00     0.005 C 
ATOM     13  C   UNL     1      84.104  35.966  28.567  1.00  0.00    -0.026 C 
ATOM     14  C   UNL     1      86.161  35.529  27.310  1.00  0.00     0.005 C 
ATOM     15  C   UNL     1      85.624  35.734  28.711  1.00  0.00    -0.001 C 
ATOM     16  C   UNL     1      83.654  36.604  29.903  1.00  0.00     0.007 C 
ATOM     17  C   UNL     1      83.314  34.651  28.288  1.00  0.00     0.012 C 
ATOM     18  C   UNL     1      86.054  34.743  29.806  1.00  0.00     0.004 C 
ATOM     19  C   UNL     1      83.940  35.661  31.098  1.00  0.00     0.005 C 
ATOM     20  C   UNL     1      85.417  35.150  31.197  1.00  0.00     0.003 C 
ATOM     21  C   UNL     1      86.023  33.231  29.389  1.00  0.00     0.085 C 
ATOM     22  C   UNL     1      85.620  34.029  32.271  1.00  0.00    -0.000 C 
ATOM     23  C   UNL     1      85.544  32.272  30.436  1.00  0.00     0.159 C 
ATOM     24  C   UNL     1      85.008  32.757  31.715  1.00  0.00     0.005 C 
ATOM     25  C   UNL     1      85.057  34.382  33.697  1.00  0.00     0.020 C 
ATOM     26  C   UNL     1      87.150  33.798  32.469  1.00  0.00     0.017 C 
ATOM     27  O   UNL     1      85.555  31.023  30.194  1.00  0.00    -0.295 OA
ATOM     28  C   UNL     1      83.859  32.251  32.159  1.00  0.00     0.055 C 
ATOM     29  C   UNL     1      83.565  34.124  33.929  1.00  0.00     0.081 C 
ATOM     30  C   UNL     1      83.072  32.902  33.220  1.00  0.00     0.156 C 
ATOM     31  O   UNL     1      81.904  32.495  33.439  1.00  0.00    -0.295 OA
ENDBRANCH   9  11
ENDBRANCH   8   9
ENDBRANCH   1   8
TORSDOF 6
ENDMDL
MODEL 5
REMARK VINA RESULT:    -5.911      7.400     11.420
REMARK INTER + INTRA:          -9.783
REMARK INTER:                  -8.363
REMARK INTRA:                  -1.420
REMARK UNBOUND:                -1.798
REMARK SMILES CC[C@@H](CC[C@H](C)[C@@H]1CC[C@@H]2[C@@H]3CC(=O)C4=CC(=O)CC[C@]4(C)[C@@H]3CC[C@]21C)C(C)C
REMARK SMILES IDX 4 1 3 2 2 3 1 4 29 5 30 6 31 7 5 8 6 9 7 10 8 11 9 12 27 13
REMARK SMILES IDX 10 14 11 15 26 16 28 17 12 18 25 19 24 20 13 21 22 22 14 23
REMARK SMILES IDX 16 24 21 25 23 26 15 27 17 28 20 29 18 30 19 31
REMARK H PARENT
REMARK Flexibility Score: inf
ROOT
ATOM      1  C   UNL     1      79.286  43.136  27.645  1.00  0.00     0.004 C 
ENDROOT
BRANCH   1   2
ATOM      2  C   UNL     1      79.490  44.644  27.335  1.00  0.00    -0.009 C 
BRANCH   2   3
ATOM      3  C   UNL     1      80.110  44.935  25.938  1.00  0.00     0.000 C 
ATOM      4  C   UNL     1      79.253  45.779  24.991  1.00  0.00     0.004 C 
ENDBRANCH   2   3
BRANCH   2   5
ATOM      5  C   UNL     1      80.163  45.450  28.492  1.00  0.00    -0.014 C 
ATOM      6  C   UNL     1      79.694  46.906  28.617  1.00  0.00     0.007 C 
ATOM      7  C   UNL     1      81.701  45.383  28.441  1.00  0.00     0.007 C 
ENDBRANCH   2   5
ENDBRANCH   1   2
BRANCH   1   8
ATOM      8  C   UNL     1      79.481  42.211  26.408  1.00  0.00     0.004 C 
BRANCH   8   9
ATOM      9  C   UNL     1      80.551  41.098  26.612  1.00  0.00    -0.011 C 
ATOM     10  C   UNL     1      81.369  41.384  27.878  1.00  0.00     0.008 C 
BRANCH   9  11
ATOM     11  C   UNL     1      81.467  40.900  25.344  1.00  0.00    -0.002 C 
ATOM     12  C   UNL     1      81.114  41.900  24.204  1.00  0.00     0.005 C 
ATOM     13  C   UNL     1      81.422  39.511  24.621  1.00  0.00    -0.026 C 
ATOM     14  C   UNL     1      81.355  41.215  22.862  1.00  0.00     0.005 C 
ATOM     15  C   UNL     1      81.986  39.889  23.234  1.00  0.00    -0.001 C 
ATOM     16  C   UNL     1      82.380  38.429  25.176  1.00  0.00     0.007 C 
ATOM     17  C   UNL     1      79.960  38.975  24.556  1.00  0.00     0.012 C 
ATOM     18  C   UNL     1      81.995  38.768  22.182  1.00  0.00     0.004 C 
ATOM     19  C   UNL     1      82.412  37.184  24.255  1.00  0.00     0.005 C 
ATOM     20  C   UNL     1      82.727  37.485  22.751  1.00  0.00     0.003 C 
ATOM     21  C   UNL     1      80.646  38.570  21.404  1.00  0.00     0.085 C 
ATOM     22  C   UNL     1      82.529  36.247  21.811  1.00  0.00    -0.000 C 
ATOM     23  C   UNL     1      80.258  37.152  21.115  1.00  0.00     0.159 C 
ATOM     24  C   UNL     1      81.035  36.031  21.661  1.00  0.00     0.005 C 
ATOM     25  C   UNL     1      83.271  34.944  22.286  1.00  0.00     0.020 C 
ATOM     26  C   UNL     1      83.125  36.584  20.410  1.00  0.00     0.017 C 
ATOM     27  O   UNL     1      79.212  36.916  20.430  1.00  0.00    -0.295 OA
ATOM     28  C   UNL     1      80.384  35.030  22.252  1.00  0.00     0.055 C 
ATOM     29  C   UNL     1      82.547  34.081  23.324  1.00  0.00     0.081 C 
ATOM     30  C   UNL     1      81.064  34.058  23.125  1.00  0.00     0.156 C 
ATOM     31  O   UNL     1      80.364  33.278  23.817  1.00  0.00    -0.295 OA
ENDBRANCH   9  11
ENDBRANCH   8   9
ENDBRANCH   1   8
TORSDOF 6
ENDMDL
MODEL 6
REMARK VINA RESULT:    -5.748      1.971      2.732
REMARK INTER + INTRA:          -9.562
REMARK INTER:                  -8.483
REMARK INTRA:                  -1.079
REMARK UNBOUND:                -1.798
REMARK SMILES CC[C@@H](CC[C@H](C)[C@@H]1CC[C@@H]2[C@@H]3CC(=O)C4=CC(=O)CC[C@]4(C)[C@@H]3CC[C@]21C)C(C)C
REMARK SMILES IDX 4 1 3 2 2 3 1 4 29 5 30 6 31 7 5 8 6 9 7 10 8 11 9 12 27 13
REMARK SMILES IDX 10 14 11 15 26 16 28 17 12 18 25 19 24 20 13 21 22 22 14 23
REMARK SMILES IDX 16 24 21 25 23 26 15 27 17 28 20 29 18 30 19 31
REMARK H PARENT
REMARK Flexibility Score: inf
ROOT
ATOM      1  C   UNL     1      84.063  36.095  23.324  1.00  0.00     0.004 C 
ENDROOT
BRANCH   1   2
ATOM      2  C   UNL     1      83.121  36.514  22.163  1.00  0.00    -0.009 C 
BRANCH   2   3
ATOM      3  C   UNL     1      83.449  35.847  20.796  1.00  0.00     0.000 C 
ATOM      4  C   UNL     1      82.386  34.888  20.250  1.00  0.00     0.004 C 
ENDBRANCH   2   3
BRANCH   2   5
ATOM      5  C   UNL     1      82.880  38.054  22.059  1.00  0.00    -0.014 C 
ATOM      6  C   UNL     1      81.531  38.531  22.614  1.00  0.00     0.007 C 
ATOM      7  C   UNL     1      83.093  38.588  20.630  1.00  0.00     0.007 C 
ENDBRANCH   2   5
ENDBRANCH   1   2
BRANCH   1   8
ATOM      8  C   UNL     1      83.384  35.172  24.378  1.00  0.00     0.004 C 
BRANCH   8   9
ATOM      9  C   UNL     1      83.651  35.591  25.854  1.00  0.00    -0.011 C 
ATOM     10  C   UNL     1      83.588  37.119  25.982  1.00  0.00     0.008 C 
BRANCH   9  11
ATOM     11  C   UNL     1      85.001  35.002  26.414  1.00  0.00    -0.002 C 
ATOM     12  C   UNL     1      85.464  33.742  25.626  1.00  0.00     0.005 C 
ATOM     13  C   UNL     1      85.022  34.513  27.902  1.00  0.00    -0.026 C 
ATOM     14  C   UNL     1      86.175  32.797  26.589  1.00  0.00     0.005 C 
ATOM     15  C   UNL     1      86.252  33.580  27.883  1.00  0.00    -0.001 C 
ATOM     16  C   UNL     1      85.339  35.593  28.965  1.00  0.00     0.007 C 
ATOM     17  C   UNL     1      83.699  33.765  28.252  1.00  0.00     0.012 C 
ATOM     18  C   UNL     1      86.535  32.809  29.183  1.00  0.00     0.004 C 
ATOM     19  C   UNL     1      85.551  34.959  30.362  1.00  0.00     0.005 C 
ATOM     20  C   UNL     1      86.611  33.807  30.410  1.00  0.00     0.003 C 
ATOM     21  C   UNL     1      85.725  31.476  29.359  1.00  0.00     0.085 C 
ATOM     22  C   UNL     1      86.638  33.039  31.774  1.00  0.00    -0.000 C 
ATOM     23  C   UNL     1      85.237  31.184  30.746  1.00  0.00     0.159 C 
ATOM     24  C   UNL     1      85.397  32.168  31.825  1.00  0.00     0.005 C 
ATOM     25  C   UNL     1      86.765  33.964  33.040  1.00  0.00     0.020 C 
ATOM     26  C   UNL     1      87.894  32.115  31.802  1.00  0.00     0.017 C 
ATOM     27  O   UNL     1      84.632  30.090  30.980  1.00  0.00    -0.295 OA
ATOM     28  C   UNL     1      84.348  32.446  32.597  1.00  0.00     0.055 C 
ATOM     29  C   UNL     1      85.465  34.570  33.580  1.00  0.00     0.081 C 
ATOM     30  C   UNL     1      84.298  33.643  33.454  1.00  0.00     0.156 C 
ATOM     31  O   UNL     1      83.205  33.957  33.986  1.00  0.00    -0.295 OA
ENDBRANCH   9  11
ENDBRANCH   8   9
ENDBRANCH   1   8
TORSDOF 6
ENDMDL
MODEL 7
REMARK VINA RESULT:    -5.744      4.503      9.017
REMARK INTER + INTRA:          -9.556
REMARK INTER:                  -7.861
REMARK INTRA:                  -1.695
REMARK UNBOUND:                -1.798
REMARK SMILES CC[C@@H](CC[C@H](C)[C@@H]1CC[C@@H]2[C@@H]3CC(=O)C4=CC(=O)CC[C@]4(C)[C@@H]3CC[C@]21C)C(C)C
REMARK SMILES IDX 4 1 3 2 2 3 1 4 29 5 30 6 31 7 5 8 6 9 7 10 8 11 9 12 27 13
REMARK SMILES IDX 10 14 11 15 26 16 28 17 12 18 25 19 24 20 13 21 22 22 14 23
REMARK SMILES IDX 16 24 21 25 23 26 15 27 17 28 20 29 18 30 19 31
REMARK H PARENT
REMARK Flexibility Score: inf
ROOT
ATOM      1  C   UNL     1      85.788  35.558  29.468  1.00  0.00     0.004 C 
ENDROOT
BRANCH   1   2
ATOM      2  C   UNL     1      85.607  36.994  28.905  1.00  0.00    -0.009 C 
BRANCH   2   3
ATOM      3  C   UNL     1      86.869  37.897  29.026  1.00  0.00     0.000 C 
ATOM      4  C   UNL     1      87.748  37.984  27.774  1.00  0.00     0.004 C 
ENDBRANCH   2   3
BRANCH   2   5
ATOM      5  C   UNL     1      84.293  37.701  29.368  1.00  0.00    -0.014 C 
ATOM      6  C   UNL     1      84.461  38.646  30.566  1.00  0.00     0.007 C 
ATOM      7  C   UNL     1      83.147  36.705  29.624  1.00  0.00     0.007 C 
ENDBRANCH   2   5
ENDBRANCH   1   2
BRANCH   1   8
ATOM      8  C   UNL     1      86.125  34.498  28.379  1.00  0.00     0.004 C 
BRANCH   8   9
ATOM      9  C   UNL     1      84.921  34.127  27.462  1.00  0.00    -0.011 C 
ATOM     10  C   UNL     1      84.428  32.713  27.794  1.00  0.00     0.008 C 
BRANCH   9  11
ATOM     11  C   UNL     1      85.253  34.296  25.930  1.00  0.00    -0.002 C 
ATOM     12  C   UNL     1      86.230  35.481  25.669  1.00  0.00     0.005 C 
ATOM     13  C   UNL     1      84.065  34.599  24.955  1.00  0.00    -0.026 C 
ATOM     14  C   UNL     1      85.888  36.108  24.322  1.00  0.00     0.005 C 
ATOM     15  C   UNL     1      84.825  35.193  23.750  1.00  0.00    -0.001 C 
ATOM     16  C   UNL     1      83.314  33.363  24.403  1.00  0.00     0.007 C 
ATOM     17  C   UNL     1      83.069  35.608  25.602  1.00  0.00     0.012 C 
ATOM     18  C   UNL     1      83.953  35.722  22.598  1.00  0.00     0.004 C 
ATOM     19  C   UNL     1      82.316  33.767  23.289  1.00  0.00     0.005 C 
ATOM     20  C   UNL     1      82.935  34.608  22.122  1.00  0.00     0.003 C 
ATOM     21  C   UNL     1      83.420  37.186  22.782  1.00  0.00     0.085 C 
ATOM     22  C   UNL     1      81.867  35.190  21.136  1.00  0.00    -0.000 C 
ATOM     23  C   UNL     1      82.018  37.436  22.315  1.00  0.00     0.159 C 
ATOM     24  C   UNL     1      81.169  36.331  21.851  1.00  0.00     0.005 C 
ATOM     25  C   UNL     1      80.848  34.129  20.578  1.00  0.00     0.020 C 
ATOM     26  C   UNL     1      82.601  35.764  19.886  1.00  0.00     0.017 C 
ATOM     27  O   UNL     1      81.540  38.614  22.370  1.00  0.00    -0.295 OA
ATOM     28  C   UNL     1      79.926  36.240  22.321  1.00  0.00     0.055 C 
ATOM     29  C   UNL     1      79.637  33.810  21.461  1.00  0.00     0.081 C 
ATOM     30  C   UNL     1      79.130  35.006  22.203  1.00  0.00     0.156 C 
ATOM     31  O   UNL     1      78.058  34.917  22.851  1.00  0.00    -0.295 OA
ENDBRANCH   9  11
ENDBRANCH   8   9
ENDBRANCH   1   8
TORSDOF 6
ENDMDL
MODEL 8
REMARK VINA RESULT:    -5.702      3.772      9.062
REMARK INTER + INTRA:          -9.500
REMARK INTER:                  -7.824
REMARK INTRA:                  -1.676
REMARK UNBOUND:                -1.798
REMARK SMILES CC[C@@H](CC[C@H](C)[C@@H]1CC[C@@H]2[C@@H]3CC(=O)C4=CC(=O)CC[C@]4(C)[C@@H]3CC[C@]21C)C(C)C
REMARK SMILES IDX 4 1 3 2 2 3 1 4 29 5 30 6 31 7 5 8 6 9 7 10 8 11 9 12 27 13
REMARK SMILES IDX 10 14 11 15 26 16 28 17 12 18 25 19 24 20 13 21 22 22 14 23
REMARK SMILES IDX 16 24 21 25 23 26 15 27 17 28 20 29 18 30 19 31
REMARK H PARENT
REMARK Flexibility Score: inf
ROOT
ATOM      1  C   UNL     1      85.275  33.314  29.922  1.00  0.00     0.004 C 
ENDROOT
BRANCH   1   2
ATOM      2  C   UNL     1      85.307  34.505  30.918  1.00  0.00    -0.009 C 
BRANCH   2   3
ATOM      3  C   UNL     1      85.591  34.102  32.394  1.00  0.00     0.000 C 
ATOM      4  C   UNL     1      84.733  34.799  33.453  1.00  0.00     0.004 C 
ENDBRANCH   2   3
BRANCH   2   5
ATOM      5  C   UNL     1      84.110  35.498  30.767  1.00  0.00    -0.014 C 
ATOM      6  C   UNL     1      83.023  35.046  29.783  1.00  0.00     0.007 C 
ATOM      7  C   UNL     1      84.571  36.930  30.438  1.00  0.00     0.007 C 
ENDBRANCH   2   5
ENDBRANCH   1   2
BRANCH   1   8
ATOM      8  C   UNL     1      86.306  33.441  28.763  1.00  0.00     0.004 C 
BRANCH   8   9
ATOM      9  C   UNL     1      85.689  33.261  27.344  1.00  0.00    -0.011 C 
ATOM     10  C   UNL     1      86.243  31.988  26.691  1.00  0.00     0.008 C 
BRANCH   9  11
ATOM     11  C   UNL     1      85.889  34.531  26.432  1.00  0.00    -0.002 C 
ATOM     12  C   UNL     1      85.865  35.853  27.254  1.00  0.00     0.005 C 
ATOM     13  C   UNL     1      84.831  34.797  25.309  1.00  0.00    -0.026 C 
ATOM     14  C   UNL     1      85.249  36.952  26.394  1.00  0.00     0.005 C 
ATOM     15  C   UNL     1      85.064  36.299  25.041  1.00  0.00    -0.001 C 
ATOM     16  C   UNL     1      85.090  34.090  23.956  1.00  0.00     0.007 C 
ATOM     17  C   UNL     1      83.393  34.490  25.827  1.00  0.00     0.012 C 
ATOM     18  C   UNL     1      84.104  36.963  24.039  1.00  0.00     0.004 C 
ATOM     19  C   UNL     1      84.114  34.597  22.864  1.00  0.00     0.005 C 
ATOM     20  C   UNL     1      84.079  36.151  22.680  1.00  0.00     0.003 C 
ATOM     21  C   UNL     1      82.738  37.445  24.641  1.00  0.00     0.085 C 
ATOM     22  C   UNL     1      82.929  36.644  21.738  1.00  0.00    -0.000 C 
ATOM     23  C   UNL     1      81.532  37.242  23.775  1.00  0.00     0.159 C 
ATOM     24  C   UNL     1      81.629  36.507  22.506  1.00  0.00     0.005 C 
ATOM     25  C   UNL     1      82.872  35.917  20.344  1.00  0.00     0.020 C 
ATOM     26  C   UNL     1      83.159  38.152  21.416  1.00  0.00     0.017 C 
ATOM     27  O   UNL     1      80.400  37.669  24.168  1.00  0.00    -0.295 OA
ATOM     28  C   UNL     1      80.730  35.560  22.248  1.00  0.00     0.055 C 
ATOM     29  C   UNL     1      82.130  34.577  20.299  1.00  0.00     0.081 C 
ATOM     30  C   UNL     1      80.937  34.545  21.200  1.00  0.00     0.156 C 
ATOM     31  O   UNL     1      80.159  33.560  21.153  1.00  0.00    -0.295 OA
ENDBRANCH   9  11
ENDBRANCH   8   9
ENDBRANCH   1   8
TORSDOF 6
ENDMDL
MODEL 9
REMARK VINA RESULT:    -5.589      2.451      4.998
REMARK INTER + INTRA:          -9.348
REMARK INTER:                  -7.858
REMARK INTRA:                  -1.490
REMARK UNBOUND:                -1.798
REMARK SMILES CC[C@@H](CC[C@H](C)[C@@H]1CC[C@@H]2[C@@H]3CC(=O)C4=CC(=O)CC[C@]4(C)[C@@H]3CC[C@]21C)C(C)C
REMARK SMILES IDX 4 1 3 2 2 3 1 4 29 5 30 6 31 7 5 8 6 9 7 10 8 11 9 12 27 13
REMARK SMILES IDX 10 14 11 15 26 16 28 17 12 18 25 19 24 20 13 21 22 22 14 23
REMARK SMILES IDX 16 24 21 25 23 26 15 27 17 28 20 29 18 30 19 31
REMARK H PARENT
REMARK Flexibility Score: inf
ROOT
ATOM      1  C   UNL     1      87.846  37.492  25.101  1.00  0.00     0.004 C 
ENDROOT
BRANCH   1   2
ATOM      2  C   UNL     1      88.112  37.719  26.613  1.00  0.00    -0.009 C 
BRANCH   2   3
ATOM      3  C   UNL     1      86.838  37.668  27.506  1.00  0.00     0.000 C 
ATOM      4  C   UNL     1      87.035  38.064  28.972  1.00  0.00     0.004 C 
ENDBRANCH   2   3
BRANCH   2   5
ATOM      5  C   UNL     1      89.038  38.939  26.924  1.00  0.00    -0.014 C 
ATOM      6  C   UNL     1      88.880  40.124  25.962  1.00  0.00     0.007 C 
ATOM      7  C   UNL     1      90.519  38.538  27.046  1.00  0.00     0.007 C 
ENDBRANCH   2   5
ENDBRANCH   1   2
BRANCH   1   8
ATOM      8  C   UNL     1      86.477  36.811  24.802  1.00  0.00     0.004 C 
BRANCH   8   9
ATOM      9  C   UNL     1      86.523  35.255  24.835  1.00  0.00    -0.011 C 
ATOM     10  C   UNL     1      86.957  34.717  23.465  1.00  0.00     0.008 C 
BRANCH   9  11
ATOM     11  C   UNL     1      85.163  34.620  25.318  1.00  0.00    -0.002 C 
ATOM     12  C   UNL     1      84.113  35.704  25.700  1.00  0.00     0.005 C 
ATOM     13  C   UNL     1      85.197  33.702  26.587  1.00  0.00    -0.026 C 
ATOM     14  C   UNL     1      83.255  35.172  26.844  1.00  0.00     0.005 C 
ATOM     15  C   UNL     1      83.713  33.738  27.010  1.00  0.00    -0.001 C 
ATOM     16  C   UNL     1      85.518  32.209  26.331  1.00  0.00     0.007 C 
ATOM     17  C   UNL     1      86.151  34.295  27.667  1.00  0.00     0.012 C 
ATOM     18  C   UNL     1      83.368  33.012  28.321  1.00  0.00     0.004 C 
ATOM     19  C   UNL     1      85.307  31.364  27.612  1.00  0.00     0.005 C 
ATOM     20  C   UNL     1      83.900  31.522  28.282  1.00  0.00     0.003 C 
ATOM     21  C   UNL     1      83.598  33.849  29.629  1.00  0.00     0.085 C 
ATOM     22  C   UNL     1      83.797  30.839  29.687  1.00  0.00    -0.000 C 
ATOM     23  C   UNL     1      84.151  33.096  30.800  1.00  0.00     0.159 C 
ATOM     24  C   UNL     1      84.578  31.697  30.664  1.00  0.00     0.005 C 
ATOM     25  C   UNL     1      84.262  29.336  29.717  1.00  0.00     0.020 C 
ATOM     26  C   UNL     1      82.301  30.824  30.127  1.00  0.00     0.017 C 
ATOM     27  O   UNL     1      84.301  33.692  31.914  1.00  0.00    -0.295 OA
ATOM     28  C   UNL     1      85.764  31.340  31.155  1.00  0.00     0.055 C 
ATOM     29  C   UNL     1      85.765  29.085  29.874  1.00  0.00     0.081 C 
ATOM     30  C   UNL     1      86.428  30.084  30.769  1.00  0.00     0.156 C 
ATOM     31  O   UNL     1      87.628  29.912  31.097  1.00  0.00    -0.295 OA
ENDBRANCH   9  11
ENDBRANCH   8   9
ENDBRANCH   1   8
TORSDOF 6
ENDMDL
