MODEL 1
REMARK VINA RESULT:    -5.324      0.000      0.000
REMARK INTER + INTRA:          -8.998
REMARK INTER:                  -8.282
REMARK INTRA:                  -0.716
REMARK UNBOUND:                -0.716
REMARK SMILES COc1cc(CNC(=O)CCCCC=CC(C)C)ccc1O
REMARK SMILES IDX 11 1 12 2 13 3 14 4 15 5 16 6 17 7 18 8 10 9 8 10 9 11 7 12
REMARK SMILES IDX 6 14 5 15 4 16 19 17 3 18 20 19 21 20 2 21 1 22 22 23
REMARK H PARENT 7 13 22 24
REMARK Flexibility Score: inf
ROOT
ATOM      1  C   UNL     1      28.144  33.113  23.308  1.00  0.00     0.010 C 
ENDROOT
BRANCH   1   2
ATOM      2  C   UNL     1      28.849  33.269  24.665  1.00  0.00     0.005 C 
BRANCH   2   3
ATOM      3  C   UNL     1      29.125  31.923  25.350  1.00  0.00     0.027 C 
BRANCH   3   4
ATOM      4  C   UNL     1      28.158  30.864  24.893  1.00  0.00    -0.031 C 
ATOM      5  C   UNL     1      28.122  29.647  25.458  1.00  0.00    -0.028 C 
BRANCH   5   6
ATOM      6  C   UNL     1      27.154  28.589  24.983  1.00  0.00     0.005 C 
ATOM      7  C   UNL     1      26.969  28.680  23.465  1.00  0.00     0.012 C 
ATOM      8  C   UNL     1      27.650  27.193  25.379  1.00  0.00     0.012 C 
ENDBRANCH   5   6
ENDBRANCH   3   4
ENDBRANCH   2   3
ENDBRANCH   1   2
BRANCH   1   9
ATOM      9  C   UNL     1      29.112  32.757  22.173  1.00  0.00     0.100 C 
BRANCH   9  10
ATOM     10  C   UNL     1      28.998  33.751  21.056  1.00  0.00     0.220 C 
ATOM     11  O   UNL     1      28.824  33.338  19.878  1.00  0.00    -0.275 OA
ATOM     12  N   UNL     1      29.060  35.159  21.328  1.00  0.00    -0.352 N 
ATOM     13  H   UNL     1      29.141  35.483  22.317  1.00  0.00     0.163 HD
BRANCH  12  14
ATOM     14  C   UNL     1      29.000  36.168  20.271  1.00  0.00     0.151 C 
BRANCH  14  15
ATOM     15  C   UNL     1      27.758  37.006  20.415  1.00  0.00    -0.025 A 
ATOM     16  C   UNL     1      27.715  38.314  19.904  1.00  0.00     0.056 A 
ATOM     17  C   UNL     1      26.646  36.500  21.102  1.00  0.00     0.009 A 
ATOM     18  C   UNL     1      26.571  39.116  20.082  1.00  0.00     0.160 A 
ATOM     19  C   UNL     1      25.507  37.287  21.276  1.00  0.00     0.050 A 
ATOM     20  C   UNL     1      25.467  38.594  20.770  1.00  0.00     0.157 A 
BRANCH  18  21
ATOM     21  O   UNL     1      26.497  40.432  19.597  1.00  0.00    -0.493 OA
ATOM     22  C   UNL     1      27.624  41.214  19.215  1.00  0.00     0.278 C 
ENDBRANCH  18  21
BRANCH  20  23
ATOM     23  O   UNL     1      24.331  39.382  20.950  1.00  0.00    -0.504 OA
ATOM     24  H   UNL     1      23.612  39.445  20.239  1.00  0.00     0.293 HD
ENDBRANCH  20  23
ENDBRANCH  14  15
ENDBRANCH  12  14
ENDBRANCH   9  10
ENDBRANCH   1   9
TORSDOF 10
ENDMDL
MODEL 2
REMARK VINA RESULT:    -5.202      1.875      2.887
REMARK INTER + INTRA:          -8.808
REMARK INTER:                  -8.239
REMARK INTRA:                  -0.569
REMARK UNBOUND:                -0.716
REMARK SMILES COc1cc(CNC(=O)CCCCC=CC(C)C)ccc1O
REMARK SMILES IDX 11 1 12 2 13 3 14 4 15 5 16 6 17 7 18 8 10 9 8 10 9 11 7 12
REMARK SMILES IDX 6 14 5 15 4 16 19 17 3 18 20 19 21 20 2 21 1 22 22 23
REMARK H PARENT 7 13 22 24
REMARK Flexibility Score: inf
ROOT
ATOM      1  C   UNL     1      28.006  34.038  23.463  1.00  0.00     0.010 C 
ENDROOT
BRANCH   1   2
ATOM      2  C   UNL     1      28.978  32.850  23.518  1.00  0.00     0.005 C 
BRANCH   2   3
ATOM      3  C   UNL     1      29.011  32.170  24.895  1.00  0.00     0.027 C 
BRANCH   3   4
ATOM      4  C   UNL     1      28.483  30.762  24.825  1.00  0.00    -0.031 C 
ATOM      5  C   UNL     1      28.644  30.000  23.732  1.00  0.00    -0.028 C 
BRANCH   5   6
ATOM      6  C   UNL     1      28.100  28.592  23.669  1.00  0.00     0.005 C 
ATOM      7  C   UNL     1      28.266  27.896  25.024  1.00  0.00     0.012 C 
ATOM      8  C   UNL     1      26.624  28.606  23.252  1.00  0.00     0.012 C 
ENDBRANCH   5   6
ENDBRANCH   3   4
ENDBRANCH   2   3
ENDBRANCH   1   2
BRANCH   1   9
ATOM      9  C   UNL     1      28.155  34.869  22.183  1.00  0.00     0.100 C 
BRANCH   9  10
ATOM     10  C   UNL     1      27.007  35.824  22.043  1.00  0.00     0.220 C 
ATOM     11  O   UNL     1      26.229  36.003  23.019  1.00  0.00    -0.275 OA
ATOM     12  N   UNL     1      26.810  36.548  20.819  1.00  0.00    -0.352 N 
ATOM     13  H   UNL     1      27.500  36.434  20.044  1.00  0.00     0.163 HD
BRANCH  12  14
ATOM     14  C   UNL     1      25.682  37.455  20.614  1.00  0.00     0.151 C 
BRANCH  14  15
ATOM     15  C   UNL     1      26.172  38.817  20.197  1.00  0.00    -0.025 A 
ATOM     16  C   UNL     1      25.882  39.949  20.976  1.00  0.00     0.056 A 
ATOM     17  C   UNL     1      26.886  38.969  19.001  1.00  0.00     0.009 A 
ATOM     18  C   UNL     1      26.297  41.229  20.561  1.00  0.00     0.160 A 
ATOM     19  C   UNL     1      27.306  40.235  18.588  1.00  0.00     0.050 A 
ATOM     20  C   UNL     1      27.011  41.365  19.362  1.00  0.00     0.157 A 
BRANCH  18  21
ATOM     21  O   UNL     1      26.014  42.386  21.305  1.00  0.00    -0.493 OA
ATOM     22  C   UNL     1      26.848  42.903  22.337  1.00  0.00     0.278 C 
ENDBRANCH  18  21
BRANCH  20  23
ATOM     23  O   UNL     1      27.425  42.629  18.945  1.00  0.00    -0.504 OA
ATOM     24  H   UNL     1      27.768  43.319  19.604  1.00  0.00     0.293 HD
ENDBRANCH  20  23
ENDBRANCH  14  15
ENDBRANCH  12  14
ENDBRANCH   9  10
ENDBRANCH   1   9
TORSDOF 10
ENDMDL
MODEL 3
REMARK VINA RESULT:    -4.868      2.225      3.565
REMARK INTER + INTRA:          -8.288
REMARK INTER:                  -7.736
REMARK INTRA:                  -0.552
REMARK UNBOUND:                -0.716
REMARK SMILES COc1cc(CNC(=O)CCCCC=CC(C)C)ccc1O
REMARK SMILES IDX 11 1 12 2 13 3 14 4 15 5 16 6 17 7 18 8 10 9 8 10 9 11 7 12
REMARK SMILES IDX 6 14 5 15 4 16 19 17 3 18 20 19 21 20 2 21 1 22 22 23
REMARK H PARENT 7 13 22 24
REMARK Flexibility Score: inf
ROOT
ATOM      1  C   UNL     1      28.151  35.180  21.226  1.00  0.00     0.010 C 
ENDROOT
BRANCH   1   2
ATOM      2  C   UNL     1      28.839  34.052  22.011  1.00  0.00     0.005 C 
BRANCH   2   3
ATOM      3  C   UNL     1      28.380  33.981  23.475  1.00  0.00     0.027 C 
BRANCH   3   4
ATOM      4  C   UNL     1      28.853  32.715  24.139  1.00  0.00    -0.031 C 
ATOM      5  C   UNL     1      28.042  31.660  24.309  1.00  0.00    -0.028 C 
BRANCH   5   6
ATOM      6  C   UNL     1      28.524  30.399  24.987  1.00  0.00     0.005 C 
ATOM      7  C   UNL     1      28.993  30.708  26.413  1.00  0.00     0.012 C 
ATOM      8  C   UNL     1      27.414  29.342  25.005  1.00  0.00     0.012 C 
ENDBRANCH   5   6
ENDBRANCH   3   4
ENDBRANCH   2   3
ENDBRANCH   1   2
BRANCH   1   9
ATOM      9  C   UNL     1      29.090  35.864  20.225  1.00  0.00     0.100 C 
BRANCH   9  10
ATOM     10  C   UNL     1      28.410  37.042  19.591  1.00  0.00     0.220 C 
ATOM     11  O   UNL     1      28.815  37.459  18.472  1.00  0.00    -0.275 OA
ATOM     12  N   UNL     1      27.296  37.672  20.239  1.00  0.00    -0.352 N 
ATOM     13  H   UNL     1      26.936  37.274  21.134  1.00  0.00     0.163 HD
BRANCH  12  14
ATOM     14  C   UNL     1      26.628  38.850  19.687  1.00  0.00     0.151 C 
BRANCH  14  15
ATOM     15  C   UNL     1      27.056  40.090  20.426  1.00  0.00    -0.025 A 
ATOM     16  C   UNL     1      26.724  41.364  19.934  1.00  0.00     0.056 A 
ATOM     17  C   UNL     1      27.829  39.982  21.590  1.00  0.00     0.009 A 
ATOM     18  C   UNL     1      27.168  42.525  20.598  1.00  0.00     0.160 A 
ATOM     19  C   UNL     1      28.265  41.129  22.255  1.00  0.00     0.050 A 
ATOM     20  C   UNL     1      27.939  42.399  21.762  1.00  0.00     0.157 A 
BRANCH  18  21
ATOM     21  O   UNL     1      26.868  43.815  20.130  1.00  0.00    -0.493 OA
ATOM     22  C   UNL     1      26.505  44.119  18.787  1.00  0.00     0.278 C 
ENDBRANCH  18  21
BRANCH  20  23
ATOM     23  O   UNL     1      28.381  43.544  22.423  1.00  0.00    -0.504 OA
ATOM     24  H   UNL     1      28.140  44.472  22.095  1.00  0.00     0.293 HD
ENDBRANCH  20  23
ENDBRANCH  14  15
ENDBRANCH  12  14
ENDBRANCH   9  10
ENDBRANCH   1   9
TORSDOF 10
ENDMDL
MODEL 4
REMARK VINA RESULT:    -4.792      2.234      3.476
REMARK INTER + INTRA:          -8.170
REMARK INTER:                  -7.604
REMARK INTRA:                  -0.565
REMARK UNBOUND:                -0.716
REMARK SMILES COc1cc(CNC(=O)CCCCC=CC(C)C)ccc1O
REMARK SMILES IDX 11 1 12 2 13 3 14 4 15 5 16 6 17 7 18 8 10 9 8 10 9 11 7 12
REMARK SMILES IDX 6 14 5 15 4 16 19 17 3 18 20 19 21 20 2 21 1 22 22 23
REMARK H PARENT 7 13 22 24
REMARK Flexibility Score: inf
ROOT
ATOM      1  C   UNL     1      27.964  34.779  22.481  1.00  0.00     0.010 C 
ENDROOT
BRANCH   1   2
ATOM      2  C   UNL     1      27.865  34.147  23.878  1.00  0.00     0.005 C 
BRANCH   2   3
ATOM      3  C   UNL     1      28.932  33.070  24.122  1.00  0.00     0.027 C 
BRANCH   3   4
ATOM      4  C   UNL     1      28.439  31.706  23.719  1.00  0.00    -0.031 C 
ATOM      5  C   UNL     1      28.317  30.708  24.608  1.00  0.00    -0.028 C 
BRANCH   5   6
ATOM      6  C   UNL     1      27.832  29.339  24.190  1.00  0.00     0.005 C 
ATOM      7  C   UNL     1      26.304  29.268  24.274  1.00  0.00     0.012 C 
ATOM      8  C   UNL     1      28.306  29.014  22.768  1.00  0.00     0.012 C 
ENDBRANCH   5   6
ENDBRANCH   3   4
ENDBRANCH   2   3
ENDBRANCH   1   2
BRANCH   1   9
ATOM      9  C   UNL     1      26.924  35.883  22.253  1.00  0.00     0.100 C 
BRANCH   9  10
ATOM     10  C   UNL     1      27.223  36.630  20.988  1.00  0.00     0.220 C 
ATOM     11  O   UNL     1      28.065  36.158  20.176  1.00  0.00    -0.275 OA
ATOM     12  N   UNL     1      26.540  37.857  20.691  1.00  0.00    -0.352 N 
ATOM     13  H   UNL     1      25.801  38.199  21.344  1.00  0.00     0.163 HD
BRANCH  12  14
ATOM     14  C   UNL     1      26.826  38.648  19.495  1.00  0.00     0.151 C 
BRANCH  14  15
ATOM     15  C   UNL     1      27.100  40.081  19.867  1.00  0.00    -0.025 A 
ATOM     16  C   UNL     1      27.411  40.428  21.192  1.00  0.00     0.056 A 
ATOM     17  C   UNL     1      27.003  41.088  18.897  1.00  0.00     0.009 A 
ATOM     18  C   UNL     1      27.617  41.775  21.550  1.00  0.00     0.160 A 
ATOM     19  C   UNL     1      27.213  42.424  19.245  1.00  0.00     0.050 A 
ATOM     20  C   UNL     1      27.518  42.770  20.568  1.00  0.00     0.157 A 
BRANCH  18  21
ATOM     21  O   UNL     1      27.916  42.161  22.867  1.00  0.00    -0.493 OA
ATOM     22  C   UNL     1      28.838  41.484  23.715  1.00  0.00     0.278 C 
ENDBRANCH  18  21
BRANCH  20  23
ATOM     23  O   UNL     1      27.721  44.105  20.916  1.00  0.00    -0.504 OA
ATOM     24  H   UNL     1      27.206  44.854  20.467  1.00  0.00     0.293 HD
ENDBRANCH  20  23
ENDBRANCH  14  15
ENDBRANCH  12  14
ENDBRANCH   9  10
ENDBRANCH   1   9
TORSDOF 10
ENDMDL
MODEL 5
REMARK VINA RESULT:    -4.713      2.757      9.838
REMARK INTER + INTRA:          -8.047
REMARK INTER:                  -7.520
REMARK INTRA:                  -0.528
REMARK UNBOUND:                -0.716
REMARK SMILES COc1cc(CNC(=O)CCCCC=CC(C)C)ccc1O
REMARK SMILES IDX 11 1 12 2 13 3 14 4 15 5 16 6 17 7 18 8 10 9 8 10 9 11 7 12
REMARK SMILES IDX 6 14 5 15 4 16 19 17 3 18 20 19 21 20 2 21 1 22 22 23
REMARK H PARENT 7 13 22 24
REMARK Flexibility Score: inf
ROOT
ATOM      1  C   UNL     1      27.662  36.040  21.271  1.00  0.00     0.010 C 
ENDROOT
BRANCH   1   2
ATOM      2  C   UNL     1      28.389  36.689  20.083  1.00  0.00     0.005 C 
BRANCH   2   3
ATOM      3  C   UNL     1      27.532  37.741  19.364  1.00  0.00     0.027 C 
BRANCH   3   4
ATOM      4  C   UNL     1      27.660  39.092  20.013  1.00  0.00    -0.031 C 
ATOM      5  C   UNL     1      26.906  40.135  19.631  1.00  0.00    -0.028 C 
BRANCH   5   6
ATOM      6  C   UNL     1      27.052  41.490  20.283  1.00  0.00     0.005 C 
ATOM      7  C   UNL     1      27.129  42.588  19.217  1.00  0.00     0.012 C 
ATOM      8  C   UNL     1      25.882  41.753  21.238  1.00  0.00     0.012 C 
ENDBRANCH   5   6
ENDBRANCH   3   4
ENDBRANCH   2   3
ENDBRANCH   1   2
BRANCH   1   9
ATOM      9  C   UNL     1      28.149  34.614  21.558  1.00  0.00     0.100 C 
BRANCH   9  10
ATOM     10  C   UNL     1      28.155  34.350  23.034  1.00  0.00     0.220 C 
ATOM     11  O   UNL     1      27.408  35.033  23.786  1.00  0.00    -0.275 OA
ATOM     12  N   UNL     1      28.983  33.315  23.583  1.00  0.00    -0.352 N 
ATOM     13  H   UNL     1      29.547  32.719  22.938  1.00  0.00     0.163 HD
BRANCH  12  14
ATOM     14  C   UNL     1      29.061  33.047  25.019  1.00  0.00     0.151 C 
BRANCH  14  15
ATOM     15  C   UNL     1      28.886  31.576  25.289  1.00  0.00    -0.025 A 
ATOM     16  C   UNL     1      28.442  30.712  24.275  1.00  0.00     0.056 A 
ATOM     17  C   UNL     1      29.124  31.066  26.573  1.00  0.00     0.009 A 
ATOM     18  C   UNL     1      28.230  29.345  24.541  1.00  0.00     0.160 A 
ATOM     19  C   UNL     1      28.923  29.711  26.840  1.00  0.00     0.050 A 
ATOM     20  C   UNL     1      28.474  28.849  25.829  1.00  0.00     0.157 A 
BRANCH  18  21
ATOM     21  O   UNL     1      27.774  28.453  23.556  1.00  0.00    -0.493 OA
ATOM     22  C   UNL     1      26.422  28.362  23.116  1.00  0.00     0.278 C 
ENDBRANCH  18  21
BRANCH  20  23
ATOM     23  O   UNL     1      28.266  27.498  26.099  1.00  0.00    -0.504 OA
ATOM     24  H   UNL     1      27.822  27.191  26.957  1.00  0.00     0.293 HD
ENDBRANCH  20  23
ENDBRANCH  14  15
ENDBRANCH  12  14
ENDBRANCH   9  10
ENDBRANCH   1   9
TORSDOF 10
ENDMDL
MODEL 6
REMARK VINA RESULT:    -4.525      2.352      9.824
REMARK INTER + INTRA:          -7.754
REMARK INTER:                  -7.116
REMARK INTRA:                  -0.637
REMARK UNBOUND:                -0.716
REMARK SMILES COc1cc(CNC(=O)CCCCC=CC(C)C)ccc1O
REMARK SMILES IDX 11 1 12 2 13 3 14 4 15 5 16 6 17 7 18 8 10 9 8 10 9 11 7 12
REMARK SMILES IDX 6 14 5 15 4 16 19 17 3 18 20 19 21 20 2 21 1 22 22 23
REMARK H PARENT 7 13 22 24
REMARK Flexibility Score: inf
ROOT
ATOM      1  C   UNL     1      27.620  38.238  21.245  1.00  0.00     0.010 C 
ENDROOT
BRANCH   1   2
ATOM      2  C   UNL     1      28.614  39.256  20.666  1.00  0.00     0.005 C 
BRANCH   2   3
ATOM      3  C   UNL     1      28.142  39.858  19.335  1.00  0.00     0.027 C 
BRANCH   3   4
ATOM      4  C   UNL     1      28.109  41.361  19.392  1.00  0.00    -0.031 C 
ATOM      5  C   UNL     1      27.085  42.066  18.885  1.00  0.00    -0.028 C 
BRANCH   5   6
ATOM      6  C   UNL     1      27.069  43.576  18.938  1.00  0.00     0.005 C 
ATOM      7  C   UNL     1      25.935  44.064  19.845  1.00  0.00     0.012 C 
ATOM      8  C   UNL     1      28.418  44.109  19.434  1.00  0.00     0.012 C 
ENDBRANCH   5   6
ENDBRANCH   3   4
ENDBRANCH   2   3
ENDBRANCH   1   2
BRANCH   1   9
ATOM      9  C   UNL     1      27.172  37.194  20.215  1.00  0.00     0.100 C 
BRANCH   9  10
ATOM     10  C   UNL     1      28.168  36.075  20.136  1.00  0.00     0.220 C 
ATOM     11  O   UNL     1      29.064  36.108  19.249  1.00  0.00    -0.275 OA
ATOM     12  N   UNL     1      28.119  34.991  21.075  1.00  0.00    -0.352 N 
ATOM     13  H   UNL     1      27.410  35.013  21.840  1.00  0.00     0.163 HD
BRANCH  12  14
ATOM     14  C   UNL     1      29.036  33.854  21.013  1.00  0.00     0.151 C 
BRANCH  14  15
ATOM     15  C   UNL     1      29.040  33.111  22.323  1.00  0.00    -0.025 A 
ATOM     16  C   UNL     1      29.114  31.709  22.348  1.00  0.00     0.056 A 
ATOM     17  C   UNL     1      28.925  33.816  23.529  1.00  0.00     0.009 A 
ATOM     18  C   UNL     1      29.067  31.011  23.571  1.00  0.00     0.160 A 
ATOM     19  C   UNL     1      28.885  33.130  24.744  1.00  0.00     0.050 A 
ATOM     20  C   UNL     1      28.953  31.730  24.769  1.00  0.00     0.157 A 
BRANCH  18  21
ATOM     21  O   UNL     1      29.124  29.609  23.635  1.00  0.00    -0.493 OA
ATOM     22  C   UNL     1      28.073  28.741  23.225  1.00  0.00     0.278 C 
ENDBRANCH  18  21
BRANCH  20  23
ATOM     23  O   UNL     1      28.906  31.046  25.982  1.00  0.00    -0.504 OA
ATOM     24  H   UNL     1      28.746  31.531  26.858  1.00  0.00     0.293 HD
ENDBRANCH  20  23
ENDBRANCH  14  15
ENDBRANCH  12  14
ENDBRANCH   9  10
ENDBRANCH   1   9
TORSDOF 10
ENDMDL
MODEL 7
REMARK VINA RESULT:    -4.483      1.970      2.577
REMARK INTER + INTRA:          -7.690
REMARK INTER:                  -7.154
REMARK INTRA:                  -0.535
REMARK UNBOUND:                -0.716
REMARK SMILES COc1cc(CNC(=O)CCCCC=CC(C)C)ccc1O
REMARK SMILES IDX 11 1 12 2 13 3 14 4 15 5 16 6 17 7 18 8 10 9 8 10 9 11 7 12
REMARK SMILES IDX 6 14 5 15 4 16 19 17 3 18 20 19 21 20 2 21 1 22 22 23
REMARK H PARENT 7 13 22 24
REMARK Flexibility Score: inf
ROOT
ATOM      1  C   UNL     1      27.940  33.534  23.648  1.00  0.00     0.010 C 
ENDROOT
BRANCH   1   2
ATOM      2  C   UNL     1      29.125  32.576  23.842  1.00  0.00     0.005 C 
BRANCH   2   3
ATOM      3  C   UNL     1      28.996  31.718  25.109  1.00  0.00     0.027 C 
BRANCH   3   4
ATOM      4  C   UNL     1      28.560  30.316  24.783  1.00  0.00    -0.031 C 
ATOM      5  C   UNL     1      27.288  29.917  24.936  1.00  0.00    -0.028 C 
BRANCH   5   6
ATOM      6  C   UNL     1      26.864  28.503  24.616  1.00  0.00     0.005 C 
ATOM      7  C   UNL     1      26.510  28.377  23.131  1.00  0.00     0.012 C 
ATOM      8  C   UNL     1      27.975  27.514  24.987  1.00  0.00     0.012 C 
ENDBRANCH   5   6
ENDBRANCH   3   4
ENDBRANCH   2   3
ENDBRANCH   1   2
BRANCH   1   9
ATOM      9  C   UNL     1      28.292  34.745  22.775  1.00  0.00     0.100 C 
BRANCH   9  10
ATOM     10  C   UNL     1      27.084  35.609  22.566  1.00  0.00     0.220 C 
ATOM     11  O   UNL     1      26.244  35.732  23.500  1.00  0.00    -0.275 OA
ATOM     12  N   UNL     1      26.896  36.308  21.328  1.00  0.00    -0.352 N 
ATOM     13  H   UNL     1      27.632  36.244  20.590  1.00  0.00     0.163 HD
BRANCH  12  14
ATOM     14  C   UNL     1      25.714  37.126  21.056  1.00  0.00     0.151 C 
BRANCH  14  15
ATOM     15  C   UNL     1      26.116  38.442  20.444  1.00  0.00    -0.025 A 
ATOM     16  C   UNL     1      26.944  38.479  19.311  1.00  0.00     0.056 A 
ATOM     17  C   UNL     1      25.699  39.644  21.033  1.00  0.00     0.009 A 
ATOM     18  C   UNL     1      27.361  39.711  18.768  1.00  0.00     0.160 A 
ATOM     19  C   UNL     1      26.104  40.868  20.495  1.00  0.00     0.050 A 
ATOM     20  C   UNL     1      26.935  40.905  19.367  1.00  0.00     0.157 A 
BRANCH  18  21
ATOM     21  O   UNL     1      28.199  39.789  17.644  1.00  0.00    -0.493 OA
ATOM     22  C   UNL     1      28.438  38.713  16.743  1.00  0.00     0.278 C 
ENDBRANCH  18  21
BRANCH  20  23
ATOM     23  O   UNL     1      27.343  42.127  18.836  1.00  0.00    -0.504 OA
ATOM     24  H   UNL     1      27.996  42.177  18.062  1.00  0.00     0.293 HD
ENDBRANCH  20  23
ENDBRANCH  14  15
ENDBRANCH  12  14
ENDBRANCH   9  10
ENDBRANCH   1   9
TORSDOF 10
ENDMDL
MODEL 8
REMARK VINA RESULT:    -4.340      2.851      9.949
REMARK INTER + INTRA:          -7.466
REMARK INTER:                  -7.060
REMARK INTRA:                  -0.406
REMARK UNBOUND:                -0.716
REMARK SMILES COc1cc(CNC(=O)CCCCC=CC(C)C)ccc1O
REMARK SMILES IDX 11 1 12 2 13 3 14 4 15 5 16 6 17 7 18 8 10 9 8 10 9 11 7 12
REMARK SMILES IDX 6 14 5 15 4 16 19 17 3 18 20 19 21 20 2 21 1 22 22 23
REMARK H PARENT 7 13 22 24
REMARK Flexibility Score: inf
ROOT
ATOM      1  C   UNL     1      26.267  36.701  21.541  1.00  0.00     0.010 C 
ENDROOT
BRANCH   1   2
ATOM      2  C   UNL     1      26.876  38.106  21.411  1.00  0.00     0.005 C 
BRANCH   2   3
ATOM      3  C   UNL     1      26.019  39.050  20.556  1.00  0.00     0.027 C 
BRANCH   3   4
ATOM      4  C   UNL     1      26.732  40.347  20.285  1.00  0.00    -0.031 C 
ATOM      5  C   UNL     1      26.384  41.488  20.899  1.00  0.00    -0.028 C 
BRANCH   5   6
ATOM      6  C   UNL     1      27.100  42.786  20.610  1.00  0.00     0.005 C 
ATOM      7  C   UNL     1      28.609  42.618  20.814  1.00  0.00     0.012 C 
ATOM      8  C   UNL     1      26.802  43.256  19.182  1.00  0.00     0.012 C 
ENDBRANCH   5   6
ENDBRANCH   3   4
ENDBRANCH   2   3
ENDBRANCH   1   2
BRANCH   1   9
ATOM      9  C   UNL     1      26.831  35.917  22.732  1.00  0.00     0.100 C 
BRANCH   9  10
ATOM     10  C   UNL     1      27.932  35.004  22.283  1.00  0.00     0.220 C 
ATOM     11  O   UNL     1      28.727  35.391  21.384  1.00  0.00    -0.275 OA
ATOM     12  N   UNL     1      28.096  33.712  22.886  1.00  0.00    -0.352 N 
ATOM     13  H   UNL     1      27.467  33.434  23.672  1.00  0.00     0.163 HD
BRANCH  12  14
ATOM     14  C   UNL     1      29.123  32.765  22.454  1.00  0.00     0.151 C 
BRANCH  14  15
ATOM     15  C   UNL     1      28.914  31.427  23.112  1.00  0.00    -0.025 A 
ATOM     16  C   UNL     1      28.600  31.345  24.479  1.00  0.00     0.056 A 
ATOM     17  C   UNL     1      29.077  30.248  22.371  1.00  0.00     0.009 A 
ATOM     18  C   UNL     1      28.454  30.091  25.105  1.00  0.00     0.160 A 
ATOM     19  C   UNL     1      28.926  29.004  22.985  1.00  0.00     0.050 A 
ATOM     20  C   UNL     1      28.618  28.922  24.350  1.00  0.00     0.157 A 
BRANCH  18  21
ATOM     21  O   UNL     1      28.153  29.969  26.472  1.00  0.00    -0.493 OA
ATOM     22  C   UNL     1      29.098  30.144  27.523  1.00  0.00     0.278 C 
ENDBRANCH  18  21
BRANCH  20  23
ATOM     23  O   UNL     1      28.475  27.679  24.964  1.00  0.00    -0.504 OA
ATOM     24  H   UNL     1      27.573  27.348  25.288  1.00  0.00     0.293 HD
ENDBRANCH  20  23
ENDBRANCH  14  15
ENDBRANCH  12  14
ENDBRANCH   9  10
ENDBRANCH   1   9
TORSDOF 10
ENDMDL
MODEL 9
REMARK VINA RESULT:    -4.245      2.334      4.131
REMARK INTER + INTRA:          -7.318
REMARK INTER:                  -6.686
REMARK INTRA:                  -0.632
REMARK UNBOUND:                -0.716
REMARK SMILES COc1cc(CNC(=O)CCCCC=CC(C)C)ccc1O
REMARK SMILES IDX 11 1 12 2 13 3 14 4 15 5 16 6 17 7 18 8 10 9 8 10 9 11 7 12
REMARK SMILES IDX 6 14 5 15 4 16 19 17 3 18 20 19 21 20 2 21 1 22 22 23
REMARK H PARENT 7 13 22 24
REMARK Flexibility Score: inf
ROOT
ATOM      1  C   UNL     1      26.904  29.465  24.439  1.00  0.00     0.010 C 
ENDROOT
BRANCH   1   2
ATOM      2  C   UNL     1      27.161  28.743  25.771  1.00  0.00     0.005 C 
BRANCH   2   3
ATOM      3  C   UNL     1      28.547  28.083  25.833  1.00  0.00     0.027 C 
BRANCH   3   4
ATOM      4  C   UNL     1      28.438  26.586  25.945  1.00  0.00    -0.031 C 
ATOM      5  C   UNL     1      27.263  25.977  26.168  1.00  0.00    -0.028 C 
BRANCH   5   6
ATOM      6  C   UNL     1      27.169  24.474  26.291  1.00  0.00     0.005 C 
ATOM      7  C   UNL     1      26.381  24.092  27.548  1.00  0.00     0.012 C 
ATOM      8  C   UNL     1      26.510  23.876  25.043  1.00  0.00     0.012 C 
ENDBRANCH   5   6
ENDBRANCH   3   4
ENDBRANCH   2   3
ENDBRANCH   1   2
BRANCH   1   9
ATOM      9  C   UNL     1      28.175  30.085  23.845  1.00  0.00     0.100 C 
BRANCH   9  10
ATOM     10  C   UNL     1      28.330  31.504  24.304  1.00  0.00     0.220 C 
ATOM     11  O   UNL     1      28.697  31.733  25.489  1.00  0.00    -0.275 OA
ATOM     12  N   UNL     1      28.087  32.591  23.399  1.00  0.00    -0.352 N 
ATOM     13  H   UNL     1      27.845  32.381  22.405  1.00  0.00     0.163 HD
BRANCH  12  14
ATOM     14  C   UNL     1      28.179  33.992  23.808  1.00  0.00     0.151 C 
BRANCH  14  15
ATOM     15  C   UNL     1      28.064  34.897  22.610  1.00  0.00    -0.025 A 
ATOM     16  C   UNL     1      26.992  35.798  22.497  1.00  0.00     0.056 A 
ATOM     17  C   UNL     1      29.005  34.813  21.575  1.00  0.00     0.009 A 
ATOM     18  C   UNL     1      26.857  36.610  21.354  1.00  0.00     0.160 A 
ATOM     19  C   UNL     1      28.879  35.620  20.443  1.00  0.00     0.050 A 
ATOM     20  C   UNL     1      27.807  36.515  20.327  1.00  0.00     0.157 A 
BRANCH  18  21
ATOM     21  O   UNL     1      25.792  37.513  21.199  1.00  0.00    -0.493 OA
ATOM     22  C   UNL     1      24.417  37.145  21.213  1.00  0.00     0.278 C 
ENDBRANCH  18  21
BRANCH  20  23
ATOM     23  O   UNL     1      27.679  37.315  19.193  1.00  0.00    -0.504 OA
ATOM     24  H   UNL     1      27.091  38.140  19.190  1.00  0.00     0.293 HD
ENDBRANCH  20  23
ENDBRANCH  14  15
ENDBRANCH  12  14
ENDBRANCH   9  10
ENDBRANCH   1   9
TORSDOF 10
ENDMDL
