MODEL 1
REMARK VINA RESULT:    -3.705      0.000      0.000
REMARK INTER + INTRA:          -4.427
REMARK INTER:                  -4.355
REMARK INTRA:                  -0.072
REMARK UNBOUND:                -0.072
REMARK SMILES O=C([O-])CCC(=O)[O-]
REMARK SMILES IDX 4 1 2 2 1 3 3 4 5 5 6 6 7 7 8 8
REMARK H PARENT
REMARK Flexibility Score: inf
ROOT
ATOM      1  C   UNL     1     -24.251   5.831 -14.264  1.00  0.00     0.059 C 
ENDROOT
BRANCH   1   2
ATOM      2  C   UNL     1     -24.756   4.675 -15.072  1.00  0.00     0.042 C 
ATOM      3  O   UNL     1     -24.108   3.596 -15.108  1.00  0.00    -0.550 OA
ATOM      4  O   UNL     1     -25.964   4.776 -15.752  1.00  0.00    -0.550 OA
ENDBRANCH   1   2
BRANCH   1   5
ATOM      5  C   UNL     1     -25.402   6.671 -13.700  1.00  0.00     0.059 C 
BRANCH   5   6
ATOM      6  C   UNL     1     -25.343   8.086 -14.190  1.00  0.00     0.042 C 
ATOM      7  O   UNL     1     -24.238   8.607 -14.492  1.00  0.00    -0.550 OA
ATOM      8  O   UNL     1     -26.505   8.842 -14.272  1.00  0.00    -0.550 OA
ENDBRANCH   5   6
ENDBRANCH   1   5
TORSDOF 3
ENDMDL
MODEL 2
REMARK VINA RESULT:    -3.699      1.574      2.006
REMARK INTER + INTRA:          -4.420
REMARK INTER:                  -4.394
REMARK INTRA:                  -0.026
REMARK UNBOUND:                -0.072
REMARK SMILES O=C([O-])CCC(=O)[O-]
REMARK SMILES IDX 4 1 2 2 1 3 3 4 5 5 6 6 7 7 8 8
REMARK H PARENT
REMARK Flexibility Score: inf
ROOT
ATOM      1  C   UNL     1     -24.998   4.843 -15.032  1.00  0.00     0.059 C 
ENDROOT
BRANCH   1   2
ATOM      2  C   UNL     1     -24.022   3.890 -15.650  1.00  0.00     0.042 C 
ATOM      3  O   UNL     1     -23.724   2.817 -15.061  1.00  0.00    -0.550 OA
ATOM      4  O   UNL     1     -23.472   4.167 -16.896  1.00  0.00    -0.550 OA
ENDBRANCH   1   2
BRANCH   1   5
ATOM      5  C   UNL     1     -24.288   5.931 -14.221  1.00  0.00     0.059 C 
BRANCH   5   6
ATOM      6  C   UNL     1     -25.259   6.742 -13.416  1.00  0.00     0.042 C 
ATOM      7  O   UNL     1     -25.886   7.693 -13.952  1.00  0.00    -0.550 OA
ATOM      8  O   UNL     1     -25.439   6.473 -12.066  1.00  0.00    -0.550 OA
ENDBRANCH   5   6
ENDBRANCH   1   5
TORSDOF 3
ENDMDL
MODEL 3
REMARK VINA RESULT:    -3.694      0.087      4.029
REMARK INTER + INTRA:          -4.414
REMARK INTER:                  -4.344
REMARK INTRA:                  -0.069
REMARK UNBOUND:                -0.072
REMARK SMILES O=C([O-])CCC(=O)[O-]
REMARK SMILES IDX 4 1 2 2 1 3 3 4 5 5 6 6 7 7 8 8
REMARK H PARENT
REMARK Flexibility Score: inf
ROOT
ATOM      1  C   UNL     1     -25.410   6.645 -13.716  1.00  0.00     0.059 C 
ENDROOT
BRANCH   1   2
ATOM      2  C   UNL     1     -25.349   8.073 -14.163  1.00  0.00     0.042 C 
ATOM      3  O   UNL     1     -24.249   8.587 -14.496  1.00  0.00    -0.550 OA
ATOM      4  O   UNL     1     -26.515   8.825 -14.252  1.00  0.00    -0.550 OA
ENDBRANCH   1   2
BRANCH   1   5
ATOM      5  C   UNL     1     -24.273   5.815 -14.319  1.00  0.00     0.059 C 
BRANCH   5   6
ATOM      6  C   UNL     1     -24.794   4.625 -15.066  1.00  0.00     0.042 C 
ATOM      7  O   UNL     1     -25.886   4.697 -15.689  1.00  0.00    -0.550 OA
ATOM      8  O   UNL     1     -24.095   3.426 -15.040  1.00  0.00    -0.550 OA
ENDBRANCH   5   6
ENDBRANCH   1   5
TORSDOF 3
ENDMDL
MODEL 4
REMARK VINA RESULT:    -3.680      1.558      4.235
REMARK INTER + INTRA:          -4.397
REMARK INTER:                  -4.371
REMARK INTRA:                  -0.026
REMARK UNBOUND:                -0.072
REMARK SMILES O=C([O-])CCC(=O)[O-]
REMARK SMILES IDX 4 1 2 2 1 3 3 4 5 5 6 6 7 7 8 8
REMARK H PARENT
REMARK Flexibility Score: inf
ROOT
ATOM      1  C   UNL     1     -24.269   5.944 -14.260  1.00  0.00     0.059 C 
ENDROOT
BRANCH   1   2
ATOM      2  C   UNL     1     -25.226   6.782 -13.469  1.00  0.00     0.042 C 
ATOM      3  O   UNL     1     -25.869   7.708 -14.029  1.00  0.00    -0.550 OA
ATOM      4  O   UNL     1     -25.439   6.511 -12.123  1.00  0.00    -0.550 OA
ENDBRANCH   1   2
BRANCH   1   5
ATOM      5  C   UNL     1     -24.995   4.856 -15.057  1.00  0.00     0.059 C 
BRANCH   5   6
ATOM      6  C   UNL     1     -24.031   3.895 -15.684  1.00  0.00     0.042 C 
ATOM      7  O   UNL     1     -23.696   2.846 -15.073  1.00  0.00    -0.550 OA
ATOM      8  O   UNL     1     -23.471   4.178 -16.923  1.00  0.00    -0.550 OA
ENDBRANCH   5   6
ENDBRANCH   1   5
TORSDOF 3
ENDMDL
MODEL 5
REMARK VINA RESULT:    -3.645      1.538      2.147
REMARK INTER + INTRA:          -4.356
REMARK INTER:                  -4.278
REMARK INTRA:                  -0.078
REMARK UNBOUND:                -0.072
REMARK SMILES O=C([O-])CCC(=O)[O-]
REMARK SMILES IDX 4 1 2 2 1 3 3 4 5 5 6 6 7 7 8 8
REMARK H PARENT
REMARK Flexibility Score: inf
ROOT
ATOM      1  C   UNL     1     -25.146   4.984 -15.054  1.00  0.00     0.059 C 
ENDROOT
BRANCH   1   2
ATOM      2  C   UNL     1     -24.141   4.021 -15.607  1.00  0.00     0.042 C 
ATOM      3  O   UNL     1     -23.831   2.987 -14.959  1.00  0.00    -0.550 OA
ATOM      4  O   UNL     1     -23.577   4.245 -16.857  1.00  0.00    -0.550 OA
ENDBRANCH   1   2
BRANCH   1   5
ATOM      5  C   UNL     1     -24.574   5.785 -13.880  1.00  0.00     0.059 C 
BRANCH   5   6
ATOM      6  C   UNL     1     -23.790   6.973 -14.352  1.00  0.00     0.042 C 
ATOM      7  O   UNL     1     -24.320   8.115 -14.369  1.00  0.00    -0.550 OA
ATOM      8  O   UNL     1     -22.490   6.811 -14.810  1.00  0.00    -0.550 OA
ENDBRANCH   5   6
ENDBRANCH   1   5
TORSDOF 3
ENDMDL
MODEL 6
REMARK VINA RESULT:    -3.624      1.478      4.127
REMARK INTER + INTRA:          -4.332
REMARK INTER:                  -4.247
REMARK INTRA:                  -0.084
REMARK UNBOUND:                -0.072
REMARK SMILES O=C([O-])CCC(=O)[O-]
REMARK SMILES IDX 4 1 2 2 1 3 3 4 5 5 6 6 7 7 8 8
REMARK H PARENT
REMARK Flexibility Score: inf
ROOT
ATOM      1  C   UNL     1     -24.659   5.859 -13.856  1.00  0.00     0.059 C 
ENDROOT
BRANCH   1   2
ATOM      2  C   UNL     1     -23.890   7.037 -14.369  1.00  0.00     0.042 C 
ATOM      3  O   UNL     1     -24.406   8.186 -14.352  1.00  0.00    -0.550 OA
ATOM      4  O   UNL     1     -22.589   6.873 -14.827  1.00  0.00    -0.550 OA
ENDBRANCH   1   2
BRANCH   1   5
ATOM      5  C   UNL     1     -25.235   5.019 -15.000  1.00  0.00     0.059 C 
BRANCH   5   6
ATOM      6  C   UNL     1     -24.232   4.036 -15.524  1.00  0.00     0.042 C 
ATOM      7  O   UNL     1     -23.925   3.021 -14.845  1.00  0.00    -0.550 OA
ATOM      8  O   UNL     1     -23.605   4.264 -16.742  1.00  0.00    -0.550 OA
ENDBRANCH   5   6
ENDBRANCH   1   5
TORSDOF 3
ENDMDL
MODEL 7
REMARK VINA RESULT:    -3.581      1.368      3.646
REMARK INTER + INTRA:          -4.281
REMARK INTER:                  -4.195
REMARK INTRA:                  -0.086
REMARK UNBOUND:                -0.072
REMARK SMILES O=C([O-])CCC(=O)[O-]
REMARK SMILES IDX 4 1 2 2 1 3 3 4 5 5 6 6 7 7 8 8
REMARK H PARENT
REMARK Flexibility Score: inf
ROOT
ATOM      1  C   UNL     1     -24.892   7.580 -14.100  1.00  0.00     0.059 C 
ENDROOT
BRANCH   1   2
ATOM      2  C   UNL     1     -23.643   8.222 -14.621  1.00  0.00     0.042 C 
ATOM      3  O   UNL     1     -22.600   7.537 -14.787  1.00  0.00    -0.550 OA
ATOM      4  O   UNL     1     -23.643   9.570 -14.961  1.00  0.00    -0.550 OA
ENDBRANCH   1   2
BRANCH   1   5
ATOM      5  C   UNL     1     -24.667   6.104 -13.757  1.00  0.00     0.059 C 
BRANCH   5   6
ATOM      6  C   UNL     1     -25.293   5.199 -14.774  1.00  0.00     0.042 C 
ATOM      7  O   UNL     1     -24.649   4.217 -15.229  1.00  0.00    -0.550 OA
ATOM      8  O   UNL     1     -26.571   5.463 -15.248  1.00  0.00    -0.550 OA
ENDBRANCH   5   6
ENDBRANCH   1   5
TORSDOF 3
ENDMDL
MODEL 8
REMARK VINA RESULT:    -3.575      1.811      2.452
REMARK INTER + INTRA:          -4.274
REMARK INTER:                  -4.196
REMARK INTRA:                  -0.077
REMARK UNBOUND:                -0.072
REMARK SMILES O=C([O-])CCC(=O)[O-]
REMARK SMILES IDX 4 1 2 2 1 3 3 4 5 5 6 6 7 7 8 8
REMARK H PARENT
REMARK Flexibility Score: inf
ROOT
ATOM      1  C   UNL     1     -24.676   5.009 -14.496  1.00  0.00     0.059 C 
ENDROOT
BRANCH   1   2
ATOM      2  C   UNL     1     -25.849   5.016 -15.427  1.00  0.00     0.042 C 
ATOM      3  O   UNL     1     -26.904   5.626 -15.113  1.00  0.00    -0.550 OA
ATOM      4  O   UNL     1     -25.762   4.382 -16.661  1.00  0.00    -0.550 OA
ENDBRANCH   1   2
BRANCH   1   5
ATOM      5  C   UNL     1     -24.309   6.424 -14.040  1.00  0.00     0.059 C 
BRANCH   5   6
ATOM      6  C   UNL     1     -23.085   6.930 -14.741  1.00  0.00     0.042 C 
ATOM      7  O   UNL     1     -22.255   6.120 -15.231  1.00  0.00    -0.550 OA
ATOM      8  O   UNL     1     -22.840   8.295 -14.816  1.00  0.00    -0.550 OA
ENDBRANCH   5   6
ENDBRANCH   1   5
TORSDOF 3
ENDMDL
MODEL 9
REMARK VINA RESULT:    -3.483      1.397      4.222
REMARK INTER + INTRA:          -4.165
REMARK INTER:                  -4.104
REMARK INTRA:                  -0.061
REMARK UNBOUND:                -0.072
REMARK SMILES O=C([O-])CCC(=O)[O-]
REMARK SMILES IDX 4 1 2 2 1 3 3 4 5 5 6 6 7 7 8 8
REMARK H PARENT
REMARK Flexibility Score: inf
ROOT
ATOM      1  C   UNL     1     -23.063   7.124 -14.739  1.00  0.00     0.059 C 
ENDROOT
BRANCH   1   2
ATOM      2  C   UNL     1     -23.254   8.606 -14.636  1.00  0.00     0.042 C 
ATOM      3  O   UNL     1     -24.406   9.105 -14.728  1.00  0.00    -0.550 OA
ATOM      4  O   UNL     1     -22.163   9.433 -14.396  1.00  0.00    -0.550 OA
ENDBRANCH   1   2
BRANCH   1   5
ATOM      5  C   UNL     1     -24.109   6.362 -13.919  1.00  0.00     0.059 C 
BRANCH   5   6
ATOM      6  C   UNL     1     -24.764   5.283 -14.727  1.00  0.00     0.042 C 
ATOM      7  O   UNL     1     -25.987   5.363 -15.016  1.00  0.00    -0.550 OA
ATOM      8  O   UNL     1     -24.035   4.170 -15.125  1.00  0.00    -0.550 OA
ENDBRANCH   5   6
ENDBRANCH   1   5
TORSDOF 3
ENDMDL
