MODEL 1
REMARK VINA RESULT:    -3.435      0.000      0.000
REMARK INTER + INTRA:          -4.229
REMARK INTER:                  -4.037
REMARK INTRA:                  -0.191
REMARK UNBOUND:                -0.191
REMARK SMILES O=C([O-])CCC(=O)[O-]
REMARK SMILES IDX 4 1 2 2 1 3 3 4 5 5 6 6 7 7 8 8
REMARK H PARENT
REMARK Flexibility Score: inf
ROOT
ATOM      1  C   UNL     1     158.078 165.510 232.068  1.00  0.00     0.059 C 
ENDROOT
BRANCH   1   2
ATOM      2  C   UNL     1     156.854 165.962 231.332  1.00  0.00     0.042 C 
ATOM      3  O   UNL     1     156.940 166.850 230.443  1.00  0.00    -0.550 OA
ATOM      4  O   UNL     1     155.612 165.430 231.655  1.00  0.00    -0.550 OA
ENDBRANCH   1   2
BRANCH   1   5
ATOM      5  C   UNL     1     158.687 166.644 232.900  1.00  0.00     0.059 C 
BRANCH   5   6
ATOM      6  C   UNL     1     157.729 167.142 233.937  1.00  0.00     0.042 C 
ATOM      7  O   UNL     1     157.406 168.359 233.969  1.00  0.00    -0.550 OA
ATOM      8  O   UNL     1     157.161 166.256 234.843  1.00  0.00    -0.550 OA
ENDBRANCH   5   6
ENDBRANCH   1   5
TORSDOF 3
ENDMDL
MODEL 2
REMARK VINA RESULT:    -3.434     14.717     15.752
REMARK INTER + INTRA:          -4.228
REMARK INTER:                  -4.038
REMARK INTRA:                  -0.190
REMARK UNBOUND:                -0.191
REMARK SMILES O=C([O-])CCC(=O)[O-]
REMARK SMILES IDX 4 1 2 2 1 3 3 4 5 5 6 6 7 7 8 8
REMARK H PARENT
REMARK Flexibility Score: inf
ROOT
ATOM      1  C   UNL     1     159.297 151.395 232.919  1.00  0.00     0.059 C 
ENDROOT
BRANCH   1   2
ATOM      2  C   UNL     1     160.293 150.884 233.914  1.00  0.00     0.042 C 
ATOM      3  O   UNL     1     160.614 149.667 233.922  1.00  0.00    -0.550 OA
ATOM      4  O   UNL     1     160.837 151.745 234.859  1.00  0.00    -0.550 OA
ENDBRANCH   1   2
BRANCH   1   5
ATOM      5  C   UNL     1     159.888 152.512 232.051  1.00  0.00     0.059 C 
BRANCH   5   6
ATOM      6  C   UNL     1     161.115 152.053 231.324  1.00  0.00     0.042 C 
ATOM      7  O   UNL     1     161.030 151.164 230.437  1.00  0.00    -0.550 OA
ATOM      8  O   UNL     1     162.345 152.637 231.598  1.00  0.00    -0.550 OA
ENDBRANCH   5   6
ENDBRANCH   1   5
TORSDOF 3
ENDMDL
MODEL 3
REMARK VINA RESULT:    -3.426      0.055      3.130
REMARK INTER + INTRA:          -4.218
REMARK INTER:                  -4.031
REMARK INTRA:                  -0.187
REMARK UNBOUND:                -0.191
REMARK SMILES O=C([O-])CCC(=O)[O-]
REMARK SMILES IDX 4 1 2 2 1 3 3 4 5 5 6 6 7 7 8 8
REMARK H PARENT
REMARK Flexibility Score: inf
ROOT
ATOM      1  C   UNL     1     158.690 166.579 232.931  1.00  0.00     0.059 C 
ENDROOT
BRANCH   1   2
ATOM      2  C   UNL     1     157.697 167.124 233.911  1.00  0.00     0.042 C 
ATOM      3  O   UNL     1     157.386 168.344 233.887  1.00  0.00    -0.550 OA
ATOM      4  O   UNL     1     157.143 166.292 234.875  1.00  0.00    -0.550 OA
ENDBRANCH   1   2
BRANCH   1   5
ATOM      5  C   UNL     1     158.080 165.471 232.065  1.00  0.00     0.059 C 
BRANCH   5   6
ATOM      6  C   UNL     1     156.853 165.945 231.348  1.00  0.00     0.042 C 
ATOM      7  O   UNL     1     156.941 166.838 230.464  1.00  0.00    -0.550 OA
ATOM      8  O   UNL     1     155.619 165.373 231.627  1.00  0.00    -0.550 OA
ENDBRANCH   5   6
ENDBRANCH   1   5
TORSDOF 3
ENDMDL
MODEL 4
REMARK VINA RESULT:    -3.418     14.717     15.584
REMARK INTER + INTRA:          -4.209
REMARK INTER:                  -4.015
REMARK INTRA:                  -0.193
REMARK UNBOUND:                -0.191
REMARK SMILES O=C([O-])CCC(=O)[O-]
REMARK SMILES IDX 4 1 2 2 1 3 3 4 5 5 6 6 7 7 8 8
REMARK H PARENT
REMARK Flexibility Score: inf
ROOT
ATOM      1  C   UNL     1     159.993 152.560 232.067  1.00  0.00     0.059 C 
ENDROOT
BRANCH   1   2
ATOM      2  C   UNL     1     161.216 152.080 231.347  1.00  0.00     0.042 C 
ATOM      3  O   UNL     1     161.125 151.174 230.477  1.00  0.00    -0.550 OA
ATOM      4  O   UNL     1     162.462 152.604 231.666  1.00  0.00    -0.550 OA
ENDBRANCH   1   2
BRANCH   1   5
ATOM      5  C   UNL     1     159.343 151.438 232.884  1.00  0.00     0.059 C 
BRANCH   5   6
ATOM      6  C   UNL     1     160.279 150.898 233.921  1.00  0.00     0.042 C 
ATOM      7  O   UNL     1     160.589 149.678 233.920  1.00  0.00    -0.550 OA
ATOM      8  O   UNL     1     160.841 151.749 234.864  1.00  0.00    -0.550 OA
ENDBRANCH   5   6
ENDBRANCH   1   5
TORSDOF 3
ENDMDL
MODEL 5
REMARK VINA RESULT:    -3.376      1.517      2.032
REMARK INTER + INTRA:          -4.159
REMARK INTER:                  -3.986
REMARK INTRA:                  -0.173
REMARK UNBOUND:                -0.191
REMARK SMILES O=C([O-])CCC(=O)[O-]
REMARK SMILES IDX 4 1 2 2 1 3 3 4 5 5 6 6 7 7 8 8
REMARK H PARENT
REMARK Flexibility Score: inf
ROOT
ATOM      1  C   UNL     1     156.800 166.531 230.927  1.00  0.00     0.059 C 
ENDROOT
BRANCH   1   2
ATOM      2  C   UNL     1     156.251 165.286 231.553  1.00  0.00     0.042 C 
ATOM      3  O   UNL     1     155.265 165.351 232.334  1.00  0.00    -0.550 OA
ATOM      4  O   UNL     1     156.852 164.059 231.305  1.00  0.00    -0.550 OA
ENDBRANCH   1   2
BRANCH   1   5
ATOM      5  C   UNL     1     158.218 166.834 231.423  1.00  0.00     0.059 C 
BRANCH   5   6
ATOM      6  C   UNL     1     158.271 166.930 232.917  1.00  0.00     0.042 C 
ATOM      7  O   UNL     1     158.974 166.123 233.579  1.00  0.00    -0.550 OA
ATOM      8  O   UNL     1     157.574 167.936 233.574  1.00  0.00    -0.550 OA
ENDBRANCH   5   6
ENDBRANCH   1   5
TORSDOF 3
ENDMDL
MODEL 6
REMARK VINA RESULT:    -3.373     14.334     15.284
REMARK INTER + INTRA:          -4.156
REMARK INTER:                  -3.984
REMARK INTRA:                  -0.172
REMARK UNBOUND:                -0.191
REMARK SMILES O=C([O-])CCC(=O)[O-]
REMARK SMILES IDX 4 1 2 2 1 3 3 4 5 5 6 6 7 7 8 8
REMARK H PARENT
REMARK Flexibility Score: inf
ROOT
ATOM      1  C   UNL     1     159.776 151.200 231.393  1.00  0.00     0.059 C 
ENDROOT
BRANCH   1   2
ATOM      2  C   UNL     1     159.686 151.121 232.886  1.00  0.00     0.042 C 
ATOM      3  O   UNL     1     159.010 151.969 233.526  1.00  0.00    -0.550 OA
ATOM      4  O   UNL     1     160.379 150.134 233.574  1.00  0.00    -0.550 OA
ENDBRANCH   1   2
BRANCH   1   5
ATOM      5  C   UNL     1     161.215 151.450 230.928  1.00  0.00     0.059 C 
BRANCH   5   6
ATOM      6  C   UNL     1     161.793 152.679 231.559  1.00  0.00     0.042 C 
ATOM      7  O   UNL     1     162.776 152.588 232.339  1.00  0.00    -0.550 OA
ATOM      8  O   UNL     1     161.270 153.930 231.255  1.00  0.00    -0.550 OA
ENDBRANCH   5   6
ENDBRANCH   1   5
TORSDOF 3
ENDMDL
MODEL 7
REMARK VINA RESULT:    -3.257     14.021     15.039
REMARK INTER + INTRA:          -4.020
REMARK INTER:                  -3.827
REMARK INTRA:                  -0.192
REMARK UNBOUND:                -0.191
REMARK SMILES O=C([O-])CCC(=O)[O-]
REMARK SMILES IDX 4 1 2 2 1 3 3 4 5 5 6 6 7 7 8 8
REMARK H PARENT
REMARK Flexibility Score: inf
ROOT
ATOM      1  C   UNL     1     159.294 151.347 233.018  1.00  0.00     0.059 C 
ENDROOT
BRANCH   1   2
ATOM      2  C   UNL     1     159.273 152.822 233.279  1.00  0.00     0.042 C 
ATOM      3  O   UNL     1     158.632 153.592 232.517  1.00  0.00    -0.550 OA
ATOM      4  O   UNL     1     159.995 153.351 234.341  1.00  0.00    -0.550 OA
ENDBRANCH   1   2
BRANCH   1   5
ATOM      5  C   UNL     1     160.724 150.823 232.855  1.00  0.00     0.059 C 
BRANCH   5   6
ATOM      6  C   UNL     1     161.412 151.453 231.683  1.00  0.00     0.042 C 
ATOM      7  O   UNL     1     160.954 151.298 230.521  1.00  0.00    -0.550 OA
ATOM      8  O   UNL     1     162.537 152.245 231.878  1.00  0.00    -0.550 OA
ENDBRANCH   5   6
ENDBRANCH   1   5
TORSDOF 3
ENDMDL
MODEL 8
REMARK VINA RESULT:    -3.256      1.585      2.074
REMARK INTER + INTRA:          -4.018
REMARK INTER:                  -3.851
REMARK INTRA:                  -0.167
REMARK UNBOUND:                -0.191
REMARK SMILES O=C([O-])CCC(=O)[O-]
REMARK SMILES IDX 4 1 2 2 1 3 3 4 5 5 6 6 7 7 8 8
REMARK H PARENT
REMARK Flexibility Score: inf
ROOT
ATOM      1  C   UNL     1     157.177 167.194 232.803  1.00  0.00     0.059 C 
ENDROOT
BRANCH   1   2
ATOM      2  C   UNL     1     156.581 166.487 231.624  1.00  0.00     0.042 C 
ATOM      3  O   UNL     1     156.905 166.820 230.454  1.00  0.00    -0.550 OA
ATOM      4  O   UNL     1     155.637 165.486 231.818  1.00  0.00    -0.550 OA
ENDBRANCH   1   2
BRANCH   1   5
ATOM      5  C   UNL     1     158.656 166.836 232.986  1.00  0.00     0.059 C 
BRANCH   5   6
ATOM      6  C   UNL     1     158.827 165.423 233.453  1.00  0.00     0.042 C 
ATOM      7  O   UNL     1     158.442 165.085 234.602  1.00  0.00    -0.550 OA
ATOM      8  O   UNL     1     159.377 164.471 232.604  1.00  0.00    -0.550 OA
ENDBRANCH   5   6
ENDBRANCH   1   5
TORSDOF 3
ENDMDL
MODEL 9
REMARK VINA RESULT:    -3.254      1.671      3.102
REMARK INTER + INTRA:          -4.017
REMARK INTER:                  -3.825
REMARK INTRA:                  -0.192
REMARK UNBOUND:                -0.191
REMARK SMILES O=C([O-])CCC(=O)[O-]
REMARK SMILES IDX 4 1 2 2 1 3 3 4 5 5 6 6 7 7 8 8
REMARK H PARENT
REMARK Flexibility Score: inf
ROOT
ATOM      1  C   UNL     1     158.620 166.661 233.097  1.00  0.00     0.059 C 
ENDROOT
BRANCH   1   2
ATOM      2  C   UNL     1     158.690 165.181 233.316  1.00  0.00     0.042 C 
ATOM      3  O   UNL     1     159.369 164.457 232.541  1.00  0.00    -0.550 OA
ATOM      4  O   UNL     1     157.973 164.596 234.351  1.00  0.00    -0.550 OA
ENDBRANCH   1   2
BRANCH   1   5
ATOM      5  C   UNL     1     157.180 167.129 232.858  1.00  0.00     0.059 C 
BRANCH   5   6
ATOM      6  C   UNL     1     156.586 166.485 231.643  1.00  0.00     0.042 C 
ATOM      7  O   UNL     1     157.055 166.732 230.502  1.00  0.00    -0.550 OA
ATOM      8  O   UNL     1     155.538 165.582 231.775  1.00  0.00    -0.550 OA
ENDBRANCH   5   6
ENDBRANCH   1   5
TORSDOF 3
ENDMDL
