MODEL 1
REMARK VINA RESULT:    17.282      0.000      0.000
REMARK INTER + INTRA:          30.609
REMARK INTER:                  31.426
REMARK INTRA:                  -0.817
REMARK UNBOUND:                -0.817
REMARK SMILES CCCCCCCCCCCCCC[C@@H](C)C(=O)[O-]
REMARK SMILES IDX 9 1 10 2 11 3 12 4 13 5 14 6 15 7 16 8 17 9 18 10 19 11 8 12
REMARK SMILES IDX 7 13 6 14 5 15 4 16 3 17 2 18 1 19
REMARK H PARENT
REMARK Flexibility Score: inf
ROOT
ATOM      1  C   UNL     1     -15.360 -12.311 -22.557  1.00  0.00     0.000 C 
ENDROOT
BRANCH   1   2
ATOM      2  C   UNL     1     -16.223 -13.564 -22.756  1.00  0.00     0.000 C 
BRANCH   2   3
ATOM      3  C   UNL     1     -17.664 -13.187 -23.128  1.00  0.00     0.000 C 
BRANCH   3   4
ATOM      4  C   UNL     1     -17.978 -13.424 -24.617  1.00  0.00     0.000 C 
BRANCH   4   5
ATOM      5  C   UNL     1     -19.446 -13.125 -24.992  1.00  0.00     0.001 C 
BRANCH   5   6
ATOM      6  C   UNL     1     -20.318 -12.851 -23.754  1.00  0.00     0.009 C 
BRANCH   6   7
ATOM      7  C   UNL     1     -21.717 -13.490 -23.872  1.00  0.00     0.032 C 
ATOM      8  C   UNL     1     -21.747 -14.521 -25.007  1.00  0.00     0.014 C 
BRANCH   7   9
ATOM      9  C   UNL     1     -22.140 -14.135 -22.579  1.00  0.00     0.044 C 
ATOM     10  O   UNL     1     -22.765 -15.229 -22.584  1.00  0.00    -0.550 OA
ATOM     11  O   UNL     1     -21.839 -13.524 -21.369  1.00  0.00    -0.550 OA
ENDBRANCH   7   9
ENDBRANCH   6   7
ENDBRANCH   5   6
ENDBRANCH   4   5
ENDBRANCH   3   4
ENDBRANCH   2   3
ENDBRANCH   1   2
BRANCH   1  12
ATOM     12  C   UNL     1     -14.503 -12.032 -23.800  1.00  0.00     0.000 C 
BRANCH  12  13
ATOM     13  C   UNL     1     -13.731 -10.706 -23.704  1.00  0.00    -0.000 C 
BRANCH  13  14
ATOM     14  C   UNL     1     -14.646  -9.514 -23.372  1.00  0.00    -0.000 C 
BRANCH  14  15
ATOM     15  C   UNL     1     -13.862  -8.257 -22.949  1.00  0.00    -0.000 C 
BRANCH  15  16
ATOM     16  C   UNL     1     -12.748  -8.502 -21.916  1.00  0.00    -0.000 C 
BRANCH  16  17
ATOM     17  C   UNL     1     -13.006  -7.790 -20.576  1.00  0.00    -0.000 C 
BRANCH  17  18
ATOM     18  C   UNL     1     -12.255  -8.444 -19.407  1.00  0.00    -0.003 C 
ATOM     19  C   UNL     1     -13.064  -8.435 -18.110  1.00  0.00     0.004 C 
ENDBRANCH  17  18
ENDBRANCH  16  17
ENDBRANCH  15  16
ENDBRANCH  14  15
ENDBRANCH  13  14
ENDBRANCH  12  13
ENDBRANCH   1  12
TORSDOF 14
ENDMDL
MODEL 2
REMARK VINA RESULT:    17.587      1.934      2.690
REMARK INTER + INTRA:          31.163
REMARK INTER:                  31.889
REMARK INTRA:                  -0.725
REMARK UNBOUND:                -0.817
REMARK SMILES CCCCCCCCCCCCCC[C@@H](C)C(=O)[O-]
REMARK SMILES IDX 9 1 10 2 11 3 12 4 13 5 14 6 15 7 16 8 17 9 18 10 19 11 8 12
REMARK SMILES IDX 7 13 6 14 5 15 4 16 3 17 2 18 1 19
REMARK H PARENT
REMARK Flexibility Score: inf
ROOT
ATOM      1  C   UNL     1     -15.464 -12.248 -22.563  1.00  0.00     0.000 C 
ENDROOT
BRANCH   1   2
ATOM      2  C   UNL     1     -16.428 -13.435 -22.431  1.00  0.00     0.000 C 
BRANCH   2   3
ATOM      3  C   UNL     1     -17.049 -13.793 -23.788  1.00  0.00     0.000 C 
BRANCH   3   4
ATOM      4  C   UNL     1     -17.976 -12.691 -24.332  1.00  0.00     0.000 C 
BRANCH   4   5
ATOM      5  C   UNL     1     -19.303 -13.229 -24.907  1.00  0.00     0.001 C 
BRANCH   5   6
ATOM      6  C   UNL     1     -20.519 -12.797 -24.067  1.00  0.00     0.009 C 
BRANCH   6   7
ATOM      7  C   UNL     1     -21.671 -13.820 -24.141  1.00  0.00     0.032 C 
ATOM      8  C   UNL     1     -21.250 -15.054 -24.946  1.00  0.00     0.014 C 
BRANCH   7   9
ATOM      9  C   UNL     1     -22.130 -14.234 -22.767  1.00  0.00     0.044 C 
ATOM     10  O   UNL     1     -22.803 -15.286 -22.607  1.00  0.00    -0.550 OA
ATOM     11  O   UNL     1     -21.807 -13.453 -21.665  1.00  0.00    -0.550 OA
ENDBRANCH   7   9
ENDBRANCH   6   7
ENDBRANCH   5   6
ENDBRANCH   4   5
ENDBRANCH   3   4
ENDBRANCH   2   3
ENDBRANCH   1   2
BRANCH   1  12
ATOM     12  C   UNL     1     -14.582 -12.394 -23.812  1.00  0.00     0.000 C 
BRANCH  12  13
ATOM     13  C   UNL     1     -14.153 -11.039 -24.397  1.00  0.00    -0.000 C 
BRANCH  13  14
ATOM     14  C   UNL     1     -13.771 -10.020 -23.309  1.00  0.00    -0.000 C 
BRANCH  14  15
ATOM     15  C   UNL     1     -14.761  -8.844 -23.216  1.00  0.00    -0.000 C 
BRANCH  15  16
ATOM     16  C   UNL     1     -14.235  -7.505 -23.764  1.00  0.00    -0.000 C 
BRANCH  16  17
ATOM     17  C   UNL     1     -15.211  -6.834 -24.745  1.00  0.00    -0.000 C 
BRANCH  17  18
ATOM     18  C   UNL     1     -14.778  -5.409 -25.125  1.00  0.00    -0.003 C 
ATOM     19  C   UNL     1     -13.402  -5.045 -24.568  1.00  0.00     0.004 C 
ENDBRANCH  17  18
ENDBRANCH  16  17
ENDBRANCH  15  16
ENDBRANCH  14  15
ENDBRANCH  13  14
ENDBRANCH  12  13
ENDBRANCH   1  12
TORSDOF 14
ENDMDL
MODEL 3
REMARK VINA RESULT:    18.406      3.816      8.796
REMARK INTER + INTRA:          32.654
REMARK INTER:                  33.465
REMARK INTRA:                  -0.811
REMARK UNBOUND:                -0.817
REMARK SMILES CCCCCCCCCCCCCC[C@@H](C)C(=O)[O-]
REMARK SMILES IDX 9 1 10 2 11 3 12 4 13 5 14 6 15 7 16 8 17 9 18 10 19 11 8 12
REMARK SMILES IDX 7 13 6 14 5 15 4 16 3 17 2 18 1 19
REMARK H PARENT
REMARK Flexibility Score: inf
ROOT
ATOM      1  C   UNL     1     -15.500 -12.533 -22.432  1.00  0.00     0.000 C 
ENDROOT
BRANCH   1   2
ATOM      2  C   UNL     1     -14.596 -12.092 -23.590  1.00  0.00     0.000 C 
BRANCH   2   3
ATOM      3  C   UNL     1     -13.753 -10.871 -23.198  1.00  0.00     0.000 C 
BRANCH   3   4
ATOM      4  C   UNL     1     -14.279  -9.559 -23.808  1.00  0.00     0.000 C 
BRANCH   4   5
ATOM      5  C   UNL     1     -14.181  -8.351 -22.852  1.00  0.00     0.001 C 
BRANCH   5   6
ATOM      6  C   UNL     1     -12.886  -8.372 -22.020  1.00  0.00     0.009 C 
BRANCH   6   7
ATOM      7  C   UNL     1     -13.002  -7.518 -20.741  1.00  0.00     0.032 C 
ATOM      8  C   UNL     1     -14.364  -6.818 -20.677  1.00  0.00     0.014 C 
BRANCH   7   9
ATOM      9  C   UNL     1     -12.792  -8.349 -19.502  1.00  0.00     0.044 C 
ATOM     10  O   UNL     1     -12.175  -9.445 -19.562  1.00  0.00    -0.550 OA
ATOM     11  O   UNL     1     -13.279  -7.903 -18.280  1.00  0.00    -0.550 OA
ENDBRANCH   7   9
ENDBRANCH   6   7
ENDBRANCH   5   6
ENDBRANCH   4   5
ENDBRANCH   3   4
ENDBRANCH   2   3
ENDBRANCH   1   2
BRANCH   1  12
ATOM     12  C   UNL     1     -16.374 -13.728 -22.842  1.00  0.00     0.000 C 
BRANCH  12  13
ATOM     13  C   UNL     1     -17.272 -13.420 -24.051  1.00  0.00    -0.000 C 
BRANCH  13  14
ATOM     14  C   UNL     1     -18.752 -13.263 -23.660  1.00  0.00    -0.000 C 
BRANCH  14  15
ATOM     15  C   UNL     1     -19.656 -12.931 -24.862  1.00  0.00    -0.000 C 
BRANCH  15  16
ATOM     16  C   UNL     1     -21.167 -12.985 -24.575  1.00  0.00    -0.000 C 
BRANCH  16  17
ATOM     17  C   UNL     1     -21.707 -14.422 -24.474  1.00  0.00    -0.000 C 
BRANCH  17  18
ATOM     18  C   UNL     1     -22.382 -14.705 -23.122  1.00  0.00    -0.003 C 
ATOM     19  C   UNL     1     -21.906 -13.760 -22.019  1.00  0.00     0.004 C 
ENDBRANCH  17  18
ENDBRANCH  16  17
ENDBRANCH  15  16
ENDBRANCH  14  15
ENDBRANCH  13  14
ENDBRANCH  12  13
ENDBRANCH   1  12
TORSDOF 14
ENDMDL
MODEL 4
REMARK VINA RESULT:    18.451      3.709      8.631
REMARK INTER + INTRA:          32.735
REMARK INTER:                  33.498
REMARK INTRA:                  -0.763
REMARK UNBOUND:                -0.817
REMARK SMILES CCCCCCCCCCCCCC[C@@H](C)C(=O)[O-]
REMARK SMILES IDX 9 1 10 2 11 3 12 4 13 5 14 6 15 7 16 8 17 9 18 10 19 11 8 12
REMARK SMILES IDX 7 13 6 14 5 15 4 16 3 17 2 18 1 19
REMARK H PARENT
REMARK Flexibility Score: inf
ROOT
ATOM      1  C   UNL     1     -16.520 -13.502 -22.657  1.00  0.00     0.000 C 
ENDROOT
BRANCH   1   2
ATOM      2  C   UNL     1     -15.375 -12.510 -22.418  1.00  0.00     0.000 C 
BRANCH   2   3
ATOM      3  C   UNL     1     -14.576 -12.270 -23.707  1.00  0.00     0.000 C 
BRANCH   3   4
ATOM      4  C   UNL     1     -13.580 -11.102 -23.585  1.00  0.00     0.000 C 
BRANCH   4   5
ATOM      5  C   UNL     1     -14.211  -9.722 -23.865  1.00  0.00     0.001 C 
BRANCH   5   6
ATOM      6  C   UNL     1     -13.635  -8.624 -22.951  1.00  0.00     0.009 C 
BRANCH   6   7
ATOM      7  C   UNL     1     -14.582  -7.413 -22.827  1.00  0.00     0.032 C 
ATOM      8  C   UNL     1     -14.092  -6.451 -21.739  1.00  0.00     0.014 C 
BRANCH   7   9
ATOM      9  C   UNL     1     -14.718  -6.682 -24.136  1.00  0.00     0.044 C 
ATOM     10  O   UNL     1     -15.618  -7.001 -24.958  1.00  0.00    -0.550 OA
ATOM     11  O   UNL     1     -13.848  -5.644 -24.443  1.00  0.00    -0.550 OA
ENDBRANCH   7   9
ENDBRANCH   6   7
ENDBRANCH   5   6
ENDBRANCH   4   5
ENDBRANCH   3   4
ENDBRANCH   2   3
ENDBRANCH   1   2
BRANCH   1  12
ATOM     12  C   UNL     1     -16.810 -13.655 -24.157  1.00  0.00     0.000 C 
BRANCH  12  13
ATOM     13  C   UNL     1     -18.268 -14.050 -24.443  1.00  0.00    -0.000 C 
BRANCH  13  14
ATOM     14  C   UNL     1     -19.107 -12.871 -24.966  1.00  0.00    -0.000 C 
BRANCH  14  15
ATOM     15  C   UNL     1     -20.533 -12.847 -24.385  1.00  0.00    -0.000 C 
BRANCH  15  16
ATOM     16  C   UNL     1     -21.481 -13.925 -24.941  1.00  0.00    -0.000 C 
BRANCH  16  17
ATOM     17  C   UNL     1     -22.369 -14.559 -23.856  1.00  0.00    -0.000 C 
BRANCH  17  18
ATOM     18  C   UNL     1     -22.112 -13.964 -22.462  1.00  0.00    -0.003 C 
ATOM     19  C   UNL     1     -22.172 -15.016 -21.355  1.00  0.00     0.004 C 
ENDBRANCH  17  18
ENDBRANCH  16  17
ENDBRANCH  15  16
ENDBRANCH  14  15
ENDBRANCH  13  14
ENDBRANCH  12  13
ENDBRANCH   1  12
TORSDOF 14
ENDMDL
MODEL 5
REMARK VINA RESULT:    19.091      3.849      8.609
REMARK INTER + INTRA:          33.900
REMARK INTER:                  34.879
REMARK INTRA:                  -0.980
REMARK UNBOUND:                -0.817
REMARK SMILES CCCCCCCCCCCCCC[C@@H](C)C(=O)[O-]
REMARK SMILES IDX 9 1 10 2 11 3 12 4 13 5 14 6 15 7 16 8 17 9 18 10 19 11 8 12
REMARK SMILES IDX 7 13 6 14 5 15 4 16 3 17 2 18 1 19
REMARK H PARENT
REMARK Flexibility Score: inf
ROOT
ATOM      1  C   UNL     1     -16.339 -13.364 -22.301  1.00  0.00     0.000 C 
ENDROOT
BRANCH   1   2
ATOM      2  C   UNL     1     -15.133 -12.433 -22.481  1.00  0.00     0.000 C 
BRANCH   2   3
ATOM      3  C   UNL     1     -14.625 -12.462 -23.929  1.00  0.00     0.000 C 
BRANCH   3   4
ATOM      4  C   UNL     1     -13.672 -11.298 -24.253  1.00  0.00     0.000 C 
BRANCH   4   5
ATOM      5  C   UNL     1     -14.184  -9.927 -23.761  1.00  0.00     0.001 C 
BRANCH   5   6
ATOM      6  C   UNL     1     -13.212  -9.266 -22.767  1.00  0.00     0.009 C 
BRANCH   6   7
ATOM      7  C   UNL     1     -13.554  -7.783 -22.516  1.00  0.00     0.032 C 
ATOM      8  C   UNL     1     -14.931  -7.439 -23.094  1.00  0.00     0.014 C 
BRANCH   7   9
ATOM      9  C   UNL     1     -13.514  -7.448 -21.048  1.00  0.00     0.044 C 
ATOM     10  O   UNL     1     -14.298  -6.589 -20.565  1.00  0.00    -0.550 OA
ATOM     11  O   UNL     1     -12.609  -8.093 -20.215  1.00  0.00    -0.550 OA
ENDBRANCH   7   9
ENDBRANCH   6   7
ENDBRANCH   5   6
ENDBRANCH   4   5
ENDBRANCH   3   4
ENDBRANCH   2   3
ENDBRANCH   1   2
BRANCH   1  12
ATOM     12  C   UNL     1     -17.066 -13.584 -23.635  1.00  0.00     0.000 C 
BRANCH  12  13
ATOM     13  C   UNL     1     -18.522 -13.093 -23.606  1.00  0.00    -0.000 C 
BRANCH  13  14
ATOM     14  C   UNL     1     -19.142 -13.001 -25.012  1.00  0.00    -0.000 C 
BRANCH  14  15
ATOM     15  C   UNL     1     -20.681 -13.039 -24.992  1.00  0.00    -0.000 C 
BRANCH  15  16
ATOM     16  C   UNL     1     -21.298 -14.446 -24.899  1.00  0.00    -0.000 C 
BRANCH  16  17
ATOM     17  C   UNL     1     -22.457 -14.528 -23.892  1.00  0.00    -0.000 C 
BRANCH  17  18
ATOM     18  C   UNL     1     -22.144 -13.805 -22.573  1.00  0.00    -0.003 C 
ATOM     19  C   UNL     1     -22.021 -14.766 -21.390  1.00  0.00     0.004 C 
ENDBRANCH  17  18
ENDBRANCH  16  17
ENDBRANCH  15  16
ENDBRANCH  14  15
ENDBRANCH  13  14
ENDBRANCH  12  13
ENDBRANCH   1  12
TORSDOF 14
ENDMDL
MODEL 6
REMARK VINA RESULT:    19.178      3.923      6.283
REMARK INTER + INTRA:          34.058
REMARK INTER:                  34.953
REMARK INTRA:                  -0.894
REMARK UNBOUND:                -0.817
REMARK SMILES CCCCCCCCCCCCCC[C@@H](C)C(=O)[O-]
REMARK SMILES IDX 9 1 10 2 11 3 12 4 13 5 14 6 15 7 16 8 17 9 18 10 19 11 8 12
REMARK SMILES IDX 7 13 6 14 5 15 4 16 3 17 2 18 1 19
REMARK H PARENT
REMARK Flexibility Score: inf
ROOT
ATOM      1  C   UNL     1     -16.558 -13.339 -21.735  1.00  0.00     0.000 C 
ENDROOT
BRANCH   1   2
ATOM      2  C   UNL     1     -16.051 -13.736 -23.128  1.00  0.00     0.000 C 
BRANCH   2   3
ATOM      3  C   UNL     1     -17.215 -13.876 -24.119  1.00  0.00     0.000 C 
BRANCH   3   4
ATOM      4  C   UNL     1     -18.379 -12.916 -23.815  1.00  0.00     0.000 C 
BRANCH   4   5
ATOM      5  C   UNL     1     -19.576 -13.073 -24.777  1.00  0.00     0.001 C 
BRANCH   5   6
ATOM      6  C   UNL     1     -20.911 -12.698 -24.110  1.00  0.00     0.009 C 
BRANCH   6   7
ATOM      7  C   UNL     1     -21.887 -13.891 -24.048  1.00  0.00     0.032 C 
ATOM      8  C   UNL     1     -21.330 -15.088 -24.826  1.00  0.00     0.014 C 
BRANCH   7   9
ATOM      9  C   UNL     1     -22.179 -14.292 -22.626  1.00  0.00     0.044 C 
ATOM     10  O   UNL     1     -21.796 -13.572 -21.666  1.00  0.00    -0.550 OA
ATOM     11  O   UNL     1     -22.878 -15.464 -22.367  1.00  0.00    -0.550 OA
ENDBRANCH   7   9
ENDBRANCH   6   7
ENDBRANCH   5   6
ENDBRANCH   4   5
ENDBRANCH   3   4
ENDBRANCH   2   3
ENDBRANCH   1   2
BRANCH   1  12
ATOM     12  C   UNL     1     -17.036 -14.573 -20.954  1.00  0.00     0.000 C 
BRANCH  12  13
ATOM     13  C   UNL     1     -15.995 -15.074 -19.940  1.00  0.00    -0.000 C 
BRANCH  13  14
ATOM     14  C   UNL     1     -16.551 -16.175 -19.021  1.00  0.00    -0.000 C 
BRANCH  14  15
ATOM     15  C   UNL     1     -17.662 -15.668 -18.083  1.00  0.00    -0.000 C 
BRANCH  15  16
ATOM     16  C   UNL     1     -17.311 -15.691 -16.584  1.00  0.00    -0.000 C 
BRANCH  16  17
ATOM     17  C   UNL     1     -18.020 -16.822 -15.819  1.00  0.00    -0.000 C 
BRANCH  17  18
ATOM     18  C   UNL     1     -19.107 -17.509 -16.659  1.00  0.00    -0.003 C 
ATOM     19  C   UNL     1     -20.379 -17.791 -15.858  1.00  0.00     0.004 C 
ENDBRANCH  17  18
ENDBRANCH  16  17
ENDBRANCH  15  16
ENDBRANCH  14  15
ENDBRANCH  13  14
ENDBRANCH  12  13
ENDBRANCH   1  12
TORSDOF 14
ENDMDL
MODEL 7
REMARK VINA RESULT:    19.960      4.902      6.197
REMARK INTER + INTRA:          35.480
REMARK INTER:                  35.935
REMARK INTRA:                  -0.455
REMARK UNBOUND:                -0.817
REMARK SMILES CCCCCCCCCCCCCC[C@@H](C)C(=O)[O-]
REMARK SMILES IDX 9 1 10 2 11 3 12 4 13 5 14 6 15 7 16 8 17 9 18 10 19 11 8 12
REMARK SMILES IDX 7 13 6 14 5 15 4 16 3 17 2 18 1 19
REMARK H PARENT
REMARK Flexibility Score: inf
ROOT
ATOM      1  C   UNL     1     -16.073 -12.830 -22.385  1.00  0.00     0.000 C 
ENDROOT
BRANCH   1   2
ATOM      2  C   UNL     1     -16.119 -14.275 -21.872  1.00  0.00     0.000 C 
BRANCH   2   3
ATOM      3  C   UNL     1     -16.779 -14.348 -20.488  1.00  0.00     0.000 C 
BRANCH   3   4
ATOM      4  C   UNL     1     -16.383 -15.610 -19.702  1.00  0.00     0.000 C 
BRANCH   4   5
ATOM      5  C   UNL     1     -17.433 -16.041 -18.656  1.00  0.00     0.001 C 
BRANCH   5   6
ATOM      6  C   UNL     1     -17.321 -15.230 -17.352  1.00  0.00     0.009 C 
BRANCH   6   7
ATOM      7  C   UNL     1     -17.724 -16.058 -16.114  1.00  0.00     0.032 C 
ATOM      8  C   UNL     1     -18.843 -17.045 -16.464  1.00  0.00     0.014 C 
BRANCH   7   9
ATOM      9  C   UNL     1     -16.546 -16.800 -15.538  1.00  0.00     0.044 C 
ATOM     10  O   UNL     1     -15.422 -16.755 -16.104  1.00  0.00    -0.550 OA
ATOM     11  O   UNL     1     -16.697 -17.538 -14.372  1.00  0.00    -0.550 OA
ENDBRANCH   7   9
ENDBRANCH   6   7
ENDBRANCH   5   6
ENDBRANCH   4   5
ENDBRANCH   3   4
ENDBRANCH   2   3
ENDBRANCH   1   2
BRANCH   1  12
ATOM     12  C   UNL     1     -15.061 -12.687 -23.532  1.00  0.00     0.000 C 
BRANCH  12  13
ATOM     13  C   UNL     1     -13.950 -11.672 -23.221  1.00  0.00    -0.000 C 
BRANCH  13  14
ATOM     14  C   UNL     1     -14.057 -10.399 -24.079  1.00  0.00    -0.000 C 
BRANCH  14  15
ATOM     15  C   UNL     1     -13.993  -9.107 -23.243  1.00  0.00    -0.000 C 
BRANCH  15  16
ATOM     16  C   UNL     1     -15.030  -8.034 -23.621  1.00  0.00    -0.000 C 
BRANCH  16  17
ATOM     17  C   UNL     1     -14.442  -6.613 -23.645  1.00  0.00    -0.000 C 
BRANCH  17  18
ATOM     18  C   UNL     1     -14.309  -6.054 -25.069  1.00  0.00    -0.003 C 
ATOM     19  C   UNL     1     -13.464  -4.781 -25.125  1.00  0.00     0.004 C 
ENDBRANCH  17  18
ENDBRANCH  16  17
ENDBRANCH  15  16
ENDBRANCH  14  15
ENDBRANCH  13  14
ENDBRANCH  12  13
ENDBRANCH   1  12
TORSDOF 14
ENDMDL
MODEL 8
REMARK VINA RESULT:    20.222      5.304      8.729
REMARK INTER + INTRA:          35.956
REMARK INTER:                  36.672
REMARK INTRA:                  -0.716
REMARK UNBOUND:                -0.817
REMARK SMILES CCCCCCCCCCCCCC[C@@H](C)C(=O)[O-]
REMARK SMILES IDX 9 1 10 2 11 3 12 4 13 5 14 6 15 7 16 8 17 9 18 10 19 11 8 12
REMARK SMILES IDX 7 13 6 14 5 15 4 16 3 17 2 18 1 19
REMARK H PARENT
REMARK Flexibility Score: inf
ROOT
ATOM      1  C   UNL     1     -16.833 -13.791 -21.794  1.00  0.00     0.000 C 
ENDROOT
BRANCH   1   2
ATOM      2  C   UNL     1     -15.879 -13.369 -22.919  1.00  0.00     0.000 C 
BRANCH   2   3
ATOM      3  C   UNL     1     -15.285 -11.980 -22.646  1.00  0.00     0.000 C 
BRANCH   3   4
ATOM      4  C   UNL     1     -13.955 -11.742 -23.383  1.00  0.00     0.000 C 
BRANCH   4   5
ATOM      5  C   UNL     1     -13.797 -10.304 -23.922  1.00  0.00     0.001 C 
BRANCH   5   6
ATOM      6  C   UNL     1     -14.995  -9.410 -23.552  1.00  0.00     0.009 C 
BRANCH   6   7
ATOM      7  C   UNL     1     -14.552  -8.039 -23.003  1.00  0.00     0.032 C 
ATOM      8  C   UNL     1     -13.117  -8.107 -22.468  1.00  0.00     0.014 C 
BRANCH   7   9
ATOM      9  C   UNL     1     -14.659  -6.963 -24.051  1.00  0.00     0.044 C 
ATOM     10  O   UNL     1     -13.853  -5.995 -24.060  1.00  0.00    -0.550 OA
ATOM     11  O   UNL     1     -15.652  -7.037 -25.020  1.00  0.00    -0.550 OA
ENDBRANCH   7   9
ENDBRANCH   6   7
ENDBRANCH   5   6
ENDBRANCH   4   5
ENDBRANCH   3   4
ENDBRANCH   2   3
ENDBRANCH   1   2
BRANCH   1  12
ATOM     12  C   UNL     1     -16.053 -14.169 -20.526  1.00  0.00     0.000 C 
BRANCH  12  13
ATOM     13  C   UNL     1     -16.394 -15.578 -20.016  1.00  0.00    -0.000 C 
BRANCH  13  14
ATOM     14  C   UNL     1     -17.448 -15.560 -18.895  1.00  0.00    -0.000 C 
BRANCH  14  15
ATOM     15  C   UNL     1     -16.879 -15.993 -17.531  1.00  0.00    -0.000 C 
BRANCH  15  16
ATOM     16  C   UNL     1     -17.735 -15.597 -16.314  1.00  0.00    -0.000 C 
BRANCH  16  17
ATOM     17  C   UNL     1     -18.307 -16.812 -15.563  1.00  0.00    -0.000 C 
BRANCH  17  18
ATOM     18  C   UNL     1     -19.262 -17.645 -16.432  1.00  0.00    -0.003 C 
ATOM     19  C   UNL     1     -20.639 -17.820 -15.791  1.00  0.00     0.004 C 
ENDBRANCH  17  18
ENDBRANCH  16  17
ENDBRANCH  15  16
ENDBRANCH  14  15
ENDBRANCH  13  14
ENDBRANCH  12  13
ENDBRANCH   1  12
TORSDOF 14
ENDMDL
