MODEL 1
REMARK VINA RESULT:    -4.539      0.000      0.000
REMARK INTER + INTRA:          -9.153
REMARK INTER:                  -8.520
REMARK INTRA:                  -0.633
REMARK UNBOUND:                -0.633
REMARK SMILES O=C([O-])CCCCCCCCCCCCCCC(=O)[O-]
REMARK SMILES IDX 10 1 9 2 8 3 7 4 6 5 5 6 4 7 2 8 1 9 3 10 11 11 12 12 13 13
REMARK SMILES IDX 14 14 15 15 16 16 17 17 18 18 19 19 20 20
REMARK H PARENT
REMARK Flexibility Score: inf
ROOT
ATOM      1  C   UNL     1     -11.209 -13.369  -1.027  1.00  0.00     0.000 C 
ENDROOT
BRANCH   1   2
ATOM      2  C   UNL     1     -12.486 -12.511  -1.083  1.00  0.00     0.000 C 
BRANCH   2   3
ATOM      3  C   UNL     1     -12.816 -11.856   0.268  1.00  0.00     0.000 C 
BRANCH   3   4
ATOM      4  C   UNL     1     -14.155 -12.340   0.847  1.00  0.00     0.000 C 
BRANCH   4   5
ATOM      5  C   UNL     1     -14.216 -12.104   2.363  1.00  0.00     0.000 C 
BRANCH   5   6
ATOM      6  C   UNL     1     -12.832 -11.876   2.996  1.00  0.00     0.006 C 
BRANCH   6   7
ATOM      7  C   UNL     1     -12.771 -10.664   3.943  1.00  0.00     0.053 C 
BRANCH   7   8
ATOM      8  C   UNL     1     -11.520 -10.641   4.769  1.00  0.00     0.041 C 
ATOM      9  O   UNL     1     -10.813  -9.600   4.818  1.00  0.00    -0.550 OA
ATOM     10  O   UNL     1     -11.115 -11.779   5.457  1.00  0.00    -0.550 OA
ENDBRANCH   7   8
ENDBRANCH   6   7
ENDBRANCH   5   6
ENDBRANCH   4   5
ENDBRANCH   3   4
ENDBRANCH   2   3
ENDBRANCH   1   2
BRANCH   1  11
ATOM     11  C   UNL     1     -10.513 -13.485  -2.393  1.00  0.00     0.000 C 
BRANCH  11  12
ATOM     12  C   UNL     1      -9.082 -12.921  -2.375  1.00  0.00     0.000 C 
BRANCH  12  13
ATOM     13  C   UNL     1      -8.213 -13.479  -3.514  1.00  0.00     0.000 C 
BRANCH  13  14
ATOM     14  C   UNL     1      -6.849 -12.778  -3.618  1.00  0.00     0.000 C 
BRANCH  14  15
ATOM     15  C   UNL     1      -5.813 -13.692  -4.283  1.00  0.00     0.000 C 
BRANCH  15  16
ATOM     16  C   UNL     1      -5.103 -12.972  -5.435  1.00  0.00     0.006 C 
BRANCH  16  17
ATOM     17  C   UNL     1      -5.946 -11.806  -5.959  1.00  0.00     0.053 C 
BRANCH  17  18
ATOM     18  C   UNL     1      -6.791 -12.246  -7.111  1.00  0.00     0.041 C 
ATOM     19  O   UNL     1      -8.006 -11.920  -7.167  1.00  0.00    -0.550 OA
ATOM     20  O   UNL     1      -6.250 -13.058  -8.100  1.00  0.00    -0.550 OA
ENDBRANCH  17  18
ENDBRANCH  16  17
ENDBRANCH  15  16
ENDBRANCH  14  15
ENDBRANCH  13  14
ENDBRANCH  12  13
ENDBRANCH  11  12
ENDBRANCH   1  11
TORSDOF 15
ENDMDL
MODEL 2
REMARK VINA RESULT:    -4.461      1.237     10.140
REMARK INTER + INTRA:          -9.005
REMARK INTER:                  -8.183
REMARK INTRA:                  -0.822
REMARK UNBOUND:                -0.633
REMARK SMILES O=C([O-])CCCCCCCCCCCCCCC(=O)[O-]
REMARK SMILES IDX 10 1 9 2 8 3 7 4 6 5 5 6 4 7 2 8 1 9 3 10 11 11 12 12 13 13
REMARK SMILES IDX 14 14 15 15 16 16 17 17 18 18 19 19 20 20
REMARK H PARENT
REMARK Flexibility Score: inf
ROOT
ATOM      1  C   UNL     1     -12.566 -13.282  -0.899  1.00  0.00     0.000 C 
ENDROOT
BRANCH   1   2
ATOM      2  C   UNL     1     -11.744 -13.244  -2.200  1.00  0.00     0.000 C 
BRANCH   2   3
ATOM      3  C   UNL     1     -10.345 -13.858  -2.031  1.00  0.00     0.000 C 
BRANCH   3   4
ATOM      4  C   UNL     1      -9.219 -12.852  -2.316  1.00  0.00     0.000 C 
BRANCH   4   5
ATOM      5  C   UNL     1      -8.208 -13.426  -3.319  1.00  0.00     0.000 C 
BRANCH   5   6
ATOM      6  C   UNL     1      -6.931 -12.577  -3.443  1.00  0.00     0.006 C 
BRANCH   6   7
ATOM      7  C   UNL     1      -5.831 -13.225  -4.303  1.00  0.00     0.053 C 
BRANCH   7   8
ATOM      8  C   UNL     1      -5.539 -12.445  -5.549  1.00  0.00     0.041 C 
ATOM      9  O   UNL     1      -6.288 -11.492  -5.890  1.00  0.00    -0.550 OA
ATOM     10  O   UNL     1      -4.460 -12.791  -6.354  1.00  0.00    -0.550 OA
ENDBRANCH   7   8
ENDBRANCH   6   7
ENDBRANCH   5   6
ENDBRANCH   4   5
ENDBRANCH   3   4
ENDBRANCH   2   3
ENDBRANCH   1   2
BRANCH   1  11
ATOM     11  C   UNL     1     -13.259 -11.943  -0.597  1.00  0.00     0.000 C 
BRANCH  11  12
ATOM     12  C   UNL     1     -13.055 -11.489   0.858  1.00  0.00     0.000 C 
BRANCH  12  13
ATOM     13  C   UNL     1     -13.003 -12.669   1.843  1.00  0.00     0.000 C 
BRANCH  13  14
ATOM     14  C   UNL     1     -13.976 -12.502   3.021  1.00  0.00     0.000 C 
BRANCH  14  15
ATOM     15  C   UNL     1     -14.316 -11.024   3.245  1.00  0.00     0.000 C 
BRANCH  15  16
ATOM     16  C   UNL     1     -13.775 -10.532   4.592  1.00  0.00     0.006 C 
BRANCH  16  17
ATOM     17  C   UNL     1     -12.312 -10.096   4.471  1.00  0.00     0.053 C 
BRANCH  17  18
ATOM     18  C   UNL     1     -11.482 -10.745   5.533  1.00  0.00     0.041 C 
ATOM     19  O   UNL     1     -10.800 -11.769   5.267  1.00  0.00    -0.550 OA
ATOM     20  O   UNL     1     -11.502 -10.249   6.830  1.00  0.00    -0.550 OA
ENDBRANCH  17  18
ENDBRANCH  16  17
ENDBRANCH  15  16
ENDBRANCH  14  15
ENDBRANCH  13  14
ENDBRANCH  12  13
ENDBRANCH  11  12
ENDBRANCH   1  11
TORSDOF 15
ENDMDL
MODEL 3
REMARK VINA RESULT:    -4.421     17.566     20.067
REMARK INTER + INTRA:          -8.931
REMARK INTER:                  -6.550
REMARK INTRA:                  -2.380
REMARK UNBOUND:                -0.633
REMARK SMILES O=C([O-])CCCCCCCCCCCCCCC(=O)[O-]
REMARK SMILES IDX 10 1 9 2 8 3 7 4 6 5 5 6 4 7 2 8 1 9 3 10 11 11 12 12 13 13
REMARK SMILES IDX 14 14 15 15 16 16 17 17 18 18 19 19 20 20
REMARK H PARENT
REMARK Flexibility Score: inf
ROOT
ATOM      1  C   UNL     1       2.520   0.171  -4.188  1.00  0.00     0.000 C 
ENDROOT
BRANCH   1   2
ATOM      2  C   UNL     1       3.641  -0.881  -4.259  1.00  0.00     0.000 C 
BRANCH   2   3
ATOM      3  C   UNL     1       3.248  -2.107  -5.099  1.00  0.00     0.000 C 
BRANCH   3   4
ATOM      4  C   UNL     1       4.318  -2.480  -6.137  1.00  0.00     0.000 C 
BRANCH   4   5
ATOM      5  C   UNL     1       3.808  -2.238  -7.564  1.00  0.00     0.000 C 
BRANCH   5   6
ATOM      6  C   UNL     1       2.288  -2.004  -7.632  1.00  0.00     0.006 C 
BRANCH   6   7
ATOM      7  C   UNL     1       1.828  -1.247  -8.892  1.00  0.00     0.053 C 
BRANCH   7   8
ATOM      8  C   UNL     1       0.438  -0.702  -8.761  1.00  0.00     0.041 C 
ATOM      9  O   UNL     1      -0.555  -1.429  -9.027  1.00  0.00    -0.550 OA
ATOM     10  O   UNL     1       0.238   0.619  -8.379  1.00  0.00    -0.550 OA
ENDBRANCH   7   8
ENDBRANCH   6   7
ENDBRANCH   5   6
ENDBRANCH   4   5
ENDBRANCH   3   4
ENDBRANCH   2   3
ENDBRANCH   1   2
BRANCH   1  11
ATOM     11  C   UNL     1       2.559   1.159  -5.366  1.00  0.00     0.000 C 
BRANCH  11  12
ATOM     12  C   UNL     1       3.986   1.631  -5.693  1.00  0.00     0.000 C 
BRANCH  12  13
ATOM     13  C   UNL     1       4.360   1.401  -7.166  1.00  0.00     0.000 C 
BRANCH  13  14
ATOM     14  C   UNL     1       3.393   2.092  -8.139  1.00  0.00     0.000 C 
BRANCH  14  15
ATOM     15  C   UNL     1       3.816   3.544  -8.393  1.00  0.00     0.000 C 
BRANCH  15  16
ATOM     16  C   UNL     1       2.612   4.491  -8.311  1.00  0.00     0.006 C 
BRANCH  16  17
ATOM     17  C   UNL     1       1.455   3.845  -7.544  1.00  0.00     0.053 C 
BRANCH  17  18
ATOM     18  C   UNL     1       1.188   4.588  -6.274  1.00  0.00     0.041 C 
ATOM     19  O   UNL     1       0.076   5.149  -6.091  1.00  0.00    -0.550 OA
ATOM     20  O   UNL     1       2.184   4.704  -5.314  1.00  0.00    -0.550 OA
ENDBRANCH  17  18
ENDBRANCH  16  17
ENDBRANCH  15  16
ENDBRANCH  14  15
ENDBRANCH  13  14
ENDBRANCH  12  13
ENDBRANCH  11  12
ENDBRANCH   1  11
TORSDOF 15
ENDMDL
MODEL 4
REMARK VINA RESULT:    -4.366     17.524     19.340
REMARK INTER + INTRA:          -8.827
REMARK INTER:                  -7.171
REMARK INTRA:                  -1.656
REMARK UNBOUND:                -0.633
REMARK SMILES O=C([O-])CCCCCCCCCCCCCCC(=O)[O-]
REMARK SMILES IDX 10 1 9 2 8 3 7 4 6 5 5 6 4 7 2 8 1 9 3 10 11 11 12 12 13 13
REMARK SMILES IDX 14 14 15 15 16 16 17 17 18 18 19 19 20 20
REMARK H PARENT
REMARK Flexibility Score: inf
ROOT
ATOM      1  C   UNL     1       2.972   0.765  -4.992  1.00  0.00     0.000 C 
ENDROOT
BRANCH   1   2
ATOM      2  C   UNL     1       4.099   1.595  -5.632  1.00  0.00     0.000 C 
BRANCH   2   3
ATOM      3  C   UNL     1       3.670   3.038  -5.939  1.00  0.00     0.000 C 
BRANCH   3   4
ATOM      4  C   UNL     1       2.153   3.171  -6.145  1.00  0.00     0.000 C 
BRANCH   4   5
ATOM      5  C   UNL     1       1.817   3.410  -7.624  1.00  0.00     0.000 C 
BRANCH   5   6
ATOM      6  C   UNL     1       0.985   4.683  -7.858  1.00  0.00     0.006 C 
BRANCH   6   7
ATOM      7  C   UNL     1      -0.535   4.464  -7.752  1.00  0.00     0.053 C 
BRANCH   7   8
ATOM      8  C   UNL     1      -1.105   4.990  -6.469  1.00  0.00     0.041 C 
ATOM      9  O   UNL     1      -0.430   5.772  -5.750  1.00  0.00    -0.550 OA
ATOM     10  O   UNL     1      -2.368   4.589  -6.048  1.00  0.00    -0.550 OA
ENDBRANCH   7   8
ENDBRANCH   6   7
ENDBRANCH   5   6
ENDBRANCH   4   5
ENDBRANCH   3   4
ENDBRANCH   2   3
ENDBRANCH   1   2
BRANCH   1  11
ATOM     11  C   UNL     1       3.502  -0.355  -4.083  1.00  0.00     0.000 C 
BRANCH  11  12
ATOM     12  C   UNL     1       3.228  -1.757  -4.653  1.00  0.00     0.000 C 
BRANCH  12  13
ATOM     13  C   UNL     1       4.393  -2.287  -5.503  1.00  0.00     0.000 C 
BRANCH  13  14
ATOM     14  C   UNL     1       4.107  -2.218  -7.012  1.00  0.00     0.000 C 
BRANCH  14  15
ATOM     15  C   UNL     1       2.613  -2.413  -7.295  1.00  0.00     0.000 C 
BRANCH  15  16
ATOM     16  C   UNL     1       2.214  -1.766  -8.626  1.00  0.00     0.006 C 
BRANCH  16  17
ATOM     17  C   UNL     1       1.703  -0.338  -8.412  1.00  0.00     0.053 C 
BRANCH  17  18
ATOM     18  C   UNL     1       0.281  -0.218  -8.861  1.00  0.00     0.041 C 
ATOM     19  O   UNL     1      -0.220   0.916  -9.082  1.00  0.00    -0.550 OA
ATOM     20  O   UNL     1      -0.507  -1.355  -8.988  1.00  0.00    -0.550 OA
ENDBRANCH  17  18
ENDBRANCH  16  17
ENDBRANCH  15  16
ENDBRANCH  14  15
ENDBRANCH  13  14
ENDBRANCH  12  13
ENDBRANCH  11  12
ENDBRANCH   1  11
TORSDOF 15
ENDMDL
MODEL 5
REMARK VINA RESULT:    -4.340      1.424      2.437
REMARK INTER + INTRA:          -8.778
REMARK INTER:                  -8.094
REMARK INTRA:                  -0.684
REMARK UNBOUND:                -0.633
REMARK SMILES O=C([O-])CCCCCCCCCCCCCCC(=O)[O-]
REMARK SMILES IDX 10 1 9 2 8 3 7 4 6 5 5 6 4 7 2 8 1 9 3 10 11 11 12 12 13 13
REMARK SMILES IDX 14 14 15 15 16 16 17 17 18 18 19 19 20 20
REMARK H PARENT
REMARK Flexibility Score: inf
ROOT
ATOM      1  C   UNL     1     -13.244 -11.769  -1.000  1.00  0.00     0.000 C 
ENDROOT
BRANCH   1   2
ATOM      2  C   UNL     1     -13.262 -11.527   0.520  1.00  0.00     0.000 C 
BRANCH   2   3
ATOM      3  C   UNL     1     -12.780 -12.748   1.318  1.00  0.00     0.000 C 
BRANCH   3   4
ATOM      4  C   UNL     1     -12.892 -12.543   2.837  1.00  0.00     0.000 C 
BRANCH   4   5
ATOM      5  C   UNL     1     -13.358 -11.117   3.167  1.00  0.00     0.000 C 
BRANCH   5   6
ATOM      6  C   UNL     1     -12.361 -10.344   4.048  1.00  0.00     0.006 C 
BRANCH   6   7
ATOM      7  C   UNL     1     -12.941  -9.893   5.400  1.00  0.00     0.053 C 
BRANCH   7   8
ATOM      8  C   UNL     1     -11.962 -10.040   6.525  1.00  0.00     0.041 C 
ATOM      9  O   UNL     1     -11.402 -11.148   6.737  1.00  0.00    -0.550 OA
ATOM     10  O   UNL     1     -11.692  -8.964   7.363  1.00  0.00    -0.550 OA
ENDBRANCH   7   8
ENDBRANCH   6   7
ENDBRANCH   5   6
ENDBRANCH   4   5
ENDBRANCH   3   4
ENDBRANCH   2   3
ENDBRANCH   1   2
BRANCH   1  11
ATOM     11  C   UNL     1     -12.126 -12.730  -1.434  1.00  0.00     0.000 C 
BRANCH  11  12
ATOM     12  C   UNL     1     -12.230 -13.126  -2.917  1.00  0.00     0.000 C 
BRANCH  12  13
ATOM     13  C   UNL     1     -10.856 -13.240  -3.595  1.00  0.00     0.000 C 
BRANCH  13  14
ATOM     14  C   UNL     1      -9.691 -12.999  -2.622  1.00  0.00     0.000 C 
BRANCH  14  15
ATOM     15  C   UNL     1      -8.397 -13.631  -3.148  1.00  0.00     0.000 C 
BRANCH  15  16
ATOM     16  C   UNL     1      -7.302 -12.573  -3.332  1.00  0.00     0.006 C 
BRANCH  16  17
ATOM     17  C   UNL     1      -6.094 -13.155  -4.070  1.00  0.00     0.053 C 
BRANCH  17  18
ATOM     18  C   UNL     1      -5.758 -12.321  -5.265  1.00  0.00     0.041 C 
ATOM     19  O   UNL     1      -6.254 -11.171  -5.395  1.00  0.00    -0.550 OA
ATOM     20  O   UNL     1      -4.936 -12.832  -6.261  1.00  0.00    -0.550 OA
ENDBRANCH  17  18
ENDBRANCH  16  17
ENDBRANCH  15  16
ENDBRANCH  14  15
ENDBRANCH  13  14
ENDBRANCH  12  13
ENDBRANCH  11  12
ENDBRANCH   1  11
TORSDOF 15
ENDMDL
MODEL 6
REMARK VINA RESULT:    -4.318      5.530      7.571
REMARK INTER + INTRA:          -8.738
REMARK INTER:                  -6.515
REMARK INTRA:                  -2.222
REMARK UNBOUND:                -0.633
REMARK SMILES O=C([O-])CCCCCCCCCCCCCCC(=O)[O-]
REMARK SMILES IDX 10 1 9 2 8 3 7 4 6 5 5 6 4 7 2 8 1 9 3 10 11 11 12 12 13 13
REMARK SMILES IDX 14 14 15 15 16 16 17 17 18 18 19 19 20 20
REMARK H PARENT
REMARK Flexibility Score: inf
ROOT
ATOM      1  C   UNL     1     -11.573 -10.568   4.751  1.00  0.00     0.000 C 
ENDROOT
BRANCH   1   2
ATOM      2  C   UNL     1     -12.873  -9.920   4.244  1.00  0.00     0.000 C 
BRANCH   2   3
ATOM      3  C   UNL     1     -14.123 -10.481   4.941  1.00  0.00     0.000 C 
BRANCH   3   4
ATOM      4  C   UNL     1     -14.832  -9.435   5.814  1.00  0.00     0.000 C 
BRANCH   4   5
ATOM      5  C   UNL     1     -14.613  -9.723   7.306  1.00  0.00     0.000 C 
BRANCH   5   6
ATOM      6  C   UNL     1     -13.718  -8.680   7.998  1.00  0.00     0.006 C 
BRANCH   6   7
ATOM      7  C   UNL     1     -12.229  -9.067   8.046  1.00  0.00     0.053 C 
BRANCH   7   8
ATOM      8  C   UNL     1     -11.925 -10.052   9.133  1.00  0.00     0.041 C 
ATOM      9  O   UNL     1     -11.077 -10.964   8.944  1.00  0.00    -0.550 OA
ATOM     10  O   UNL     1     -12.603  -9.988  10.345  1.00  0.00    -0.550 OA
ENDBRANCH   7   8
ENDBRANCH   6   7
ENDBRANCH   5   6
ENDBRANCH   4   5
ENDBRANCH   3   4
ENDBRANCH   2   3
ENDBRANCH   1   2
BRANCH   1  11
ATOM     11  C   UNL     1     -11.824 -11.866   5.536  1.00  0.00     0.000 C 
BRANCH  11  12
ATOM     12  C   UNL     1     -10.946 -13.031   5.046  1.00  0.00     0.000 C 
BRANCH  12  13
ATOM     13  C   UNL     1     -11.609 -13.835   3.916  1.00  0.00     0.000 C 
BRANCH  13  14
ATOM     14  C   UNL     1     -13.126 -13.989   4.108  1.00  0.00     0.000 C 
BRANCH  14  15
ATOM     15  C   UNL     1     -13.891 -13.427   2.904  1.00  0.00     0.000 C 
BRANCH  15  16
ATOM     16  C   UNL     1     -12.961 -13.239   1.700  1.00  0.00     0.006 C 
BRANCH  16  17
ATOM     17  C   UNL     1     -13.127 -11.845   1.088  1.00  0.00     0.053 C 
BRANCH  17  18
ATOM     18  C   UNL     1     -12.851 -11.880  -0.381  1.00  0.00     0.041 C 
ATOM     19  O   UNL     1     -13.641 -11.323  -1.188  1.00  0.00    -0.550 OA
ATOM     20  O   UNL     1     -11.748 -12.571  -0.865  1.00  0.00    -0.550 OA
ENDBRANCH  17  18
ENDBRANCH  16  17
ENDBRANCH  15  16
ENDBRANCH  14  15
ENDBRANCH  13  14
ENDBRANCH  12  13
ENDBRANCH  11  12
ENDBRANCH   1  11
TORSDOF 15
ENDMDL
MODEL 7
REMARK VINA RESULT:    -4.291      5.527     10.919
REMARK INTER + INTRA:          -8.687
REMARK INTER:                  -6.750
REMARK INTRA:                  -1.937
REMARK UNBOUND:                -0.633
REMARK SMILES O=C([O-])CCCCCCCCCCCCCCC(=O)[O-]
REMARK SMILES IDX 10 1 9 2 8 3 7 4 6 5 5 6 4 7 2 8 1 9 3 10 11 11 12 12 13 13
REMARK SMILES IDX 14 14 15 15 16 16 17 17 18 18 19 19 20 20
REMARK H PARENT
REMARK Flexibility Score: inf
ROOT
ATOM      1  C   UNL     1     -11.199 -11.430   5.130  1.00  0.00     0.000 C 
ENDROOT
BRANCH   1   2
ATOM      2  C   UNL     1     -12.197 -12.567   4.846  1.00  0.00     0.000 C 
BRANCH   2   3
ATOM      3  C   UNL     1     -11.603 -13.663   3.945  1.00  0.00     0.000 C 
BRANCH   3   4
ATOM      4  C   UNL     1     -12.295 -13.740   2.575  1.00  0.00     0.000 C 
BRANCH   4   5
ATOM      5  C   UNL     1     -13.783 -13.379   2.689  1.00  0.00     0.000 C 
BRANCH   5   6
ATOM      6  C   UNL     1     -14.257 -12.413   1.588  1.00  0.00     0.006 C 
BRANCH   6   7
ATOM      7  C   UNL     1     -13.116 -11.644   0.898  1.00  0.00     0.053 C 
BRANCH   7   8
ATOM      8  C   UNL     1     -12.999 -11.972  -0.559  1.00  0.00     0.041 C 
ATOM      9  O   UNL     1     -12.213 -12.878  -0.944  1.00  0.00    -0.550 OA
ATOM     10  O   UNL     1     -13.731 -11.255  -1.499  1.00  0.00    -0.550 OA
ENDBRANCH   7   8
ENDBRANCH   6   7
ENDBRANCH   5   6
ENDBRANCH   4   5
ENDBRANCH   3   4
ENDBRANCH   2   3
ENDBRANCH   1   2
BRANCH   1  11
ATOM     11  C   UNL     1     -11.852 -10.040   5.067  1.00  0.00     0.000 C 
BRANCH  11  12
ATOM     12  C   UNL     1     -13.028  -9.985   4.076  1.00  0.00     0.000 C 
BRANCH  12  13
ATOM     13  C   UNL     1     -14.334  -9.513   4.736  1.00  0.00     0.000 C 
BRANCH  13  14
ATOM     14  C   UNL     1     -14.496 -10.038   6.171  1.00  0.00     0.000 C 
BRANCH  14  15
ATOM     15  C   UNL     1     -14.907  -8.908   7.124  1.00  0.00     0.000 C 
BRANCH  15  16
ATOM     16  C   UNL     1     -14.254  -9.083   8.500  1.00  0.00     0.006 C 
BRANCH  16  17
ATOM     17  C   UNL     1     -12.735  -8.904   8.415  1.00  0.00     0.053 C 
BRANCH  17  18
ATOM     18  C   UNL     1     -12.034 -10.091   8.994  1.00  0.00     0.041 C 
ATOM     19  O   UNL     1     -10.948 -10.490   8.498  1.00  0.00    -0.550 OA
ATOM     20  O   UNL     1     -12.606 -10.790  10.050  1.00  0.00    -0.550 OA
ENDBRANCH  17  18
ENDBRANCH  16  17
ENDBRANCH  15  16
ENDBRANCH  14  15
ENDBRANCH  13  14
ENDBRANCH  12  13
ENDBRANCH  11  12
ENDBRANCH   1  11
TORSDOF 15
ENDMDL
MODEL 8
REMARK VINA RESULT:    -4.257     17.398     19.773
REMARK INTER + INTRA:          -8.623
REMARK INTER:                  -6.809
REMARK INTRA:                  -1.814
REMARK UNBOUND:                -0.633
REMARK SMILES O=C([O-])CCCCCCCCCCCCCCC(=O)[O-]
REMARK SMILES IDX 10 1 9 2 8 3 7 4 6 5 5 6 4 7 2 8 1 9 3 10 11 11 12 12 13 13
REMARK SMILES IDX 14 14 15 15 16 16 17 17 18 18 19 19 20 20
REMARK H PARENT
REMARK Flexibility Score: inf
ROOT
ATOM      1  C   UNL     1       2.834   0.101  -4.132  1.00  0.00     0.000 C 
ENDROOT
BRANCH   1   2
ATOM      2  C   UNL     1       3.757  -1.125  -4.253  1.00  0.00     0.000 C 
BRANCH   2   3
ATOM      3  C   UNL     1       3.264  -2.134  -5.303  1.00  0.00     0.000 C 
BRANCH   3   4
ATOM      4  C   UNL     1       4.291  -2.372  -6.421  1.00  0.00     0.000 C 
BRANCH   4   5
ATOM      5  C   UNL     1       3.595  -2.577  -7.773  1.00  0.00     0.000 C 
BRANCH   5   6
ATOM      6  C   UNL     1       2.107  -2.186  -7.753  1.00  0.00     0.006 C 
BRANCH   6   7
ATOM      7  C   UNL     1       1.643  -1.425  -9.009  1.00  0.00     0.053 C 
BRANCH   7   8
ATOM      8  C   UNL     1       0.254  -0.880  -8.872  1.00  0.00     0.041 C 
ATOM      9  O   UNL     1       0.072   0.353  -8.694  1.00  0.00    -0.550 OA
ATOM     10  O   UNL     1      -0.840  -1.737  -8.905  1.00  0.00    -0.550 OA
ENDBRANCH   7   8
ENDBRANCH   6   7
ENDBRANCH   5   6
ENDBRANCH   4   5
ENDBRANCH   3   4
ENDBRANCH   2   3
ENDBRANCH   1   2
BRANCH   1  11
ATOM     11  C   UNL     1       3.299   1.279  -5.003  1.00  0.00     0.000 C 
BRANCH  11  12
ATOM     12  C   UNL     1       2.388   1.507  -6.221  1.00  0.00     0.000 C 
BRANCH  12  13
ATOM     13  C   UNL     1       3.163   1.493  -7.549  1.00  0.00     0.000 C 
BRANCH  13  14
ATOM     14  C   UNL     1       2.769   2.651  -8.479  1.00  0.00     0.000 C 
BRANCH  14  15
ATOM     15  C   UNL     1       2.586   3.951  -7.688  1.00  0.00     0.000 C 
BRANCH  15  16
ATOM     16  C   UNL     1       1.211   4.573  -7.960  1.00  0.00     0.006 C 
BRANCH  16  17
ATOM     17  C   UNL     1       0.407   4.719  -6.664  1.00  0.00     0.053 C 
BRANCH  17  18
ATOM     18  C   UNL     1      -1.058   4.612  -6.941  1.00  0.00     0.041 C 
ATOM     19  O   UNL     1      -1.889   4.684  -5.997  1.00  0.00    -0.550 OA
ATOM     20  O   UNL     1      -1.506   4.383  -8.236  1.00  0.00    -0.550 OA
ENDBRANCH  17  18
ENDBRANCH  16  17
ENDBRANCH  15  16
ENDBRANCH  14  15
ENDBRANCH  13  14
ENDBRANCH  12  13
ENDBRANCH  11  12
ENDBRANCH   1  11
TORSDOF 15
ENDMDL
MODEL 9
REMARK VINA RESULT:    -4.240      0.906     10.382
REMARK INTER + INTRA:          -8.592
REMARK INTER:                  -7.912
REMARK INTRA:                  -0.680
REMARK UNBOUND:                -0.633
REMARK SMILES O=C([O-])CCCCCCCCCCCCCCC(=O)[O-]
REMARK SMILES IDX 10 1 9 2 8 3 7 4 6 5 5 6 4 7 2 8 1 9 3 10 11 11 12 12 13 13
REMARK SMILES IDX 14 14 15 15 16 16 17 17 18 18 19 19 20 20
REMARK H PARENT
REMARK Flexibility Score: inf
ROOT
ATOM      1  C   UNL     1      -9.239 -12.982  -2.372  1.00  0.00     0.000 C 
ENDROOT
BRANCH   1   2
ATOM      2  C   UNL     1      -8.889 -13.577  -3.747  1.00  0.00     0.000 C 
BRANCH   2   3
ATOM      3  C   UNL     1      -7.393 -13.901  -3.887  1.00  0.00     0.000 C 
BRANCH   3   4
ATOM      4  C   UNL     1      -6.534 -12.645  -4.099  1.00  0.00     0.000 C 
BRANCH   4   5
ATOM      5  C   UNL     1      -5.420 -12.907  -5.123  1.00  0.00     0.000 C 
BRANCH   5   6
ATOM      6  C   UNL     1      -5.660 -12.203  -6.471  1.00  0.00     0.006 C 
BRANCH   6   7
ATOM      7  C   UNL     1      -6.573 -12.986  -7.431  1.00  0.00     0.053 C 
BRANCH   7   8
ATOM      8  C   UNL     1      -7.785 -12.205  -7.839  1.00  0.00     0.041 C 
ATOM      9  O   UNL     1      -7.787 -11.556  -8.918  1.00  0.00    -0.550 OA
ATOM     10  O   UNL     1      -8.901 -12.162  -7.011  1.00  0.00    -0.550 OA
ENDBRANCH   7   8
ENDBRANCH   6   7
ENDBRANCH   5   6
ENDBRANCH   4   5
ENDBRANCH   3   4
ENDBRANCH   2   3
ENDBRANCH   1   2
BRANCH   1  11
ATOM     11  C   UNL     1     -10.318 -13.790  -1.634  1.00  0.00     0.000 C 
BRANCH  11  12
ATOM     12  C   UNL     1     -11.603 -12.978  -1.395  1.00  0.00     0.000 C 
BRANCH  12  13
ATOM     13  C   UNL     1     -12.101 -13.073   0.056  1.00  0.00     0.000 C 
BRANCH  13  14
ATOM     14  C   UNL     1     -13.211 -12.058   0.371  1.00  0.00     0.000 C 
BRANCH  14  15
ATOM     15  C   UNL     1     -13.653 -12.166   1.835  1.00  0.00     0.000 C 
BRANCH  15  16
ATOM     16  C   UNL     1     -12.932 -11.132   2.706  1.00  0.00     0.006 C 
BRANCH  16  17
ATOM     17  C   UNL     1     -12.921 -11.562   4.176  1.00  0.00     0.053 C 
BRANCH  17  18
ATOM     18  C   UNL     1     -11.610 -11.223   4.812  1.00  0.00     0.041 C 
ATOM     19  O   UNL     1     -10.970 -12.099   5.451  1.00  0.00    -0.550 OA
ATOM     20  O   UNL     1     -11.118  -9.926   4.742  1.00  0.00    -0.550 OA
ENDBRANCH  17  18
ENDBRANCH  16  17
ENDBRANCH  15  16
ENDBRANCH  14  15
ENDBRANCH  13  14
ENDBRANCH  12  13
ENDBRANCH  11  12
ENDBRANCH   1  11
TORSDOF 15
ENDMDL
