MODEL 1
REMARK VINA RESULT:    -6.375      0.000      0.000
REMARK INTER + INTRA:         -10.145
REMARK INTER:                  -8.425
REMARK INTRA:                  -1.721
REMARK UNBOUND:                -1.721
REMARK SMILES CC[C@H](C=C[C@@H](C)[C@H]1CC[C@H]2[C@H]3CC=C4C[C@@H](O)CC[C@@]4(C)[C@H]3CC[C@@]12C)C(C)C
REMARK SMILES IDX 6 1 7 2 5 3 4 4 3 5 2 6 1 7 28 8 29 9 30 10 8 11 9 12 26 13
REMARK SMILES IDX 10 14 11 15 25 16 27 17 12 18 24 19 23 20 13 21 21 22 14 23
REMARK SMILES IDX 15 24 20 25 22 26 16 27 19 28 17 29 18 30
REMARK H PARENT 18 31
REMARK Flexibility Score: inf
ROOT
ATOM      1  C   UNL     1     161.558 161.475 182.508  1.00  0.00     0.012 C 
ATOM      2  C   UNL     1     160.677 161.691 183.751  1.00  0.00     0.012 C 
ENDROOT
BRANCH   1   3
ATOM      3  C   UNL     1     162.983 161.819 182.892  1.00  0.00    -0.028 C 
ATOM      4  C   UNL     1     163.999 160.975 182.643  1.00  0.00    -0.027 C 
BRANCH   4   5
ATOM      5  C   UNL     1     165.415 161.274 183.094  1.00  0.00     0.014 C 
BRANCH   5   6
ATOM      6  C   UNL     1     166.025 160.039 183.801  1.00  0.00     0.004 C 
ATOM      7  C   UNL     1     167.408 160.327 184.386  1.00  0.00     0.004 C 
ENDBRANCH   5   6
BRANCH   5   8
ATOM      8  C   UNL     1     166.268 161.784 181.891  1.00  0.00    -0.011 C 
ATOM      9  C   UNL     1     165.969 163.241 181.493  1.00  0.00     0.008 C 
ATOM     10  C   UNL     1     166.130 160.867 180.665  1.00  0.00     0.008 C 
ENDBRANCH   5   8
ENDBRANCH   4   5
ENDBRANCH   1   3
BRANCH   1  11
ATOM     11  C   UNL     1     161.089 162.334 181.283  1.00  0.00     0.002 C 
ATOM     12  C   UNL     1     161.749 163.714 181.263  1.00  0.00     0.005 C 
ATOM     13  C   UNL     1     161.325 161.770 179.835  1.00  0.00    -0.026 C 
ATOM     14  C   UNL     1     161.473 164.265 179.881  1.00  0.00     0.005 C 
ATOM     15  C   UNL     1     161.450 163.052 178.939  1.00  0.00    -0.001 C 
ATOM     16  C   UNL     1     162.613 160.907 179.733  1.00  0.00     0.007 C 
ATOM     17  C   UNL     1     160.099 160.929 179.387  1.00  0.00     0.012 C 
ATOM     18  C   UNL     1     162.603 163.042 177.877  1.00  0.00     0.000 C 
ATOM     19  C   UNL     1     163.022 160.548 178.291  1.00  0.00     0.005 C 
ATOM     20  C   UNL     1     162.723 161.645 177.221  1.00  0.00     0.003 C 
ATOM     21  C   UNL     1     163.987 163.574 178.357  1.00  0.00     0.031 C 
ATOM     22  C   UNL     1     163.773 161.674 176.051  1.00  0.00    -0.008 C 
ATOM     23  C   UNL     1     165.188 163.013 177.626  1.00  0.00    -0.027 C 
ATOM     24  C   UNL     1     165.118 162.131 176.604  1.00  0.00    -0.065 C 
ATOM     25  C   UNL     1     163.921 160.260 175.410  1.00  0.00     0.014 C 
ATOM     26  C   UNL     1     163.309 162.666 174.946  1.00  0.00     0.016 C 
ATOM     27  C   UNL     1     166.391 161.488 176.097  1.00  0.00     0.063 C 
ATOM     28  C   UNL     1     165.054 160.153 174.363  1.00  0.00     0.033 C 
ATOM     29  C   UNL     1     166.262 161.089 174.623  1.00  0.00     0.118 C 
BRANCH  29  30
ATOM     30  O   UNL     1     167.451 160.465 174.212  1.00  0.00    -0.393 OA
ATOM     31  H   UNL     1     167.920 161.107 173.617  1.00  0.00     0.210 HD
ENDBRANCH  29  30
ENDBRANCH   1  11
TORSDOF 6
ENDMDL
MODEL 2
REMARK VINA RESULT:    -6.361      4.196      7.296
REMARK INTER + INTRA:         -10.127
REMARK INTER:                  -9.179
REMARK INTRA:                  -0.948
REMARK UNBOUND:                -1.721
REMARK SMILES CC[C@H](C=C[C@@H](C)[C@H]1CC[C@H]2[C@H]3CC=C4C[C@@H](O)CC[C@@]4(C)[C@H]3CC[C@@]12C)C(C)C
REMARK SMILES IDX 6 1 7 2 5 3 4 4 3 5 2 6 1 7 28 8 29 9 30 10 8 11 9 12 26 13
REMARK SMILES IDX 10 14 11 15 25 16 27 17 12 18 24 19 23 20 13 21 21 22 14 23
REMARK SMILES IDX 15 24 20 25 22 26 16 27 19 28 17 29 18 30
REMARK H PARENT 18 31
REMARK Flexibility Score: inf
ROOT
ATOM      1  C   UNL     1     169.498 161.582 182.002  1.00  0.00     0.012 C 
ATOM      2  C   UNL     1     169.716 160.062 181.905  1.00  0.00     0.012 C 
ENDROOT
BRANCH   1   3
ATOM      3  C   UNL     1     170.857 162.229 182.180  1.00  0.00    -0.028 C 
ATOM      4  C   UNL     1     171.992 161.534 181.999  1.00  0.00    -0.027 C 
BRANCH   4   5
ATOM      5  C   UNL     1     173.354 162.149 182.251  1.00  0.00     0.014 C 
BRANCH   5   6
ATOM      6  C   UNL     1     173.201 163.593 182.789  1.00  0.00     0.004 C 
ATOM      7  C   UNL     1     173.769 164.637 181.827  1.00  0.00     0.004 C 
ENDBRANCH   5   6
BRANCH   5   8
ATOM      8  C   UNL     1     174.199 161.226 183.185  1.00  0.00    -0.011 C 
ATOM      9  C   UNL     1     175.635 160.989 182.688  1.00  0.00     0.008 C 
ATOM     10  C   UNL     1     173.501 159.879 183.437  1.00  0.00     0.008 C 
ENDBRANCH   5   8
ENDBRANCH   4   5
ENDBRANCH   1   3
BRANCH   1  11
ATOM     11  C   UNL     1     168.536 161.977 183.176  1.00  0.00     0.002 C 
ATOM     12  C   UNL     1     168.497 163.490 183.403  1.00  0.00     0.005 C 
ATOM     13  C   UNL     1     167.024 161.561 183.082  1.00  0.00    -0.026 C 
ATOM     14  C   UNL     1     167.302 163.726 184.300  1.00  0.00     0.005 C 
ATOM     15  C   UNL     1     166.271 162.652 183.922  1.00  0.00    -0.001 C 
ATOM     16  C   UNL     1     166.499 161.542 181.620  1.00  0.00     0.007 C 
ATOM     17  C   UNL     1     166.817 160.163 183.726  1.00  0.00     0.012 C 
ATOM     18  C   UNL     1     164.953 163.220 183.291  1.00  0.00     0.000 C 
ATOM     19  C   UNL     1     164.971 161.391 181.497  1.00  0.00     0.005 C 
ATOM     20  C   UNL     1     164.140 162.086 182.622  1.00  0.00     0.003 C 
ATOM     21  C   UNL     1     165.116 164.448 182.346  1.00  0.00     0.031 C 
ATOM     22  C   UNL     1     162.749 162.625 182.124  1.00  0.00    -0.008 C 
ATOM     23  C   UNL     1     164.043 164.602 181.289  1.00  0.00    -0.027 C 
ATOM     24  C   UNL     1     162.983 163.774 181.150  1.00  0.00    -0.065 C 
ATOM     25  C   UNL     1     161.941 161.493 181.418  1.00  0.00     0.014 C 
ATOM     26  C   UNL     1     161.916 163.141 183.333  1.00  0.00     0.016 C 
ATOM     27  C   UNL     1     162.098 163.909 179.929  1.00  0.00     0.063 C 
ATOM     28  C   UNL     1     160.633 161.971 180.747  1.00  0.00     0.033 C 
ATOM     29  C   UNL     1     160.673 163.428 180.221  1.00  0.00     0.118 C 
BRANCH  29  30
ATOM     30  O   UNL     1     159.904 163.538 179.052  1.00  0.00    -0.393 OA
ATOM     31  H   UNL     1     160.139 164.409 178.635  1.00  0.00     0.210 HD
ENDBRANCH  29  30
ENDBRANCH   1  11
TORSDOF 6
ENDMDL
MODEL 3
REMARK VINA RESULT:    -6.036     14.399     16.940
REMARK INTER + INTRA:          -9.698
REMARK INTER:                  -8.652
REMARK INTRA:                  -1.046
REMARK UNBOUND:                -1.721
REMARK SMILES CC[C@H](C=C[C@@H](C)[C@H]1CC[C@H]2[C@H]3CC=C4C[C@@H](O)CC[C@@]4(C)[C@H]3CC[C@@]12C)C(C)C
REMARK SMILES IDX 6 1 7 2 5 3 4 4 3 5 2 6 1 7 28 8 29 9 30 10 8 11 9 12 26 13
REMARK SMILES IDX 10 14 11 15 25 16 27 17 12 18 24 19 23 20 13 21 21 22 14 23
REMARK SMILES IDX 15 24 20 25 22 26 16 27 19 28 17 29 18 30
REMARK H PARENT 18 31
REMARK Flexibility Score: inf
ROOT
ATOM      1  C   UNL     1     164.777 176.192 181.352  1.00  0.00     0.012 C 
ATOM      2  C   UNL     1     163.923 176.660 180.160  1.00  0.00     0.012 C 
ENDROOT
BRANCH   1   3
ATOM      3  C   UNL     1     163.905 175.306 182.219  1.00  0.00    -0.028 C 
ATOM      4  C   UNL     1     162.658 174.972 181.848  1.00  0.00    -0.027 C 
BRANCH   4   5
ATOM      5  C   UNL     1     161.750 174.153 182.743  1.00  0.00     0.014 C 
BRANCH   5   6
ATOM      6  C   UNL     1     160.652 175.052 183.362  1.00  0.00     0.004 C 
ATOM      7  C   UNL     1     160.476 176.366 182.600  1.00  0.00     0.004 C 
ENDBRANCH   5   6
BRANCH   5   8
ATOM      8  C   UNL     1     161.180 172.929 181.960  1.00  0.00    -0.011 C 
ATOM      9  C   UNL     1     160.795 173.250 180.505  1.00  0.00     0.008 C 
ATOM     10  C   UNL     1     159.988 172.289 182.691  1.00  0.00     0.008 C 
ENDBRANCH   5   8
ENDBRANCH   4   5
ENDBRANCH   1   3
BRANCH   1  11
ATOM     11  C   UNL     1     165.354 177.390 182.184  1.00  0.00     0.002 C 
ATOM     12  C   UNL     1     165.832 176.949 183.569  1.00  0.00     0.005 C 
ATOM     13  C   UNL     1     166.564 178.200 181.596  1.00  0.00    -0.026 C 
ATOM     14  C   UNL     1     166.653 178.107 184.092  1.00  0.00     0.005 C 
ATOM     15  C   UNL     1     167.313 178.748 182.862  1.00  0.00    -0.001 C 
ATOM     16  C   UNL     1     167.516 177.317 180.741  1.00  0.00     0.007 C 
ATOM     17  C   UNL     1     166.044 179.384 180.737  1.00  0.00     0.012 C 
ATOM     18  C   UNL     1     168.877 178.636 182.841  1.00  0.00     0.000 C 
ATOM     19  C   UNL     1     168.842 178.001 180.359  1.00  0.00     0.005 C 
ATOM     20  C   UNL     1     169.425 178.973 181.433  1.00  0.00     0.003 C 
ATOM     21  C   UNL     1     169.480 177.310 183.393  1.00  0.00     0.031 C 
ATOM     22  C   UNL     1     170.996 179.012 181.448  1.00  0.00    -0.008 C 
ATOM     23  C   UNL     1     170.832 176.927 182.828  1.00  0.00    -0.027 C 
ATOM     24  C   UNL     1     171.520 177.662 181.927  1.00  0.00    -0.065 C 
ATOM     25  C   UNL     1     171.553 179.317 180.024  1.00  0.00     0.014 C 
ATOM     26  C   UNL     1     171.491 180.125 182.417  1.00  0.00     0.016 C 
ATOM     27  C   UNL     1     172.758 177.071 181.285  1.00  0.00     0.063 C 
ATOM     28  C   UNL     1     173.092 179.208 179.907  1.00  0.00     0.033 C 
ATOM     29  C   UNL     1     173.739 178.168 180.857  1.00  0.00     0.118 C 
BRANCH  29  30
ATOM     30  O   UNL     1     174.848 177.574 180.235  1.00  0.00    -0.393 OA
ATOM     31  H   UNL     1     175.321 177.050 180.934  1.00  0.00     0.210 HD
ENDBRANCH  29  30
ENDBRANCH   1  11
TORSDOF 6
ENDMDL
MODEL 4
REMARK VINA RESULT:    -5.881     16.432     18.882
REMARK INTER + INTRA:          -9.493
REMARK INTER:                  -7.918
REMARK INTRA:                  -1.575
REMARK UNBOUND:                -1.721
REMARK SMILES CC[C@H](C=C[C@@H](C)[C@H]1CC[C@H]2[C@H]3CC=C4C[C@@H](O)CC[C@@]4(C)[C@H]3CC[C@@]12C)C(C)C
REMARK SMILES IDX 6 1 7 2 5 3 4 4 3 5 2 6 1 7 28 8 29 9 30 10 8 11 9 12 26 13
REMARK SMILES IDX 10 14 11 15 25 16 27 17 12 18 24 19 23 20 13 21 21 22 14 23
REMARK SMILES IDX 15 24 20 25 22 26 16 27 19 28 17 29 18 30
REMARK H PARENT 18 31
REMARK Flexibility Score: inf
ROOT
ATOM      1  C   UNL     1     176.503 175.628 182.960  1.00  0.00     0.012 C 
ATOM      2  C   UNL     1     176.756 175.621 184.478  1.00  0.00     0.012 C 
ENDROOT
BRANCH   1   3
ATOM      3  C   UNL     1     175.169 176.307 182.722  1.00  0.00    -0.028 C 
ATOM      4  C   UNL     1     175.063 177.381 181.922  1.00  0.00    -0.027 C 
BRANCH   4   5
ATOM      5  C   UNL     1     173.750 178.115 181.739  1.00  0.00     0.014 C 
BRANCH   5   6
ATOM      6  C   UNL     1     173.908 179.605 182.131  1.00  0.00     0.004 C 
ATOM      7  C   UNL     1     172.854 180.058 183.141  1.00  0.00     0.004 C 
ENDBRANCH   5   6
BRANCH   5   8
ATOM      8  C   UNL     1     173.212 177.910 180.288  1.00  0.00    -0.011 C 
ATOM      9  C   UNL     1     174.018 176.886 179.469  1.00  0.00     0.008 C 
ATOM     10  C   UNL     1     173.119 179.239 179.521  1.00  0.00     0.008 C 
ENDBRANCH   5   8
ENDBRANCH   4   5
ENDBRANCH   1   3
BRANCH   1  11
ATOM     11  C   UNL     1     176.511 174.186 182.343  1.00  0.00     0.002 C 
ATOM     12  C   UNL     1     175.122 173.757 181.868  1.00  0.00     0.005 C 
ATOM     13  C   UNL     1     177.447 173.899 181.114  1.00  0.00    -0.026 C 
ATOM     14  C   UNL     1     175.357 172.533 181.010  1.00  0.00     0.005 C 
ATOM     15  C   UNL     1     176.724 172.741 180.341  1.00  0.00    -0.001 C 
ATOM     16  C   UNL     1     177.623 175.140 180.195  1.00  0.00     0.007 C 
ATOM     17  C   UNL     1     178.838 173.418 181.607  1.00  0.00     0.012 C 
ATOM     18  C   UNL     1     176.659 172.887 178.781  1.00  0.00     0.000 C 
ATOM     19  C   UNL     1     178.316 174.840 178.852  1.00  0.00     0.005 C 
ATOM     20  C   UNL     1     177.997 173.442 178.234  1.00  0.00     0.003 C 
ATOM     21  C   UNL     1     175.436 173.665 178.212  1.00  0.00     0.031 C 
ATOM     22  C   UNL     1     177.990 173.445 176.662  1.00  0.00    -0.008 C 
ATOM     23  C   UNL     1     175.660 174.341 176.876  1.00  0.00    -0.027 C 
ATOM     24  C   UNL     1     176.813 174.282 176.173  1.00  0.00    -0.065 C 
ATOM     25  C   UNL     1     179.322 174.036 176.107  1.00  0.00     0.014 C 
ATOM     26  C   UNL     1     177.839 171.991 176.129  1.00  0.00     0.016 C 
ATOM     27  C   UNL     1     176.981 175.170 174.958  1.00  0.00     0.063 C 
ATOM     28  C   UNL     1     179.338 174.235 174.573  1.00  0.00     0.033 C 
ATOM     29  C   UNL     1     177.955 174.550 173.949  1.00  0.00     0.118 C 
BRANCH  29  30
ATOM     30  O   UNL     1     178.106 175.425 172.862  1.00  0.00    -0.393 OA
ATOM     31  H   UNL     1     178.574 176.231 173.206  1.00  0.00     0.210 HD
ENDBRANCH  29  30
ENDBRANCH   1  11
TORSDOF 6
ENDMDL
MODEL 5
REMARK VINA RESULT:    -5.808     11.231     13.813
REMARK INTER + INTRA:          -9.396
REMARK INTER:                  -7.801
REMARK INTRA:                  -1.594
REMARK UNBOUND:                -1.721
REMARK SMILES CC[C@H](C=C[C@@H](C)[C@H]1CC[C@H]2[C@H]3CC=C4C[C@@H](O)CC[C@@]4(C)[C@H]3CC[C@@]12C)C(C)C
REMARK SMILES IDX 6 1 7 2 5 3 4 4 3 5 2 6 1 7 28 8 29 9 30 10 8 11 9 12 26 13
REMARK SMILES IDX 10 14 11 15 25 16 27 17 12 18 24 19 23 20 13 21 21 22 14 23
REMARK SMILES IDX 15 24 20 25 22 26 16 27 19 28 17 29 18 30
REMARK H PARENT 18 31
REMARK Flexibility Score: inf
ROOT
ATOM      1  C   UNL     1     177.440 164.694 182.877  1.00  0.00     0.012 C 
ATOM      2  C   UNL     1     177.540 164.403 184.385  1.00  0.00     0.012 C 
ENDROOT
BRANCH   1   3
ATOM      3  C   UNL     1     177.600 166.189 182.687  1.00  0.00    -0.028 C 
ATOM      4  C   UNL     1     178.491 166.694 181.817  1.00  0.00    -0.027 C 
BRANCH   4   5
ATOM      5  C   UNL     1     178.715 168.186 181.677  1.00  0.00     0.014 C 
BRANCH   5   6
ATOM      6  C   UNL     1     180.125 168.568 182.191  1.00  0.00     0.004 C 
ATOM      7  C   UNL     1     180.094 169.764 183.143  1.00  0.00     0.004 C 
ENDBRANCH   5   6
BRANCH   5   8
ATOM      8  C   UNL     1     178.448 168.637 180.207  1.00  0.00    -0.011 C 
ATOM      9  C   UNL     1     177.713 167.583 179.360  1.00  0.00     0.008 C 
ATOM     10  C   UNL     1     179.743 169.070 179.499  1.00  0.00     0.008 C 
ENDBRANCH   5   8
ENDBRANCH   4   5
ENDBRANCH   1   3
BRANCH   1  11
ATOM     11  C   UNL     1     176.088 164.197 182.258  1.00  0.00     0.002 C 
ATOM     12  C   UNL     1     175.198 165.359 181.811  1.00  0.00     0.005 C 
ATOM     13  C   UNL     1     176.137 163.244 181.009  1.00  0.00    -0.026 C 
ATOM     14  C   UNL     1     174.127 164.729 180.948  1.00  0.00     0.005 C 
ATOM     15  C   UNL     1     174.795 163.534 180.251  1.00  0.00    -0.001 C 
ATOM     16  C   UNL     1     177.356 163.530 180.088  1.00  0.00     0.007 C 
ATOM     17  C   UNL     1     176.173 161.763 181.473  1.00  0.00     0.012 C 
ATOM     18  C   UNL     1     174.899 163.676 178.692  1.00  0.00     0.000 C 
ATOM     19  C   UNL     1     177.308 162.803 178.731  1.00  0.00     0.005 C 
ATOM     20  C   UNL     1     175.882 162.628 178.118  1.00  0.00     0.003 C 
ATOM     21  C   UNL     1     175.199 165.106 178.150  1.00  0.00     0.031 C 
ATOM     22  C   UNL     1     175.873 162.667 176.546  1.00  0.00    -0.008 C 
ATOM     23  C   UNL     1     175.903 165.158 176.810  1.00  0.00    -0.027 C 
ATOM     24  C   UNL     1     176.245 164.071 176.084  1.00  0.00    -0.065 C 
ATOM     25  C   UNL     1     176.887 161.635 175.964  1.00  0.00     0.014 C 
ATOM     26  C   UNL     1     174.454 162.312 176.015  1.00  0.00     0.016 C 
ATOM     27  C   UNL     1     177.128 164.246 174.866  1.00  0.00     0.063 C 
ATOM     28  C   UNL     1     177.070 161.720 174.431  1.00  0.00     0.033 C 
ATOM     29  C   UNL     1     176.880 163.139 173.837  1.00  0.00     0.118 C 
BRANCH  29  30
ATOM     30  O   UNL     1     177.746 163.324 172.747  1.00  0.00    -0.393 OA
ATOM     31  H   UNL     1     177.862 164.304 172.637  1.00  0.00     0.210 HD
ENDBRANCH  29  30
ENDBRANCH   1  11
TORSDOF 6
ENDMDL
MODEL 6
REMARK VINA RESULT:    -5.759      1.858      4.683
REMARK INTER + INTRA:          -9.331
REMARK INTER:                  -7.572
REMARK INTRA:                  -1.759
REMARK UNBOUND:                -1.721
REMARK SMILES CC[C@H](C=C[C@@H](C)[C@H]1CC[C@H]2[C@H]3CC=C4C[C@@H](O)CC[C@@]4(C)[C@H]3CC[C@@]12C)C(C)C
REMARK SMILES IDX 6 1 7 2 5 3 4 4 3 5 2 6 1 7 28 8 29 9 30 10 8 11 9 12 26 13
REMARK SMILES IDX 10 14 11 15 25 16 27 17 12 18 24 19 23 20 13 21 21 22 14 23
REMARK SMILES IDX 15 24 20 25 22 26 16 27 19 28 17 29 18 30
REMARK H PARENT 18 31
REMARK Flexibility Score: inf
ROOT
ATOM      1  C   UNL     1     165.481 162.946 182.987  1.00  0.00     0.012 C 
ATOM      2  C   UNL     1     166.208 163.237 184.312  1.00  0.00     0.012 C 
ENDROOT
BRANCH   1   3
ATOM      3  C   UNL     1     164.127 162.356 183.328  1.00  0.00    -0.028 C 
ATOM      4  C   UNL     1     162.996 162.844 182.790  1.00  0.00    -0.027 C 
BRANCH   4   5
ATOM      5  C   UNL     1     161.632 162.315 183.185  1.00  0.00     0.014 C 
BRANCH   5   6
ATOM      6  C   UNL     1     160.535 163.358 182.857  1.00  0.00     0.004 C 
ATOM      7  C   UNL     1     161.097 164.589 182.145  1.00  0.00     0.004 C 
ENDBRANCH   5   6
BRANCH   5   8
ATOM      8  C   UNL     1     161.380 160.923 182.524  1.00  0.00    -0.011 C 
ATOM      9  C   UNL     1     161.669 160.894 181.013  1.00  0.00     0.008 C 
ATOM     10  C   UNL     1     159.956 160.411 182.797  1.00  0.00     0.008 C 
ENDBRANCH   5   8
ENDBRANCH   4   5
ENDBRANCH   1   3
BRANCH   1  11
ATOM     11  C   UNL     1     166.292 161.977 182.058  1.00  0.00     0.002 C 
ATOM     12  C   UNL     1     165.659 160.586 181.987  1.00  0.00     0.005 C 
ATOM     13  C   UNL     1     166.507 162.381 180.555  1.00  0.00    -0.026 C 
ATOM     14  C   UNL     1     166.335 159.902 180.819  1.00  0.00     0.005 C 
ATOM     15  C   UNL     1     166.649 161.011 179.804  1.00  0.00    -0.001 C 
ATOM     16  C   UNL     1     165.316 163.197 179.979  1.00  0.00     0.007 C 
ATOM     17  C   UNL     1     167.817 163.203 180.408  1.00  0.00     0.012 C 
ATOM     18  C   UNL     1     165.870 160.882 178.449  1.00  0.00     0.000 C 
ATOM     19  C   UNL     1     165.363 163.394 178.451  1.00  0.00     0.005 C 
ATOM     20  C   UNL     1     165.963 162.200 177.643  1.00  0.00     0.003 C 
ATOM     21  C   UNL     1     164.402 160.368 178.545  1.00  0.00     0.031 C 
ATOM     22  C   UNL     1     165.315 162.024 176.222  1.00  0.00    -0.008 C 
ATOM     23  C   UNL     1     163.481 160.819 177.432  1.00  0.00    -0.027 C 
ATOM     24  C   UNL     1     163.862 161.592 176.391  1.00  0.00    -0.065 C 
ATOM     25  C   UNL     1     165.376 163.360 175.419  1.00  0.00     0.014 C 
ATOM     26  C   UNL     1     166.082 160.935 175.419  1.00  0.00     0.016 C 
ATOM     27  C   UNL     1     162.805 162.147 175.459  1.00  0.00     0.063 C 
ATOM     28  C   UNL     1     164.612 163.329 174.075  1.00  0.00     0.033 C 
ATOM     29  C   UNL     1     163.376 162.395 174.058  1.00  0.00     0.118 C 
BRANCH  29  30
ATOM     30  O   UNL     1     162.371 162.943 173.245  1.00  0.00    -0.393 OA
ATOM     31  H   UNL     1     162.591 162.693 172.310  1.00  0.00     0.210 HD
ENDBRANCH  29  30
ENDBRANCH   1  11
TORSDOF 6
ENDMDL
MODEL 7
REMARK VINA RESULT:    -5.739      8.928     12.500
REMARK INTER + INTRA:          -9.305
REMARK INTER:                  -7.563
REMARK INTRA:                  -1.742
REMARK UNBOUND:                -1.721
REMARK SMILES CC[C@H](C=C[C@@H](C)[C@H]1CC[C@H]2[C@H]3CC=C4C[C@@H](O)CC[C@@]4(C)[C@H]3CC[C@@]12C)C(C)C
REMARK SMILES IDX 6 1 7 2 5 3 4 4 3 5 2 6 1 7 28 8 29 9 30 10 8 11 9 12 26 13
REMARK SMILES IDX 10 14 11 15 25 16 27 17 12 18 24 19 23 20 13 21 21 22 14 23
REMARK SMILES IDX 15 24 20 25 22 26 16 27 19 28 17 29 18 30
REMARK H PARENT 18 31
REMARK Flexibility Score: inf
ROOT
ATOM      1  C   UNL     1     171.262 161.124 180.118  1.00  0.00     0.012 C 
ATOM      2  C   UNL     1     170.000 160.248 180.018  1.00  0.00     0.012 C 
ENDROOT
BRANCH   1   3
ATOM      3  C   UNL     1     172.339 160.471 179.276  1.00  0.00    -0.028 C 
ATOM      4  C   UNL     1     173.052 161.176 178.381  1.00  0.00    -0.027 C 
BRANCH   4   5
ATOM      5  C   UNL     1     174.076 160.518 177.478  1.00  0.00     0.014 C 
BRANCH   5   6
ATOM      6  C   UNL     1     173.785 160.861 175.996  1.00  0.00     0.004 C 
ATOM      7  C   UNL     1     174.912 160.419 175.063  1.00  0.00     0.004 C 
ENDBRANCH   5   6
BRANCH   5   8
ATOM      8  C   UNL     1     175.520 160.899 177.931  1.00  0.00    -0.011 C 
ATOM      9  C   UNL     1     175.970 160.195 179.223  1.00  0.00     0.008 C 
ATOM     10  C   UNL     1     175.688 162.421 178.076  1.00  0.00     0.008 C 
ENDBRANCH   5   8
ENDBRANCH   4   5
ENDBRANCH   1   3
BRANCH   1  11
ATOM     11  C   UNL     1     171.748 161.309 181.598  1.00  0.00     0.002 C 
ATOM     12  C   UNL     1     172.774 160.249 182.002  1.00  0.00     0.005 C 
ATOM     13  C   UNL     1     172.417 162.672 182.004  1.00  0.00    -0.026 C 
ATOM     14  C   UNL     1     173.384 160.758 183.290  1.00  0.00     0.005 C 
ATOM     15  C   UNL     1     173.381 162.291 183.182  1.00  0.00    -0.001 C 
ATOM     16  C   UNL     1     173.213 163.318 180.837  1.00  0.00     0.007 C 
ATOM     17  C   UNL     1     171.335 163.665 182.507  1.00  0.00     0.012 C 
ATOM     18  C   UNL     1     174.810 162.934 183.140  1.00  0.00     0.000 C 
ATOM     19  C   UNL     1     174.092 164.513 181.254  1.00  0.00     0.005 C 
ATOM     20  C   UNL     1     174.727 164.408 182.676  1.00  0.00     0.003 C 
ATOM     21  C   UNL     1     175.898 162.143 182.353  1.00  0.00     0.031 C 
ATOM     22  C   UNL     1     176.136 165.099 182.780  1.00  0.00    -0.008 C 
ATOM     23  C   UNL     1     177.022 162.980 181.779  1.00  0.00    -0.027 C 
ATOM     24  C   UNL     1     177.133 164.318 181.931  1.00  0.00    -0.065 C 
ATOM     25  C   UNL     1     176.063 166.575 182.281  1.00  0.00     0.014 C 
ATOM     26  C   UNL     1     176.617 165.105 184.259  1.00  0.00     0.016 C 
ATOM     27  C   UNL     1     178.182 165.066 181.135  1.00  0.00     0.063 C 
ATOM     28  C   UNL     1     177.435 167.282 182.187  1.00  0.00     0.033 C 
ATOM     29  C   UNL     1     178.623 166.342 181.860  1.00  0.00     0.118 C 
BRANCH  29  30
ATOM     30  O   UNL     1     179.565 167.016 181.067  1.00  0.00    -0.393 OA
ATOM     31  H   UNL     1     180.414 167.032 181.582  1.00  0.00     0.210 HD
ENDBRANCH  29  30
ENDBRANCH   1  11
TORSDOF 6
ENDMDL
MODEL 8
REMARK VINA RESULT:    -5.732      4.176      7.141
REMARK INTER + INTRA:          -9.296
REMARK INTER:                  -8.347
REMARK INTRA:                  -0.948
REMARK UNBOUND:                -1.721
REMARK SMILES CC[C@H](C=C[C@@H](C)[C@H]1CC[C@H]2[C@H]3CC=C4C[C@@H](O)CC[C@@]4(C)[C@H]3CC[C@@]12C)C(C)C
REMARK SMILES IDX 6 1 7 2 5 3 4 4 3 5 2 6 1 7 28 8 29 9 30 10 8 11 9 12 26 13
REMARK SMILES IDX 10 14 11 15 25 16 27 17 12 18 24 19 23 20 13 21 21 22 14 23
REMARK SMILES IDX 15 24 20 25 22 26 16 27 19 28 17 29 18 30
REMARK H PARENT 18 31
REMARK Flexibility Score: inf
ROOT
ATOM      1  C   UNL     1     169.090 161.568 181.122  1.00  0.00     0.012 C 
ATOM      2  C   UNL     1     169.559 161.174 179.710  1.00  0.00     0.012 C 
ENDROOT
BRANCH   1   3
ATOM      3  C   UNL     1     170.295 161.505 182.039  1.00  0.00    -0.028 C 
ATOM      4  C   UNL     1     171.547 161.518 181.552  1.00  0.00    -0.027 C 
BRANCH   4   5
ATOM      5  C   UNL     1     172.757 161.375 182.453  1.00  0.00     0.014 C 
BRANCH   5   6
ATOM      6  C   UNL     1     173.468 160.025 182.188  1.00  0.00     0.004 C 
ATOM      7  C   UNL     1     174.907 160.013 182.705  1.00  0.00     0.004 C 
ENDBRANCH   5   6
BRANCH   5   8
ATOM      8  C   UNL     1     173.696 162.611 182.296  1.00  0.00    -0.011 C 
ATOM      9  C   UNL     1     173.708 163.540 183.523  1.00  0.00     0.008 C 
ATOM     10  C   UNL     1     173.369 163.419 181.029  1.00  0.00     0.008 C 
ENDBRANCH   5   8
ENDBRANCH   4   5
ENDBRANCH   1   3
BRANCH   1  11
ATOM     11  C   UNL     1     167.939 160.644 181.652  1.00  0.00     0.002 C 
ATOM     12  C   UNL     1     167.732 160.793 183.161  1.00  0.00     0.005 C 
ATOM     13  C   UNL     1     166.500 160.811 181.045  1.00  0.00    -0.026 C 
ATOM     14  C   UNL     1     166.405 160.125 183.447  1.00  0.00     0.005 C 
ATOM     15  C   UNL     1     165.540 160.352 182.198  1.00  0.00    -0.001 C 
ATOM     16  C   UNL     1     166.192 162.278 180.633  1.00  0.00     0.007 C 
ATOM     17  C   UNL     1     166.331 159.880 179.814  1.00  0.00     0.012 C 
ATOM     18  C   UNL     1     164.278 161.250 182.445  1.00  0.00     0.000 C 
ATOM     19  C   UNL     1     164.717 162.539 180.274  1.00  0.00     0.005 C 
ATOM     20  C   UNL     1     163.675 161.719 181.099  1.00  0.00     0.003 C 
ATOM     21  C   UNL     1     164.462 162.437 183.438  1.00  0.00     0.031 C 
ATOM     22  C   UNL     1     162.326 162.490 181.338  1.00  0.00    -0.008 C 
ATOM     23  C   UNL     1     163.541 163.618 183.217  1.00  0.00    -0.027 C 
ATOM     24  C   UNL     1     162.592 163.678 182.257  1.00  0.00    -0.065 C 
ATOM     25  C   UNL     1     161.733 162.994 179.987  1.00  0.00     0.014 C 
ATOM     26  C   UNL     1     161.286 161.547 182.009  1.00  0.00     0.016 C 
ATOM     27  C   UNL     1     161.880 164.991 182.005  1.00  0.00     0.063 C 
ATOM     28  C   UNL     1     160.495 163.908 180.138  1.00  0.00     0.033 C 
ATOM     29  C   UNL     1     160.477 164.760 181.433  1.00  0.00     0.118 C 
BRANCH  29  30
ATOM     30  O   UNL     1     159.876 166.004 181.182  1.00  0.00    -0.393 OA
ATOM     31  H   UNL     1     159.006 165.817 180.739  1.00  0.00     0.210 HD
ENDBRANCH  29  30
ENDBRANCH   1  11
TORSDOF 6
ENDMDL
MODEL 9
REMARK VINA RESULT:    -5.695      3.987      7.313
REMARK INTER + INTRA:          -9.247
REMARK INTER:                  -8.332
REMARK INTRA:                  -0.915
REMARK UNBOUND:                -1.721
REMARK SMILES CC[C@H](C=C[C@@H](C)[C@H]1CC[C@H]2[C@H]3CC=C4C[C@@H](O)CC[C@@]4(C)[C@H]3CC[C@@]12C)C(C)C
REMARK SMILES IDX 6 1 7 2 5 3 4 4 3 5 2 6 1 7 28 8 29 9 30 10 8 11 9 12 26 13
REMARK SMILES IDX 10 14 11 15 25 16 27 17 12 18 24 19 23 20 13 21 21 22 14 23
REMARK SMILES IDX 15 24 20 25 22 26 16 27 19 28 17 29 18 30
REMARK H PARENT 18 31
REMARK Flexibility Score: inf
ROOT
ATOM      1  C   UNL     1     164.638 163.136 182.271  1.00  0.00     0.012 C 
ATOM      2  C   UNL     1     164.632 164.519 182.946  1.00  0.00     0.012 C 
ENDROOT
BRANCH   1   3
ATOM      3  C   UNL     1     163.198 162.677 182.154  1.00  0.00    -0.028 C 
ATOM      4  C   UNL     1     162.221 163.244 182.881  1.00  0.00    -0.027 C 
BRANCH   4   5
ATOM      5  C   UNL     1     160.792 162.741 182.831  1.00  0.00     0.014 C 
BRANCH   5   6
ATOM      6  C   UNL     1     159.876 163.793 182.159  1.00  0.00     0.004 C 
ATOM      7  C   UNL     1     160.510 165.183 182.127  1.00  0.00     0.004 C 
ENDBRANCH   5   6
BRANCH   5   8
ATOM      8  C   UNL     1     160.737 161.341 182.144  1.00  0.00    -0.011 C 
ATOM      9  C   UNL     1     160.265 161.387 180.680  1.00  0.00     0.008 C 
ATOM     10  C   UNL     1     159.876 160.348 182.942  1.00  0.00     0.008 C 
ENDBRANCH   5   8
ENDBRANCH   4   5
ENDBRANCH   1   3
BRANCH   1  11
ATOM     11  C   UNL     1     165.493 162.086 183.062  1.00  0.00     0.002 C 
ATOM     12  C   UNL     1     165.360 160.678 182.476  1.00  0.00     0.005 C 
ATOM     13  C   UNL     1     167.043 162.312 183.178  1.00  0.00    -0.026 C 
ATOM     14  C   UNL     1     166.478 159.878 183.109  1.00  0.00     0.005 C 
ATOM     15  C   UNL     1     167.634 160.866 183.327  1.00  0.00    -0.001 C 
ATOM     16  C   UNL     1     167.639 163.018 181.929  1.00  0.00     0.007 C 
ATOM     17  C   UNL     1     167.364 163.147 184.448  1.00  0.00     0.012 C 
ATOM     18  C   UNL     1     168.914 160.553 182.477  1.00  0.00     0.000 C 
ATOM     19  C   UNL     1     169.179 163.031 181.883  1.00  0.00     0.005 C 
ATOM     20  C   UNL     1     169.875 161.767 182.479  1.00  0.00     0.003 C 
ATOM     21  C   UNL     1     168.670 160.013 181.037  1.00  0.00     0.031 C 
ATOM     22  C   UNL     1     171.224 161.403 181.758  1.00  0.00    -0.008 C 
ATOM     23  C   UNL     1     169.772 160.300 180.039  1.00  0.00    -0.027 C 
ATOM     24  C   UNL     1     170.918 160.952 180.333  1.00  0.00    -0.065 C 
ATOM     25  C   UNL     1     172.181 162.633 181.727  1.00  0.00     0.014 C 
ATOM     26  C   UNL     1     171.937 160.247 182.518  1.00  0.00     0.016 C 
ATOM     27  C   UNL     1     171.844 161.361 179.207  1.00  0.00     0.063 C 
ATOM     28  C   UNL     1     173.464 162.419 180.890  1.00  0.00     0.033 C 
ATOM     29  C   UNL     1     173.296 161.455 179.689  1.00  0.00     0.118 C 
BRANCH  29  30
ATOM     30  O   UNL     1     174.107 161.872 178.621  1.00  0.00    -0.393 OA
ATOM     31  H   UNL     1     175.027 161.554 178.818  1.00  0.00     0.210 HD
ENDBRANCH  29  30
ENDBRANCH   1  11
TORSDOF 6
ENDMDL
