MODEL 1
REMARK VINA RESULT:    -4.829      0.000      0.000
REMARK INTER + INTRA:          -5.281
REMARK INTER:                  -5.111
REMARK INTRA:                  -0.170
REMARK UNBOUND:                -0.170
REMARK SMILES CC1=CC=C(C(C)C)CC1
REMARK SMILES IDX 1 1 2 2 3 3 4 4 5 5 9 6 10 7 6 8 7 9 8 10
REMARK H PARENT
REMARK Flexibility Score: inf
ROOT
ATOM      1  C   UNL     1     -43.098 -47.946  25.151  1.00  0.00     0.039 C 
ATOM      2  C   UNL     1     -41.976 -47.833  26.142  1.00  0.00    -0.073 C 
ATOM      3  C   UNL     1     -41.553 -48.923  26.800  1.00  0.00    -0.001 C 
ATOM      4  C   UNL     1     -40.453 -48.834  27.780  1.00  0.00    -0.001 C 
ATOM      5  C   UNL     1     -40.007 -47.640  28.213  1.00  0.00    -0.067 C 
ATOM      6  C   UNL     1     -40.729 -46.383  27.769  1.00  0.00     0.035 C 
ATOM      7  C   UNL     1     -41.255 -46.518  26.333  1.00  0.00     0.035 C 
ENDROOT
BRANCH   5   8
ATOM      8  C   UNL     1     -38.830 -47.568  29.170  1.00  0.00     0.009 C 
ATOM      9  C   UNL     1     -38.336 -46.125  29.333  1.00  0.00     0.012 C 
ATOM     10  C   UNL     1     -37.695 -48.489  28.707  1.00  0.00     0.012 C 
ENDBRANCH   5   8
TORSDOF 1
ENDMDL
MODEL 2
REMARK VINA RESULT:    -4.804     11.494     15.230
REMARK INTER + INTRA:          -5.254
REMARK INTER:                  -5.115
REMARK INTRA:                  -0.140
REMARK UNBOUND:                -0.170
REMARK SMILES CC1=CC=C(C(C)C)CC1
REMARK SMILES IDX 1 1 2 2 3 3 4 4 5 5 9 6 10 7 6 8 7 9 8 10
REMARK H PARENT
REMARK Flexibility Score: inf
ROOT
ATOM      1  C   UNL     1     -51.016 -48.085  24.314  1.00  0.00     0.039 C 
ATOM      2  C   UNL     1     -52.173 -47.911  23.373  1.00  0.00    -0.073 C 
ATOM      3  C   UNL     1     -52.990 -46.855  23.507  1.00  0.00    -0.001 C 
ATOM      4  C   UNL     1     -54.134 -46.667  22.594  1.00  0.00    -0.001 C 
ATOM      5  C   UNL     1     -54.529 -47.651  21.766  1.00  0.00    -0.067 C 
ATOM      6  C   UNL     1     -53.855 -49.006  21.864  1.00  0.00     0.035 C 
ATOM      7  C   UNL     1     -52.367 -48.865  22.218  1.00  0.00     0.035 C 
ENDROOT
BRANCH   5   8
ATOM      8  C   UNL     1     -55.665 -47.415  20.787  1.00  0.00     0.009 C 
ATOM      9  C   UNL     1     -56.122 -45.951  20.811  1.00  0.00     0.012 C 
ATOM     10  C   UNL     1     -56.837 -48.362  21.074  1.00  0.00     0.012 C 
ENDBRANCH   5   8
TORSDOF 1
ENDMDL
MODEL 3
REMARK VINA RESULT:    -4.795     11.583     15.178
REMARK INTER + INTRA:          -5.246
REMARK INTER:                  -5.103
REMARK INTRA:                  -0.143
REMARK UNBOUND:                -0.170
REMARK SMILES CC1=CC=C(C(C)C)CC1
REMARK SMILES IDX 1 1 2 2 3 3 4 4 5 5 9 6 10 7 6 8 7 9 8 10
REMARK H PARENT
REMARK Flexibility Score: inf
ROOT
ATOM      1  C   UNL     1     -50.460 -49.110  22.504  1.00  0.00     0.039 C 
ATOM      2  C   UNL     1     -51.867 -48.627  22.305  1.00  0.00    -0.073 C 
ATOM      3  C   UNL     1     -52.514 -48.906  21.163  1.00  0.00    -0.001 C 
ATOM      4  C   UNL     1     -53.897 -48.438  20.946  1.00  0.00    -0.001 C 
ATOM      5  C   UNL     1     -54.459 -47.533  21.768  1.00  0.00    -0.067 C 
ATOM      6  C   UNL     1     -53.611 -46.907  22.859  1.00  0.00     0.035 C 
ATOM      7  C   UNL     1     -52.593 -47.911  23.421  1.00  0.00     0.035 C 
ENDROOT
BRANCH   5   8
ATOM      8  C   UNL     1     -55.905 -47.115  21.568  1.00  0.00     0.009 C 
ATOM      9  C   UNL     1     -56.746 -48.273  21.017  1.00  0.00     0.012 C 
ATOM     10  C   UNL     1     -55.995 -45.887  20.656  1.00  0.00     0.012 C 
ENDBRANCH   5   8
TORSDOF 1
ENDMDL
MODEL 4
REMARK VINA RESULT:    -4.747     11.880     14.503
REMARK INTER + INTRA:          -5.195
REMARK INTER:                  -5.053
REMARK INTRA:                  -0.142
REMARK UNBOUND:                -0.170
REMARK SMILES CC1=CC=C(C(C)C)CC1
REMARK SMILES IDX 1 1 2 2 3 3 4 4 5 5 9 6 10 7 6 8 7 9 8 10
REMARK H PARENT
REMARK Flexibility Score: inf
ROOT
ATOM      1  C   UNL     1     -57.125 -47.286  20.992  1.00  0.00     0.039 C 
ATOM      2  C   UNL     1     -55.701 -47.530  21.401  1.00  0.00    -0.073 C 
ATOM      3  C   UNL     1     -55.202 -48.775  21.374  1.00  0.00    -0.001 C 
ATOM      4  C   UNL     1     -53.806 -49.038  21.774  1.00  0.00    -0.001 C 
ATOM      5  C   UNL     1     -53.074 -48.093  22.394  1.00  0.00    -0.067 C 
ATOM      6  C   UNL     1     -53.740 -46.788  22.783  1.00  0.00     0.035 C 
ATOM      7  C   UNL     1     -54.798 -46.370  21.751  1.00  0.00     0.035 C 
ENDROOT
BRANCH   5   8
ATOM      8  C   UNL     1     -51.619 -48.359  22.736  1.00  0.00     0.009 C 
ATOM      9  C   UNL     1     -50.984 -49.336  21.740  1.00  0.00     0.012 C 
ATOM     10  C   UNL     1     -51.484 -48.874  24.174  1.00  0.00     0.012 C 
ENDBRANCH   5   8
TORSDOF 1
ENDMDL
MODEL 5
REMARK VINA RESULT:    -4.730      1.342      2.167
REMARK INTER + INTRA:          -5.176
REMARK INTER:                  -5.033
REMARK INTRA:                  -0.144
REMARK UNBOUND:                -0.170
REMARK SMILES CC1=CC=C(C(C)C)CC1
REMARK SMILES IDX 1 1 2 2 3 3 4 4 5 5 9 6 10 7 6 8 7 9 8 10
REMARK H PARENT
REMARK Flexibility Score: inf
ROOT
ATOM      1  C   UNL     1     -43.651 -49.797  28.138  1.00  0.00     0.039 C 
ATOM      2  C   UNL     1     -42.283 -49.179  28.180  1.00  0.00    -0.073 C 
ATOM      3  C   UNL     1     -41.524 -49.311  29.278  1.00  0.00    -0.001 C 
ATOM      4  C   UNL     1     -40.178 -48.709  29.342  1.00  0.00    -0.001 C 
ATOM      5  C   UNL     1     -39.770 -47.825  28.413  1.00  0.00    -0.067 C 
ATOM      6  C   UNL     1     -40.757 -47.362  27.358  1.00  0.00     0.035 C 
ATOM      7  C   UNL     1     -41.718 -48.492  26.958  1.00  0.00     0.035 C 
ENDROOT
BRANCH   5   8
ATOM      8  C   UNL     1     -38.358 -47.269  28.457  1.00  0.00     0.009 C 
ATOM      9  C   UNL     1     -37.341 -48.364  28.799  1.00  0.00     0.012 C 
ATOM     10  C   UNL     1     -38.264 -46.102  29.448  1.00  0.00     0.012 C 
ENDBRANCH   5   8
TORSDOF 1
ENDMDL
MODEL 6
REMARK VINA RESULT:    -4.659      6.356      7.221
REMARK INTER + INTRA:          -5.102
REMARK INTER:                  -4.928
REMARK INTRA:                  -0.173
REMARK UNBOUND:                -0.170
REMARK SMILES CC1=CC=C(C(C)C)CC1
REMARK SMILES IDX 1 1 2 2 3 3 4 4 5 5 9 6 10 7 6 8 7 9 8 10
REMARK H PARENT
REMARK Flexibility Score: inf
ROOT
ATOM      1  C   UNL     1     -42.449 -49.315  29.054  1.00  0.00     0.039 C 
ATOM      2  C   UNL     1     -43.486 -49.589  30.104  1.00  0.00    -0.073 C 
ATOM      3  C   UNL     1     -43.398 -50.696  30.858  1.00  0.00    -0.001 C 
ATOM      4  C   UNL     1     -44.408 -50.985  31.894  1.00  0.00    -0.001 C 
ATOM      5  C   UNL     1     -45.557 -50.287  31.956  1.00  0.00    -0.067 C 
ATOM      6  C   UNL     1     -45.856 -49.270  30.870  1.00  0.00     0.035 C 
ATOM      7  C   UNL     1     -44.574 -48.578  30.384  1.00  0.00     0.035 C 
ENDROOT
BRANCH   5   8
ATOM      8  C   UNL     1     -46.553 -50.554  33.070  1.00  0.00     0.009 C 
ATOM      9  C   UNL     1     -47.036 -49.245  33.707  1.00  0.00     0.012 C 
ATOM     10  C   UNL     1     -45.951 -51.489  34.125  1.00  0.00     0.012 C 
ENDBRANCH   5   8
TORSDOF 1
ENDMDL
MODEL 7
REMARK VINA RESULT:    -4.620     12.023     14.729
REMARK INTER + INTRA:          -5.060
REMARK INTER:                  -4.920
REMARK INTRA:                  -0.140
REMARK UNBOUND:                -0.170
REMARK SMILES CC1=CC=C(C(C)C)CC1
REMARK SMILES IDX 1 1 2 2 3 3 4 4 5 5 9 6 10 7 6 8 7 9 8 10
REMARK H PARENT
REMARK Flexibility Score: inf
ROOT
ATOM      1  C   UNL     1     -57.037 -46.522  20.574  1.00  0.00     0.039 C 
ATOM      2  C   UNL     1     -55.831 -47.063  21.287  1.00  0.00    -0.073 C 
ATOM      3  C   UNL     1     -54.960 -46.219  21.860  1.00  0.00    -0.001 C 
ATOM      4  C   UNL     1     -53.767 -46.730  22.563  1.00  0.00    -0.001 C 
ATOM      5  C   UNL     1     -53.394 -48.018  22.450  1.00  0.00    -0.067 C 
ATOM      6  C   UNL     1     -54.152 -48.918  21.493  1.00  0.00     0.035 C 
ATOM      7  C   UNL     1     -55.643 -48.554  21.445  1.00  0.00     0.035 C 
ENDROOT
BRANCH   5   8
ATOM      8  C   UNL     1     -52.204 -48.540  23.235  1.00  0.00     0.009 C 
ATOM      9  C   UNL     1     -51.832 -47.586  24.376  1.00  0.00     0.012 C 
ATOM     10  C   UNL     1     -51.007 -48.783  22.309  1.00  0.00     0.012 C 
ENDBRANCH   5   8
TORSDOF 1
ENDMDL
MODEL 8
REMARK VINA RESULT:    -4.598     11.894     13.251
REMARK INTER + INTRA:          -5.037
REMARK INTER:                  -4.866
REMARK INTRA:                  -0.171
REMARK UNBOUND:                -0.170
REMARK SMILES CC1=CC=C(C(C)C)CC1
REMARK SMILES IDX 1 1 2 2 3 3 4 4 5 5 9 6 10 7 6 8 7 9 8 10
REMARK H PARENT
REMARK Flexibility Score: inf
ROOT
ATOM      1  C   UNL     1     -52.153 -49.259  20.636  1.00  0.00     0.039 C 
ATOM      2  C   UNL     1     -50.976 -49.373  19.712  1.00  0.00    -0.073 C 
ATOM      3  C   UNL     1     -50.886 -50.412  18.868  1.00  0.00    -0.001 C 
ATOM      4  C   UNL     1     -49.736 -50.544  17.953  1.00  0.00    -0.001 C 
ATOM      5  C   UNL     1     -48.644 -49.772  18.098  1.00  0.00    -0.067 C 
ATOM      6  C   UNL     1     -48.558 -48.839  19.290  1.00  0.00     0.035 C 
ATOM      7  C   UNL     1     -49.939 -48.275  19.658  1.00  0.00     0.035 C 
ENDROOT
BRANCH   5   8
ATOM      8  C   UNL     1     -47.499 -49.876  17.105  1.00  0.00     0.009 C 
ATOM      9  C   UNL     1     -47.261 -48.540  16.391  1.00  0.00     0.012 C 
ATOM     10  C   UNL     1     -47.754 -51.001  16.096  1.00  0.00     0.012 C 
ENDBRANCH   5   8
TORSDOF 1
ENDMDL
MODEL 9
REMARK VINA RESULT:    -4.572      1.444      4.158
REMARK INTER + INTRA:          -5.010
REMARK INTER:                  -4.857
REMARK INTRA:                  -0.152
REMARK UNBOUND:                -0.170
REMARK SMILES CC1=CC=C(C(C)C)CC1
REMARK SMILES IDX 1 1 2 2 3 3 4 4 5 5 9 6 10 7 6 8 7 9 8 10
REMARK H PARENT
REMARK Flexibility Score: inf
ROOT
ATOM      1  C   UNL     1     -36.881 -47.711  28.844  1.00  0.00     0.039 C 
ATOM      2  C   UNL     1     -38.367 -47.749  28.634  1.00  0.00    -0.073 C 
ATOM      3  C   UNL     1     -38.960 -48.891  28.254  1.00  0.00    -0.001 C 
ATOM      4  C   UNL     1     -40.419 -48.950  28.040  1.00  0.00    -0.001 C 
ATOM      5  C   UNL     1     -41.156 -47.825  27.986  1.00  0.00    -0.067 C 
ATOM      6  C   UNL     1     -40.451 -46.483  28.032  1.00  0.00     0.035 C 
ATOM      7  C   UNL     1     -39.212 -46.534  28.939  1.00  0.00     0.035 C 
ENDROOT
BRANCH   5   8
ATOM      8  C   UNL     1     -42.664 -47.909  27.832  1.00  0.00     0.009 C 
ATOM      9  C   UNL     1     -43.325 -48.426  29.116  1.00  0.00     0.012 C 
ATOM     10  C   UNL     1     -43.041 -48.782  26.630  1.00  0.00     0.012 C 
ENDBRANCH   5   8
TORSDOF 1
ENDMDL
