MODEL 1
REMARK VINA RESULT:    -3.451      0.000      0.000
REMARK INTER + INTRA:          -4.081
REMARK INTER:                  -4.056
REMARK INTRA:                  -0.025
REMARK UNBOUND:                -0.025
REMARK SMILES [NH3+][C@@H](CO)C(=O)[O-]
REMARK SMILES IDX 3 1 2 2 1 3 5 7 6 8 7 9 4 10
REMARK H PARENT 1 4 1 5 1 6 4 11
REMARK Flexibility Score: inf
ROOT
ATOM      1  C   UNL     1      32.895  -5.068   9.307  1.00  0.00     0.227 C 
ENDROOT
BRANCH   1   2
ATOM      2  C   UNL     1      33.107  -3.618   9.777  1.00  0.00     0.253 C 
BRANCH   2   3
ATOM      3  N   UNL     1      33.758  -2.823   8.729  1.00  0.00    -0.348 N 
ATOM      4  H   UNL     1      33.937  -1.854   9.082  1.00  0.00     0.345 HD
ATOM      5  H   UNL     1      34.676  -3.254   8.476  1.00  0.00     0.345 HD
ATOM      6  H   UNL     1      33.154  -2.770   7.876  1.00  0.00     0.345 HD
ENDBRANCH   2   3
BRANCH   2   7
ATOM      7  C   UNL     1      33.919  -3.579  11.046  1.00  0.00     0.102 C 
ATOM      8  O   UNL     1      33.994  -2.520  11.724  1.00  0.00    -0.544 OA
ATOM      9  O   UNL     1      34.601  -4.713  11.468  1.00  0.00    -0.544 OA
ENDBRANCH   2   7
ENDBRANCH   1   2
BRANCH   1  10
ATOM     10  O   UNL     1      33.307  -5.222   7.974  1.00  0.00    -0.390 OA
ATOM     11  H   UNL     1      32.495  -5.134   7.410  1.00  0.00     0.210 HD
ENDBRANCH   1  10
TORSDOF 4
ENDMDL
MODEL 2
REMARK VINA RESULT:    -3.449     13.660     14.678
REMARK INTER + INTRA:          -4.079
REMARK INTER:                  -4.043
REMARK INTRA:                  -0.035
REMARK UNBOUND:                -0.025
REMARK SMILES [NH3+][C@@H](CO)C(=O)[O-]
REMARK SMILES IDX 3 1 2 2 1 3 5 7 6 8 7 9 4 10
REMARK H PARENT 1 4 1 5 1 6 4 11
REMARK Flexibility Score: inf
ROOT
ATOM      1  C   UNL     1      24.251  -2.474   0.090  1.00  0.00     0.227 C 
ENDROOT
BRANCH   1   2
ATOM      2  C   UNL     1      23.606  -3.730  -0.524  1.00  0.00     0.253 C 
BRANCH   2   3
ATOM      3  N   UNL     1      23.160  -3.465  -1.897  1.00  0.00    -0.348 N 
ATOM      4  H   UNL     1      23.083  -4.366  -2.423  1.00  0.00     0.345 HD
ATOM      5  H   UNL     1      22.218  -3.012  -1.883  1.00  0.00     0.345 HD
ATOM      6  H   UNL     1      23.838  -2.838  -2.392  1.00  0.00     0.345 HD
ENDBRANCH   2   3
BRANCH   2   7
ATOM      7  C   UNL     1      22.451  -4.206   0.319  1.00  0.00     0.102 C 
ATOM      8  O   UNL     1      22.387  -3.912   1.542  1.00  0.00    -0.544 OA
ATOM      9  O   UNL     1      21.453  -4.988  -0.250  1.00  0.00    -0.544 OA
ENDBRANCH   2   7
ENDBRANCH   1   2
BRANCH   1  10
ATOM     10  O   UNL     1      25.573  -2.735   0.478  1.00  0.00    -0.390 OA
ATOM     11  H   UNL     1      25.742  -2.206   1.300  1.00  0.00     0.210 HD
ENDBRANCH   1  10
TORSDOF 4
ENDMDL
MODEL 3
REMARK VINA RESULT:    -3.394     13.557     14.432
REMARK INTER + INTRA:          -4.014
REMARK INTER:                  -3.787
REMARK INTRA:                  -0.226
REMARK UNBOUND:                -0.025
REMARK SMILES [NH3+][C@@H](CO)C(=O)[O-]
REMARK SMILES IDX 3 1 2 2 1 3 5 7 6 8 7 9 4 10
REMARK H PARENT 1 4 1 5 1 6 4 11
REMARK Flexibility Score: inf
ROOT
ATOM      1  C   UNL     1      24.607  -3.793   0.089  1.00  0.00     0.227 C 
ENDROOT
BRANCH   1   2
ATOM      2  C   UNL     1      23.212  -3.273  -0.301  1.00  0.00     0.253 C 
BRANCH   2   3
ATOM      3  N   UNL     1      23.122  -3.068  -1.752  1.00  0.00    -0.348 N 
ATOM      4  H   UNL     1      22.960  -3.985  -2.229  1.00  0.00     0.345 HD
ATOM      5  H   UNL     1      22.317  -2.438  -1.972  1.00  0.00     0.345 HD
ATOM      6  H   UNL     1      24.004  -2.642  -2.121  1.00  0.00     0.345 HD
ENDBRANCH   2   3
BRANCH   2   7
ATOM      7  C   UNL     1      22.891  -1.995   0.430  1.00  0.00     0.102 C 
ATOM      8  O   UNL     1      22.044  -1.986   1.362  1.00  0.00    -0.544 OA
ATOM      9  O   UNL     1      23.524  -0.812   0.068  1.00  0.00    -0.544 OA
ENDBRANCH   2   7
ENDBRANCH   1   2
BRANCH   1  10
ATOM     10  O   UNL     1      25.458  -2.727   0.418  1.00  0.00    -0.390 OA
ATOM     11  H   UNL     1      25.957  -2.999   1.232  1.00  0.00     0.210 HD
ENDBRANCH   1  10
TORSDOF 4
ENDMDL
MODEL 4
REMARK VINA RESULT:    -3.393     13.911     14.811
REMARK INTER + INTRA:          -4.012
REMARK INTER:                  -3.655
REMARK INTRA:                  -0.358
REMARK UNBOUND:                -0.025
REMARK SMILES [NH3+][C@@H](CO)C(=O)[O-]
REMARK SMILES IDX 3 1 2 2 1 3 5 7 6 8 7 9 4 10
REMARK H PARENT 1 4 1 5 1 6 4 11
REMARK Flexibility Score: inf
ROOT
ATOM      1  C   UNL     1      22.357  -3.852  -1.090  1.00  0.00     0.227 C 
ENDROOT
BRANCH   1   2
ATOM      2  C   UNL     1      22.536  -2.987   0.171  1.00  0.00     0.253 C 
BRANCH   2   3
ATOM      3  N   UNL     1      21.449  -2.007   0.286  1.00  0.00    -0.348 N 
ATOM      4  H   UNL     1      20.734  -2.351   0.968  1.00  0.00     0.345 HD
ATOM      5  H   UNL     1      21.827  -1.098   0.638  1.00  0.00     0.345 HD
ATOM      6  H   UNL     1      20.990  -1.853  -0.642  1.00  0.00     0.345 HD
ENDBRANCH   2   3
BRANCH   2   7
ATOM      7  C   UNL     1      23.871  -2.290   0.157  1.00  0.00     0.102 C 
ATOM      8  O   UNL     1      23.944  -1.052  -0.064  1.00  0.00    -0.544 OA
ATOM      9  O   UNL     1      25.035  -3.015   0.378  1.00  0.00    -0.544 OA
ENDBRANCH   2   7
ENDBRANCH   1   2
BRANCH   1  10
ATOM     10  O   UNL     1      23.226  -3.431  -2.107  1.00  0.00    -0.390 OA
ATOM     11  H   UNL     1      22.695  -3.399  -2.945  1.00  0.00     0.210 HD
ENDBRANCH   1  10
TORSDOF 4
ENDMDL
MODEL 5
REMARK VINA RESULT:    -3.364     13.377     14.207
REMARK INTER + INTRA:          -3.978
REMARK INTER:                  -3.953
REMARK INTRA:                  -0.025
REMARK UNBOUND:                -0.025
REMARK SMILES [NH3+][C@@H](CO)C(=O)[O-]
REMARK SMILES IDX 3 1 2 2 1 3 5 7 6 8 7 9 4 10
REMARK H PARENT 1 4 1 5 1 6 4 11
REMARK Flexibility Score: inf
ROOT
ATOM      1  C   UNL     1      23.539  -3.731  -0.781  1.00  0.00     0.227 C 
ENDROOT
BRANCH   1   2
ATOM      2  C   UNL     1      24.090  -2.514  -0.017  1.00  0.00     0.253 C 
BRANCH   2   3
ATOM      3  N   UNL     1      25.438  -2.790   0.496  1.00  0.00    -0.348 N 
ATOM      4  H   UNL     1      26.145  -2.265  -0.069  1.00  0.00     0.345 HD
ATOM      5  H   UNL     1      25.511  -2.473   1.489  1.00  0.00     0.345 HD
ATOM      6  H   UNL     1      25.651  -3.814   0.444  1.00  0.00     0.345 HD
ENDBRANCH   2   3
BRANCH   2   7
ATOM      7  C   UNL     1      23.170  -2.127   1.111  1.00  0.00     0.102 C 
ATOM      8  O   UNL     1      23.414  -2.494   2.291  1.00  0.00    -0.544 OA
ATOM      9  O   UNL     1      22.034  -1.370   0.851  1.00  0.00    -0.544 OA
ENDBRANCH   2   7
ENDBRANCH   1   2
BRANCH   1  10
ATOM     10  O   UNL     1      23.184  -3.376  -2.091  1.00  0.00    -0.390 OA
ATOM     11  H   UNL     1      23.534  -2.460  -2.245  1.00  0.00     0.210 HD
ENDBRANCH   1  10
TORSDOF 4
ENDMDL
MODEL 6
REMARK VINA RESULT:    -3.302      1.966      2.106
REMARK INTER + INTRA:          -3.905
REMARK INTER:                  -3.893
REMARK INTRA:                  -0.012
REMARK UNBOUND:                -0.025
REMARK SMILES [NH3+][C@@H](CO)C(=O)[O-]
REMARK SMILES IDX 3 1 2 2 1 3 5 7 6 8 7 9 4 10
REMARK H PARENT 1 4 1 5 1 6 4 11
REMARK Flexibility Score: inf
ROOT
ATOM      1  C   UNL     1      33.040  -3.499   9.668  1.00  0.00     0.227 C 
ENDROOT
BRANCH   1   2
ATOM      2  C   UNL     1      33.925  -3.364  10.919  1.00  0.00     0.253 C 
BRANCH   2   3
ATOM      3  N   UNL     1      34.839  -4.507  11.034  1.00  0.00    -0.348 N 
ATOM      4  H   UNL     1      35.191  -4.581  12.017  1.00  0.00     0.345 HD
ATOM      5  H   UNL     1      34.332  -5.391  10.801  1.00  0.00     0.345 HD
ATOM      6  H   UNL     1      35.654  -4.396  10.387  1.00  0.00     0.345 HD
ENDBRANCH   2   3
BRANCH   2   7
ATOM      7  C   UNL     1      33.082  -3.240  12.162  1.00  0.00     0.102 C 
ATOM      8  O   UNL     1      32.006  -2.586  12.142  1.00  0.00    -0.544 OA
ATOM      9  O   UNL     1      33.497  -3.839  13.344  1.00  0.00    -0.544 OA
ENDBRANCH   2   7
ENDBRANCH   1   2
BRANCH   1  10
ATOM     10  O   UNL     1      33.705  -3.005   8.535  1.00  0.00    -0.390 OA
ATOM     11  H   UNL     1      34.677  -3.090   8.712  1.00  0.00     0.210 HD
ENDBRANCH   1  10
TORSDOF 4
ENDMDL
MODEL 7
REMARK VINA RESULT:    -3.299     14.319     15.358
REMARK INTER + INTRA:          -3.902
REMARK INTER:                  -3.897
REMARK INTRA:                  -0.005
REMARK UNBOUND:                -0.025
REMARK SMILES [NH3+][C@@H](CO)C(=O)[O-]
REMARK SMILES IDX 3 1 2 2 1 3 5 7 6 8 7 9 4 10
REMARK H PARENT 1 4 1 5 1 6 4 11
REMARK Flexibility Score: inf
ROOT
ATOM      1  C   UNL     1      21.283  -5.123  -0.050  1.00  0.00     0.227 C 
ENDROOT
BRANCH   1   2
ATOM      2  C   UNL     1      21.989  -3.813  -0.443  1.00  0.00     0.253 C 
BRANCH   2   3
ATOM      3  N   UNL     1      22.092  -3.698  -1.903  1.00  0.00    -0.348 N 
ATOM      4  H   UNL     1      23.095  -3.773  -2.193  1.00  0.00     0.345 HD
ATOM      5  H   UNL     1      21.561  -4.474  -2.359  1.00  0.00     0.345 HD
ATOM      6  H   UNL     1      21.710  -2.780  -2.230  1.00  0.00     0.345 HD
ENDBRANCH   2   3
BRANCH   2   7
ATOM      7  C   UNL     1      23.355  -3.730   0.187  1.00  0.00     0.102 C 
ATOM      8  O   UNL     1      24.302  -4.442  -0.243  1.00  0.00    -0.544 OA
ATOM      9  O   UNL     1      23.574  -2.873   1.258  1.00  0.00    -0.544 OA
ENDBRANCH   2   7
ENDBRANCH   1   2
BRANCH   1  10
ATOM     10  O   UNL     1      20.025  -5.212  -0.666  1.00  0.00    -0.390 OA
ATOM     11  H   UNL     1      20.077  -4.684  -1.504  1.00  0.00     0.210 HD
ENDBRANCH   1  10
TORSDOF 4
ENDMDL
MODEL 8
REMARK VINA RESULT:    -3.288     15.064     15.758
REMARK INTER + INTRA:          -3.889
REMARK INTER:                  -3.663
REMARK INTRA:                  -0.226
REMARK UNBOUND:                -0.025
REMARK SMILES [NH3+][C@@H](CO)C(=O)[O-]
REMARK SMILES IDX 3 1 2 2 1 3 5 7 6 8 7 9 4 10
REMARK H PARENT 1 4 1 5 1 6 4 11
REMARK Flexibility Score: inf
ROOT
ATOM      1  C   UNL     1      23.711  -3.021  -0.316  1.00  0.00     0.227 C 
ENDROOT
BRANCH   1   2
ATOM      2  C   UNL     1      22.337  -3.666  -0.573  1.00  0.00     0.253 C 
BRANCH   2   3
ATOM      3  N   UNL     1      22.041  -3.699  -2.011  1.00  0.00    -0.348 N 
ATOM      4  H   UNL     1      22.469  -2.867  -2.479  1.00  0.00     0.345 HD
ATOM      5  H   UNL     1      22.450  -4.561  -2.437  1.00  0.00     0.345 HD
ATOM      6  H   UNL     1      21.007  -3.689  -2.176  1.00  0.00     0.345 HD
ENDBRANCH   2   3
BRANCH   2   7
ATOM      7  C   UNL     1      21.252  -2.930   0.168  1.00  0.00     0.102 C 
ATOM      8  O   UNL     1      21.488  -1.817   0.710  1.00  0.00    -0.544 OA
ATOM      9  O   UNL     1      19.982  -3.484   0.270  1.00  0.00    -0.544 OA
ENDBRANCH   2   7
ENDBRANCH   1   2
BRANCH   1  10
ATOM     10  O   UNL     1      23.847  -1.834  -1.052  1.00  0.00    -0.390 OA
ATOM     11  H   UNL     1      23.954  -1.099  -0.395  1.00  0.00     0.210 HD
ENDBRANCH   1  10
TORSDOF 4
ENDMDL
MODEL 9
REMARK VINA RESULT:    -3.281     17.663     18.236
REMARK INTER + INTRA:          -3.880
REMARK INTER:                  -3.654
REMARK INTRA:                  -0.227
REMARK UNBOUND:                -0.025
REMARK SMILES [NH3+][C@@H](CO)C(=O)[O-]
REMARK SMILES IDX 3 1 2 2 1 3 5 7 6 8 7 9 4 10
REMARK H PARENT 1 4 1 5 1 6 4 11
REMARK Flexibility Score: inf
ROOT
ATOM      1  C   UNL     1      17.469   5.134  15.529  1.00  0.00     0.227 C 
ENDROOT
BRANCH   1   2
ATOM      2  C   UNL     1      18.637   4.947  16.514  1.00  0.00     0.253 C 
BRANCH   2   3
ATOM      3  N   UNL     1      18.656   6.028  17.506  1.00  0.00    -0.348 N 
ATOM      4  H   UNL     1      18.967   6.918  17.053  1.00  0.00     0.345 HD
ATOM      5  H   UNL     1      17.695   6.175  17.890  1.00  0.00     0.345 HD
ATOM      6  H   UNL     1      19.310   5.798  18.291  1.00  0.00     0.345 HD
ENDBRANCH   2   3
BRANCH   2   7
ATOM      7  C   UNL     1      19.952   4.884  15.782  1.00  0.00     0.102 C 
ATOM      8  O   UNL     1      20.932   5.576  16.166  1.00  0.00    -0.544 OA
ATOM      9  O   UNL     1      20.086   4.068  14.666  1.00  0.00    -0.544 OA
ENDBRANCH   2   7
ENDBRANCH   1   2
BRANCH   1  10
ATOM     10  O   UNL     1      17.151   3.921  14.900  1.00  0.00    -0.390 OA
ATOM     11  H   UNL     1      18.006   3.434  14.765  1.00  0.00     0.210 HD
ENDBRANCH   1  10
TORSDOF 4
ENDMDL
