MODEL 1
REMARK VINA RESULT:    -1.818      0.000      0.000
REMARK INTER + INTRA:          -0.613
REMARK INTER:                  -2.243
REMARK INTRA:                   1.630
REMARK UNBOUND:                 1.630
REMARK SMILES C=C1CC[C@@H]2[C@H]([C@H]3[C@H](C)CC[C@@H]13)C2(C)C
REMARK SMILES IDX 3 1 2 2 1 3 12 4 9 5 8 6 10 7 7 8 11 9 4 11 5 12 6 13 13 14
REMARK SMILES IDX 14 16 15 17
REMARK H PARENT
REMARK Flexibility Score: 80.00
ROOT
ATOM      1  C   UNL     1     147.012 147.639 132.652  1.00  0.00     0.031 C 
ENDROOT
BRANCH   1   2
ATOM      2  C   UNL     1     146.358 147.567 131.283  1.00  0.00    -0.074 C 
ATOM      3  C   UNL     1     146.868 148.312 130.286  1.00  0.00     0.008 C 
BRANCH   2   4
ATOM      4  C   UNL     1     145.095 146.741 131.030  1.00  0.00     0.018 C 
ATOM      5  C   UNL     1     143.402 143.449 131.691  1.00  0.00     0.008 C 
ATOM      6  C   UNL     1     144.063 144.765 132.128  1.00  0.00    -0.010 C 
ATOM      7  C   UNL     1     143.072 145.928 132.093  1.00  0.00     0.004 C 
ATOM      8  C   UNL     1     145.218 145.198 131.200  1.00  0.00     0.003 CG0
ATOM      9  C   UNL     1     143.923 147.174 131.916  1.00  0.00     0.008 C 
ATOM     10  G   UNL     1     146.665 144.611 131.378  1.00  0.00     0.000 G0
ENDBRANCH   2   4
ENDBRANCH   1   2
BRANCH   1  11
ATOM     11  C   UNL     1     147.038 146.285 133.358  1.00  0.00     0.009 C 
BRANCH  11  12
ATOM     12  C   UNL     1     147.639 145.219 132.427  1.00  0.00    -0.001 C 
ATOM     13  C   UNL     1     146.681 144.625 131.375  1.00  0.00     0.002 CG0
ATOM     14  C   UNL     1     147.241 143.737 132.519  1.00  0.00    -0.029 C 
ATOM     15  G   UNL     1     145.225 145.194 131.218  1.00  0.00     0.000 G0
ATOM     16  C   UNL     1     146.466 143.267 133.766  1.00  0.00     0.011 C 
ATOM     17  C   UNL     1     148.346 142.769 132.064  1.00  0.00     0.011 C 
ENDBRANCH  11  12
ENDBRANCH   1  11
TORSDOF 0
ENDMDL
MODEL 2
REMARK VINA RESULT:    -1.758      1.187      4.538
REMARK INTER + INTRA:          -0.539
REMARK INTER:                  -2.268
REMARK INTRA:                   1.729
REMARK UNBOUND:                 1.630
REMARK SMILES C=C1CC[C@@H]2[C@H]([C@H]3[C@H](C)CC[C@@H]13)C2(C)C
REMARK SMILES IDX 3 1 2 2 1 3 12 4 9 5 8 6 10 7 7 8 11 9 4 11 5 12 6 13 13 14
REMARK SMILES IDX 14 16 15 17
REMARK H PARENT
REMARK Flexibility Score: 80.00
ROOT
ATOM      1  C   UNL     1     143.792 143.329 132.846  1.00  0.00     0.031 C 
ENDROOT
BRANCH   1   2
ATOM      2  C   UNL     1     144.427 143.364 131.467  1.00  0.00    -0.074 C 
ATOM      3  C   UNL     1     143.910 142.584 130.501  1.00  0.00     0.008 C 
BRANCH   2   4
ATOM      4  C   UNL     1     145.678 144.193 131.173  1.00  0.00     0.018 C 
ATOM      5  C   UNL     1     147.353 147.515 131.719  1.00  0.00     0.008 C 
ATOM      6  C   UNL     1     146.710 146.206 132.201  1.00  0.00    -0.010 C 
ATOM      7  C   UNL     1     147.711 145.050 132.181  1.00  0.00     0.004 C 
ATOM      8  C   UNL     1     145.544 145.739 131.303  1.00  0.00     0.003 CG0
ATOM      9  C   UNL     1     146.868 143.793 132.050  1.00  0.00     0.008 C 
ATOM     10  G   UNL     1     144.096 146.319 131.489  1.00  0.00     0.000 G0
ENDBRANCH   2   4
ENDBRANCH   1   2
BRANCH   1  11
ATOM     11  C   UNL     1     143.784 144.698 133.521  1.00  0.00     0.009 C 
BRANCH  11  12
ATOM     12  C   UNL     1     143.159 145.742 132.580  1.00  0.00    -0.001 C 
ATOM     13  C   UNL     1     144.090 146.311 131.491  1.00  0.00     0.002 CG0
ATOM     14  C   UNL     1     143.560 147.226 132.627  1.00  0.00    -0.029 C 
ATOM     15  G   UNL     1     145.541 145.737 131.310  1.00  0.00     0.000 G0
ATOM     16  C   UNL     1     144.367 147.725 133.842  1.00  0.00     0.011 C 
ATOM     17  C   UNL     1     142.444 148.184 132.178  1.00  0.00     0.011 C 
ENDBRANCH  11  12
ENDBRANCH   1  11
TORSDOF 0
ENDMDL
MODEL 3
REMARK VINA RESULT:    -1.600      1.397      3.841
REMARK INTER + INTRA:          -0.344
REMARK INTER:                  -1.958
REMARK INTRA:                   1.614
REMARK UNBOUND:                 1.630
REMARK SMILES C=C1CC[C@@H]2[C@H]([C@H]3[C@H](C)CC[C@@H]13)C2(C)C
REMARK SMILES IDX 3 1 2 2 1 3 12 4 9 5 8 6 10 7 7 8 11 9 4 11 5 12 6 13 13 14
REMARK SMILES IDX 14 16 15 17
REMARK H PARENT
REMARK Flexibility Score: 80.00
ROOT
ATOM      1  C   UNL     1     147.038 143.566 132.799  1.00  0.00     0.031 C 
ENDROOT
BRANCH   1   2
ATOM      2  C   UNL     1     145.589 143.211 133.084  1.00  0.00    -0.074 C 
ATOM      3  C   UNL     1     145.320 142.369 134.097  1.00  0.00     0.008 C 
BRANCH   2   4
ATOM      4  C   UNL     1     144.444 143.717 132.205  1.00  0.00     0.018 C 
ATOM      5  C   UNL     1     143.051 146.710 130.404  1.00  0.00     0.008 C 
ATOM      6  C   UNL     1     144.142 145.667 130.696  1.00  0.00    -0.010 C 
ATOM      7  C   UNL     1     143.890 144.366 129.934  1.00  0.00     0.004 C 
ATOM      8  C   UNL     1     144.200 145.254 132.183  1.00  0.00     0.003 CG0
ATOM      9  C   UNL     1     144.592 143.288 130.742  1.00  0.00     0.008 C 
ATOM     10  G   UNL     1     144.985 146.118 133.234  1.00  0.00     0.000 G0
ENDBRANCH   2   4
ENDBRANCH   1   2
BRANCH   1  11
ATOM     11  C   UNL     1     147.210 145.020 132.368  1.00  0.00     0.009 C 
BRANCH  11  12
ATOM     12  C   UNL     1     146.531 145.952 133.386  1.00  0.00    -0.001 C 
ATOM     13  C   UNL     1     145.006 146.121 133.235  1.00  0.00     0.002 CG0
ATOM     14  C   UNL     1     145.958 147.322 132.984  1.00  0.00    -0.029 C 
ATOM     15  G   UNL     1     144.217 145.274 132.173  1.00  0.00     0.000 G0
ATOM     16  C   UNL     1     146.347 147.899 131.609  1.00  0.00     0.011 C 
ATOM     17  C   UNL     1     145.962 148.353 134.124  1.00  0.00     0.011 C 
ENDBRANCH  11  12
ENDBRANCH   1  11
TORSDOF 0
ENDMDL
MODEL 4
REMARK VINA RESULT:    -1.420      1.174      3.692
REMARK INTER + INTRA:          -0.122
REMARK INTER:                  -1.779
REMARK INTRA:                   1.658
REMARK UNBOUND:                 1.630
REMARK SMILES C=C1CC[C@@H]2[C@H]([C@H]3[C@H](C)CC[C@@H]13)C2(C)C
REMARK SMILES IDX 3 1 2 2 1 3 12 4 9 5 8 6 10 7 7 8 11 9 4 11 5 12 6 13 13 14
REMARK SMILES IDX 14 16 15 17
REMARK H PARENT
REMARK Flexibility Score: 80.00
ROOT
ATOM      1  C   UNL     1     144.159 146.632 134.125  1.00  0.00     0.031 C 
ENDROOT
BRANCH   1   2
ATOM      2  C   UNL     1     143.631 145.593 133.151  1.00  0.00    -0.074 C 
ATOM      3  C   UNL     1     142.324 145.617 132.831  1.00  0.00     0.008 C 
BRANCH   2   4
ATOM      4  C   UNL     1     144.519 144.478 132.595  1.00  0.00     0.018 C 
ATOM      5  C   UNL     1     147.904 143.682 131.163  1.00  0.00     0.008 C 
ATOM      6  C   UNL     1     146.966 144.211 132.260  1.00  0.00    -0.010 C 
ATOM      7  C   UNL     1     146.425 143.076 133.129  1.00  0.00     0.004 C 
ATOM      8  C   UNL     1     145.712 144.913 131.695  1.00  0.00     0.003 CG0
ATOM      9  C   UNL     1     145.115 143.597 133.697  1.00  0.00     0.008 C 
ATOM     10  G   UNL     1     145.759 146.418 131.247  1.00  0.00     0.000 G0
ENDBRANCH   2   4
ENDBRANCH   1   2
BRANCH   1  11
ATOM     11  C   UNL     1     145.566 147.106 133.767  1.00  0.00     0.009 C 
BRANCH  11  12
ATOM     12  C   UNL     1     145.610 147.550 132.295  1.00  0.00    -0.001 C 
ATOM     13  C   UNL     1     145.758 146.422 131.254  1.00  0.00     0.002 CG0
ATOM     14  C   UNL     1     146.895 147.461 131.454  1.00  0.00    -0.029 C 
ATOM     15  G   UNL     1     145.733 144.918 131.707  1.00  0.00     0.000 G0
ATOM     16  C   UNL     1     148.229 147.217 132.186  1.00  0.00     0.011 C 
ATOM     17  C   UNL     1     146.975 148.510 130.333  1.00  0.00     0.011 C 
ENDBRANCH  11  12
ENDBRANCH   1  11
TORSDOF 0
ENDMDL
MODEL 5
REMARK VINA RESULT:    -1.337      1.515      2.999
REMARK INTER + INTRA:          -0.020
REMARK INTER:                  -1.619
REMARK INTRA:                   1.599
REMARK UNBOUND:                 1.630
REMARK SMILES C=C1CC[C@@H]2[C@H]([C@H]3[C@H](C)CC[C@@H]13)C2(C)C
REMARK SMILES IDX 3 1 2 2 1 3 12 4 9 5 8 6 10 7 7 8 11 9 4 11 5 12 6 13 13 14
REMARK SMILES IDX 14 16 15 17
REMARK H PARENT
REMARK Flexibility Score: 80.00
ROOT
ATOM      1  C   UNL     1     146.627 144.249 134.104  1.00  0.00     0.031 C 
ENDROOT
BRANCH   1   2
ATOM      2  C   UNL     1     147.107 145.268 133.084  1.00  0.00    -0.074 C 
ATOM      3  C   UNL     1     148.406 145.264 132.735  1.00  0.00     0.008 C 
BRANCH   2   4
ATOM      4  C   UNL     1     146.179 146.340 132.512  1.00  0.00     0.018 C 
ATOM      5  C   UNL     1     142.749 147.002 131.121  1.00  0.00     0.008 C 
ATOM      6  C   UNL     1     143.720 146.531 132.215  1.00  0.00    -0.010 C 
ATOM      7  C   UNL     1     144.245 147.706 133.040  1.00  0.00     0.004 C 
ATOM      8  C   UNL     1     144.982 145.847 131.648  1.00  0.00     0.003 CG0
ATOM      9  C   UNL     1     145.578 147.238 133.598  1.00  0.00     0.008 C 
ATOM     10  G   UNL     1     144.969 144.329 131.245  1.00  0.00     0.000 G0
ENDBRANCH   2   4
ENDBRANCH   1   2
BRANCH   1  11
ATOM     11  C   UNL     1     145.232 143.717 133.785  1.00  0.00     0.009 C 
BRANCH  11  12
ATOM     12  C   UNL     1     145.180 143.221 132.330  1.00  0.00    -0.001 C 
ATOM     13  C   UNL     1     144.984 144.308 131.254  1.00  0.00     0.002 CG0
ATOM     14  C   UNL     1     143.881 143.243 131.507  1.00  0.00    -0.029 C 
ATOM     15  G   UNL     1     144.971 145.826 131.655  1.00  0.00     0.000 G0
ATOM     16  C   UNL     1     142.551 143.475 132.250  1.00  0.00     0.011 C 
ATOM     17  C   UNL     1     143.816 142.155 130.423  1.00  0.00     0.011 C 
ENDBRANCH  11  12
ENDBRANCH   1  11
TORSDOF 0
ENDMDL
MODEL 6
REMARK VINA RESULT:    -1.292      1.238      3.986
REMARK INTER + INTRA:           0.036
REMARK INTER:                  -1.578
REMARK INTRA:                   1.614
REMARK UNBOUND:                 1.630
REMARK SMILES C=C1CC[C@@H]2[C@H]([C@H]3[C@H](C)CC[C@@H]13)C2(C)C
REMARK SMILES IDX 3 1 2 2 1 3 12 4 9 5 8 6 10 7 7 8 11 9 4 11 5 12 6 13 13 14
REMARK SMILES IDX 14 16 15 17
REMARK H PARENT
REMARK Flexibility Score: 80.00
ROOT
ATOM      1  C   UNL     1     143.287 144.859 131.027  1.00  0.00     0.031 C 
ENDROOT
BRANCH   1   2
ATOM      2  C   UNL     1     144.309 143.765 130.765  1.00  0.00    -0.074 C 
ATOM      3  C   UNL     1     144.174 143.010 129.660  1.00  0.00     0.008 C 
BRANCH   2   4
ATOM      4  C   UNL     1     145.428 143.448 131.759  1.00  0.00     0.018 C 
ATOM      5  C   UNL     1     148.025 144.943 134.031  1.00  0.00     0.008 C 
ATOM      6  C   UNL     1     146.583 144.735 133.543  1.00  0.00    -0.010 C 
ATOM      7  C   UNL     1     145.976 143.456 134.122  1.00  0.00     0.004 C 
ATOM      8  C   UNL     1     146.481 144.567 132.012  1.00  0.00     0.003 CG0
ATOM      9  C   UNL     1     144.894 143.046 133.137  1.00  0.00     0.008 C 
ATOM     10  G   UNL     1     146.441 145.816 131.061  1.00  0.00     0.000 G0
ENDBRANCH   2   4
ENDBRANCH   1   2
BRANCH   1  11
ATOM     11  C   UNL     1     143.912 146.105 131.650  1.00  0.00     0.009 C 
BRANCH  11  12
ATOM     12  C   UNL     1     145.111 146.568 130.806  1.00  0.00    -0.001 C 
ATOM     13  C   UNL     1     146.438 145.823 131.053  1.00  0.00     0.002 CG0
ATOM     14  C   UNL     1     146.299 147.325 131.422  1.00  0.00    -0.029 C 
ATOM     15  G   UNL     1     146.485 144.590 132.025  1.00  0.00     0.000 G0
ATOM     16  C   UNL     1     146.139 147.899 132.843  1.00  0.00     0.011 C 
ATOM     17  C   UNL     1     147.009 148.269 130.438  1.00  0.00     0.011 C 
ENDBRANCH  11  12
ENDBRANCH   1  11
TORSDOF 0
ENDMDL
MODEL 7
REMARK VINA RESULT:    -1.250      1.591      3.365
REMARK INTER + INTRA:           0.088
REMARK INTER:                  -1.603
REMARK INTRA:                   1.692
REMARK UNBOUND:                 1.630
REMARK SMILES C=C1CC[C@@H]2[C@H]([C@H]3[C@H](C)CC[C@@H]13)C2(C)C
REMARK SMILES IDX 3 1 2 2 1 3 12 4 9 5 8 6 10 7 7 8 11 9 4 11 5 12 6 13 13 14
REMARK SMILES IDX 14 16 15 17
REMARK H PARENT
REMARK Flexibility Score: 80.00
ROOT
ATOM      1  C   UNL     1     145.098 143.834 130.485  1.00  0.00     0.031 C 
ENDROOT
BRANCH   1   2
ATOM      2  C   UNL     1     144.029 143.826 131.564  1.00  0.00    -0.074 C 
ATOM      3  C   UNL     1     143.350 142.687 131.788  1.00  0.00     0.008 C 
BRANCH   2   4
ATOM      4  C   UNL     1     143.650 145.090 132.338  1.00  0.00     0.018 C 
ATOM      5  C   UNL     1     144.999 148.122 134.108  1.00  0.00     0.008 C 
ATOM      6  C   UNL     1     144.823 147.212 132.882  1.00  0.00    -0.010 C 
ATOM      7  C   UNL     1     143.513 147.505 132.150  1.00  0.00     0.004 C 
ATOM      8  C   UNL     1     144.749 145.713 133.248  1.00  0.00     0.003 CG0
ATOM      9  C   UNL     1     143.166 146.218 131.421  1.00  0.00     0.008 C 
ATOM     10  G   UNL     1     146.054 144.869 133.475  1.00  0.00     0.000 G0
ENDBRANCH   2   4
ENDBRANCH   1   2
BRANCH   1  11
ATOM     11  C   UNL     1     146.298 144.701 130.858  1.00  0.00     0.009 C 
BRANCH  11  12
ATOM     12  C   UNL     1     146.830 144.293 132.242  1.00  0.00    -0.001 C 
ATOM     13  C   UNL     1     146.070 144.868 133.454  1.00  0.00     0.002 CG0
ATOM     14  C   UNL     1     147.537 145.292 133.173  1.00  0.00    -0.029 C 
ATOM     15  G   UNL     1     144.762 145.712 133.241  1.00  0.00     0.000 G0
ATOM     16  C   UNL     1     147.994 146.640 132.581  1.00  0.00     0.011 C 
ATOM     17  C   UNL     1     148.559 144.642 134.119  1.00  0.00     0.011 C 
ENDBRANCH  11  12
ENDBRANCH   1  11
TORSDOF 0
ENDMDL
MODEL 8
REMARK VINA RESULT:    -1.239      1.426      3.634
REMARK INTER + INTRA:           0.101
REMARK INTER:                  -1.549
REMARK INTRA:                   1.650
REMARK UNBOUND:                 1.630
REMARK SMILES C=C1CC[C@@H]2[C@H]([C@H]3[C@H](C)CC[C@@H]13)C2(C)C
REMARK SMILES IDX 3 1 2 2 1 3 12 4 9 5 8 6 10 7 7 8 11 9 4 11 5 12 6 13 13 14
REMARK SMILES IDX 14 16 15 17
REMARK H PARENT
REMARK Flexibility Score: 80.00
ROOT
ATOM      1  C   UNL     1     147.218 146.952 132.852  1.00  0.00     0.031 C 
ENDROOT
BRANCH   1   2
ATOM      2  C   UNL     1     147.503 145.483 133.112  1.00  0.00    -0.074 C 
ATOM      3  C   UNL     1     148.327 145.158 134.125  1.00  0.00     0.008 C 
BRANCH   2   4
ATOM      4  C   UNL     1     146.951 144.378 132.210  1.00  0.00     0.018 C 
ATOM      5  C   UNL     1     143.909 143.159 130.366  1.00  0.00     0.008 C 
ATOM      6  C   UNL     1     144.999 144.194 130.684  1.00  0.00    -0.010 C 
ATOM      7  C   UNL     1     146.292 143.896 129.925  1.00  0.00     0.004 C 
ATOM      8  C   UNL     1     145.404 144.207 132.174  1.00  0.00     0.003 CG0
ATOM      9  C   UNL     1     147.396 144.533 130.752  1.00  0.00     0.008 C 
ATOM     10  G   UNL     1     144.571 145.012 133.234  1.00  0.00     0.000 G0
ENDBRANCH   2   4
ENDBRANCH   1   2
BRANCH   1  11
ATOM     11  C   UNL     1     145.776 147.198 132.414  1.00  0.00     0.009 C 
BRANCH  11  12
ATOM     12  C   UNL     1     144.806 146.548 133.415  1.00  0.00    -0.001 C 
ATOM     13  C   UNL     1     144.574 145.033 133.243  1.00  0.00     0.002 CG0
ATOM     14  C   UNL     1     143.417 146.039 132.993  1.00  0.00    -0.029 C 
ATOM     15  G   UNL     1     145.396 144.222 132.179  1.00  0.00     0.000 G0
ATOM     16  C   UNL     1     142.871 146.469 131.618  1.00  0.00     0.011 C 
ATOM     17  C   UNL     1     142.376 146.073 134.123  1.00  0.00     0.011 C 
ENDBRANCH  11  12
ENDBRANCH   1  11
TORSDOF 0
ENDMDL
MODEL 9
REMARK VINA RESULT:    -1.184      1.338      3.655
REMARK INTER + INTRA:           0.169
REMARK INTER:                  -1.535
REMARK INTRA:                   1.704
REMARK UNBOUND:                 1.630
REMARK SMILES C=C1CC[C@@H]2[C@H]([C@H]3[C@H](C)CC[C@@H]13)C2(C)C
REMARK SMILES IDX 3 1 2 2 1 3 12 4 9 5 8 6 10 7 7 8 11 9 4 11 5 12 6 13 13 14
REMARK SMILES IDX 14 16 15 17
REMARK H PARENT
REMARK Flexibility Score: 80.00
ROOT
ATOM      1  C   UNL     1     145.613 146.887 130.413  1.00  0.00     0.031 C 
ENDROOT
BRANCH   1   2
ATOM      2  C   UNL     1     146.651 146.958 131.520  1.00  0.00    -0.074 C 
ATOM      3  C   UNL     1     147.284 148.125 131.734  1.00  0.00     0.008 C 
BRANCH   2   4
ATOM      4  C   UNL     1     147.050 145.727 132.336  1.00  0.00     0.018 C 
ATOM      5  C   UNL     1     145.757 142.681 134.122  1.00  0.00     0.008 C 
ATOM      6  C   UNL     1     145.943 143.571 132.884  1.00  0.00    -0.010 C 
ATOM      7  C   UNL     1     147.290 143.316 132.208  1.00  0.00     0.004 C 
ATOM      8  C   UNL     1     145.943 145.079 133.219  1.00  0.00     0.003 CG0
ATOM      9  C   UNL     1     147.613 144.601 131.464  1.00  0.00     0.008 C 
ATOM     10  G   UNL     1     144.598 145.874 133.377  1.00  0.00     0.000 G0
ENDBRANCH   2   4
ENDBRANCH   1   2
BRANCH   1  11
ATOM     11  C   UNL     1     144.436 145.983 130.772  1.00  0.00     0.009 C 
BRANCH  11  12
ATOM     12  C   UNL     1     143.853 146.399 132.133  1.00  0.00    -0.001 C 
ATOM     13  C   UNL     1     144.595 145.871 133.376  1.00  0.00     0.002 CG0
ATOM     14  C   UNL     1     143.151 145.395 133.062  1.00  0.00    -0.029 C 
ATOM     15  G   UNL     1     145.935 145.066 133.216  1.00  0.00     0.000 G0
ATOM     16  C   UNL     1     142.754 144.022 132.484  1.00  0.00     0.011 C 
ATOM     17  C   UNL     1     142.083 146.029 133.967  1.00  0.00     0.011 C 
ENDBRANCH  11  12
ENDBRANCH   1  11
TORSDOF 0
ENDMDL
