MODEL 1
REMARK VINA RESULT:    -3.251      0.000      0.000
REMARK INTER + INTRA:          -7.217
REMARK INTER:                  -5.531
REMARK INTRA:                  -1.686
REMARK UNBOUND:                -1.686
REMARK SMILES CCCCCCCCCCCCCC(=O)[O-]
REMARK SMILES IDX 8 1 9 2 10 3 11 4 12 5 13 6 14 7 15 8 16 9 7 10 6 11 5 12
REMARK SMILES IDX 4 13 3 14 2 15 1 16
REMARK H PARENT
REMARK Flexibility Score: inf
ROOT
ATOM      1  C   UNL     1      60.489  33.702  58.513  1.00  0.00     0.000 C 
ENDROOT
BRANCH   1   2
ATOM      2  C   UNL     1      61.362  32.446  58.670  1.00  0.00     0.000 C 
BRANCH   2   3
ATOM      3  C   UNL     1      60.722  31.390  59.585  1.00  0.00     0.000 C 
BRANCH   3   4
ATOM      4  C   UNL     1      61.112  31.625  61.049  1.00  0.00     0.000 C 
BRANCH   4   5
ATOM      5  C   UNL     1      61.535  30.311  61.723  1.00  0.00     0.006 C 
BRANCH   5   6
ATOM      6  C   UNL     1      63.017  29.987  61.486  1.00  0.00     0.053 C 
BRANCH   6   7
ATOM      7  C   UNL     1      63.226  28.535  61.185  1.00  0.00     0.041 C 
ATOM      8  O   UNL     1      62.433  27.671  61.643  1.00  0.00    -0.550 OA
ATOM      9  O   UNL     1      64.280  28.137  60.370  1.00  0.00    -0.550 OA
ENDBRANCH   6   7
ENDBRANCH   5   6
ENDBRANCH   4   5
ENDBRANCH   3   4
ENDBRANCH   2   3
ENDBRANCH   1   2
BRANCH   1  10
ATOM     10  C   UNL     1      61.220  34.986  58.945  1.00  0.00     0.000 C 
BRANCH  10  11
ATOM     11  C   UNL     1      61.221  35.191  60.471  1.00  0.00    -0.000 C 
BRANCH  11  12
ATOM     12  C   UNL     1      62.325  36.118  61.010  1.00  0.00    -0.000 C 
BRANCH  12  13
ATOM     13  C   UNL     1      63.738  35.669  60.599  1.00  0.00    -0.000 C 
BRANCH  13  14
ATOM     14  C   UNL     1      64.164  34.361  61.285  1.00  0.00    -0.000 C 
BRANCH  14  15
ATOM     15  C   UNL     1      64.428  33.226  60.285  1.00  0.00    -0.003 C 
ATOM     16  C   UNL     1      64.762  33.779  58.903  1.00  0.00     0.004 C 
ENDBRANCH  14  15
ENDBRANCH  13  14
ENDBRANCH  12  13
ENDBRANCH  11  12
ENDBRANCH  10  11
ENDBRANCH   1  10
TORSDOF 12
ENDMDL
MODEL 2
REMARK VINA RESULT:    -3.233      3.428      5.891
REMARK INTER + INTRA:          -7.188
REMARK INTER:                  -5.948
REMARK INTRA:                  -1.239
REMARK UNBOUND:                -1.686
REMARK SMILES CCCCCCCCCCCCCC(=O)[O-]
REMARK SMILES IDX 8 1 9 2 10 3 11 4 12 5 13 6 14 7 15 8 16 9 7 10 6 11 5 12
REMARK SMILES IDX 4 13 3 14 2 15 1 16
REMARK H PARENT
REMARK Flexibility Score: inf
ROOT
ATOM      1  C   UNL     1      61.100  30.818  61.773  1.00  0.00     0.000 C 
ENDROOT
BRANCH   1   2
ATOM      2  C   UNL     1      61.018  31.543  60.420  1.00  0.00     0.000 C 
BRANCH   2   3
ATOM      3  C   UNL     1      61.654  32.942  60.457  1.00  0.00     0.000 C 
BRANCH   3   4
ATOM      4  C   UNL     1      62.512  33.186  59.210  1.00  0.00     0.000 C 
BRANCH   4   5
ATOM      5  C   UNL     1      63.950  33.563  59.596  1.00  0.00     0.006 C 
BRANCH   5   6
ATOM      6  C   UNL     1      64.093  33.847  61.098  1.00  0.00     0.053 C 
BRANCH   6   7
ATOM      7  C   UNL     1      64.392  35.290  61.365  1.00  0.00     0.041 C 
ATOM      8  O   UNL     1      65.584  35.683  61.459  1.00  0.00    -0.550 OA
ATOM      9  O   UNL     1      63.355  36.208  61.478  1.00  0.00    -0.550 OA
ENDBRANCH   6   7
ENDBRANCH   5   6
ENDBRANCH   4   5
ENDBRANCH   3   4
ENDBRANCH   2   3
ENDBRANCH   1   2
BRANCH   1  10
ATOM     10  C   UNL     1      62.140  29.684  61.771  1.00  0.00     0.000 C 
BRANCH  10  11
ATOM     11  C   UNL     1      63.574  30.184  61.520  1.00  0.00    -0.000 C 
BRANCH  11  12
ATOM     12  C   UNL     1      64.328  29.475  60.381  1.00  0.00    -0.000 C 
BRANCH  12  13
ATOM     13  C   UNL     1      64.506  27.967  60.628  1.00  0.00    -0.000 C 
BRANCH  13  14
ATOM     14  C   UNL     1      65.959  27.505  60.431  1.00  0.00    -0.000 C 
BRANCH  14  15
ATOM     15  C   UNL     1      66.970  28.403  61.159  1.00  0.00    -0.003 C 
ATOM     16  C   UNL     1      68.037  28.918  60.199  1.00  0.00     0.004 C 
ENDBRANCH  14  15
ENDBRANCH  13  14
ENDBRANCH  12  13
ENDBRANCH  11  12
ENDBRANCH  10  11
ENDBRANCH   1  10
TORSDOF 12
ENDMDL
MODEL 3
REMARK VINA RESULT:    -3.225     10.426     12.454
REMARK INTER + INTRA:          -7.173
REMARK INTER:                  -5.296
REMARK INTRA:                  -1.877
REMARK UNBOUND:                -1.686
REMARK SMILES CCCCCCCCCCCCCC(=O)[O-]
REMARK SMILES IDX 8 1 9 2 10 3 11 4 12 5 13 6 14 7 15 8 16 9 7 10 6 11 5 12
REMARK SMILES IDX 4 13 3 14 2 15 1 16
REMARK H PARENT
REMARK Flexibility Score: inf
ROOT
ATOM      1  C   UNL     1      57.739  28.548  52.482  1.00  0.00     0.000 C 
ENDROOT
BRANCH   1   2
ATOM      2  C   UNL     1      58.046  29.512  51.324  1.00  0.00     0.000 C 
BRANCH   2   3
ATOM      3  C   UNL     1      57.987  28.826  49.950  1.00  0.00     0.000 C 
BRANCH   3   4
ATOM      4  C   UNL     1      59.339  28.920  49.232  1.00  0.00     0.000 C 
BRANCH   4   5
ATOM      5  C   UNL     1      60.078  27.574  49.273  1.00  0.00     0.006 C 
BRANCH   5   6
ATOM      6  C   UNL     1      59.124  26.394  49.505  1.00  0.00     0.053 C 
BRANCH   6   7
ATOM      7  C   UNL     1      59.635  25.467  50.567  1.00  0.00     0.041 C 
ATOM      8  O   UNL     1      59.903  25.906  51.715  1.00  0.00    -0.550 OA
ATOM      9  O   UNL     1      59.782  24.112  50.296  1.00  0.00    -0.550 OA
ENDBRANCH   6   7
ENDBRANCH   5   6
ENDBRANCH   4   5
ENDBRANCH   3   4
ENDBRANCH   2   3
ENDBRANCH   1   2
BRANCH   1  10
ATOM     10  C   UNL     1      56.366  28.815  53.122  1.00  0.00     0.000 C 
BRANCH  10  11
ATOM     11  C   UNL     1      55.619  29.994  52.471  1.00  0.00    -0.000 C 
BRANCH  11  12
ATOM     12  C   UNL     1      54.272  29.638  51.816  1.00  0.00    -0.000 C 
BRANCH  12  13
ATOM     13  C   UNL     1      54.425  29.114  50.378  1.00  0.00    -0.000 C 
BRANCH  13  14
ATOM     14  C   UNL     1      53.973  27.651  50.233  1.00  0.00    -0.000 C 
BRANCH  14  15
ATOM     15  C   UNL     1      55.097  26.731  49.735  1.00  0.00    -0.003 C 
ATOM     16  C   UNL     1      55.697  25.925  50.883  1.00  0.00     0.004 C 
ENDBRANCH  14  15
ENDBRANCH  13  14
ENDBRANCH  12  13
ENDBRANCH  11  12
ENDBRANCH  10  11
ENDBRANCH   1  10
TORSDOF 12
ENDMDL
MODEL 4
REMARK VINA RESULT:    -3.206      3.449      5.607
REMARK INTER + INTRA:          -7.141
REMARK INTER:                  -5.382
REMARK INTRA:                  -1.759
REMARK UNBOUND:                -1.686
REMARK SMILES CCCCCCCCCCCCCC(=O)[O-]
REMARK SMILES IDX 8 1 9 2 10 3 11 4 12 5 13 6 14 7 15 8 16 9 7 10 6 11 5 12
REMARK SMILES IDX 4 13 3 14 2 15 1 16
REMARK H PARENT
REMARK Flexibility Score: inf
ROOT
ATOM      1  C   UNL     1      62.217  32.439  58.661  1.00  0.00     0.000 C 
ENDROOT
BRANCH   1   2
ATOM      2  C   UNL     1      63.241  33.396  59.295  1.00  0.00     0.000 C 
BRANCH   2   3
ATOM      3  C   UNL     1      62.859  33.809  60.725  1.00  0.00     0.000 C 
BRANCH   3   4
ATOM      4  C   UNL     1      63.512  35.145  61.102  1.00  0.00     0.000 C 
BRANCH   4   5
ATOM      5  C   UNL     1      62.577  36.323  60.786  1.00  0.00     0.006 C 
BRANCH   5   6
ATOM      6  C   UNL     1      61.114  35.880  60.637  1.00  0.00     0.053 C 
BRANCH   6   7
ATOM      7  C   UNL     1      60.600  36.117  59.250  1.00  0.00     0.041 C 
ATOM      8  O   UNL     1      61.396  36.414  58.321  1.00  0.00    -0.550 OA
ATOM      9  O   UNL     1      59.245  35.976  58.976  1.00  0.00    -0.550 OA
ENDBRANCH   6   7
ENDBRANCH   5   6
ENDBRANCH   4   5
ENDBRANCH   3   4
ENDBRANCH   2   3
ENDBRANCH   1   2
BRANCH   1  10
ATOM     10  C   UNL     1      60.938  32.301  59.505  1.00  0.00     0.000 C 
BRANCH  10  11
ATOM     11  C   UNL     1      60.731  30.876  60.050  1.00  0.00    -0.000 C 
BRANCH  11  12
ATOM     12  C   UNL     1      61.055  30.688  61.543  1.00  0.00    -0.000 C 
BRANCH  12  13
ATOM     13  C   UNL     1      62.177  29.663  61.788  1.00  0.00    -0.000 C 
BRANCH  13  14
ATOM     14  C   UNL     1      63.575  30.244  61.518  1.00  0.00    -0.000 C 
BRANCH  14  15
ATOM     15  C   UNL     1      64.289  29.548  60.350  1.00  0.00    -0.003 C 
ATOM     16  C   UNL     1      65.397  30.430  59.781  1.00  0.00     0.004 C 
ENDBRANCH  14  15
ENDBRANCH  13  14
ENDBRANCH  12  13
ENDBRANCH  11  12
ENDBRANCH  10  11
ENDBRANCH   1  10
TORSDOF 12
ENDMDL
MODEL 5
REMARK VINA RESULT:    -3.182     10.944     12.943
REMARK INTER + INTRA:          -7.100
REMARK INTER:                  -5.489
REMARK INTRA:                  -1.611
REMARK UNBOUND:                -1.686
REMARK SMILES CCCCCCCCCCCCCC(=O)[O-]
REMARK SMILES IDX 8 1 9 2 10 3 11 4 12 5 13 6 14 7 15 8 16 9 7 10 6 11 5 12
REMARK SMILES IDX 4 13 3 14 2 15 1 16
REMARK H PARENT
REMARK Flexibility Score: inf
ROOT
ATOM      1  C   UNL     1      58.968  29.095  51.100  1.00  0.00     0.000 C 
ENDROOT
BRANCH   1   2
ATOM      2  C   UNL     1      59.044  29.035  49.565  1.00  0.00     0.000 C 
BRANCH   2   3
ATOM      3  C   UNL     1      59.836  27.820  49.058  1.00  0.00     0.000 C 
BRANCH   3   4
ATOM      4  C   UNL     1      61.268  27.832  49.605  1.00  0.00     0.000 C 
BRANCH   4   5
ATOM      5  C   UNL     1      61.617  26.490  50.265  1.00  0.00     0.006 C 
BRANCH   5   6
ATOM      6  C   UNL     1      60.536  25.427  50.025  1.00  0.00     0.053 C 
BRANCH   6   7
ATOM      7  C   UNL     1      61.095  24.039  50.096  1.00  0.00     0.041 C 
ATOM      8  O   UNL     1      60.354  23.044  49.880  1.00  0.00    -0.550 OA
ATOM      9  O   UNL     1      62.444  23.844  50.368  1.00  0.00    -0.550 OA
ENDBRANCH   6   7
ENDBRANCH   5   6
ENDBRANCH   4   5
ENDBRANCH   3   4
ENDBRANCH   2   3
ENDBRANCH   1   2
BRANCH   1  10
ATOM     10  C   UNL     1      57.662  28.495  51.649  1.00  0.00     0.000 C 
BRANCH  10  11
ATOM     11  C   UNL     1      57.809  27.022  52.071  1.00  0.00    -0.000 C 
BRANCH  11  12
ATOM     12  C   UNL     1      56.763  26.060  51.479  1.00  0.00    -0.000 C 
BRANCH  12  13
ATOM     13  C   UNL     1      56.551  26.261  49.968  1.00  0.00    -0.000 C 
BRANCH  13  14
ATOM     14  C   UNL     1      55.120  25.920  49.523  1.00  0.00    -0.000 C 
BRANCH  14  15
ATOM     15  C   UNL     1      54.059  26.772  50.234  1.00  0.00    -0.003 C 
ATOM     16  C   UNL     1      54.290  28.259  49.980  1.00  0.00     0.004 C 
ENDBRANCH  14  15
ENDBRANCH  13  14
ENDBRANCH  12  13
ENDBRANCH  11  12
ENDBRANCH  10  11
ENDBRANCH   1  10
TORSDOF 12
ENDMDL
MODEL 6
REMARK VINA RESULT:    -3.174     10.574     12.484
REMARK INTER + INTRA:          -7.086
REMARK INTER:                  -5.011
REMARK INTRA:                  -2.074
REMARK UNBOUND:                -1.686
REMARK SMILES CCCCCCCCCCCCCC(=O)[O-]
REMARK SMILES IDX 8 1 9 2 10 3 11 4 12 5 13 6 14 7 15 8 16 9 7 10 6 11 5 12
REMARK SMILES IDX 4 13 3 14 2 15 1 16
REMARK H PARENT
REMARK Flexibility Score: inf
ROOT
ATOM      1  C   UNL     1      55.855  28.890  51.707  1.00  0.00     0.000 C 
ENDROOT
BRANCH   1   2
ATOM      2  C   UNL     1      57.315  29.359  51.599  1.00  0.00     0.000 C 
BRANCH   2   3
ATOM      3  C   UNL     1      57.869  29.248  50.170  1.00  0.00     0.000 C 
BRANCH   3   4
ATOM      4  C   UNL     1      59.390  29.053  50.186  1.00  0.00     0.000 C 
BRANCH   4   5
ATOM      5  C   UNL     1      59.831  28.078  49.083  1.00  0.00     0.006 C 
BRANCH   5   6
ATOM      6  C   UNL     1      60.850  27.049  49.591  1.00  0.00     0.053 C 
BRANCH   6   7
ATOM      7  C   UNL     1      62.221  27.641  49.721  1.00  0.00     0.041 C 
ATOM      8  O   UNL     1      62.642  28.022  50.844  1.00  0.00    -0.550 OA
ATOM      9  O   UNL     1      63.045  27.740  48.607  1.00  0.00    -0.550 OA
ENDBRANCH   6   7
ENDBRANCH   5   6
ENDBRANCH   4   5
ENDBRANCH   3   4
ENDBRANCH   2   3
ENDBRANCH   1   2
BRANCH   1  10
ATOM     10  C   UNL     1      55.178  28.750  50.332  1.00  0.00     0.000 C 
BRANCH  10  11
ATOM     11  C   UNL     1      54.728  27.309  50.029  1.00  0.00    -0.000 C 
BRANCH  11  12
ATOM     12  C   UNL     1      55.543  26.204  50.726  1.00  0.00    -0.000 C 
BRANCH  12  13
ATOM     13  C   UNL     1      56.837  25.849  49.974  1.00  0.00    -0.000 C 
BRANCH  13  14
ATOM     14  C   UNL     1      57.935  25.318  50.909  1.00  0.00    -0.000 C 
BRANCH  14  15
ATOM     15  C   UNL     1      57.732  25.752  52.368  1.00  0.00    -0.003 C 
ATOM     16  C   UNL     1      59.011  26.352  52.945  1.00  0.00     0.004 C 
ENDBRANCH  14  15
ENDBRANCH  13  14
ENDBRANCH  12  13
ENDBRANCH  11  12
ENDBRANCH  10  11
ENDBRANCH   1  10
TORSDOF 12
ENDMDL
MODEL 7
REMARK VINA RESULT:    -3.160      3.430      5.355
REMARK INTER + INTRA:          -7.063
REMARK INTER:                  -5.218
REMARK INTRA:                  -1.845
REMARK UNBOUND:                -1.686
REMARK SMILES CCCCCCCCCCCCCC(=O)[O-]
REMARK SMILES IDX 8 1 9 2 10 3 11 4 12 5 13 6 14 7 15 8 16 9 7 10 6 11 5 12
REMARK SMILES IDX 4 13 3 14 2 15 1 16
REMARK H PARENT
REMARK Flexibility Score: inf
ROOT
ATOM      1  C   UNL     1      61.692  31.430  58.149  1.00  0.00     0.000 C 
ENDROOT
BRANCH   1   2
ATOM      2  C   UNL     1      62.592  32.615  58.536  1.00  0.00     0.000 C 
BRANCH   2   3
ATOM      3  C   UNL     1      61.817  33.748  59.228  1.00  0.00     0.000 C 
BRANCH   3   4
ATOM      4  C   UNL     1      62.383  34.023  60.626  1.00  0.00     0.000 C 
BRANCH   4   5
ATOM      5  C   UNL     1      63.911  33.870  60.641  1.00  0.00     0.006 C 
BRANCH   5   6
ATOM      6  C   UNL     1      64.589  34.899  61.557  1.00  0.00     0.053 C 
BRANCH   6   7
ATOM      7  C   UNL     1      64.369  36.301  61.076  1.00  0.00     0.041 C 
ATOM      8  O   UNL     1      63.659  37.097  61.744  1.00  0.00    -0.550 OA
ATOM      9  O   UNL     1      64.977  36.739  59.905  1.00  0.00    -0.550 OA
ENDBRANCH   6   7
ENDBRANCH   5   6
ENDBRANCH   4   5
ENDBRANCH   3   4
ENDBRANCH   2   3
ENDBRANCH   1   2
BRANCH   1  10
ATOM     10  C   UNL     1      60.367  31.417  58.932  1.00  0.00     0.000 C 
BRANCH  10  11
ATOM     11  C   UNL     1      60.327  30.335  60.026  1.00  0.00    -0.000 C 
BRANCH  11  12
ATOM     12  C   UNL     1      60.936  30.744  61.379  1.00  0.00    -0.000 C 
BRANCH  12  13
ATOM     13  C   UNL     1      62.080  29.818  61.827  1.00  0.00    -0.000 C 
BRANCH  13  14
ATOM     14  C   UNL     1      63.466  30.380  61.472  1.00  0.00    -0.000 C 
BRANCH  14  15
ATOM     15  C   UNL     1      64.436  29.296  60.980  1.00  0.00    -0.003 C 
ATOM     16  C   UNL     1      64.217  28.994  59.500  1.00  0.00     0.004 C 
ENDBRANCH  14  15
ENDBRANCH  13  14
ENDBRANCH  12  13
ENDBRANCH  11  12
ENDBRANCH  10  11
ENDBRANCH   1  10
TORSDOF 12
ENDMDL
MODEL 8
REMARK VINA RESULT:    -3.148      3.422      5.941
REMARK INTER + INTRA:          -7.043
REMARK INTER:                  -5.354
REMARK INTRA:                  -1.689
REMARK UNBOUND:                -1.686
REMARK SMILES CCCCCCCCCCCCCC(=O)[O-]
REMARK SMILES IDX 8 1 9 2 10 3 11 4 12 5 13 6 14 7 15 8 16 9 7 10 6 11 5 12
REMARK SMILES IDX 4 13 3 14 2 15 1 16
REMARK H PARENT
REMARK Flexibility Score: inf
ROOT
ATOM      1  C   UNL     1      64.526  31.751  59.915  1.00  0.00     0.000 C 
ENDROOT
BRANCH   1   2
ATOM      2  C   UNL     1      64.165  33.233  59.716  1.00  0.00     0.000 C 
BRANCH   2   3
ATOM      3  C   UNL     1      64.333  34.061  60.999  1.00  0.00     0.000 C 
BRANCH   3   4
ATOM      4  C   UNL     1      63.288  35.183  61.068  1.00  0.00     0.000 C 
BRANCH   4   5
ATOM      5  C   UNL     1      61.952  34.727  60.462  1.00  0.00     0.006 C 
BRANCH   5   6
ATOM      6  C   UNL     1      60.901  35.846  60.468  1.00  0.00     0.053 C 
BRANCH   6   7
ATOM      7  C   UNL     1      60.435  36.178  59.083  1.00  0.00     0.041 C 
ATOM      8  O   UNL     1      59.212  36.360  58.852  1.00  0.00    -0.550 OA
ATOM      9  O   UNL     1      61.358  36.320  58.053  1.00  0.00    -0.550 OA
ENDBRANCH   6   7
ENDBRANCH   5   6
ENDBRANCH   4   5
ENDBRANCH   3   4
ENDBRANCH   2   3
ENDBRANCH   1   2
BRANCH   1  10
ATOM     10  C   UNL     1      64.145  31.235  61.314  1.00  0.00     0.000 C 
BRANCH  10  11
ATOM     11  C   UNL     1      63.282  29.961  61.269  1.00  0.00    -0.000 C 
BRANCH  11  12
ATOM     12  C   UNL     1      61.838  30.126  61.777  1.00  0.00    -0.000 C 
BRANCH  12  13
ATOM     13  C   UNL     1      61.093  31.287  61.097  1.00  0.00    -0.000 C 
BRANCH  13  14
ATOM     14  C   UNL     1      60.441  30.871  59.768  1.00  0.00    -0.000 C 
BRANCH  14  15
ATOM     15  C   UNL     1      60.418  32.009  58.738  1.00  0.00    -0.003 C 
ATOM     16  C   UNL     1      61.558  31.865  57.734  1.00  0.00     0.004 C 
ENDBRANCH  14  15
ENDBRANCH  13  14
ENDBRANCH  12  13
ENDBRANCH  11  12
ENDBRANCH  10  11
ENDBRANCH   1  10
TORSDOF 12
ENDMDL
MODEL 9
REMARK VINA RESULT:    -3.127      3.307      5.599
REMARK INTER + INTRA:          -7.006
REMARK INTER:                  -4.889
REMARK INTRA:                  -2.117
REMARK UNBOUND:                -1.686
REMARK SMILES CCCCCCCCCCCCCC(=O)[O-]
REMARK SMILES IDX 8 1 9 2 10 3 11 4 12 5 13 6 14 7 15 8 16 9 7 10 6 11 5 12
REMARK SMILES IDX 4 13 3 14 2 15 1 16
REMARK H PARENT
REMARK Flexibility Score: inf
ROOT
ATOM      1  C   UNL     1      63.727  30.726  58.299  1.00  0.00     0.000 C 
ENDROOT
BRANCH   1   2
ATOM      2  C   UNL     1      63.613  32.126  57.674  1.00  0.00     0.000 C 
BRANCH   2   3
ATOM      3  C   UNL     1      63.869  33.251  58.689  1.00  0.00     0.000 C 
BRANCH   3   4
ATOM      4  C   UNL     1      62.549  33.790  59.255  1.00  0.00     0.000 C 
BRANCH   4   5
ATOM      5  C   UNL     1      62.712  34.216  60.721  1.00  0.00     0.006 C 
BRANCH   5   6
ATOM      6  C   UNL     1      64.183  34.228  61.163  1.00  0.00     0.053 C 
BRANCH   6   7
ATOM      7  C   UNL     1      64.672  35.619  61.428  1.00  0.00     0.041 C 
ATOM      8  O   UNL     1      63.874  36.507  61.825  1.00  0.00    -0.550 OA
ATOM      9  O   UNL     1      66.019  35.925  61.269  1.00  0.00    -0.550 OA
ENDBRANCH   6   7
ENDBRANCH   5   6
ENDBRANCH   4   5
ENDBRANCH   3   4
ENDBRANCH   2   3
ENDBRANCH   1   2
BRANCH   1  10
ATOM     10  C   UNL     1      64.879  30.626  59.314  1.00  0.00     0.000 C 
BRANCH  10  11
ATOM     11  C   UNL     1      64.488  29.860  60.591  1.00  0.00    -0.000 C 
BRANCH  11  12
ATOM     12  C   UNL     1      63.543  30.612  61.546  1.00  0.00    -0.000 C 
BRANCH  12  13
ATOM     13  C   UNL     1      62.185  29.911  61.720  1.00  0.00    -0.000 C 
BRANCH  13  14
ATOM     14  C   UNL     1      61.011  30.767  61.216  1.00  0.00    -0.000 C 
BRANCH  14  15
ATOM     15  C   UNL     1      60.358  30.191  59.951  1.00  0.00    -0.003 C 
ATOM     16  C   UNL     1      60.045  31.294  58.944  1.00  0.00     0.004 C 
ENDBRANCH  14  15
ENDBRANCH  13  14
ENDBRANCH  12  13
ENDBRANCH  11  12
ENDBRANCH  10  11
ENDBRANCH   1  10
TORSDOF 12
ENDMDL
