MODEL 1
REMARK VINA RESULT:    -2.510      0.000      0.000
REMARK INTER + INTRA:          -6.151
REMARK INTER:                  -4.857
REMARK INTRA:                  -1.294
REMARK UNBOUND:                -1.294
REMARK SMILES CCCCCCCCCCCCCCCCCC(=O)[O-]
REMARK SMILES IDX 10 1 11 2 12 3 13 4 14 5 15 6 16 7 17 8 18 9 19 10 20 11
REMARK SMILES IDX 9 12 8 13 7 14 6 15 5 16 4 17 3 18 2 19 1 20
REMARK H PARENT
REMARK Flexibility Score: inf
ROOT
ATOM      1  C   UNL     1      10.708  -8.006  -6.919  1.00  0.00     0.000 C 
ENDROOT
BRANCH   1   2
ATOM      2  C   UNL     1      10.571  -7.811  -5.401  1.00  0.00     0.000 C 
BRANCH   2   3
ATOM      3  C   UNL     1      11.944  -7.831  -4.720  1.00  0.00     0.000 C 
BRANCH   3   4
ATOM      4  C   UNL     1      11.806  -7.651  -3.200  1.00  0.00     0.000 C 
BRANCH   4   5
ATOM      5  C   UNL     1      10.813  -6.540  -2.822  1.00  0.00     0.000 C 
BRANCH   5   6
ATOM      6  C   UNL     1      11.519  -5.250  -2.368  1.00  0.00     0.000 C 
BRANCH   6   7
ATOM      7  C   UNL     1      12.125  -4.464  -3.542  1.00  0.00     0.006 C 
BRANCH   7   8
ATOM      8  C   UNL     1      11.059  -3.779  -4.409  1.00  0.00     0.053 C 
BRANCH   8   9
ATOM      9  C   UNL     1      10.949  -4.462  -5.736  1.00  0.00     0.041 C 
ATOM     10  O   UNL     1       9.818  -4.759  -6.203  1.00  0.00    -0.550 OA
ATOM     11  O   UNL     1      12.092  -4.725  -6.480  1.00  0.00    -0.550 OA
ENDBRANCH   8   9
ENDBRANCH   7   8
ENDBRANCH   6   7
ENDBRANCH   5   6
ENDBRANCH   4   5
ENDBRANCH   3   4
ENDBRANCH   2   3
ENDBRANCH   1   2
BRANCH   1  12
ATOM     12  C   UNL     1       9.372  -7.842  -7.664  1.00  0.00     0.000 C 
BRANCH  12  13
ATOM     13  C   UNL     1       9.518  -8.014  -9.186  1.00  0.00    -0.000 C 
BRANCH  13  14
ATOM     14  C   UNL     1       9.990  -6.728  -9.881  1.00  0.00    -0.000 C 
BRANCH  14  15
ATOM     15  C   UNL     1       8.842  -5.731 -10.125  1.00  0.00    -0.000 C 
BRANCH  15  16
ATOM     16  C   UNL     1       9.136  -4.342  -9.540  1.00  0.00    -0.000 C 
BRANCH  16  17
ATOM     17  C   UNL     1       7.879  -3.666  -8.964  1.00  0.00    -0.000 C 
BRANCH  17  18
ATOM     18  C   UNL     1       6.612  -4.524  -9.131  1.00  0.00    -0.000 C 
BRANCH  18  19
ATOM     19  C   UNL     1       5.544  -3.923 -10.063  1.00  0.00    -0.003 C 
ATOM     20  C   UNL     1       4.136  -3.971  -9.468  1.00  0.00     0.004 C 
ENDBRANCH  18  19
ENDBRANCH  17  18
ENDBRANCH  16  17
ENDBRANCH  15  16
ENDBRANCH  14  15
ENDBRANCH  13  14
ENDBRANCH  12  13
ENDBRANCH   1  12
TORSDOF 16
ENDMDL
MODEL 2
REMARK VINA RESULT:    -2.401      2.732      7.020
REMARK INTER + INTRA:          -5.941
REMARK INTER:                  -5.216
REMARK INTRA:                  -0.725
REMARK UNBOUND:                -1.294
REMARK SMILES CCCCCCCCCCCCCCCCCC(=O)[O-]
REMARK SMILES IDX 10 1 11 2 12 3 13 4 14 5 15 6 16 7 17 8 18 9 19 10 20 11
REMARK SMILES IDX 9 12 8 13 7 14 6 15 5 16 4 17 3 18 2 19 1 20
REMARK H PARENT
REMARK Flexibility Score: inf
ROOT
ATOM      1  C   UNL     1       8.993  -6.423  -6.495  1.00  0.00     0.000 C 
ENDROOT
BRANCH   1   2
ATOM      2  C   UNL     1       8.490  -7.028  -7.814  1.00  0.00     0.000 C 
BRANCH   2   3
ATOM      3  C   UNL     1       9.398  -6.628  -8.983  1.00  0.00     0.000 C 
BRANCH   3   4
ATOM      4  C   UNL     1       9.838  -5.161  -8.860  1.00  0.00     0.000 C 
BRANCH   4   5
ATOM      5  C   UNL     1       9.158  -4.247  -9.893  1.00  0.00     0.000 C 
BRANCH   5   6
ATOM      6  C   UNL     1       7.681  -4.614 -10.119  1.00  0.00     0.000 C 
BRANCH   6   7
ATOM      7  C   UNL     1       6.718  -3.520  -9.630  1.00  0.00     0.006 C 
BRANCH   7   8
ATOM      8  C   UNL     1       5.529  -4.085  -8.841  1.00  0.00     0.053 C 
BRANCH   8   9
ATOM      9  C   UNL     1       4.245  -3.504  -9.346  1.00  0.00     0.041 C 
ATOM     10  O   UNL     1       3.377  -4.248  -9.874  1.00  0.00    -0.550 OA
ATOM     11  O   UNL     1       3.985  -2.149  -9.187  1.00  0.00    -0.550 OA
ENDBRANCH   8   9
ENDBRANCH   7   8
ENDBRANCH   6   7
ENDBRANCH   5   6
ENDBRANCH   4   5
ENDBRANCH   3   4
ENDBRANCH   2   3
ENDBRANCH   1   2
BRANCH   1  12
ATOM     12  C   UNL     1      10.024  -7.315  -5.784  1.00  0.00     0.000 C 
BRANCH  12  13
ATOM     13  C   UNL     1      11.475  -6.931  -6.123  1.00  0.00    -0.000 C 
BRANCH  13  14
ATOM     14  C   UNL     1      11.811  -5.487  -5.717  1.00  0.00    -0.000 C 
BRANCH  14  15
ATOM     15  C   UNL     1      10.572  -4.699  -5.254  1.00  0.00    -0.000 C 
BRANCH  15  16
ATOM     16  C   UNL     1      10.766  -4.061  -3.870  1.00  0.00    -0.000 C 
BRANCH  16  17
ATOM     17  C   UNL     1      12.125  -4.415  -3.242  1.00  0.00    -0.000 C 
BRANCH  17  18
ATOM     18  C   UNL     1      12.008  -5.453  -2.111  1.00  0.00    -0.000 C 
BRANCH  18  19
ATOM     19  C   UNL     1      11.214  -6.720  -2.478  1.00  0.00    -0.003 C 
ATOM     20  C   UNL     1      12.109  -7.938  -2.711  1.00  0.00     0.004 C 
ENDBRANCH  18  19
ENDBRANCH  17  18
ENDBRANCH  16  17
ENDBRANCH  15  16
ENDBRANCH  14  15
ENDBRANCH  13  14
ENDBRANCH  12  13
ENDBRANCH   1  12
TORSDOF 16
ENDMDL
MODEL 3
REMARK VINA RESULT:    -2.003      2.705      7.065
REMARK INTER + INTRA:          -5.171
REMARK INTER:                  -3.929
REMARK INTRA:                  -1.242
REMARK UNBOUND:                -1.294
REMARK SMILES CCCCCCCCCCCCCCCCCC(=O)[O-]
REMARK SMILES IDX 10 1 11 2 12 3 13 4 14 5 15 6 16 7 17 8 18 9 19 10 20 11
REMARK SMILES IDX 9 12 8 13 7 14 6 15 5 16 4 17 3 18 2 19 1 20
REMARK H PARENT
REMARK Flexibility Score: inf
ROOT
ATOM      1  C   UNL     1      11.731  -4.348  -7.501  1.00  0.00     0.000 C 
ENDROOT
BRANCH   1   2
ATOM      2  C   UNL     1      11.981  -5.277  -8.698  1.00  0.00     0.000 C 
BRANCH   2   3
ATOM      3  C   UNL     1      10.766  -5.307  -9.633  1.00  0.00     0.000 C 
BRANCH   3   4
ATOM      4  C   UNL     1      10.162  -3.903  -9.794  1.00  0.00     0.000 C 
BRANCH   4   5
ATOM      5  C   UNL     1       8.649  -3.936 -10.066  1.00  0.00     0.000 C 
BRANCH   5   6
ATOM      6  C   UNL     1       7.880  -4.749  -9.010  1.00  0.00     0.000 C 
BRANCH   6   7
ATOM      7  C   UNL     1       6.489  -4.164  -8.712  1.00  0.00     0.006 C 
BRANCH   7   8
ATOM      8  C   UNL     1       5.484  -4.421  -9.843  1.00  0.00     0.053 C 
BRANCH   8   9
ATOM      9  C   UNL     1       4.180  -3.748  -9.544  1.00  0.00     0.041 C 
ATOM     10  O   UNL     1       4.153  -2.526  -9.243  1.00  0.00    -0.550 OA
ATOM     11  O   UNL     1       2.991  -4.458  -9.649  1.00  0.00    -0.550 OA
ENDBRANCH   8   9
ENDBRANCH   7   8
ENDBRANCH   6   7
ENDBRANCH   5   6
ENDBRANCH   4   5
ENDBRANCH   3   4
ENDBRANCH   2   3
ENDBRANCH   1   2
BRANCH   1  12
ATOM     12  C   UNL     1      12.123  -4.988  -6.158  1.00  0.00     0.000 C 
BRANCH  12  13
ATOM     13  C   UNL     1      12.040  -3.999  -4.983  1.00  0.00    -0.000 C 
BRANCH  13  14
ATOM     14  C   UNL     1      11.038  -4.445  -3.907  1.00  0.00    -0.000 C 
BRANCH  14  15
ATOM     15  C   UNL     1      11.717  -5.172  -2.732  1.00  0.00    -0.000 C 
BRANCH  15  16
ATOM     16  C   UNL     1      11.488  -6.691  -2.770  1.00  0.00    -0.000 C 
BRANCH  16  17
ATOM     17  C   UNL     1      10.703  -7.138  -4.016  1.00  0.00    -0.000 C 
BRANCH  17  18
ATOM     18  C   UNL     1      11.540  -8.013  -4.966  1.00  0.00    -0.000 C 
BRANCH  18  19
ATOM     19  C   UNL     1      10.983  -8.125  -6.398  1.00  0.00    -0.003 C 
ATOM     20  C   UNL     1       9.514  -7.713  -6.501  1.00  0.00     0.004 C 
ENDBRANCH  18  19
ENDBRANCH  17  18
ENDBRANCH  16  17
ENDBRANCH  15  16
ENDBRANCH  14  15
ENDBRANCH  13  14
ENDBRANCH  12  13
ENDBRANCH   1  12
TORSDOF 16
ENDMDL
MODEL 4
REMARK VINA RESULT:    -1.042      2.459      6.798
REMARK INTER + INTRA:          -3.311
REMARK INTER:                  -3.128
REMARK INTRA:                  -0.182
REMARK UNBOUND:                -1.294
REMARK SMILES CCCCCCCCCCCCCCCCCC(=O)[O-]
REMARK SMILES IDX 10 1 11 2 12 3 13 4 14 5 15 6 16 7 17 8 18 9 19 10 20 11
REMARK SMILES IDX 9 12 8 13 7 14 6 15 5 16 4 17 3 18 2 19 1 20
REMARK H PARENT
REMARK Flexibility Score: inf
ROOT
ATOM      1  C   UNL     1      12.012  -5.029  -7.288  1.00  0.00     0.000 C 
ENDROOT
BRANCH   1   2
ATOM      2  C   UNL     1      12.097  -3.999  -8.425  1.00  0.00     0.000 C 
BRANCH   2   3
ATOM      3  C   UNL     1      11.460  -4.544  -9.708  1.00  0.00     0.000 C 
BRANCH   3   4
ATOM      4  C   UNL     1      10.249  -3.694 -10.125  1.00  0.00     0.000 C 
BRANCH   4   5
ATOM      5  C   UNL     1       8.924  -4.470 -10.044  1.00  0.00     0.000 C 
BRANCH   5   6
ATOM      6  C   UNL     1       8.645  -5.012  -8.631  1.00  0.00     0.000 C 
BRANCH   6   7
ATOM      7  C   UNL     1       7.294  -4.537  -8.072  1.00  0.00     0.006 C 
BRANCH   7   8
ATOM      8  C   UNL     1       6.162  -4.623  -9.105  1.00  0.00     0.053 C 
BRANCH   8   9
ATOM      9  C   UNL     1       5.733  -3.251  -9.523  1.00  0.00     0.041 C 
ATOM     10  O   UNL     1       4.536  -2.888  -9.371  1.00  0.00    -0.550 OA
ATOM     11  O   UNL     1       6.665  -2.355 -10.030  1.00  0.00    -0.550 OA
ENDBRANCH   8   9
ENDBRANCH   7   8
ENDBRANCH   6   7
ENDBRANCH   5   6
ENDBRANCH   4   5
ENDBRANCH   3   4
ENDBRANCH   2   3
ENDBRANCH   1   2
BRANCH   1  12
ATOM     12  C   UNL     1      12.067  -6.480  -7.794  1.00  0.00     0.000 C 
BRANCH  12  13
ATOM     13  C   UNL     1      11.707  -7.502  -6.701  1.00  0.00    -0.000 C 
BRANCH  13  14
ATOM     14  C   UNL     1      10.887  -6.879  -5.561  1.00  0.00    -0.000 C 
BRANCH  14  15
ATOM     15  C   UNL     1      11.751  -6.513  -4.341  1.00  0.00    -0.000 C 
BRANCH  15  16
ATOM     16  C   UNL     1      11.106  -6.939  -3.014  1.00  0.00    -0.000 C 
BRANCH  16  17
ATOM     17  C   UNL     1      11.558  -6.065  -1.831  1.00  0.00    -0.000 C 
BRANCH  17  18
ATOM     18  C   UNL     1      12.125  -4.705  -2.276  1.00  0.00    -0.000 C 
BRANCH  18  19
ATOM     19  C   UNL     1      11.313  -3.997  -3.376  1.00  0.00    -0.003 C 
ATOM     20  C   UNL     1      12.021  -2.766  -3.942  1.00  0.00     0.004 C 
ENDBRANCH  18  19
ENDBRANCH  17  18
ENDBRANCH  16  17
ENDBRANCH  15  16
ENDBRANCH  14  15
ENDBRANCH  13  14
ENDBRANCH  12  13
ENDBRANCH   1  12
TORSDOF 16
ENDMDL
MODEL 5
REMARK VINA RESULT:    -1.042      1.898      4.386
REMARK INTER + INTRA:          -3.310
REMARK INTER:                  -2.904
REMARK INTRA:                  -0.406
REMARK UNBOUND:                -1.294
REMARK SMILES CCCCCCCCCCCCCCCCCC(=O)[O-]
REMARK SMILES IDX 10 1 11 2 12 3 13 4 14 5 15 6 16 7 17 8 18 9 19 10 20 11
REMARK SMILES IDX 9 12 8 13 7 14 6 15 5 16 4 17 3 18 2 19 1 20
REMARK H PARENT
REMARK Flexibility Score: inf
ROOT
ATOM      1  C   UNL     1       9.427  -4.437  -8.788  1.00  0.00     0.000 C 
ENDROOT
BRANCH   1   2
ATOM      2  C   UNL     1       8.928  -5.438  -7.736  1.00  0.00     0.000 C 
BRANCH   2   3
ATOM      3  C   UNL     1       9.043  -6.878  -8.251  1.00  0.00     0.000 C 
BRANCH   3   4
ATOM      4  C   UNL     1      10.235  -7.026  -9.208  1.00  0.00     0.000 C 
BRANCH   4   5
ATOM      5  C   UNL     1      11.589  -7.006  -8.479  1.00  0.00     0.000 C 
BRANCH   5   6
ATOM      6  C   UNL     1      11.559  -7.803  -7.163  1.00  0.00     0.000 C 
BRANCH   6   7
ATOM      7  C   UNL     1      12.122  -7.005  -5.976  1.00  0.00     0.006 C 
BRANCH   7   8
ATOM      8  C   UNL     1      11.087  -6.790  -4.862  1.00  0.00     0.053 C 
BRANCH   8   9
ATOM      9  C   UNL     1      11.249  -5.431  -4.256  1.00  0.00     0.041 C 
ATOM     10  O   UNL     1      11.917  -5.284  -3.199  1.00  0.00    -0.550 OA
ATOM     11  O   UNL     1      10.707  -4.319  -4.888  1.00  0.00    -0.550 OA
ENDBRANCH   8   9
ENDBRANCH   7   8
ENDBRANCH   6   7
ENDBRANCH   5   6
ENDBRANCH   4   5
ENDBRANCH   3   4
ENDBRANCH   2   3
ENDBRANCH   1   2
BRANCH   1  12
ATOM     12  C   UNL     1       8.321  -3.989  -9.757  1.00  0.00     0.000 C 
BRANCH  12  13
ATOM     13  C   UNL     1       7.171  -5.006  -9.854  1.00  0.00    -0.000 C 
BRANCH  13  14
ATOM     14  C   UNL     1       5.811  -4.335 -10.105  1.00  0.00    -0.000 C 
BRANCH  14  15
ATOM     15  C   UNL     1       5.140  -3.852  -8.807  1.00  0.00    -0.000 C 
BRANCH  15  16
ATOM     16  C   UNL     1       3.798  -3.150  -9.064  1.00  0.00    -0.000 C 
BRANCH  16  17
ATOM     17  C   UNL     1       2.936  -3.890 -10.101  1.00  0.00    -0.000 C 
BRANCH  17  18
ATOM     18  C   UNL     1       2.984  -5.420  -9.934  1.00  0.00    -0.000 C 
BRANCH  18  19
ATOM     19  C   UNL     1       1.631  -6.132 -10.120  1.00  0.00    -0.003 C 
ATOM     20  C   UNL     1       1.442  -7.313  -9.167  1.00  0.00     0.004 C 
ENDBRANCH  18  19
ENDBRANCH  17  18
ENDBRANCH  16  17
ENDBRANCH  15  16
ENDBRANCH  14  15
ENDBRANCH  13  14
ENDBRANCH  12  13
ENDBRANCH   1  12
TORSDOF 16
ENDMDL
MODEL 6
REMARK VINA RESULT:    -0.201     15.539     17.274
REMARK INTER + INTRA:          -1.684
REMARK INTER:                  -1.625
REMARK INTRA:                  -0.059
REMARK UNBOUND:                -1.294
REMARK SMILES CCCCCCCCCCCCCCCCCC(=O)[O-]
REMARK SMILES IDX 10 1 11 2 12 3 13 4 14 5 15 6 16 7 17 8 18 9 19 10 20 11
REMARK SMILES IDX 9 12 8 13 7 14 6 15 5 16 4 17 3 18 2 19 1 20
REMARK H PARENT
REMARK Flexibility Score: inf
ROOT
ATOM      1  C   UNL     1      -7.255  -6.983  -5.404  1.00  0.00     0.000 C 
ENDROOT
BRANCH   1   2
ATOM      2  C   UNL     1      -7.133  -7.953  -6.589  1.00  0.00     0.000 C 
BRANCH   2   3
ATOM      3  C   UNL     1      -5.689  -8.017  -7.100  1.00  0.00     0.000 C 
BRANCH   3   4
ATOM      4  C   UNL     1      -5.475  -7.036  -8.263  1.00  0.00     0.000 C 
BRANCH   4   5
ATOM      5  C   UNL     1      -6.419  -7.303  -9.447  1.00  0.00     0.000 C 
BRANCH   5   6
ATOM      6  C   UNL     1      -7.650  -6.381  -9.436  1.00  0.00     0.000 C 
BRANCH   6   7
ATOM      7  C   UNL     1      -7.312  -4.939  -9.850  1.00  0.00     0.006 C 
BRANCH   7   8
ATOM      8  C   UNL     1      -5.815  -4.737 -10.123  1.00  0.00     0.053 C 
BRANCH   8   9
ATOM      9  C   UNL     1      -5.449  -3.293  -9.974  1.00  0.00     0.041 C 
ATOM     10  O   UNL     1      -6.348  -2.413  -9.921  1.00  0.00    -0.550 OA
ATOM     11  O   UNL     1      -4.116  -2.925  -9.841  1.00  0.00    -0.550 OA
ENDBRANCH   8   9
ENDBRANCH   7   8
ENDBRANCH   6   7
ENDBRANCH   5   6
ENDBRANCH   4   5
ENDBRANCH   3   4
ENDBRANCH   2   3
ENDBRANCH   1   2
BRANCH   1  12
ATOM     12  C   UNL     1      -5.999  -6.118  -5.210  1.00  0.00     0.000 C 
BRANCH  12  13
ATOM     13  C   UNL     1      -6.083  -4.776  -5.957  1.00  0.00    -0.000 C 
BRANCH  13  14
ATOM     14  C   UNL     1      -7.526  -4.396  -6.325  1.00  0.00    -0.000 C 
BRANCH  14  15
ATOM     15  C   UNL     1      -7.796  -2.888  -6.181  1.00  0.00    -0.000 C 
BRANCH  15  16
ATOM     16  C   UNL     1      -7.680  -2.140  -7.519  1.00  0.00    -0.000 C 
BRANCH  16  17
ATOM     17  C   UNL     1      -8.119  -0.670  -7.412  1.00  0.00    -0.000 C 
BRANCH  17  18
ATOM     18  C   UNL     1      -7.715  -0.021  -6.076  1.00  0.00    -0.000 C 
BRANCH  18  19
ATOM     19  C   UNL     1      -7.856   1.512  -6.034  1.00  0.00    -0.003 C 
ATOM     20  C   UNL     1      -8.011   2.135  -7.422  1.00  0.00     0.004 C 
ENDBRANCH  18  19
ENDBRANCH  17  18
ENDBRANCH  16  17
ENDBRANCH  15  16
ENDBRANCH  14  15
ENDBRANCH  13  14
ENDBRANCH  12  13
ENDBRANCH   1  12
TORSDOF 16
ENDMDL
MODEL 7
REMARK VINA RESULT:     0.116     15.200     16.841
REMARK INTER + INTRA:          -1.069
REMARK INTER:                  -1.352
REMARK INTRA:                   0.283
REMARK UNBOUND:                -1.294
REMARK SMILES CCCCCCCCCCCCCCCCCC(=O)[O-]
REMARK SMILES IDX 10 1 11 2 12 3 13 4 14 5 15 6 16 7 17 8 18 9 19 10 20 11
REMARK SMILES IDX 9 12 8 13 7 14 6 15 5 16 4 17 3 18 2 19 1 20
REMARK H PARENT
REMARK Flexibility Score: inf
ROOT
ATOM      1  C   UNL     1      -4.641  -5.982  -6.384  1.00  0.00     0.000 C 
ENDROOT
BRANCH   1   2
ATOM      2  C   UNL     1      -5.508  -6.963  -5.581  1.00  0.00     0.000 C 
BRANCH   2   3
ATOM      3  C   UNL     1      -6.990  -6.807  -5.941  1.00  0.00     0.000 C 
BRANCH   3   4
ATOM      4  C   UNL     1      -7.801  -6.316  -4.732  1.00  0.00     0.000 C 
BRANCH   4   5
ATOM      5  C   UNL     1      -8.081  -4.805  -4.778  1.00  0.00     0.000 C 
BRANCH   5   6
ATOM      6  C   UNL     1      -6.796  -3.974  -4.950  1.00  0.00     0.000 C 
BRANCH   6   7
ATOM      7  C   UNL     1      -6.890  -2.976  -6.116  1.00  0.00     0.006 C 
BRANCH   7   8
ATOM      8  C   UNL     1      -6.987  -1.519  -5.642  1.00  0.00     0.053 C 
BRANCH   8   9
ATOM      9  C   UNL     1      -7.786  -0.708  -6.613  1.00  0.00     0.041 C 
ATOM     10  O   UNL     1      -8.115   0.475  -6.330  1.00  0.00    -0.550 OA
ATOM     11  O   UNL     1      -8.123  -1.239  -7.852  1.00  0.00    -0.550 OA
ENDBRANCH   8   9
ENDBRANCH   7   8
ENDBRANCH   6   7
ENDBRANCH   5   6
ENDBRANCH   4   5
ENDBRANCH   3   4
ENDBRANCH   2   3
ENDBRANCH   1   2
BRANCH   1  12
ATOM     12  C   UNL     1      -5.152  -5.771  -7.819  1.00  0.00     0.000 C 
BRANCH  12  13
ATOM     13  C   UNL     1      -5.230  -7.084  -8.619  1.00  0.00    -0.000 C 
BRANCH  13  14
ATOM     14  C   UNL     1      -6.039  -6.934  -9.917  1.00  0.00    -0.000 C 
BRANCH  14  15
ATOM     15  C   UNL     1      -6.566  -5.503 -10.125  1.00  0.00    -0.000 C 
BRANCH  15  16
ATOM     16  C   UNL     1      -7.730  -5.163  -9.181  1.00  0.00    -0.000 C 
BRANCH  16  17
ATOM     17  C   UNL     1      -8.051  -3.658  -9.160  1.00  0.00    -0.000 C 
BRANCH  17  18
ATOM     18  C   UNL     1      -7.167  -2.846 -10.123  1.00  0.00    -0.000 C 
BRANCH  18  19
ATOM     19  C   UNL     1      -5.947  -2.173  -9.467  1.00  0.00    -0.003 C 
ATOM     20  C   UNL     1      -4.621  -2.587 -10.106  1.00  0.00     0.004 C 
ENDBRANCH  18  19
ENDBRANCH  17  18
ENDBRANCH  16  17
ENDBRANCH  15  16
ENDBRANCH  14  15
ENDBRANCH  13  14
ENDBRANCH  12  13
ENDBRANCH   1  12
TORSDOF 16
ENDMDL
