MODEL 1
REMARK VINA RESULT:    -5.526      0.000      0.000
REMARK INTER + INTRA:         -11.015
REMARK INTER:                  -9.726
REMARK INTRA:                  -1.289
REMARK UNBOUND:                -1.289
REMARK SMILES CCCCCCCCCCCCCCC(=O)[O-]
REMARK SMILES IDX 9 1 10 2 11 3 12 4 13 5 14 6 15 7 16 8 17 9 8 10 7 11 6 12
REMARK SMILES IDX 5 13 4 14 3 15 2 16 1 17
REMARK H PARENT
REMARK Flexibility Score: inf
ROOT
ATOM      1  C   UNL     1      40.356  53.978  60.112  1.00  0.00     0.000 C 
ENDROOT
BRANCH   1   2
ATOM      2  C   UNL     1      41.733  54.395  60.648  1.00  0.00     0.000 C 
BRANCH   2   3
ATOM      3  C   UNL     1      42.576  55.049  59.546  1.00  0.00     0.000 C 
BRANCH   3   4
ATOM      4  C   UNL     1      43.371  56.243  60.095  1.00  0.00     0.000 C 
BRANCH   4   5
ATOM      5  C   UNL     1      42.822  57.602  59.625  1.00  0.00     0.006 C 
BRANCH   5   6
ATOM      6  C   UNL     1      41.834  57.503  58.448  1.00  0.00     0.053 C 
BRANCH   6   7
ATOM      7  C   UNL     1      41.379  58.845  57.960  1.00  0.00     0.041 C 
ATOM      8  O   UNL     1      40.152  59.081  57.801  1.00  0.00    -0.550 OA
ATOM      9  O   UNL     1      42.313  59.826  57.652  1.00  0.00    -0.550 OA
ENDBRANCH   6   7
ENDBRANCH   5   6
ENDBRANCH   4   5
ENDBRANCH   3   4
ENDBRANCH   2   3
ENDBRANCH   1   2
BRANCH   1  10
ATOM     10  C   UNL     1      39.192  54.680  60.835  1.00  0.00     0.000 C 
BRANCH  10  11
ATOM     11  C   UNL     1      39.123  56.205  60.626  1.00  0.00    -0.000 C 
BRANCH  11  12
ATOM     12  C   UNL     1      38.177  56.612  59.488  1.00  0.00    -0.000 C 
BRANCH  12  13
ATOM     13  C   UNL     1      36.718  56.289  59.845  1.00  0.00    -0.000 C 
BRANCH  13  14
ATOM     14  C   UNL     1      36.005  55.471  58.757  1.00  0.00    -0.000 C 
BRANCH  14  15
ATOM     15  C   UNL     1      35.937  53.971  59.095  1.00  0.00    -0.000 C 
BRANCH  15  16
ATOM     16  C   UNL     1      35.017  53.194  58.140  1.00  0.00    -0.003 C 
ATOM     17  C   UNL     1      35.466  51.748  57.930  1.00  0.00     0.004 C 
ENDBRANCH  15  16
ENDBRANCH  14  15
ENDBRANCH  13  14
ENDBRANCH  12  13
ENDBRANCH  11  12
ENDBRANCH  10  11
ENDBRANCH   1  10
TORSDOF 13
ENDMDL
MODEL 2
REMARK VINA RESULT:    -5.456      0.832      1.297
REMARK INTER + INTRA:         -10.892
REMARK INTER:                  -9.599
REMARK INTRA:                  -1.293
REMARK UNBOUND:                -1.289
REMARK SMILES CCCCCCCCCCCCCCC(=O)[O-]
REMARK SMILES IDX 9 1 10 2 11 3 12 4 13 5 14 6 15 7 16 8 17 9 8 10 7 11 6 12
REMARK SMILES IDX 5 13 4 14 3 15 2 16 1 17
REMARK H PARENT
REMARK Flexibility Score: inf
ROOT
ATOM      1  C   UNL     1      41.387  54.350  59.951  1.00  0.00     0.000 C 
ENDROOT
BRANCH   1   2
ATOM      2  C   UNL     1      42.680  54.859  60.605  1.00  0.00     0.000 C 
BRANCH   2   3
ATOM      3  C   UNL     1      43.333  55.954  59.752  1.00  0.00     0.000 C 
BRANCH   3   4
ATOM      4  C   UNL     1      43.397  57.284  60.519  1.00  0.00     0.000 C 
BRANCH   4   5
ATOM      5  C   UNL     1      42.229  58.229  60.187  1.00  0.00     0.006 C 
BRANCH   5   6
ATOM      6  C   UNL     1      41.855  58.262  58.694  1.00  0.00     0.053 C 
BRANCH   6   7
ATOM      7  C   UNL     1      42.221  59.556  58.034  1.00  0.00     0.041 C 
ATOM      8  O   UNL     1      41.401  60.137  57.276  1.00  0.00    -0.550 OA
ATOM      9  O   UNL     1      43.481  60.106  58.232  1.00  0.00    -0.550 OA
ENDBRANCH   6   7
ENDBRANCH   5   6
ENDBRANCH   4   5
ENDBRANCH   3   4
ENDBRANCH   2   3
ENDBRANCH   1   2
BRANCH   1  10
ATOM     10  C   UNL     1      40.295  53.995  60.975  1.00  0.00     0.000 C 
BRANCH  10  11
ATOM     11  C   UNL     1      38.975  54.772  60.813  1.00  0.00    -0.000 C 
BRANCH  11  12
ATOM     12  C   UNL     1      39.185  56.226  60.370  1.00  0.00    -0.000 C 
BRANCH  12  13
ATOM     13  C   UNL     1      38.013  56.710  59.503  1.00  0.00    -0.000 C 
BRANCH  13  14
ATOM     14  C   UNL     1      36.665  56.110  59.933  1.00  0.00    -0.000 C 
BRANCH  14  15
ATOM     15  C   UNL     1      35.981  55.322  58.801  1.00  0.00    -0.000 C 
BRANCH  15  16
ATOM     16  C   UNL     1      35.874  53.821  59.111  1.00  0.00    -0.003 C 
ATOM     17  C   UNL     1      35.031  53.063  58.085  1.00  0.00     0.004 C 
ENDBRANCH  15  16
ENDBRANCH  14  15
ENDBRANCH  13  14
ENDBRANCH  12  13
ENDBRANCH  11  12
ENDBRANCH  10  11
ENDBRANCH   1  10
TORSDOF 13
ENDMDL
MODEL 3
REMARK VINA RESULT:    -5.447      3.474      6.866
REMARK INTER + INTRA:         -10.875
REMARK INTER:                  -9.715
REMARK INTRA:                  -1.160
REMARK UNBOUND:                -1.289
REMARK SMILES CCCCCCCCCCCCCCC(=O)[O-]
REMARK SMILES IDX 9 1 10 2 11 3 12 4 13 5 14 6 15 7 16 8 17 9 8 10 7 11 6 12
REMARK SMILES IDX 5 13 4 14 3 15 2 16 1 17
REMARK H PARENT
REMARK Flexibility Score: inf
ROOT
ATOM      1  C   UNL     1      38.835  54.577  60.710  1.00  0.00     0.000 C 
ENDROOT
BRANCH   1   2
ATOM      2  C   UNL     1      38.758  56.067  60.345  1.00  0.00     0.000 C 
BRANCH   2   3
ATOM      3  C   UNL     1      37.511  56.363  59.504  1.00  0.00     0.000 C 
BRANCH   3   4
ATOM      4  C   UNL     1      36.350  55.437  59.896  1.00  0.00     0.000 C 
BRANCH   4   5
ATOM      5  C   UNL     1      35.908  54.506  58.753  1.00  0.00     0.006 C 
BRANCH   5   6
ATOM      6  C   UNL     1      35.907  53.012  59.128  1.00  0.00     0.053 C 
BRANCH   6   7
ATOM      7  C   UNL     1      35.162  52.168  58.140  1.00  0.00     0.041 C 
ATOM      8  O   UNL     1      33.906  52.230  58.070  1.00  0.00    -0.550 OA
ATOM      9  O   UNL     1      35.853  51.288  57.317  1.00  0.00    -0.550 OA
ENDBRANCH   6   7
ENDBRANCH   5   6
ENDBRANCH   4   5
ENDBRANCH   3   4
ENDBRANCH   2   3
ENDBRANCH   1   2
BRANCH   1  10
ATOM     10  C   UNL     1      40.260  54.118  61.065  1.00  0.00     0.000 C 
BRANCH  10  11
ATOM     11  C   UNL     1      41.293  54.269  59.933  1.00  0.00    -0.000 C 
BRANCH  11  12
ATOM     12  C   UNL     1      42.660  54.761  60.429  1.00  0.00    -0.000 C 
BRANCH  12  13
ATOM     13  C   UNL     1      42.775  56.287  60.295  1.00  0.00    -0.000 C 
BRANCH  13  14
ATOM     14  C   UNL     1      43.399  56.723  58.960  1.00  0.00    -0.000 C 
BRANCH  14  15
ATOM     15  C   UNL     1      42.404  57.477  58.061  1.00  0.00    -0.000 C 
BRANCH  15  16
ATOM     16  C   UNL     1      41.146  57.926  58.823  1.00  0.00    -0.003 C 
ATOM     17  C   UNL     1      40.092  58.552  57.910  1.00  0.00     0.004 C 
ENDBRANCH  15  16
ENDBRANCH  14  15
ENDBRANCH  13  14
ENDBRANCH  12  13
ENDBRANCH  11  12
ENDBRANCH  10  11
ENDBRANCH   1  10
TORSDOF 13
ENDMDL
MODEL 4
REMARK VINA RESULT:    -5.258      3.868      7.602
REMARK INTER + INTRA:         -10.542
REMARK INTER:                  -9.539
REMARK INTRA:                  -1.003
REMARK UNBOUND:                -1.289
REMARK SMILES CCCCCCCCCCCCCCC(=O)[O-]
REMARK SMILES IDX 9 1 10 2 11 3 12 4 13 5 14 6 15 7 16 8 17 9 8 10 7 11 6 12
REMARK SMILES IDX 5 13 4 14 3 15 2 16 1 17
REMARK H PARENT
REMARK Flexibility Score: inf
ROOT
ATOM      1  C   UNL     1      38.381  55.612  60.620  1.00  0.00     0.000 C 
ENDROOT
BRANCH   1   2
ATOM      2  C   UNL     1      37.499  56.545  59.777  1.00  0.00     0.000 C 
BRANCH   2   3
ATOM      3  C   UNL     1      36.119  55.922  59.531  1.00  0.00     0.000 C 
BRANCH   3   4
ATOM      4  C   UNL     1      36.203  54.389  59.508  1.00  0.00     0.000 C 
BRANCH   4   5
ATOM      5  C   UNL     1      35.323  53.752  58.418  1.00  0.00     0.006 C 
BRANCH   5   6
ATOM      6  C   UNL     1      35.754  52.330  58.017  1.00  0.00     0.053 C 
BRANCH   6   7
ATOM      7  C   UNL     1      34.610  51.363  57.991  1.00  0.00     0.041 C 
ATOM      8  O   UNL     1      33.463  51.726  58.364  1.00  0.00    -0.550 OA
ATOM      9  O   UNL     1      34.817  50.051  57.583  1.00  0.00    -0.550 OA
ENDBRANCH   6   7
ENDBRANCH   5   6
ENDBRANCH   4   5
ENDBRANCH   3   4
ENDBRANCH   2   3
ENDBRANCH   1   2
BRANCH   1  10
ATOM     10  C   UNL     1      39.878  55.738  60.287  1.00  0.00     0.000 C 
BRANCH  10  11
ATOM     11  C   UNL     1      40.683  54.430  60.408  1.00  0.00    -0.000 C 
BRANCH  11  12
ATOM     12  C   UNL     1      42.018  54.475  59.652  1.00  0.00    -0.000 C 
BRANCH  12  13
ATOM     13  C   UNL     1      43.097  55.184  60.486  1.00  0.00    -0.000 C 
BRANCH  13  14
ATOM     14  C   UNL     1      43.743  56.365  59.745  1.00  0.00    -0.000 C 
BRANCH  14  15
ATOM     15  C   UNL     1      43.343  57.726  60.341  1.00  0.00    -0.000 C 
BRANCH  15  16
ATOM     16  C   UNL     1      42.122  58.341  59.638  1.00  0.00    -0.003 C 
ATOM     17  C   UNL     1      42.136  58.118  58.126  1.00  0.00     0.004 C 
ENDBRANCH  15  16
ENDBRANCH  14  15
ENDBRANCH  13  14
ENDBRANCH  12  13
ENDBRANCH  11  12
ENDBRANCH  10  11
ENDBRANCH   1  10
TORSDOF 13
ENDMDL
MODEL 5
REMARK VINA RESULT:    -5.257      1.014      2.050
REMARK INTER + INTRA:         -10.541
REMARK INTER:                  -9.474
REMARK INTRA:                  -1.067
REMARK UNBOUND:                -1.289
REMARK SMILES CCCCCCCCCCCCCCC(=O)[O-]
REMARK SMILES IDX 9 1 10 2 11 3 12 4 13 5 14 6 15 7 16 8 17 9 8 10 7 11 6 12
REMARK SMILES IDX 5 13 4 14 3 15 2 16 1 17
REMARK H PARENT
REMARK Flexibility Score: inf
ROOT
ATOM      1  C   UNL     1      41.865  54.669  59.547  1.00  0.00     0.000 C 
ENDROOT
BRANCH   1   2
ATOM      2  C   UNL     1      43.070  55.491  60.029  1.00  0.00     0.000 C 
BRANCH   2   3
ATOM      3  C   UNL     1      42.848  56.988  59.782  1.00  0.00     0.000 C 
BRANCH   3   4
ATOM      4  C   UNL     1      42.330  57.240  58.358  1.00  0.00     0.000 C 
BRANCH   4   5
ATOM      5  C   UNL     1      41.283  58.365  58.287  1.00  0.00     0.006 C 
BRANCH   5   6
ATOM      6  C   UNL     1      41.851  59.720  57.825  1.00  0.00     0.053 C 
BRANCH   6   7
ATOM      7  C   UNL     1      40.827  60.575  57.143  1.00  0.00     0.041 C 
ATOM      8  O   UNL     1      41.106  61.756  56.808  1.00  0.00    -0.550 OA
ATOM      9  O   UNL     1      39.553  60.076  56.903  1.00  0.00    -0.550 OA
ENDBRANCH   6   7
ENDBRANCH   5   6
ENDBRANCH   4   5
ENDBRANCH   3   4
ENDBRANCH   2   3
ENDBRANCH   1   2
BRANCH   1  10
ATOM     10  C   UNL     1      40.998  54.138  60.702  1.00  0.00     0.000 C 
BRANCH  10  11
ATOM     11  C   UNL     1      39.479  54.204  60.457  1.00  0.00    -0.000 C 
BRANCH  11  12
ATOM     12  C   UNL     1      38.841  55.496  60.986  1.00  0.00    -0.000 C 
BRANCH  12  13
ATOM     13  C   UNL     1      38.252  56.328  59.835  1.00  0.00    -0.000 C 
BRANCH  13  14
ATOM     14  C   UNL     1      36.719  56.420  59.892  1.00  0.00    -0.000 C 
BRANCH  14  15
ATOM     15  C   UNL     1      36.036  55.558  58.816  1.00  0.00    -0.000 C 
BRANCH  15  16
ATOM     16  C   UNL     1      36.014  54.066  59.184  1.00  0.00    -0.003 C 
ATOM     17  C   UNL     1      35.092  53.246  58.281  1.00  0.00     0.004 C 
ENDBRANCH  15  16
ENDBRANCH  14  15
ENDBRANCH  13  14
ENDBRANCH  12  13
ENDBRANCH  11  12
ENDBRANCH  10  11
ENDBRANCH   1  10
TORSDOF 13
ENDMDL
MODEL 6
REMARK VINA RESULT:    -5.254      1.717      3.265
REMARK INTER + INTRA:         -10.535
REMARK INTER:                  -9.265
REMARK INTRA:                  -1.271
REMARK UNBOUND:                -1.289
REMARK SMILES CCCCCCCCCCCCCCC(=O)[O-]
REMARK SMILES IDX 9 1 10 2 11 3 12 4 13 5 14 6 15 7 16 8 17 9 8 10 7 11 6 12
REMARK SMILES IDX 5 13 4 14 3 15 2 16 1 17
REMARK H PARENT
REMARK Flexibility Score: inf
ROOT
ATOM      1  C   UNL     1      42.854  56.509  60.415  1.00  0.00     0.000 C 
ENDROOT
BRANCH   1   2
ATOM      2  C   UNL     1      43.892  57.022  59.406  1.00  0.00     0.000 C 
BRANCH   2   3
ATOM      3  C   UNL     1      43.219  57.830  58.290  1.00  0.00     0.000 C 
BRANCH   3   4
ATOM      4  C   UNL     1      41.733  57.462  58.161  1.00  0.00     0.000 C 
BRANCH   4   5
ATOM      5  C   UNL     1      40.816  58.690  58.020  1.00  0.00     0.006 C 
BRANCH   5   6
ATOM      6  C   UNL     1      41.532  59.946  57.491  1.00  0.00     0.053 C 
BRANCH   6   7
ATOM      7  C   UNL     1      40.577  61.007  57.035  1.00  0.00     0.041 C 
ATOM      8  O   UNL     1      39.825  60.804  56.045  1.00  0.00    -0.550 OA
ATOM      9  O   UNL     1      40.538  62.234  57.686  1.00  0.00    -0.550 OA
ENDBRANCH   6   7
ENDBRANCH   5   6
ENDBRANCH   4   5
ENDBRANCH   3   4
ENDBRANCH   2   3
ENDBRANCH   1   2
BRANCH   1  10
ATOM     10  C   UNL     1      42.815  54.973  60.508  1.00  0.00     0.000 C 
BRANCH  10  11
ATOM     11  C   UNL     1      41.536  54.320  59.951  1.00  0.00    -0.000 C 
BRANCH  11  12
ATOM     12  C   UNL     1      40.582  53.836  61.052  1.00  0.00    -0.000 C 
BRANCH  12  13
ATOM     13  C   UNL     1      39.159  54.369  60.818  1.00  0.00    -0.000 C 
BRANCH  13  14
ATOM     14  C   UNL     1      39.113  55.898  60.670  1.00  0.00    -0.000 C 
BRANCH  14  15
ATOM     15  C   UNL     1      38.040  56.362  59.670  1.00  0.00    -0.000 C 
BRANCH  15  16
ATOM     16  C   UNL     1      36.821  55.426  59.638  1.00  0.00    -0.003 C 
ATOM     17  C   UNL     1      35.754  55.875  58.640  1.00  0.00     0.004 C 
ENDBRANCH  15  16
ENDBRANCH  14  15
ENDBRANCH  13  14
ENDBRANCH  12  13
ENDBRANCH  11  12
ENDBRANCH  10  11
ENDBRANCH   1  10
TORSDOF 13
ENDMDL
MODEL 7
REMARK VINA RESULT:    -5.171      1.403      2.756
REMARK INTER + INTRA:         -10.390
REMARK INTER:                  -9.755
REMARK INTRA:                  -0.635
REMARK UNBOUND:                -1.289
REMARK SMILES CCCCCCCCCCCCCCC(=O)[O-]
REMARK SMILES IDX 9 1 10 2 11 3 12 4 13 5 14 6 15 7 16 8 17 9 8 10 7 11 6 12
REMARK SMILES IDX 5 13 4 14 3 15 2 16 1 17
REMARK H PARENT
REMARK Flexibility Score: inf
ROOT
ATOM      1  C   UNL     1      38.524  55.494  60.699  1.00  0.00     0.000 C 
ENDROOT
BRANCH   1   2
ATOM      2  C   UNL     1      40.021  55.656  60.398  1.00  0.00     0.000 C 
BRANCH   2   3
ATOM      3  C   UNL     1      40.642  54.322  59.964  1.00  0.00     0.000 C 
BRANCH   3   4
ATOM      4  C   UNL     1      42.108  54.506  59.547  1.00  0.00     0.000 C 
BRANCH   4   5
ATOM      5  C   UNL     1      42.942  55.271  60.591  1.00  0.00     0.006 C 
BRANCH   5   6
ATOM      6  C   UNL     1      43.769  56.429  60.003  1.00  0.00     0.053 C 
BRANCH   6   7
ATOM      7  C   UNL     1      42.915  57.499  59.393  1.00  0.00     0.041 C 
ATOM      8  O   UNL     1      42.350  58.355  60.123  1.00  0.00    -0.550 OA
ATOM      9  O   UNL     1      42.719  57.531  58.018  1.00  0.00    -0.550 OA
ENDBRANCH   6   7
ENDBRANCH   5   6
ENDBRANCH   4   5
ENDBRANCH   3   4
ENDBRANCH   2   3
ENDBRANCH   1   2
BRANCH   1  10
ATOM     10  C   UNL     1      37.632  56.356  59.789  1.00  0.00     0.000 C 
BRANCH  10  11
ATOM     11  C   UNL     1      36.154  55.925  59.730  1.00  0.00    -0.000 C 
BRANCH  11  12
ATOM     12  C   UNL     1      35.837  55.035  58.519  1.00  0.00    -0.000 C 
BRANCH  12  13
ATOM     13  C   UNL     1      35.533  53.595  58.961  1.00  0.00    -0.000 C 
BRANCH  13  14
ATOM     14  C   UNL     1      35.996  52.548  57.936  1.00  0.00    -0.000 C 
BRANCH  14  15
ATOM     15  C   UNL     1      35.166  51.253  57.999  1.00  0.00    -0.000 C 
BRANCH  15  16
ATOM     16  C   UNL     1      35.797  50.110  57.188  1.00  0.00    -0.003 C 
ATOM     17  C   UNL     1      34.814  48.974  56.903  1.00  0.00     0.004 C 
ENDBRANCH  15  16
ENDBRANCH  14  15
ENDBRANCH  13  14
ENDBRANCH  12  13
ENDBRANCH  11  12
ENDBRANCH  10  11
ENDBRANCH   1  10
TORSDOF 13
ENDMDL
MODEL 8
REMARK VINA RESULT:    -5.131      3.359      7.524
REMARK INTER + INTRA:         -10.320
REMARK INTER:                  -9.396
REMARK INTRA:                  -0.924
REMARK UNBOUND:                -1.289
REMARK SMILES CCCCCCCCCCCCCCC(=O)[O-]
REMARK SMILES IDX 9 1 10 2 11 3 12 4 13 5 14 6 15 7 16 8 17 9 8 10 7 11 6 12
REMARK SMILES IDX 5 13 4 14 3 15 2 16 1 17
REMARK H PARENT
REMARK Flexibility Score: inf
ROOT
ATOM      1  C   UNL     1      39.020  54.650  60.711  1.00  0.00     0.000 C 
ENDROOT
BRANCH   1   2
ATOM      2  C   UNL     1      39.020  56.147  60.366  1.00  0.00     0.000 C 
BRANCH   2   3
ATOM      3  C   UNL     1      37.840  56.499  59.452  1.00  0.00     0.000 C 
BRANCH   3   4
ATOM      4  C   UNL     1      36.557  55.790  59.910  1.00  0.00     0.000 C 
BRANCH   4   5
ATOM      5  C   UNL     1      35.956  54.872  58.831  1.00  0.00     0.006 C 
BRANCH   5   6
ATOM      6  C   UNL     1      35.986  53.376  59.196  1.00  0.00     0.053 C 
BRANCH   6   7
ATOM      7  C   UNL     1      35.285  52.520  58.185  1.00  0.00     0.041 C 
ATOM      8  O   UNL     1      35.946  51.762  57.427  1.00  0.00    -0.550 OA
ATOM      9  O   UNL     1      33.903  52.582  58.060  1.00  0.00    -0.550 OA
ENDBRANCH   6   7
ENDBRANCH   5   6
ENDBRANCH   4   5
ENDBRANCH   3   4
ENDBRANCH   2   3
ENDBRANCH   1   2
BRANCH   1  10
ATOM     10  C   UNL     1      40.433  54.088  60.946  1.00  0.00     0.000 C 
BRANCH  10  11
ATOM     11  C   UNL     1      41.383  54.190  59.737  1.00  0.00    -0.000 C 
BRANCH  11  12
ATOM     12  C   UNL     1      42.610  55.071  60.013  1.00  0.00    -0.000 C 
BRANCH  12  13
ATOM     13  C   UNL     1      42.696  56.224  59.001  1.00  0.00    -0.000 C 
BRANCH  13  14
ATOM     14  C   UNL     1      42.747  57.604  59.674  1.00  0.00    -0.000 C 
BRANCH  14  15
ATOM     15  C   UNL     1      43.934  57.746  60.643  1.00  0.00    -0.000 C 
BRANCH  15  16
ATOM     16  C   UNL     1      45.287  57.498  59.955  1.00  0.00    -0.003 C 
ATOM     17  C   UNL     1      46.302  58.608  60.229  1.00  0.00     0.004 C 
ENDBRANCH  15  16
ENDBRANCH  14  15
ENDBRANCH  13  14
ENDBRANCH  12  13
ENDBRANCH  11  12
ENDBRANCH  10  11
ENDBRANCH   1  10
TORSDOF 13
ENDMDL
MODEL 9
REMARK VINA RESULT:    -5.042      2.891      6.334
REMARK INTER + INTRA:         -10.162
REMARK INTER:                  -8.818
REMARK INTRA:                  -1.345
REMARK UNBOUND:                -1.289
REMARK SMILES CCCCCCCCCCCCCCC(=O)[O-]
REMARK SMILES IDX 9 1 10 2 11 3 12 4 13 5 14 6 15 7 16 8 17 9 8 10 7 11 6 12
REMARK SMILES IDX 5 13 4 14 3 15 2 16 1 17
REMARK H PARENT
REMARK Flexibility Score: inf
ROOT
ATOM      1  C   UNL     1      41.098  54.169  60.326  1.00  0.00     0.000 C 
ENDROOT
BRANCH   1   2
ATOM      2  C   UNL     1      39.627  54.505  60.607  1.00  0.00     0.000 C 
BRANCH   2   3
ATOM      3  C   UNL     1      39.405  56.023  60.631  1.00  0.00     0.000 C 
BRANCH   3   4
ATOM      4  C   UNL     1      37.912  56.364  60.523  1.00  0.00     0.000 C 
BRANCH   4   5
ATOM      5  C   UNL     1      37.325  56.074  59.130  1.00  0.00     0.006 C 
BRANCH   5   6
ATOM      6  C   UNL     1      35.892  55.512  59.161  1.00  0.00     0.053 C 
BRANCH   6   7
ATOM      7  C   UNL     1      35.853  54.019  59.045  1.00  0.00     0.041 C 
ATOM      8  O   UNL     1      36.721  53.313  59.623  1.00  0.00    -0.550 OA
ATOM      9  O   UNL     1      34.875  53.407  58.271  1.00  0.00    -0.550 OA
ENDBRANCH   6   7
ENDBRANCH   5   6
ENDBRANCH   4   5
ENDBRANCH   3   4
ENDBRANCH   2   3
ENDBRANCH   1   2
BRANCH   1  10
ATOM     10  C   UNL     1      42.050  55.343  60.617  1.00  0.00     0.000 C 
BRANCH  10  11
ATOM     11  C   UNL     1      43.176  55.539  59.584  1.00  0.00    -0.000 C 
BRANCH  11  12
ATOM     12  C   UNL     1      44.022  56.792  59.850  1.00  0.00    -0.000 C 
BRANCH  12  13
ATOM     13  C   UNL     1      43.134  58.041  59.961  1.00  0.00    -0.000 C 
BRANCH  13  14
ATOM     14  C   UNL     1      43.345  59.026  58.801  1.00  0.00    -0.000 C 
BRANCH  14  15
ATOM     15  C   UNL     1      42.122  59.116  57.872  1.00  0.00    -0.000 C 
BRANCH  15  16
ATOM     16  C   UNL     1      41.009  58.132  58.267  1.00  0.00    -0.003 C 
ATOM     17  C   UNL     1      39.633  58.555  57.752  1.00  0.00     0.004 C 
ENDBRANCH  15  16
ENDBRANCH  14  15
ENDBRANCH  13  14
ENDBRANCH  12  13
ENDBRANCH  11  12
ENDBRANCH  10  11
ENDBRANCH   1  10
TORSDOF 13
ENDMDL
