MODEL 1
REMARK VINA RESULT:    -3.630      0.000      0.000
REMARK INTER + INTRA:          -4.209
REMARK INTER:                  -4.161
REMARK INTRA:                  -0.048
REMARK UNBOUND:                -0.048
REMARK SMILES CC(C)[C@@H]([NH3+])C(=O)[O-]
REMARK SMILES IDX 4 1 5 2 6 6 7 7 8 8 2 9 1 10 3 11
REMARK H PARENT 5 3 5 4 5 5
REMARK Flexibility Score: inf
ROOT
ATOM      1  C   UNL     1       7.607  24.398  20.573  1.00  0.00     0.230 C 
ENDROOT
BRANCH   1   2
ATOM      2  N   UNL     1       8.018  25.208  19.416  1.00  0.00    -0.350 N 
ATOM      3  H   UNL     1       7.186  25.449  18.831  1.00  0.00     0.345 HD
ATOM      4  H   UNL     1       8.673  24.661  18.809  1.00  0.00     0.345 HD
ATOM      5  H   UNL     1       8.495  26.084  19.728  1.00  0.00     0.345 HD
ENDBRANCH   1   2
BRANCH   1   6
ATOM      6  C   UNL     1       7.864  25.175  21.841  1.00  0.00     0.099 C 
ATOM      7  O   UNL     1       8.235  24.578  22.885  1.00  0.00    -0.544 OA
ATOM      8  O   UNL     1       7.691  26.554  21.864  1.00  0.00    -0.544 OA
ENDBRANCH   1   6
BRANCH   1   9
ATOM      9  C   UNL     1       6.109  23.975  20.481  1.00  0.00     0.047 C 
ATOM     10  C   UNL     1       5.924  22.494  20.863  1.00  0.00     0.014 C 
ATOM     11  C   UNL     1       5.533  24.206  19.074  1.00  0.00     0.014 C 
ENDBRANCH   1   9
TORSDOF 3
ENDMDL
MODEL 2
REMARK VINA RESULT:    -3.580      2.304      3.484
REMARK INTER + INTRA:          -4.151
REMARK INTER:                  -4.102
REMARK INTRA:                  -0.049
REMARK UNBOUND:                -0.048
REMARK SMILES CC(C)[C@@H]([NH3+])C(=O)[O-]
REMARK SMILES IDX 4 1 5 2 6 6 7 7 8 8 2 9 1 10 3 11
REMARK H PARENT 5 3 5 4 5 5
REMARK Flexibility Score: inf
ROOT
ATOM      1  C   UNL     1       7.588  24.774  20.051  1.00  0.00     0.230 C 
ENDROOT
BRANCH   1   2
ATOM      2  N   UNL     1       8.845  24.211  20.567  1.00  0.00    -0.350 N 
ATOM      3  H   UNL     1       8.972  23.234  20.219  1.00  0.00     0.345 HD
ATOM      4  H   UNL     1       8.815  24.164  21.612  1.00  0.00     0.345 HD
ATOM      5  H   UNL     1       9.660  24.797  20.275  1.00  0.00     0.345 HD
ENDBRANCH   1   2
BRANCH   1   6
ATOM      6  C   UNL     1       6.463  23.803  20.315  1.00  0.00     0.099 C 
ATOM      7  O   UNL     1       5.405  23.861  19.635  1.00  0.00    -0.544 OA
ATOM      8  O   UNL     1       6.587  22.843  21.311  1.00  0.00    -0.544 OA
ENDBRANCH   1   6
BRANCH   1   9
ATOM      9  C   UNL     1       7.274  26.166  20.683  1.00  0.00     0.047 C 
ATOM     10  C   UNL     1       7.649  27.309  19.722  1.00  0.00     0.014 C 
ATOM     11  C   UNL     1       8.011  26.369  22.017  1.00  0.00     0.014 C 
ENDBRANCH   1   9
TORSDOF 3
ENDMDL
MODEL 3
REMARK VINA RESULT:    -3.509      1.438      2.139
REMARK INTER + INTRA:          -4.070
REMARK INTER:                  -4.338
REMARK INTRA:                   0.268
REMARK UNBOUND:                -0.048
REMARK SMILES CC(C)[C@@H]([NH3+])C(=O)[O-]
REMARK SMILES IDX 4 1 5 2 6 6 7 7 8 8 2 9 1 10 3 11
REMARK H PARENT 5 3 5 4 5 5
REMARK Flexibility Score: inf
ROOT
ATOM      1  C   UNL     1       7.738  24.436  21.064  1.00  0.00     0.230 C 
ENDROOT
BRANCH   1   2
ATOM      2  N   UNL     1       9.130  24.014  20.845  1.00  0.00    -0.350 N 
ATOM      3  H   UNL     1       9.223  22.984  21.000  1.00  0.00     0.345 HD
ATOM      4  H   UNL     1       9.761  24.487  21.533  1.00  0.00     0.345 HD
ATOM      5  H   UNL     1       9.441  24.253  19.876  1.00  0.00     0.345 HD
ENDBRANCH   1   2
BRANCH   1   6
ATOM      6  C   UNL     1       7.559  25.843  20.550  1.00  0.00     0.099 C 
ATOM      7  O   UNL     1       7.159  26.754  21.323  1.00  0.00    -0.544 OA
ATOM      8  O   UNL     1       7.829  26.142  19.220  1.00  0.00    -0.544 OA
ENDBRANCH   1   6
BRANCH   1   9
ATOM      9  C   UNL     1       6.724  23.467  20.383  1.00  0.00     0.047 C 
ATOM     10  C   UNL     1       5.536  24.238  19.779  1.00  0.00     0.014 C 
ATOM     11  C   UNL     1       6.190  22.412  21.367  1.00  0.00     0.014 C 
ENDBRANCH   1   9
TORSDOF 3
ENDMDL
MODEL 4
REMARK VINA RESULT:    -3.402      8.113      9.236
REMARK INTER + INTRA:          -3.947
REMARK INTER:                  -4.064
REMARK INTRA:                   0.117
REMARK UNBOUND:                -0.048
REMARK SMILES CC(C)[C@@H]([NH3+])C(=O)[O-]
REMARK SMILES IDX 4 1 5 2 6 6 7 7 8 8 2 9 1 10 3 11
REMARK H PARENT 5 3 5 4 5 5
REMARK Flexibility Score: inf
ROOT
ATOM      1  C   UNL     1       1.139  18.356  20.656  1.00  0.00     0.230 C 
ENDROOT
BRANCH   1   2
ATOM      2  N   UNL     1      -0.096  18.615  19.900  1.00  0.00    -0.350 N 
ATOM      3  H   UNL     1       0.100  18.604  18.874  1.00  0.00     0.345 HD
ATOM      4  H   UNL     1      -0.466  19.566  20.133  1.00  0.00     0.345 HD
ATOM      5  H   UNL     1      -0.825  17.901  20.127  1.00  0.00     0.345 HD
ENDBRANCH   1   2
BRANCH   1   6
ATOM      6  C   UNL     1       1.189  16.898  21.041  1.00  0.00     0.099 C 
ATOM      7  O   UNL     1       0.432  16.067  20.475  1.00  0.00    -0.544 OA
ATOM      8  O   UNL     1       2.069  16.464  22.026  1.00  0.00    -0.544 OA
ENDBRANCH   1   6
BRANCH   1   9
ATOM      9  C   UNL     1       2.410  18.756  19.844  1.00  0.00     0.047 C 
ATOM     10  C   UNL     1       2.981  17.550  19.076  1.00  0.00     0.014 C 
ATOM     11  C   UNL     1       3.507  19.341  20.748  1.00  0.00     0.014 C 
ENDBRANCH   1   9
TORSDOF 3
ENDMDL
MODEL 5
REMARK VINA RESULT:    -3.392      5.627      6.598
REMARK INTER + INTRA:          -3.935
REMARK INTER:                  -3.890
REMARK INTRA:                  -0.046
REMARK UNBOUND:                -0.048
REMARK SMILES CC(C)[C@@H]([NH3+])C(=O)[O-]
REMARK SMILES IDX 4 1 5 2 6 6 7 7 8 8 2 9 1 10 3 11
REMARK H PARENT 5 3 5 4 5 5
REMARK Flexibility Score: inf
ROOT
ATOM      1  C   UNL     1       2.987  19.432  21.651  1.00  0.00     0.230 C 
ENDROOT
BRANCH   1   2
ATOM      2  N   UNL     1       3.938  18.367  22.006  1.00  0.00    -0.350 N 
ATOM      3  H   UNL     1       4.906  18.639  21.723  1.00  0.00     0.345 HD
ATOM      4  H   UNL     1       3.701  17.487  21.490  1.00  0.00     0.345 HD
ATOM      5  H   UNL     1       3.913  18.176  23.034  1.00  0.00     0.345 HD
ENDBRANCH   1   2
BRANCH   1   6
ATOM      6  C   UNL     1       3.678  20.769  21.752  1.00  0.00     0.099 C 
ATOM      7  O   UNL     1       3.198  21.676  22.481  1.00  0.00    -0.544 OA
ATOM      8  O   UNL     1       4.845  21.009  21.037  1.00  0.00    -0.544 OA
ENDBRANCH   1   6
BRANCH   1   9
ATOM      9  C   UNL     1       2.392  19.224  20.225  1.00  0.00     0.047 C 
ATOM     10  C   UNL     1       0.855  19.320  20.244  1.00  0.00     0.014 C 
ATOM     11  C   UNL     1       2.804  17.870  19.622  1.00  0.00     0.014 C 
ENDBRANCH   1   9
TORSDOF 3
ENDMDL
MODEL 6
REMARK VINA RESULT:    -3.375     13.999     14.946
REMARK INTER + INTRA:          -3.917
REMARK INTER:                  -3.869
REMARK INTRA:                  -0.048
REMARK UNBOUND:                -0.048
REMARK SMILES CC(C)[C@@H]([NH3+])C(=O)[O-]
REMARK SMILES IDX 4 1 5 2 6 6 7 7 8 8 2 9 1 10 3 11
REMARK H PARENT 5 3 5 4 5 5
REMARK Flexibility Score: inf
ROOT
ATOM      1  C   UNL     1      -3.524  14.616  17.256  1.00  0.00     0.230 C 
ENDROOT
BRANCH   1   2
ATOM      2  N   UNL     1      -3.520  15.618  16.179  1.00  0.00    -0.350 N 
ATOM      3  H   UNL     1      -2.656  16.203  16.234  1.00  0.00     0.345 HD
ATOM      4  H   UNL     1      -4.337  16.264  16.286  1.00  0.00     0.345 HD
ATOM      5  H   UNL     1      -3.572  15.156  15.243  1.00  0.00     0.345 HD
ENDBRANCH   1   2
BRANCH   1   6
ATOM      6  C   UNL     1      -2.377  14.892  18.196  1.00  0.00     0.099 C 
ATOM      7  O   UNL     1      -2.434  15.863  18.996  1.00  0.00    -0.544 OA
ATOM      8  O   UNL     1      -1.250  14.080  18.182  1.00  0.00    -0.544 OA
ENDBRANCH   1   6
BRANCH   1   9
ATOM      9  C   UNL     1      -4.879  14.602  18.028  1.00  0.00     0.047 C 
ATOM     10  C   UNL     1      -5.661  13.303  17.756  1.00  0.00     0.014 C 
ATOM     11  C   UNL     1      -5.762  15.806  17.660  1.00  0.00     0.014 C 
ENDBRANCH   1   9
TORSDOF 3
ENDMDL
MODEL 7
REMARK VINA RESULT:    -3.302      7.603      8.463
REMARK INTER + INTRA:          -3.833
REMARK INTER:                  -3.930
REMARK INTRA:                   0.098
REMARK UNBOUND:                -0.048
REMARK SMILES CC(C)[C@@H]([NH3+])C(=O)[O-]
REMARK SMILES IDX 4 1 5 2 6 6 7 7 8 8 2 9 1 10 3 11
REMARK H PARENT 5 3 5 4 5 5
REMARK Flexibility Score: inf
ROOT
ATOM      1  C   UNL     1       2.370  17.542  19.793  1.00  0.00     0.230 C 
ENDROOT
BRANCH   1   2
ATOM      2  N   UNL     1       3.049  17.163  18.544  1.00  0.00    -0.350 N 
ATOM      3  H   UNL     1       2.373  17.177  17.747  1.00  0.00     0.345 HD
ATOM      4  H   UNL     1       3.419  16.187  18.618  1.00  0.00     0.345 HD
ATOM      5  H   UNL     1       3.843  17.813  18.342  1.00  0.00     0.345 HD
ENDBRANCH   1   2
BRANCH   1   6
ATOM      6  C   UNL     1       2.978  16.775  20.941  1.00  0.00     0.099 C 
ATOM      7  O   UNL     1       4.097  16.214  20.806  1.00  0.00    -0.544 OA
ATOM      8  O   UNL     1       2.306  16.680  22.153  1.00  0.00    -0.544 OA
ENDBRANCH   1   6
BRANCH   1   9
ATOM      9  C   UNL     1       2.449  19.078  20.052  1.00  0.00     0.047 C 
ATOM     10  C   UNL     1       3.729  19.447  20.824  1.00  0.00     0.014 C 
ATOM     11  C   UNL     1       1.226  19.591  20.831  1.00  0.00     0.014 C 
ENDBRANCH   1   9
TORSDOF 3
ENDMDL
MODEL 8
REMARK VINA RESULT:    -3.285      4.530      5.468
REMARK INTER + INTRA:          -3.813
REMARK INTER:                  -3.777
REMARK INTRA:                  -0.035
REMARK UNBOUND:                -0.048
REMARK SMILES CC(C)[C@@H]([NH3+])C(=O)[O-]
REMARK SMILES IDX 4 1 5 2 6 6 7 7 8 8 2 9 1 10 3 11
REMARK H PARENT 5 3 5 4 5 5
REMARK Flexibility Score: inf
ROOT
ATOM      1  C   UNL     1       3.425  21.374  21.630  1.00  0.00     0.230 C 
ENDROOT
BRANCH   1   2
ATOM      2  N   UNL     1       2.730  22.127  22.686  1.00  0.00    -0.350 N 
ATOM      3  H   UNL     1       3.389  22.796  23.145  1.00  0.00     0.345 HD
ATOM      4  H   UNL     1       2.388  21.473  23.428  1.00  0.00     0.345 HD
ATOM      5  H   UNL     1       1.916  22.651  22.292  1.00  0.00     0.345 HD
ENDBRANCH   1   2
BRANCH   1   6
ATOM      6  C   UNL     1       4.907  21.374  21.914  1.00  0.00     0.099 C 
ATOM      7  O   UNL     1       5.716  21.808  21.052  1.00  0.00    -0.544 OA
ATOM      8  O   UNL     1       5.388  20.892  23.125  1.00  0.00    -0.544 OA
ENDBRANCH   1   6
BRANCH   1   9
ATOM      9  C   UNL     1       2.887  19.916  21.510  1.00  0.00     0.047 C 
ATOM     10  C   UNL     1       3.748  19.083  20.542  1.00  0.00     0.014 C 
ATOM     11  C   UNL     1       1.424  19.882  21.035  1.00  0.00     0.014 C 
ENDBRANCH   1   9
TORSDOF 3
ENDMDL
MODEL 9
REMARK VINA RESULT:    -3.284     14.739     15.652
REMARK INTER + INTRA:          -3.812
REMARK INTER:                  -3.785
REMARK INTRA:                  -0.027
REMARK UNBOUND:                -0.048
REMARK SMILES CC(C)[C@@H]([NH3+])C(=O)[O-]
REMARK SMILES IDX 4 1 5 2 6 6 7 7 8 8 2 9 1 10 3 11
REMARK H PARENT 5 3 5 4 5 5
REMARK Flexibility Score: inf
ROOT
ATOM      1  C   UNL     1      -3.924  15.320  17.250  1.00  0.00     0.230 C 
ENDROOT
BRANCH   1   2
ATOM      2  N   UNL     1      -3.395  15.702  15.932  1.00  0.00    -0.350 N 
ATOM      3  H   UNL     1      -2.839  16.583  16.007  1.00  0.00     0.345 HD
ATOM      4  H   UNL     1      -4.184  15.891  15.270  1.00  0.00     0.345 HD
ATOM      5  H   UNL     1      -2.796  14.940  15.538  1.00  0.00     0.345 HD
ENDBRANCH   1   2
BRANCH   1   6
ATOM      6  C   UNL     1      -5.419  15.138  17.153  1.00  0.00     0.099 C 
ATOM      7  O   UNL     1      -5.903  14.298  16.349  1.00  0.00    -0.544 OA
ATOM      8  O   UNL     1      -6.269  15.898  17.946  1.00  0.00    -0.544 OA
ENDBRANCH   1   6
BRANCH   1   9
ATOM      9  C   UNL     1      -3.245  14.026  17.794  1.00  0.00     0.047 C 
ATOM     10  C   UNL     1      -3.985  13.488  19.032  1.00  0.00     0.014 C 
ATOM     11  C   UNL     1      -1.768  14.261  18.154  1.00  0.00     0.014 C 
ENDBRANCH   1   9
TORSDOF 3
ENDMDL
