MODEL 1
REMARK VINA RESULT:    -4.410      0.000      0.000
REMARK INTER + INTRA:          -7.357
REMARK INTER:                  -5.958
REMARK INTRA:                  -1.399
REMARK UNBOUND:                -1.399
REMARK SMILES CC(=O)CCC=C(C)CCC=C(C)C
REMARK SMILES IDX 7 1 6 2 8 3 9 4 10 5 11 6 13 7 12 8 14 9 5 10 4 11 2 12 3 13
REMARK SMILES IDX 1 14
REMARK H PARENT
REMARK Flexibility Score: inf
ROOT
ATOM      1  C   UNL     1       3.125   2.307 105.547  1.00  0.00    -0.077 C 
ATOM      2  C   UNL     1       3.639   3.445 105.026  1.00  0.00    -0.028 C 
ATOM      3  C   UNL     1       2.663   1.233 104.598  1.00  0.00     0.039 C 
ENDROOT
BRANCH   1   4
ATOM      4  C   UNL     1       2.944   2.090 107.037  1.00  0.00     0.034 C 
BRANCH   4   5
ATOM      5  C   UNL     1       4.068   1.211 107.599  1.00  0.00     0.032 C 
BRANCH   5   6
ATOM      6  C   UNL     1       4.810   1.920 108.704  1.00  0.00    -0.028 C 
ATOM      7  C   UNL     1       6.777   2.487 107.258  1.00  0.00     0.039 C 
ATOM      8  C   UNL     1       6.030   2.486 108.571  1.00  0.00    -0.080 C 
ATOM      9  C   UNL     1       6.647   3.152 109.775  1.00  0.00     0.039 C 
ENDBRANCH   5   6
ENDBRANCH   4   5
ENDBRANCH   1   4
BRANCH   2  10
ATOM     10  C   UNL     1       4.160   4.606 105.835  1.00  0.00     0.035 C 
BRANCH  10  11
ATOM     11  C   UNL     1       3.059   5.647 106.070  1.00  0.00     0.079 C 
BRANCH  11  12
ATOM     12  C   UNL     1       3.177   6.242 107.448  1.00  0.00     0.130 C 
ATOM     13  O   UNL     1       2.847   7.404 107.631  1.00  0.00    -0.300 OA
ATOM     14  C   UNL     1       3.679   5.434 108.608  1.00  0.00     0.087 C 
ENDBRANCH  11  12
ENDBRANCH  10  11
ENDBRANCH   2  10
TORSDOF 6
ENDMDL
MODEL 2
REMARK VINA RESULT:    -4.405      2.707      5.468
REMARK INTER + INTRA:          -7.350
REMARK INTER:                  -6.717
REMARK INTRA:                  -0.632
REMARK UNBOUND:                -1.399
REMARK SMILES CC(=O)CCC=C(C)CCC=C(C)C
REMARK SMILES IDX 7 1 6 2 8 3 9 4 10 5 11 6 13 7 12 8 14 9 5 10 4 11 2 12 3 13
REMARK SMILES IDX 1 14
REMARK H PARENT
REMARK Flexibility Score: inf
ROOT
ATOM      1  C   UNL     1       3.510   5.655 107.716  1.00  0.00    -0.077 C 
ATOM      2  C   UNL     1       4.596   5.214 108.393  1.00  0.00    -0.028 C 
ATOM      3  C   UNL     1       3.113   7.100 107.870  1.00  0.00     0.039 C 
ENDROOT
BRANCH   1   4
ATOM      4  C   UNL     1       2.648   4.750 106.857  1.00  0.00     0.034 C 
BRANCH   4   5
ATOM      5  C   UNL     1       2.497   5.324 105.444  1.00  0.00     0.032 C 
BRANCH   5   6
ATOM      6  C   UNL     1       3.813   5.312 104.709  1.00  0.00    -0.028 C 
ATOM      7  C   UNL     1       2.858   6.322 102.624  1.00  0.00     0.039 C 
ATOM      8  C   UNL     1       3.989   5.745 103.440  1.00  0.00    -0.080 C 
ATOM      9  C   UNL     1       5.369   5.658 102.839  1.00  0.00     0.039 C 
ENDBRANCH   5   6
ENDBRANCH   4   5
ENDBRANCH   1   4
BRANCH   2  10
ATOM     10  C   UNL     1       5.135   3.806 108.336  1.00  0.00     0.035 C 
BRANCH  10  11
ATOM     11  C   UNL     1       5.781   3.413 109.669  1.00  0.00     0.079 C 
BRANCH  11  12
ATOM     12  C   UNL     1       5.279   2.070 110.127  1.00  0.00     0.130 C 
ATOM     13  O   UNL     1       5.095   1.871 111.319  1.00  0.00    -0.300 OA
ATOM     14  C   UNL     1       4.986   0.969 109.150  1.00  0.00     0.087 C 
ENDBRANCH  11  12
ENDBRANCH  10  11
ENDBRANCH   2  10
TORSDOF 6
ENDMDL
MODEL 3
REMARK VINA RESULT:    -4.398      1.477      2.647
REMARK INTER + INTRA:          -7.340
REMARK INTER:                  -5.919
REMARK INTRA:                  -1.421
REMARK UNBOUND:                -1.399
REMARK SMILES CC(=O)CCC=C(C)CCC=C(C)C
REMARK SMILES IDX 7 1 6 2 8 3 9 4 10 5 11 6 13 7 12 8 14 9 5 10 4 11 2 12 3 13
REMARK SMILES IDX 1 14
REMARK H PARENT
REMARK Flexibility Score: inf
ROOT
ATOM      1  C   UNL     1       4.561   1.186 107.325  1.00  0.00    -0.077 C 
ATOM      2  C   UNL     1       3.347   1.710 107.036  1.00  0.00    -0.028 C 
ATOM      3  C   UNL     1       4.614  -0.078 108.142  1.00  0.00     0.039 C 
ENDROOT
BRANCH   1   4
ATOM      4  C   UNL     1       5.863   1.844 106.913  1.00  0.00     0.034 C 
BRANCH   4   5
ATOM      5  C   UNL     1       6.619   2.368 108.140  1.00  0.00     0.032 C 
BRANCH   5   6
ATOM      6  C   UNL     1       5.882   3.515 108.783  1.00  0.00    -0.028 C 
ATOM      7  C   UNL     1       5.320   2.220 110.854  1.00  0.00     0.039 C 
ATOM      8  C   UNL     1       5.283   3.461 109.994  1.00  0.00    -0.080 C 
ATOM      9  C   UNL     1       4.574   4.692 110.498  1.00  0.00     0.039 C 
ENDBRANCH   5   6
ENDBRANCH   4   5
ENDBRANCH   1   4
BRANCH   2  10
ATOM     10  C   UNL     1       3.118   2.957 106.219  1.00  0.00     0.035 C 
BRANCH  10  11
ATOM     11  C   UNL     1       2.640   4.113 107.105  1.00  0.00     0.079 C 
BRANCH  11  12
ATOM     12  C   UNL     1       3.286   5.406 106.685  1.00  0.00     0.130 C 
ATOM     13  O   UNL     1       3.788   5.496 105.575  1.00  0.00    -0.300 OA
ATOM     14  C   UNL     1       3.318   6.596 107.599  1.00  0.00     0.087 C 
ENDBRANCH  11  12
ENDBRANCH  10  11
ENDBRANCH   2  10
TORSDOF 6
ENDMDL
MODEL 4
REMARK VINA RESULT:    -4.386      1.530      3.540
REMARK INTER + INTRA:          -7.323
REMARK INTER:                  -6.028
REMARK INTRA:                  -1.296
REMARK UNBOUND:                -1.399
REMARK SMILES CC(=O)CCC=C(C)CCC=C(C)C
REMARK SMILES IDX 7 1 6 2 8 3 9 4 10 5 11 6 13 7 12 8 14 9 5 10 4 11 2 12 3 13
REMARK SMILES IDX 1 14
REMARK H PARENT
REMARK Flexibility Score: inf
ROOT
ATOM      1  C   UNL     1       6.174   2.856 109.237  1.00  0.00    -0.077 C 
ATOM      2  C   UNL     1       5.830   4.009 108.617  1.00  0.00    -0.028 C 
ATOM      3  C   UNL     1       7.555   2.303 108.998  1.00  0.00     0.039 C 
ENDROOT
BRANCH   1   4
ATOM      4  C   UNL     1       5.216   2.071 110.111  1.00  0.00     0.034 C 
BRANCH   4   5
ATOM      5  C   UNL     1       4.851   0.735 109.454  1.00  0.00     0.032 C 
BRANCH   5   6
ATOM      6  C   UNL     1       3.916   0.941 108.289  1.00  0.00    -0.028 C 
ATOM      7  C   UNL     1       5.617   0.258 106.579  1.00  0.00     0.039 C 
ATOM      8  C   UNL     1       4.249   0.744 106.993  1.00  0.00    -0.080 C 
ATOM      9  C   UNL     1       3.203   1.003 105.938  1.00  0.00     0.039 C 
ENDBRANCH   5   6
ENDBRANCH   4   5
ENDBRANCH   1   4
BRANCH   2  10
ATOM     10  C   UNL     1       4.498   4.702 108.762  1.00  0.00     0.035 C 
BRANCH  10  11
ATOM     11  C   UNL     1       3.609   4.440 107.542  1.00  0.00     0.079 C 
BRANCH  11  12
ATOM     12  C   UNL     1       2.838   5.679 107.170  1.00  0.00     0.130 C 
ATOM     13  O   UNL     1       1.935   5.602 106.351  1.00  0.00    -0.300 OA
ATOM     14  C   UNL     1       3.147   7.008 107.794  1.00  0.00     0.087 C 
ENDBRANCH  11  12
ENDBRANCH  10  11
ENDBRANCH   2  10
TORSDOF 6
ENDMDL
MODEL 5
REMARK VINA RESULT:    -4.338      2.353      4.551
REMARK INTER + INTRA:          -7.259
REMARK INTER:                  -5.952
REMARK INTRA:                  -1.307
REMARK UNBOUND:                -1.399
REMARK SMILES CC(=O)CCC=C(C)CCC=C(C)C
REMARK SMILES IDX 7 1 6 2 8 3 9 4 10 5 11 6 13 7 12 8 14 9 5 10 4 11 2 12 3 13
REMARK SMILES IDX 1 14
REMARK H PARENT
REMARK Flexibility Score: inf
ROOT
ATOM      1  C   UNL     1       5.085   2.758 106.661  1.00  0.00    -0.077 C 
ATOM      2  C   UNL     1       5.975   3.448 107.411  1.00  0.00    -0.028 C 
ATOM      3  C   UNL     1       5.436   2.471 105.224  1.00  0.00     0.039 C 
ENDROOT
BRANCH   1   4
ATOM      4  C   UNL     1       3.733   2.313 107.184  1.00  0.00     0.034 C 
BRANCH   4   5
ATOM      5  C   UNL     1       2.615   3.201 106.624  1.00  0.00     0.032 C 
BRANCH   5   6
ATOM      6  C   UNL     1       2.604   4.550 107.297  1.00  0.00    -0.028 C 
ATOM      7  C   UNL     1       3.404   5.768 105.258  1.00  0.00     0.039 C 
ATOM      8  C   UNL     1       2.967   5.709 106.702  1.00  0.00    -0.080 C 
ATOM      9  C   UNL     1       2.912   6.978 107.513  1.00  0.00     0.039 C 
ENDBRANCH   5   6
ENDBRANCH   4   5
ENDBRANCH   1   4
BRANCH   2  10
ATOM     10  C   UNL     1       5.785   3.803 108.865  1.00  0.00     0.035 C 
BRANCH  10  11
ATOM     11  C   UNL     1       6.593   2.864 109.768  1.00  0.00     0.079 C 
BRANCH  11  12
ATOM     12  C   UNL     1       5.727   1.745 110.281  1.00  0.00     0.130 C 
ATOM     13  O   UNL     1       5.005   1.937 111.247  1.00  0.00    -0.300 OA
ATOM     14  C   UNL     1       5.721   0.396 109.622  1.00  0.00     0.087 C 
ENDBRANCH  11  12
ENDBRANCH  10  11
ENDBRANCH   2  10
TORSDOF 6
ENDMDL
MODEL 6
REMARK VINA RESULT:    -4.338      2.620      4.895
REMARK INTER + INTRA:          -7.259
REMARK INTER:                  -5.468
REMARK INTRA:                  -1.790
REMARK UNBOUND:                -1.399
REMARK SMILES CC(=O)CCC=C(C)CCC=C(C)C
REMARK SMILES IDX 7 1 6 2 8 3 9 4 10 5 11 6 13 7 12 8 14 9 5 10 4 11 2 12 3 13
REMARK SMILES IDX 1 14
REMARK H PARENT
REMARK Flexibility Score: inf
ROOT
ATOM      1  C   UNL     1       4.650   5.083 108.107  1.00  0.00    -0.077 C 
ATOM      2  C   UNL     1       4.651   4.657 109.391  1.00  0.00    -0.028 C 
ATOM      3  C   UNL     1       3.479   5.900 107.627  1.00  0.00     0.039 C 
ENDROOT
BRANCH   1   4
ATOM      4  C   UNL     1       5.745   4.728 107.119  1.00  0.00     0.034 C 
BRANCH   4   5
ATOM      5  C   UNL     1       5.180   3.907 105.954  1.00  0.00     0.032 C 
BRANCH   5   6
ATOM      6  C   UNL     1       5.215   2.432 106.263  1.00  0.00    -0.028 C 
ATOM      7  C   UNL     1       2.775   2.312 106.819  1.00  0.00     0.039 C 
ATOM      8  C   UNL     1       4.148   1.704 106.664  1.00  0.00    -0.080 C 
ATOM      9  C   UNL     1       4.347   0.237 106.945  1.00  0.00     0.039 C 
ENDBRANCH   5   6
ENDBRANCH   4   5
ENDBRANCH   1   4
BRANCH   2  10
ATOM     10  C   UNL     1       5.750   3.847 110.031  1.00  0.00     0.035 C 
BRANCH  10  11
ATOM     11  C   UNL     1       5.371   2.363 110.094  1.00  0.00     0.079 C 
BRANCH  11  12
ATOM     12  C   UNL     1       6.517   1.502 109.634  1.00  0.00     0.130 C 
ATOM     13  O   UNL     1       6.462   0.292 109.792  1.00  0.00    -0.300 OA
ATOM     14  C   UNL     1       7.725   2.098 108.972  1.00  0.00     0.087 C 
ENDBRANCH  11  12
ENDBRANCH  10  11
ENDBRANCH   2  10
TORSDOF 6
ENDMDL
MODEL 7
REMARK VINA RESULT:    -4.265      1.429      3.468
REMARK INTER + INTRA:          -7.161
REMARK INTER:                  -5.541
REMARK INTRA:                  -1.619
REMARK UNBOUND:                -1.399
REMARK SMILES CC(=O)CCC=C(C)CCC=C(C)C
REMARK SMILES IDX 7 1 6 2 8 3 9 4 10 5 11 6 13 7 12 8 14 9 5 10 4 11 2 12 3 13
REMARK SMILES IDX 1 14
REMARK H PARENT
REMARK Flexibility Score: inf
ROOT
ATOM      1  C   UNL     1       5.675   2.667 108.705  1.00  0.00    -0.077 C 
ATOM      2  C   UNL     1       5.536   3.944 109.132  1.00  0.00    -0.028 C 
ATOM      3  C   UNL     1       6.978   1.963 108.977  1.00  0.00     0.039 C 
ENDROOT
BRANCH   1   4
ATOM      4  C   UNL     1       4.602   1.939 107.920  1.00  0.00     0.034 C 
BRANCH   4   5
ATOM      5  C   UNL     1       5.082   1.639 106.494  1.00  0.00     0.032 C 
BRANCH   5   6
ATOM      6  C   UNL     1       4.740   2.770 105.558  1.00  0.00    -0.028 C 
ATOM      7  C   UNL     1       7.093   3.626 105.451  1.00  0.00     0.039 C 
ATOM      8  C   UNL     1       5.627   3.677 105.091  1.00  0.00    -0.080 C 
ATOM      9  C   UNL     1       5.128   4.758 104.166  1.00  0.00     0.039 C 
ENDBRANCH   5   6
ENDBRANCH   4   5
ENDBRANCH   1   4
BRANCH   2  10
ATOM     10  C   UNL     1       4.295   4.783 108.955  1.00  0.00     0.035 C 
BRANCH  10  11
ATOM     11  C   UNL     1       4.442   5.733 107.761  1.00  0.00     0.079 C 
BRANCH  11  12
ATOM     12  C   UNL     1       3.099   6.262 107.335  1.00  0.00     0.130 C 
ATOM     13  O   UNL     1       2.749   7.376 107.693  1.00  0.00    -0.300 OA
ATOM     14  C   UNL     1       2.180   5.453 106.467  1.00  0.00     0.087 C 
ENDBRANCH  11  12
ENDBRANCH  10  11
ENDBRANCH   2  10
TORSDOF 6
ENDMDL
MODEL 8
REMARK VINA RESULT:    -4.224      2.241      4.849
REMARK INTER + INTRA:          -7.104
REMARK INTER:                  -6.326
REMARK INTRA:                  -0.778
REMARK UNBOUND:                -1.399
REMARK SMILES CC(=O)CCC=C(C)CCC=C(C)C
REMARK SMILES IDX 7 1 6 2 8 3 9 4 10 5 11 6 13 7 12 8 14 9 5 10 4 11 2 12 3 13
REMARK SMILES IDX 1 14
REMARK H PARENT
REMARK Flexibility Score: inf
ROOT
ATOM      1  C   UNL     1       3.370   4.414 107.200  1.00  0.00    -0.077 C 
ATOM      2  C   UNL     1       4.560   4.792 107.722  1.00  0.00    -0.028 C 
ATOM      3  C   UNL     1       2.407   5.490 106.771  1.00  0.00     0.039 C 
ENDROOT
BRANCH   1   4
ATOM      4  C   UNL     1       2.944   2.964 107.081  1.00  0.00     0.034 C 
BRANCH   4   5
ATOM      5  C   UNL     1       3.162   2.449 105.653  1.00  0.00     0.032 C 
BRANCH   5   6
ATOM      6  C   UNL     1       2.858   0.976 105.555  1.00  0.00    -0.028 C 
ATOM      7  C   UNL     1       2.346   1.065 103.103  1.00  0.00     0.039 C 
ATOM      8  C   UNL     1       2.479   0.342 104.422  1.00  0.00    -0.080 C 
ATOM      9  C   UNL     1       2.201  -1.138 104.488  1.00  0.00     0.039 C 
ENDBRANCH   5   6
ENDBRANCH   4   5
ENDBRANCH   1   4
BRANCH   2  10
ATOM     10  C   UNL     1       5.640   3.845 108.183  1.00  0.00     0.035 C 
BRANCH  10  11
ATOM     11  C   UNL     1       5.607   3.678 109.706  1.00  0.00     0.079 C 
BRANCH  11  12
ATOM     12  C   UNL     1       5.328   2.245 110.078  1.00  0.00     0.130 C 
ATOM     13  O   UNL     1       5.008   1.973 111.225  1.00  0.00    -0.300 OA
ATOM     14  C   UNL     1       5.421   1.143 109.064  1.00  0.00     0.087 C 
ENDBRANCH  11  12
ENDBRANCH  10  11
ENDBRANCH   2  10
TORSDOF 6
ENDMDL
MODEL 9
REMARK VINA RESULT:    -4.215      1.283      2.139
REMARK INTER + INTRA:          -7.093
REMARK INTER:                  -5.723
REMARK INTRA:                  -1.370
REMARK UNBOUND:                -1.399
REMARK SMILES CC(=O)CCC=C(C)CCC=C(C)C
REMARK SMILES IDX 7 1 6 2 8 3 9 4 10 5 11 6 13 7 12 8 14 9 5 10 4 11 2 12 3 13
REMARK SMILES IDX 1 14
REMARK H PARENT
REMARK Flexibility Score: inf
ROOT
ATOM      1  C   UNL     1       4.875   4.078 104.844  1.00  0.00    -0.077 C 
ATOM      2  C   UNL     1       3.531   4.043 105.002  1.00  0.00    -0.028 C 
ATOM      3  C   UNL     1       5.438   3.817 103.472  1.00  0.00     0.039 C 
ENDROOT
BRANCH   1   4
ATOM      4  C   UNL     1       5.835   4.311 105.994  1.00  0.00     0.034 C 
BRANCH   4   5
ATOM      5  C   UNL     1       6.325   2.978 106.572  1.00  0.00     0.032 C 
BRANCH   5   6
ATOM      6  C   UNL     1       6.234   2.973 108.077  1.00  0.00    -0.028 C 
ATOM      7  C   UNL     1       4.289   1.394 108.129  1.00  0.00     0.039 C 
ATOM      8  C   UNL     1       5.319   2.278 108.790  1.00  0.00    -0.080 C 
ATOM      9  C   UNL     1       5.351   2.384 110.293  1.00  0.00     0.039 C 
ENDBRANCH   5   6
ENDBRANCH   4   5
ENDBRANCH   1   4
BRANCH   2  10
ATOM     10  C   UNL     1       2.808   4.297 106.301  1.00  0.00     0.035 C 
BRANCH  10  11
ATOM     11  C   UNL     1       2.398   5.769 106.421  1.00  0.00     0.079 C 
BRANCH  11  12
ATOM     12  C   UNL     1       3.009   6.393 107.647  1.00  0.00     0.130 C 
ATOM     13  O   UNL     1       2.964   7.605 107.791  1.00  0.00    -0.300 OA
ATOM     14  C   UNL     1       3.665   5.556 108.706  1.00  0.00     0.087 C 
ENDBRANCH  11  12
ENDBRANCH  10  11
ENDBRANCH   2  10
TORSDOF 6
ENDMDL
