MODEL 1
REMARK VINA RESULT:    -3.492      0.000      0.000
REMARK INTER + INTRA:          -4.597
REMARK INTER:                  -4.717
REMARK INTRA:                   0.120
REMARK UNBOUND:                 0.120
REMARK SMILES C=C1C(=O)O[C@H]2[C@@H]1CCC(C)=CCC[C@]1(C)O[C@H]21
REMARK SMILES IDX 6 1 7 2 2 3 1 4 3 5 4 6 5 7 8 8 9 9 10 10 11 11 12 12 18 14
REMARK SMILES IDX 15 15 17 16 16 17 14 18 13 19
REMARK H PARENT
REMARK Flexibility Score: 70.00
ROOT
ATOM      1  C   UNL     1      15.470  17.062  33.001  1.00  0.00     0.216 C 
ATOM      2  C   UNL     1      14.317  16.579  32.036  1.00  0.00     0.070 C 
ATOM      3  C   UNL     1      13.072  16.806  32.849  1.00  0.00     0.037 C 
ATOM      4  C   UNL     1      11.832  16.453  32.505  1.00  0.00     0.021 C 
ATOM      5  C   UNL     1      13.467  17.276  34.151  1.00  0.00     0.334 C 
ATOM      6  O   UNL     1      12.688  17.535  35.105  1.00  0.00    -0.247 OA
ATOM      7  O   UNL     1      14.835  17.379  34.237  1.00  0.00    -0.455 OA
ENDROOT
BRANCH   2   8
ATOM      8  C   UNL     1      14.233  17.248  30.624  1.00  0.00     0.017 C 
BRANCH   8   9
ATOM      9  C   UNL     1      15.172  16.608  29.573  1.00  0.00     0.031 C 
BRANCH   9  10
ATOM     10  C   UNL     1      15.785  15.301  30.044  1.00  0.00    -0.077 C 
ATOM     11  C   UNL     1      14.912  14.073  30.105  1.00  0.00     0.039 C 
ATOM     12  C   UNL     1      17.071  15.185  30.446  1.00  0.00    -0.028 CG0
ATOM     13  G   UNL     1      18.111  16.275  30.369  1.00  0.00     0.000 G0
ENDBRANCH   9  10
ENDBRANCH   8   9
ENDBRANCH   2   8
BRANCH   1  14
ATOM     14  C   UNL     1      16.229  18.318  32.543  1.00  0.00     0.192 C 
ATOM     15  C   UNL     1      17.602  18.238  31.959  1.00  0.00     0.096 C 
ATOM     16  O   UNL     1      17.390  18.502  33.328  1.00  0.00    -0.362 OA
ATOM     17  C   UNL     1      18.125  19.485  31.239  1.00  0.00     0.045 C 
BRANCH  15  18
ATOM     18  C   UNL     1      18.350  16.902  31.749  1.00  0.00     0.042 C 
BRANCH  18  19
ATOM     19  C   UNL     1      18.106  16.269  30.372  1.00  0.00     0.030 CG0
ATOM     20  G   UNL     1      17.058  15.185  30.433  1.00  0.00     0.000 G0
ENDBRANCH  18  19
ENDBRANCH  15  18
ENDBRANCH   1  14
TORSDOF 0
ENDMDL
MODEL 2
REMARK VINA RESULT:    -3.324      3.034      4.620
REMARK INTER + INTRA:          -4.369
REMARK INTER:                  -4.333
REMARK INTRA:                  -0.037
REMARK UNBOUND:                 0.120
REMARK SMILES C=C1C(=O)O[C@H]2[C@@H]1CCC(C)=CCC[C@]1(C)O[C@H]21
REMARK SMILES IDX 6 1 7 2 2 3 1 4 3 5 4 6 5 7 8 8 9 9 10 10 11 11 12 12 18 14
REMARK SMILES IDX 15 15 17 16 16 17 14 18 13 19
REMARK H PARENT
REMARK Flexibility Score: 70.00
ROOT
ATOM      1  C   UNL     1      11.490  15.085  33.076  1.00  0.00     0.216 C 
ATOM      2  C   UNL     1      11.883  15.402  31.580  1.00  0.00     0.070 C 
ATOM      3  C   UNL     1      10.633  15.059  30.817  1.00  0.00     0.037 C 
ATOM      4  C   UNL     1      10.496  15.059  29.489  1.00  0.00     0.021 C 
ATOM      5  C   UNL     1       9.673  14.526  31.747  1.00  0.00     0.334 C 
ATOM      6  O   UNL     1       8.525  14.101  31.453  1.00  0.00    -0.247 OA
ATOM      7  O   UNL     1      10.187  14.509  33.022  1.00  0.00    -0.455 OA
ENDROOT
BRANCH   2   8
ATOM      8  C   UNL     1      12.395  16.845  31.260  1.00  0.00     0.017 C 
BRANCH   8   9
ATOM      9  C   UNL     1      13.928  16.935  31.062  1.00  0.00     0.031 C 
BRANCH   9  10
ATOM     10  C   UNL     1      14.655  15.672  31.488  1.00  0.00    -0.077 C 
ATOM     11  C   UNL     1      14.946  14.619  30.448  1.00  0.00     0.039 C 
ATOM     12  C   UNL     1      15.029  15.424  32.763  1.00  0.00    -0.028 CG0
ATOM     13  G   UNL     1      14.905  16.392  33.913  1.00  0.00     0.000 G0
ENDBRANCH   9  10
ENDBRANCH   8   9
ENDBRANCH   2   8
BRANCH   1  14
ATOM     14  C   UNL     1      11.412  16.304  34.009  1.00  0.00     0.192 C 
ATOM     15  C   UNL     1      12.544  16.681  34.907  1.00  0.00     0.096 C 
ATOM     16  O   UNL     1      11.466  15.892  35.359  1.00  0.00    -0.362 OA
ATOM     17  C   UNL     1      12.498  18.078  35.536  1.00  0.00     0.045 C 
BRANCH  15  18
ATOM     18  C   UNL     1      13.877  15.900  34.954  1.00  0.00     0.042 C 
BRANCH  18  19
ATOM     19  C   UNL     1      14.910  16.382  33.925  1.00  0.00     0.030 CG0
ATOM     20  G   UNL     1      15.033  15.425  32.766  1.00  0.00     0.000 G0
ENDBRANCH  18  19
ENDBRANCH  15  18
ENDBRANCH   1  14
TORSDOF 0
ENDMDL
MODEL 3
REMARK VINA RESULT:    -3.310      1.907      2.905
REMARK INTER + INTRA:          -4.351
REMARK INTER:                  -4.311
REMARK INTRA:                  -0.041
REMARK UNBOUND:                 0.120
REMARK SMILES C=C1C(=O)O[C@H]2[C@@H]1CCC(C)=CCC[C@]1(C)O[C@H]21
REMARK SMILES IDX 6 1 7 2 2 3 1 4 3 5 4 6 5 7 8 8 9 9 10 10 11 11 12 12 18 14
REMARK SMILES IDX 15 15 17 16 16 17 14 18 13 19
REMARK H PARENT
REMARK Flexibility Score: 70.00
ROOT
ATOM      1  C   UNL     1      13.314  15.797  33.301  1.00  0.00     0.216 C 
ATOM      2  C   UNL     1      13.236  15.893  31.727  1.00  0.00     0.070 C 
ATOM      3  C   UNL     1      11.816  15.497  31.429  1.00  0.00     0.037 C 
ATOM      4  C   UNL     1      11.286  15.322  30.217  1.00  0.00     0.021 C 
ATOM      5  C   UNL     1      11.183  15.134  32.669  1.00  0.00     0.334 C 
ATOM      6  O   UNL     1      10.002  14.717  32.795  1.00  0.00    -0.247 OA
ATOM      7  O   UNL     1      12.057  15.271  33.721  1.00  0.00    -0.455 OA
ENDROOT
BRANCH   2   8
ATOM      8  C   UNL     1      13.622  17.258  31.069  1.00  0.00     0.017 C 
BRANCH   8   9
ATOM      9  C   UNL     1      14.987  17.236  30.338  1.00  0.00     0.031 C 
BRANCH   9  10
ATOM     10  C   UNL     1      15.840  16.038  30.714  1.00  0.00    -0.077 C 
ATOM     11  C   UNL     1      15.835  14.833  29.807  1.00  0.00     0.039 C 
ATOM     12  C   UNL     1      16.585  15.979  31.841  1.00  0.00    -0.028 CG0
ATOM     13  G   UNL     1      16.785  17.115  32.814  1.00  0.00     0.000 G0
ENDBRANCH   9  10
ENDBRANCH   8   9
ENDBRANCH   2   8
BRANCH   1  14
ATOM     14  C   UNL     1      13.515  17.134  34.033  1.00  0.00     0.192 C 
ATOM     15  C   UNL     1      14.868  17.601  34.460  1.00  0.00     0.096 C 
ATOM     16  O   UNL     1      14.008  16.909  35.337  1.00  0.00    -0.362 OA
ATOM     17  C   UNL     1      14.998  19.071  34.871  1.00  0.00     0.045 C 
BRANCH  15  18
ATOM     18  C   UNL     1      16.160  16.800  34.183  1.00  0.00     0.042 C 
BRANCH  18  19
ATOM     19  C   UNL     1      16.797  17.109  32.820  1.00  0.00     0.030 CG0
ATOM     20  G   UNL     1      16.592  15.982  31.839  1.00  0.00     0.000 G0
ENDBRANCH  18  19
ENDBRANCH  15  18
ENDBRANCH   1  14
TORSDOF 0
ENDMDL
MODEL 4
REMARK VINA RESULT:    -3.261      2.396      3.816
REMARK INTER + INTRA:          -4.284
REMARK INTER:                  -4.262
REMARK INTRA:                  -0.022
REMARK UNBOUND:                 0.120
REMARK SMILES C=C1C(=O)O[C@H]2[C@@H]1CCC(C)=CCC[C@]1(C)O[C@H]21
REMARK SMILES IDX 6 1 7 2 2 3 1 4 3 5 4 6 5 7 8 8 9 9 10 10 11 11 12 12 18 14
REMARK SMILES IDX 15 15 17 16 16 17 14 18 13 19
REMARK H PARENT
REMARK Flexibility Score: 70.00
ROOT
ATOM      1  C   UNL     1      15.201  17.575  31.306  1.00  0.00     0.216 C 
ATOM      2  C   UNL     1      14.736  17.291  32.788  1.00  0.00     0.070 C 
ATOM      3  C   UNL     1      13.332  16.780  32.615  1.00  0.00     0.037 C 
ATOM      4  C   UNL     1      12.470  16.499  33.594  1.00  0.00     0.021 C 
ATOM      5  C   UNL     1      13.000  16.847  31.216  1.00  0.00     0.334 C 
ATOM      6  O   UNL     1      11.892  16.533  30.709  1.00  0.00    -0.247 OA
ATOM      7  O   UNL     1      14.058  17.339  30.487  1.00  0.00    -0.455 OA
ENDROOT
BRANCH   2   8
ATOM      8  C   UNL     1      15.616  16.325  33.646  1.00  0.00     0.017 C 
BRANCH   8   9
ATOM      9  C   UNL     1      16.497  17.047  34.695  1.00  0.00     0.031 C 
BRANCH   9  10
ATOM     10  C   UNL     1      16.546  18.551  34.492  1.00  0.00    -0.077 C 
ATOM     11  C   UNL     1      15.573  19.416  35.251  1.00  0.00     0.039 C 
ATOM     12  C   UNL     1      17.400  19.158  33.637  1.00  0.00    -0.028 CG0
ATOM     13  G   UNL     1      18.499  18.470  32.865  1.00  0.00     0.000 G0
ENDBRANCH   9  10
ENDBRANCH   8   9
ENDBRANCH   2   8
BRANCH   1  14
ATOM     14  C   UNL     1      16.330  16.671  30.785  1.00  0.00     0.192 C 
ATOM     15  C   UNL     1      17.758  17.108  30.800  1.00  0.00     0.096 C 
ATOM     16  O   UNL     1      16.946  17.257  29.657  1.00  0.00    -0.362 OA
ATOM     17  C   UNL     1      18.819  16.026  30.578  1.00  0.00     0.045 C 
BRANCH  15  18
ATOM     18  C   UNL     1      18.213  18.477  31.354  1.00  0.00     0.042 C 
BRANCH  18  19
ATOM     19  C   UNL     1      18.503  18.466  32.862  1.00  0.00     0.030 CG0
ATOM     20  G   UNL     1      17.413  19.154  33.646  1.00  0.00     0.000 G0
ENDBRANCH  18  19
ENDBRANCH  15  18
ENDBRANCH   1  14
TORSDOF 0
ENDMDL
MODEL 5
REMARK VINA RESULT:    -3.255      2.623      4.704
REMARK INTER + INTRA:          -4.278
REMARK INTER:                  -4.341
REMARK INTRA:                   0.064
REMARK UNBOUND:                 0.120
REMARK SMILES C=C1C(=O)O[C@H]2[C@@H]1CCC(C)=CCC[C@]1(C)O[C@H]21
REMARK SMILES IDX 6 1 7 2 2 3 1 4 3 5 4 6 5 7 8 8 9 9 10 10 11 11 12 12 18 14
REMARK SMILES IDX 15 15 17 16 16 17 14 18 13 19
REMARK H PARENT
REMARK Flexibility Score: 70.00
ROOT
ATOM      1  C   UNL     1      15.617  17.940  32.687  1.00  0.00     0.216 C 
ATOM      2  C   UNL     1      15.011  17.162  31.454  1.00  0.00     0.070 C 
ATOM      3  C   UNL     1      15.912  17.566  30.318  1.00  0.00     0.037 C 
ATOM      4  C   UNL     1      15.747  17.249  29.032  1.00  0.00     0.021 C 
ATOM      5  C   UNL     1      16.861  18.525  30.818  1.00  0.00     0.334 C 
ATOM      6  O   UNL     1      17.746  19.105  30.137  1.00  0.00    -0.247 OA
ATOM      7  O   UNL     1      16.657  18.759  32.158  1.00  0.00    -0.455 OA
ENDROOT
BRANCH   2   8
ATOM      8  C   UNL     1      14.874  15.609  31.578  1.00  0.00     0.017 C 
BRANCH   8   9
ATOM      9  C   UNL     1      13.531  15.148  32.194  1.00  0.00     0.031 C 
BRANCH   9  10
ATOM     10  C   UNL     1      12.563  16.293  32.431  1.00  0.00    -0.077 C 
ATOM     11  C   UNL     1      11.792  16.843  31.257  1.00  0.00     0.039 C 
ATOM     12  C   UNL     1      12.378  16.874  33.638  1.00  0.00    -0.028 CG0
ATOM     13  G   UNL     1      12.989  16.403  34.935  1.00  0.00     0.000 G0
ENDBRANCH   9  10
ENDBRANCH   8   9
ENDBRANCH   2   8
BRANCH   1  14
ATOM     14  C   UNL     1      16.243  17.057  33.779  1.00  0.00     0.192 C 
ATOM     15  C   UNL     1      15.538  16.781  35.067  1.00  0.00     0.096 C 
ATOM     16  O   UNL     1      16.485  17.818  34.945  1.00  0.00    -0.362 OA
ATOM     17  C   UNL     1      16.087  15.640  35.929  1.00  0.00     0.045 C 
BRANCH  15  18
ATOM     18  C   UNL     1      14.131  17.333  35.392  1.00  0.00     0.042 C 
BRANCH  18  19
ATOM     19  C   UNL     1      12.989  16.413  34.940  1.00  0.00     0.030 CG0
ATOM     20  G   UNL     1      12.378  16.878  33.641  1.00  0.00     0.000 G0
ENDBRANCH  18  19
ENDBRANCH  15  18
ENDBRANCH   1  14
TORSDOF 0
ENDMDL
MODEL 6
REMARK VINA RESULT:    -3.209      2.510      3.935
REMARK INTER + INTRA:          -4.215
REMARK INTER:                  -4.209
REMARK INTRA:                  -0.006
REMARK UNBOUND:                 0.120
REMARK SMILES C=C1C(=O)O[C@H]2[C@@H]1CCC(C)=CCC[C@]1(C)O[C@H]21
REMARK SMILES IDX 6 1 7 2 2 3 1 4 3 5 4 6 5 7 8 8 9 9 10 10 11 11 12 12 18 14
REMARK SMILES IDX 15 15 17 16 16 17 14 18 13 19
REMARK H PARENT
REMARK Flexibility Score: 70.00
ROOT
ATOM      1  C   UNL     1      13.757  17.168  31.275  1.00  0.00     0.216 C 
ATOM      2  C   UNL     1      13.529  16.685  32.761  1.00  0.00     0.070 C 
ATOM      3  C   UNL     1      12.238  15.917  32.677  1.00  0.00     0.037 C 
ATOM      4  C   UNL     1      11.565  15.394  33.704  1.00  0.00     0.021 C 
ATOM      5  C   UNL     1      11.741  16.021  31.331  1.00  0.00     0.334 C 
ATOM      6  O   UNL     1      10.663  15.530  30.906  1.00  0.00    -0.247 OA
ATOM      7  O   UNL     1      12.594  16.769  30.553  1.00  0.00    -0.455 OA
ENDROOT
BRANCH   2   8
ATOM      8  C   UNL     1      14.671  15.853  33.431  1.00  0.00     0.017 C 
BRANCH   8   9
ATOM      9  C   UNL     1      15.262  16.513  34.701  1.00  0.00     0.031 C 
BRANCH   9  10
ATOM     10  C   UNL     1      15.208  18.030  34.660  1.00  0.00    -0.077 C 
ATOM     11  C   UNL     1      14.269  18.745  35.598  1.00  0.00     0.039 C 
ATOM     12  C   UNL     1      15.936  18.777  33.800  1.00  0.00    -0.028 CG0
ATOM     13  G   UNL     1      16.988  18.247  32.858  1.00  0.00     0.000 G0
ENDBRANCH   9  10
ENDBRANCH   8   9
ENDBRANCH   2   8
BRANCH   1  14
ATOM     14  C   UNL     1      14.970  16.551  30.561  1.00  0.00     0.192 C 
ATOM     15  C   UNL     1      16.320  17.189  30.611  1.00  0.00     0.096 C 
ATOM     16  O   UNL     1      15.430  17.415  29.541  1.00  0.00    -0.362 OA
ATOM     17  C   UNL     1      17.510  16.336  30.159  1.00  0.00     0.045 C 
BRANCH  15  18
ATOM     18  C   UNL     1      16.607  18.491  31.394  1.00  0.00     0.042 C 
BRANCH  18  19
ATOM     19  C   UNL     1      16.996  18.255  32.860  1.00  0.00     0.030 CG0
ATOM     20  G   UNL     1      15.937  18.765  33.807  1.00  0.00     0.000 G0
ENDBRANCH  18  19
ENDBRANCH  15  18
ENDBRANCH   1  14
TORSDOF 0
ENDMDL
MODEL 7
REMARK VINA RESULT:    -3.200      2.684      5.189
REMARK INTER + INTRA:          -4.203
REMARK INTER:                  -4.253
REMARK INTRA:                   0.050
REMARK UNBOUND:                 0.120
REMARK SMILES C=C1C(=O)O[C@H]2[C@@H]1CCC(C)=CCC[C@]1(C)O[C@H]21
REMARK SMILES IDX 6 1 7 2 2 3 1 4 3 5 4 6 5 7 8 8 9 9 10 10 11 11 12 12 18 14
REMARK SMILES IDX 15 15 17 16 16 17 14 18 13 19
REMARK H PARENT
REMARK Flexibility Score: 70.00
ROOT
ATOM      1  C   UNL     1      16.213  16.891  30.981  1.00  0.00     0.216 C 
ATOM      2  C   UNL     1      16.876  17.785  32.101  1.00  0.00     0.070 C 
ATOM      3  C   UNL     1      17.941  18.539  31.353  1.00  0.00     0.037 C 
ATOM      4  C   UNL     1      18.853  19.354  31.888  1.00  0.00     0.021 C 
ATOM      5  C   UNL     1      17.949  18.070  29.992  1.00  0.00     0.334 C 
ATOM      6  O   UNL     1      18.737  18.454  29.088  1.00  0.00    -0.247 OA
ATOM      7  O   UNL     1      16.988  17.105  29.804  1.00  0.00    -0.455 OA
ENDROOT
BRANCH   2   8
ATOM      8  C   UNL     1      15.937  18.737  32.913  1.00  0.00     0.017 C 
BRANCH   8   9
ATOM      9  C   UNL     1      15.304  18.075  34.161  1.00  0.00     0.031 C 
BRANCH   9  10
ATOM     10  C   UNL     1      15.845  16.682  34.431  1.00  0.00    -0.077 C 
ATOM     11  C   UNL     1      17.201  16.545  35.078  1.00  0.00     0.039 C 
ATOM     12  C   UNL     1      15.188  15.550  34.091  1.00  0.00    -0.028 CG0
ATOM     13  G   UNL     1      13.792  15.489  33.524  1.00  0.00     0.000 G0
ENDBRANCH   9  10
ENDBRANCH   8   9
ENDBRANCH   2   8
BRANCH   1  14
ATOM     14  C   UNL     1      14.756  17.239  30.637  1.00  0.00     0.192 C 
ATOM     15  C   UNL     1      13.614  16.408  31.122  1.00  0.00     0.096 C 
ATOM     16  O   UNL     1      14.183  16.219  29.846  1.00  0.00    -0.362 OA
ATOM     17  C   UNL     1      12.213  17.019  31.009  1.00  0.00     0.045 C 
BRANCH  15  18
ATOM     18  C   UNL     1      13.800  15.161  32.016  1.00  0.00     0.042 C 
BRANCH  18  19
ATOM     19  C   UNL     1      13.780  15.472  33.520  1.00  0.00     0.030 CG0
ATOM     20  G   UNL     1      15.174  15.555  34.091  1.00  0.00     0.000 G0
ENDBRANCH  18  19
ENDBRANCH  15  18
ENDBRANCH   1  14
TORSDOF 0
ENDMDL
MODEL 8
REMARK VINA RESULT:    -3.191      2.028      3.695
REMARK INTER + INTRA:          -4.191
REMARK INTER:                  -4.213
REMARK INTRA:                   0.023
REMARK UNBOUND:                 0.120
REMARK SMILES C=C1C(=O)O[C@H]2[C@@H]1CCC(C)=CCC[C@]1(C)O[C@H]21
REMARK SMILES IDX 6 1 7 2 2 3 1 4 3 5 4 6 5 7 8 8 9 9 10 10 11 11 12 12 18 14
REMARK SMILES IDX 15 15 17 16 16 17 14 18 13 19
REMARK H PARENT
REMARK Flexibility Score: 70.00
ROOT
ATOM      1  C   UNL     1      13.653  16.882  31.910  1.00  0.00     0.216 C 
ATOM      2  C   UNL     1      14.085  17.081  33.416  1.00  0.00     0.070 C 
ATOM      3  C   UNL     1      12.813  16.816  34.175  1.00  0.00     0.037 C 
ATOM      4  C   UNL     1      12.635  16.963  35.490  1.00  0.00     0.021 C 
ATOM      5  C   UNL     1      11.762  16.583  33.220  1.00  0.00     0.334 C 
ATOM      6  O   UNL     1      10.554  16.363  33.497  1.00  0.00    -0.247 OA
ATOM      7  O   UNL     1      12.245  16.662  31.935  1.00  0.00    -0.455 OA
ENDROOT
BRANCH   2   8
ATOM      8  C   UNL     1      15.279  16.219  33.943  1.00  0.00     0.017 C 
BRANCH   8   9
ATOM      9  C   UNL     1      16.651  16.930  33.850  1.00  0.00     0.031 C 
BRANCH   9  10
ATOM     10  C   UNL     1      16.556  18.325  33.258  1.00  0.00    -0.077 C 
ATOM     11  C   UNL     1      16.183  19.471  34.165  1.00  0.00     0.039 C 
ATOM     12  C   UNL     1      16.757  18.594  31.948  1.00  0.00    -0.028 CG0
ATOM     13  G   UNL     1      17.224  17.597  30.915  1.00  0.00     0.000 G0
ENDBRANCH   9  10
ENDBRANCH   8   9
ENDBRANCH   2   8
BRANCH   1  14
ATOM     14  C   UNL     1      14.290  15.679  31.196  1.00  0.00     0.192 C 
ATOM     15  C   UNL     1      15.435  15.841  30.251  1.00  0.00     0.096 C 
ATOM     16  O   UNL     1      14.101  15.782  29.800  1.00  0.00    -0.362 OA
ATOM     17  C   UNL     1      16.199  14.571  29.861  1.00  0.00     0.045 C 
BRANCH  15  18
ATOM     18  C   UNL     1      16.080  17.210  29.937  1.00  0.00     0.042 C 
BRANCH  18  19
ATOM     19  C   UNL     1      17.215  17.592  30.899  1.00  0.00     0.030 CG0
ATOM     20  G   UNL     1      16.753  18.576  31.945  1.00  0.00     0.000 G0
ENDBRANCH  18  19
ENDBRANCH  15  18
ENDBRANCH   1  14
TORSDOF 0
ENDMDL
MODEL 9
REMARK VINA RESULT:    -3.092      2.290      3.698
REMARK INTER + INTRA:          -4.056
REMARK INTER:                  -4.005
REMARK INTRA:                  -0.051
REMARK UNBOUND:                 0.120
REMARK SMILES C=C1C(=O)O[C@H]2[C@@H]1CCC(C)=CCC[C@]1(C)O[C@H]21
REMARK SMILES IDX 6 1 7 2 2 3 1 4 3 5 4 6 5 7 8 8 9 9 10 10 11 11 12 12 18 14
REMARK SMILES IDX 15 15 17 16 16 17 14 18 13 19
REMARK H PARENT
REMARK Flexibility Score: 70.00
ROOT
ATOM      1  C   UNL     1      15.412  17.169  33.112  1.00  0.00     0.216 C 
ATOM      2  C   UNL     1      16.158  17.403  31.740  1.00  0.00     0.070 C 
ATOM      3  C   UNL     1      15.062  17.246  30.722  1.00  0.00     0.037 C 
ATOM      4  C   UNL     1      15.214  17.250  29.396  1.00  0.00     0.021 C 
ATOM      5  C   UNL     1      13.856  16.880  31.415  1.00  0.00     0.334 C 
ATOM      6  O   UNL     1      12.746  16.632  30.876  1.00  0.00    -0.247 OA
ATOM      7  O   UNL     1      14.078  16.800  32.770  1.00  0.00    -0.455 OA
ENDROOT
BRANCH   2   8
ATOM      8  C   UNL     1      16.941  18.747  31.567  1.00  0.00     0.017 C 
BRANCH   8   9
ATOM      9  C   UNL     1      18.479  18.572  31.520  1.00  0.00     0.031 C 
BRANCH   9  10
ATOM     10  C   UNL     1      18.944  17.260  32.126  1.00  0.00    -0.077 C 
ATOM     11  C   UNL     1      19.314  16.128  31.201  1.00  0.00     0.039 C 
ATOM     12  C   UNL     1      19.016  17.039  33.458  1.00  0.00    -0.028 CG0
ATOM     13  G   UNL     1      18.775  18.075  34.528  1.00  0.00     0.000 G0
ENDBRANCH   9  10
ENDBRANCH   8   9
ENDBRANCH   2   8
BRANCH   1  14
ATOM     14  C   UNL     1      15.323  18.398  34.032  1.00  0.00     0.192 C 
ATOM     15  C   UNL     1      16.325  18.646  35.111  1.00  0.00     0.096 C 
ATOM     16  O   UNL     1      15.101  17.994  35.367  1.00  0.00    -0.362 OA
ATOM     17  C   UNL     1      16.341  20.044  35.738  1.00  0.00     0.045 C 
BRANCH  15  18
ATOM     18  C   UNL     1      17.530  17.712  35.372  1.00  0.00     0.042 C 
BRANCH  18  19
ATOM     19  C   UNL     1      18.771  18.060  34.537  1.00  0.00     0.030 CG0
ATOM     20  G   UNL     1      19.021  17.039  33.455  1.00  0.00     0.000 G0
ENDBRANCH  18  19
ENDBRANCH  15  18
ENDBRANCH   1  14
TORSDOF 0
ENDMDL
