MODEL 1
REMARK VINA RESULT:    -4.318      0.000      0.000
REMARK INTER + INTRA:          -5.774
REMARK INTER:                  -5.580
REMARK INTRA:                  -0.194
REMARK UNBOUND:                -0.194
REMARK SMILES CCO[C@@H]1O[C@@H](CO)[C@H](O)[C@@H](O)[C@H]1O
REMARK SMILES IDX 4 1 13 2 11 3 9 4 6 5 5 6 3 7 2 8 1 9 14 10 12 12 7 14 8 15
REMARK SMILES IDX 10 17
REMARK H PARENT 14 11 12 13 8 16 10 18
REMARK Flexibility Score: inf
ROOT
ATOM      1  C   UNL     1       7.592  34.589  33.638  1.00  0.00     0.281 C 
ATOM      2  C   UNL     1       8.965  33.881  33.723  1.00  0.00     0.202 C 
ATOM      3  C   UNL     1       8.822  32.553  34.487  1.00  0.00     0.179 C 
ATOM      4  C   UNL     1       7.682  31.704  33.890  1.00  0.00     0.177 C 
ATOM      5  C   UNL     1       6.399  32.563  33.805  1.00  0.00     0.178 C 
ATOM      6  O   UNL     1       6.623  33.741  33.040  1.00  0.00    -0.341 OA
ENDROOT
BRANCH   1   7
ATOM      7  O   UNL     1       7.156  35.002  34.928  1.00  0.00    -0.350 OA
BRANCH   7   8
ATOM      8  C   UNL     1       6.379  36.180  34.849  1.00  0.00     0.160 C 
ATOM      9  C   UNL     1       6.977  37.100  33.796  1.00  0.00     0.035 C 
ENDBRANCH   7   8
ENDBRANCH   1   7
BRANCH   2  10
ATOM     10  O   UNL     1       9.450  33.638  32.425  1.00  0.00    -0.385 OA
ATOM     11  H   UNL     1      10.309  33.151  32.526  1.00  0.00     0.211 HD
ENDBRANCH   2  10
BRANCH   3  12
ATOM     12  O   UNL     1      10.039  31.847  34.506  1.00  0.00    -0.387 OA
ATOM     13  H   UNL     1      10.653  32.275  33.855  1.00  0.00     0.211 HD
ENDBRANCH   3  12
BRANCH   5  14
ATOM     14  C   UNL     1       5.239  31.783  33.168  1.00  0.00     0.191 C 
BRANCH  14  15
ATOM     15  O   UNL     1       5.102  32.102  31.808  1.00  0.00    -0.394 OA
ATOM     16  H   UNL     1       4.465  31.448  31.419  1.00  0.00     0.210 HD
ENDBRANCH  14  15
ENDBRANCH   5  14
BRANCH   4  17
ATOM     17  O   UNL     1       7.448  30.585  34.706  1.00  0.00    -0.387 OA
ATOM     18  H   UNL     1       6.952  30.908  35.503  1.00  0.00     0.211 HD
ENDBRANCH   4  17
TORSDOF 7
ENDMDL
MODEL 2
REMARK VINA RESULT:    -3.791      1.937      4.462
REMARK INTER + INTRA:          -5.092
REMARK INTER:                  -4.786
REMARK INTRA:                  -0.306
REMARK UNBOUND:                -0.194
REMARK SMILES CCO[C@@H]1O[C@@H](CO)[C@H](O)[C@@H](O)[C@H]1O
REMARK SMILES IDX 4 1 13 2 11 3 9 4 6 5 5 6 3 7 2 8 1 9 14 10 12 12 7 14 8 15
REMARK SMILES IDX 10 17
REMARK H PARENT 14 11 12 13 8 16 10 18
REMARK Flexibility Score: inf
ROOT
ATOM      1  C   UNL     1       7.802  31.358  33.686  1.00  0.00     0.281 C 
ATOM      2  C   UNL     1       7.569  32.676  32.912  1.00  0.00     0.202 C 
ATOM      3  C   UNL     1       8.172  33.857  33.695  1.00  0.00     0.179 C 
ATOM      4  C   UNL     1       9.639  33.566  34.069  1.00  0.00     0.177 C 
ATOM      5  C   UNL     1       9.722  32.191  34.771  1.00  0.00     0.178 C 
ATOM      6  O   UNL     1       9.184  31.164  33.948  1.00  0.00    -0.341 OA
ENDROOT
BRANCH   1   7
ATOM      7  O   UNL     1       7.065  31.350  34.903  1.00  0.00    -0.350 OA
BRANCH   7   8
ATOM      8  C   UNL     1       6.062  30.355  34.883  1.00  0.00     0.160 C 
ATOM      9  C   UNL     1       4.815  30.920  34.221  1.00  0.00     0.035 C 
ENDBRANCH   7   8
ENDBRANCH   1   7
BRANCH   2  10
ATOM     10  O   UNL     1       8.167  32.588  31.641  1.00  0.00    -0.385 OA
ATOM     11  H   UNL     1       9.112  32.874  31.748  1.00  0.00     0.211 HD
ENDBRANCH   2  10
BRANCH   3  12
ATOM     12  O   UNL     1       8.049  35.058  32.973  1.00  0.00    -0.387 OA
ATOM     13  H   UNL     1       8.961  35.373  32.741  1.00  0.00     0.211 HD
ENDBRANCH   3  12
BRANCH   5  14
ATOM     14  C   UNL     1      11.172  31.824  35.122  1.00  0.00     0.191 C 
BRANCH  14  15
ATOM     15  O   UNL     1      12.081  32.583  34.370  1.00  0.00    -0.394 OA
ATOM     16  H   UNL     1      12.230  33.430  34.864  1.00  0.00     0.210 HD
ENDBRANCH  14  15
ENDBRANCH   5  14
BRANCH   4  17
ATOM     17  O   UNL     1      10.114  34.567  34.932  1.00  0.00    -0.387 OA
ATOM     18  H   UNL     1       9.545  35.367  34.787  1.00  0.00     0.211 HD
ENDBRANCH   4  17
TORSDOF 7
ENDMDL
MODEL 3
REMARK VINA RESULT:    -3.357      1.411      3.367
REMARK INTER + INTRA:          -4.533
REMARK INTER:                  -4.206
REMARK INTRA:                  -0.326
REMARK UNBOUND:                -0.194
REMARK SMILES CCO[C@@H]1O[C@@H](CO)[C@H](O)[C@@H](O)[C@H]1O
REMARK SMILES IDX 4 1 13 2 11 3 9 4 6 5 5 6 3 7 2 8 1 9 14 10 12 12 7 14 8 15
REMARK SMILES IDX 10 17
REMARK H PARENT 14 11 12 13 8 16 10 18
REMARK Flexibility Score: inf
ROOT
ATOM      1  C   UNL     1       6.530  34.381  34.879  1.00  0.00     0.281 C 
ATOM      2  C   UNL     1       5.664  33.419  34.032  1.00  0.00     0.202 C 
ATOM      3  C   UNL     1       6.395  33.072  32.722  1.00  0.00     0.179 C 
ATOM      4  C   UNL     1       7.826  32.580  33.015  1.00  0.00     0.177 C 
ATOM      5  C   UNL     1       8.542  33.606  33.924  1.00  0.00     0.178 C 
ATOM      6  O   UNL     1       7.812  33.820  35.125  1.00  0.00    -0.341 OA
ENDROOT
BRANCH   1   7
ATOM      7  O   UNL     1       6.661  35.643  34.235  1.00  0.00    -0.350 OA
BRANCH   7   8
ATOM      8  C   UNL     1       6.365  36.700  35.125  1.00  0.00     0.160 C 
ATOM      9  C   UNL     1       5.967  37.929  34.323  1.00  0.00     0.035 C 
ENDBRANCH   7   8
ENDBRANCH   1   7
BRANCH   2  10
ATOM     10  O   UNL     1       5.410  32.246  34.765  1.00  0.00    -0.385 OA
ATOM     11  H   UNL     1       4.436  32.233  34.957  1.00  0.00     0.211 HD
ENDBRANCH   2  10
BRANCH   3  12
ATOM     12  O   UNL     1       5.666  32.131  31.971  1.00  0.00    -0.387 OA
ATOM     13  H   UNL     1       5.596  31.298  32.505  1.00  0.00     0.211 HD
ENDBRANCH   3  12
BRANCH   5  14
ATOM     14  C   UNL     1       9.959  33.142  34.291  1.00  0.00     0.191 C 
BRANCH  14  15
ATOM     15  O   UNL     1      10.004  31.751  34.474  1.00  0.00    -0.394 OA
ATOM     16  H   UNL     1      10.883  31.541  34.883  1.00  0.00     0.210 HD
ENDBRANCH  14  15
ENDBRANCH   5  14
BRANCH   4  17
ATOM     17  O   UNL     1       8.534  32.441  31.810  1.00  0.00    -0.387 OA
ATOM     18  H   UNL     1       9.500  32.498  32.035  1.00  0.00     0.211 HD
ENDBRANCH   4  17
TORSDOF 7
ENDMDL
MODEL 4
REMARK VINA RESULT:    -3.231      1.713      4.083
REMARK INTER + INTRA:          -4.369
REMARK INTER:                  -3.972
REMARK INTRA:                  -0.397
REMARK UNBOUND:                -0.194
REMARK SMILES CCO[C@@H]1O[C@@H](CO)[C@H](O)[C@@H](O)[C@H]1O
REMARK SMILES IDX 4 1 13 2 11 3 9 4 6 5 5 6 3 7 2 8 1 9 14 10 12 12 7 14 8 15
REMARK SMILES IDX 10 17
REMARK H PARENT 14 11 12 13 8 16 10 18
REMARK Flexibility Score: inf
ROOT
ATOM      1  C   UNL     1       9.556  33.028  33.733  1.00  0.00     0.281 C 
ATOM      2  C   UNL     1       8.389  32.199  33.146  1.00  0.00     0.202 C 
ATOM      3  C   UNL     1       7.084  32.532  33.891  1.00  0.00     0.179 C 
ATOM      4  C   UNL     1       6.854  34.056  33.927  1.00  0.00     0.177 C 
ATOM      5  C   UNL     1       8.125  34.751  34.468  1.00  0.00     0.178 C 
ATOM      6  O   UNL     1       9.263  34.417  33.684  1.00  0.00    -0.341 OA
ENDROOT
BRANCH   1   7
ATOM      7  O   UNL     1       9.836  32.630  35.070  1.00  0.00    -0.350 OA
BRANCH   7   8
ATOM      8  C   UNL     1      10.953  31.766  35.120  1.00  0.00     0.160 C 
ATOM      9  C   UNL     1      12.226  32.597  35.081  1.00  0.00     0.035 C 
ENDBRANCH   7   8
ENDBRANCH   1   7
BRANCH   2  10
ATOM     10  O   UNL     1       8.247  32.490  31.777  1.00  0.00    -0.385 OA
ATOM     11  H   UNL     1       7.466  33.097  31.692  1.00  0.00     0.211 HD
ENDBRANCH   2  10
BRANCH   3  12
ATOM     12  O   UNL     1       5.990  31.855  33.322  1.00  0.00    -0.387 OA
ATOM     13  H   UNL     1       5.999  30.921  33.655  1.00  0.00     0.211 HD
ENDBRANCH   3  12
BRANCH   5  14
ATOM     14  C   UNL     1       7.973  36.279  34.478  1.00  0.00     0.191 C 
BRANCH  14  15
ATOM     15  O   UNL     1       7.001  36.695  33.555  1.00  0.00    -0.394 OA
ATOM     16  H   UNL     1       7.264  37.601  33.246  1.00  0.00     0.210 HD
ENDBRANCH  14  15
ENDBRANCH   5  14
BRANCH   4  17
ATOM     17  O   UNL     1       5.763  34.351  34.760  1.00  0.00    -0.387 OA
ATOM     18  H   UNL     1       5.110  33.611  34.652  1.00  0.00     0.211 HD
ENDBRANCH   4  17
TORSDOF 7
ENDMDL
MODEL 5
REMARK VINA RESULT:    -3.188      3.837      5.768
REMARK INTER + INTRA:          -4.314
REMARK INTER:                  -3.977
REMARK INTRA:                  -0.337
REMARK UNBOUND:                -0.194
REMARK SMILES CCO[C@@H]1O[C@@H](CO)[C@H](O)[C@@H](O)[C@H]1O
REMARK SMILES IDX 4 1 13 2 11 3 9 4 6 5 5 6 3 7 2 8 1 9 14 10 12 12 7 14 8 15
REMARK SMILES IDX 10 17
REMARK H PARENT 14 11 12 13 8 16 10 18
REMARK Flexibility Score: inf
ROOT
ATOM      1  C   UNL     1      12.690  35.881  34.278  1.00  0.00     0.281 C 
ATOM      2  C   UNL     1      11.620  36.804  33.650  1.00  0.00     0.202 C 
ATOM      3  C   UNL     1      10.639  35.970  32.807  1.00  0.00     0.179 C 
ATOM      4  C   UNL     1      10.086  34.788  33.629  1.00  0.00     0.177 C 
ATOM      5  C   UNL     1      11.265  34.003  34.249  1.00  0.00     0.178 C 
ATOM      6  O   UNL     1      12.081  34.852  35.045  1.00  0.00    -0.341 OA
ENDROOT
BRANCH   1   7
ATOM      7  O   UNL     1      13.525  35.317  33.273  1.00  0.00    -0.350 OA
BRANCH   7   8
ATOM      8  C   UNL     1      14.889  35.425  33.627  1.00  0.00     0.160 C 
ATOM      9  C   UNL     1      15.475  36.666  32.972  1.00  0.00     0.035 C 
ENDBRANCH   7   8
ENDBRANCH   1   7
BRANCH   2  10
ATOM     10  O   UNL     1      10.922  37.478  34.669  1.00  0.00    -0.385 OA
ATOM     11  H   UNL     1      11.577  38.073  35.120  1.00  0.00     0.211 HD
ENDBRANCH   2  10
BRANCH   3  12
ATOM     12  O   UNL     1       9.605  36.772  32.292  1.00  0.00    -0.387 OA
ATOM     13  H   UNL     1       9.694  37.679  32.684  1.00  0.00     0.211 HD
ENDBRANCH   3  12
BRANCH   5  14
ATOM     14  C   UNL     1      10.771  32.842  35.125  1.00  0.00     0.191 C 
BRANCH  14  15
ATOM     15  O   UNL     1      10.110  31.874  34.353  1.00  0.00    -0.394 OA
ATOM     16  H   UNL     1      10.491  30.993  34.605  1.00  0.00     0.210 HD
ENDBRANCH  14  15
ENDBRANCH   5  14
BRANCH   4  17
ATOM     17  O   UNL     1       9.339  33.940  32.796  1.00  0.00    -0.387 OA
ATOM     18  H   UNL     1       9.985  33.333  32.349  1.00  0.00     0.211 HD
ENDBRANCH   4  17
TORSDOF 7
ENDMDL
MODEL 6
REMARK VINA RESULT:    -3.134      1.374      3.967
REMARK INTER + INTRA:          -4.244
REMARK INTER:                  -3.871
REMARK INTRA:                  -0.373
REMARK UNBOUND:                -0.194
REMARK SMILES CCO[C@@H]1O[C@@H](CO)[C@H](O)[C@@H](O)[C@H]1O
REMARK SMILES IDX 4 1 13 2 11 3 9 4 6 5 5 6 3 7 2 8 1 9 14 10 12 12 7 14 8 15
REMARK SMILES IDX 10 17
REMARK H PARENT 14 11 12 13 8 16 10 18
REMARK Flexibility Score: inf
ROOT
ATOM      1  C   UNL     1       7.097  32.748  34.439  1.00  0.00     0.281 C 
ATOM      2  C   UNL     1       8.568  32.764  33.961  1.00  0.00     0.202 C 
ATOM      3  C   UNL     1       8.820  34.003  33.084  1.00  0.00     0.179 C 
ATOM      4  C   UNL     1       8.351  35.282  33.806  1.00  0.00     0.177 C 
ATOM      5  C   UNL     1       6.893  35.092  34.284  1.00  0.00     0.178 C 
ATOM      6  O   UNL     1       6.777  33.951  35.124  1.00  0.00    -0.341 OA
ENDROOT
BRANCH   1   7
ATOM      7  O   UNL     1       6.211  32.556  33.343  1.00  0.00    -0.350 OA
BRANCH   7   8
ATOM      8  C   UNL     1       5.449  31.377  33.507  1.00  0.00     0.160 C 
ATOM      9  C   UNL     1       3.989  31.752  33.705  1.00  0.00     0.035 C 
ENDBRANCH   7   8
ENDBRANCH   1   7
BRANCH   2  10
ATOM     10  O   UNL     1       9.425  32.783  35.076  1.00  0.00    -0.385 OA
ATOM     11  H   UNL     1       8.848  32.747  35.883  1.00  0.00     0.211 HD
ENDBRANCH   2  10
BRANCH   3  12
ATOM     12  O   UNL     1      10.172  34.088  32.704  1.00  0.00    -0.387 OA
ATOM     13  H   UNL     1      10.209  34.428  31.773  1.00  0.00     0.211 HD
ENDBRANCH   3  12
BRANCH   5  14
ATOM     14  C   UNL     1       6.388  36.319  35.058  1.00  0.00     0.191 C 
BRANCH  14  15
ATOM     15  O   UNL     1       6.047  37.362  34.183  1.00  0.00    -0.394 OA
ATOM     16  H   UNL     1       5.092  37.576  34.346  1.00  0.00     0.210 HD
ENDBRANCH  14  15
ENDBRANCH   5  14
BRANCH   4  17
ATOM     17  O   UNL     1       8.420  36.375  32.926  1.00  0.00    -0.387 OA
ATOM     18  H   UNL     1       7.951  36.105  32.094  1.00  0.00     0.211 HD
ENDBRANCH   4  17
TORSDOF 7
ENDMDL
MODEL 7
REMARK VINA RESULT:    -3.116      1.701      3.506
REMARK INTER + INTRA:          -4.220
REMARK INTER:                  -4.053
REMARK INTRA:                  -0.167
REMARK UNBOUND:                -0.194
REMARK SMILES CCO[C@@H]1O[C@@H](CO)[C@H](O)[C@@H](O)[C@H]1O
REMARK SMILES IDX 4 1 13 2 11 3 9 4 6 5 5 6 3 7 2 8 1 9 14 10 12 12 7 14 8 15
REMARK SMILES IDX 10 17
REMARK H PARENT 14 11 12 13 8 16 10 18
REMARK Flexibility Score: inf
ROOT
ATOM      1  C   UNL     1       7.981  34.941  34.335  1.00  0.00     0.281 C 
ATOM      2  C   UNL     1       6.761  34.265  33.667  1.00  0.00     0.202 C 
ATOM      3  C   UNL     1       7.231  33.111  32.764  1.00  0.00     0.179 C 
ATOM      4  C   UNL     1       8.165  32.161  33.540  1.00  0.00     0.177 C 
ATOM      5  C   UNL     1       9.290  32.985  34.207  1.00  0.00     0.178 C 
ATOM      6  O   UNL     1       8.753  33.991  35.055  1.00  0.00    -0.341 OA
ENDROOT
BRANCH   1   7
ATOM      7  O   UNL     1       8.789  35.597  33.365  1.00  0.00    -0.350 OA
BRANCH   7   8
ATOM      8  C   UNL     1       8.953  36.965  33.682  1.00  0.00     0.160 C 
ATOM      9  C   UNL     1       8.526  37.806  32.490  1.00  0.00     0.035 C 
ENDBRANCH   7   8
ENDBRANCH   1   7
BRANCH   2  10
ATOM     10  O   UNL     1       5.893  33.773  34.660  1.00  0.00    -0.385 OA
ATOM     11  H   UNL     1       5.169  33.282  34.190  1.00  0.00     0.211 HD
ENDBRANCH   2  10
BRANCH   3  12
ATOM     12  O   UNL     1       6.136  32.424  32.209  1.00  0.00    -0.387 OA
ATOM     13  H   UNL     1       5.378  32.488  32.846  1.00  0.00     0.211 HD
ENDBRANCH   3  12
BRANCH   5  14
ATOM     14  C   UNL     1      10.225  32.094  35.039  1.00  0.00     0.191 C 
BRANCH  14  15
ATOM     15  O   UNL     1      11.571  32.389  34.774  1.00  0.00    -0.394 OA
ATOM     16  H   UNL     1      11.598  33.307  34.397  1.00  0.00     0.210 HD
ENDBRANCH  14  15
ENDBRANCH   5  14
BRANCH   4  17
ATOM     17  O   UNL     1       8.725  31.222  32.658  1.00  0.00    -0.387 OA
ATOM     18  H   UNL     1       8.890  30.397  33.183  1.00  0.00     0.211 HD
ENDBRANCH   4  17
TORSDOF 7
ENDMDL
MODEL 8
REMARK VINA RESULT:    -3.014      2.463      4.798
REMARK INTER + INTRA:          -4.089
REMARK INTER:                  -3.673
REMARK INTRA:                  -0.416
REMARK UNBOUND:                -0.194
REMARK SMILES CCO[C@@H]1O[C@@H](CO)[C@H](O)[C@@H](O)[C@H]1O
REMARK SMILES IDX 4 1 13 2 11 3 9 4 6 5 5 6 3 7 2 8 1 9 14 10 12 12 7 14 8 15
REMARK SMILES IDX 10 17
REMARK H PARENT 14 11 12 13 8 16 10 18
REMARK Flexibility Score: inf
ROOT
ATOM      1  C   UNL     1      10.541  34.397  33.531  1.00  0.00     0.281 C 
ATOM      2  C   UNL     1       9.236  33.572  33.629  1.00  0.00     0.202 C 
ATOM      3  C   UNL     1       8.152  34.391  34.354  1.00  0.00     0.179 C 
ATOM      4  C   UNL     1       8.002  35.782  33.707  1.00  0.00     0.177 C 
ATOM      5  C   UNL     1       9.391  36.454  33.614  1.00  0.00     0.178 C 
ATOM      6  O   UNL     1      10.304  35.641  32.887  1.00  0.00    -0.341 OA
ENDROOT
BRANCH   1   7
ATOM      7  O   UNL     1      11.103  34.610  34.821  1.00  0.00    -0.350 OA
BRANCH   7   8
ATOM      8  C   UNL     1      12.089  33.640  35.111  1.00  0.00     0.160 C 
ATOM      9  C   UNL     1      13.236  33.786  34.124  1.00  0.00     0.035 C 
ENDBRANCH   7   8
ENDBRANCH   1   7
BRANCH   2  10
ATOM     10  O   UNL     1       8.796  33.231  32.337  1.00  0.00    -0.385 OA
ATOM     11  H   UNL     1       8.696  32.244  32.319  1.00  0.00     0.211 HD
ENDBRANCH   2  10
BRANCH   3  12
ATOM     12  O   UNL     1       6.929  33.697  34.382  1.00  0.00    -0.387 OA
ATOM     13  H   UNL     1       6.208  34.352  34.570  1.00  0.00     0.211 HD
ENDBRANCH   3  12
BRANCH   5  14
ATOM     14  C   UNL     1       9.310  37.826  32.929  1.00  0.00     0.191 C 
BRANCH  14  15
ATOM     15  O   UNL     1       8.158  37.925  32.133  1.00  0.00    -0.394 OA
ATOM     16  H   UNL     1       7.538  37.210  32.431  1.00  0.00     0.210 HD
ENDBRANCH  14  15
ENDBRANCH   5  14
BRANCH   4  17
ATOM     17  O   UNL     1       7.144  36.576  34.487  1.00  0.00    -0.387 OA
ATOM     18  H   UNL     1       6.510  35.959  34.937  1.00  0.00     0.211 HD
ENDBRANCH   4  17
TORSDOF 7
ENDMDL
MODEL 9
REMARK VINA RESULT:    -2.951      3.102      5.095
REMARK INTER + INTRA:          -4.007
REMARK INTER:                  -3.698
REMARK INTRA:                  -0.310
REMARK UNBOUND:                -0.194
REMARK SMILES CCO[C@@H]1O[C@@H](CO)[C@H](O)[C@@H](O)[C@H]1O
REMARK SMILES IDX 4 1 13 2 11 3 9 4 6 5 5 6 3 7 2 8 1 9 14 10 12 12 7 14 8 15
REMARK SMILES IDX 10 17
REMARK H PARENT 14 11 12 13 8 16 10 18
REMARK Flexibility Score: inf
ROOT
ATOM      1  C   UNL     1       9.661  34.693  33.822  1.00  0.00     0.281 C 
ATOM      2  C   UNL     1      10.377  35.874  33.127  1.00  0.00     0.202 C 
ATOM      3  C   UNL     1      11.617  36.287  33.940  1.00  0.00     0.179 C 
ATOM      4  C   UNL     1      12.505  35.062  34.233  1.00  0.00     0.177 C 
ATOM      5  C   UNL     1      11.641  33.943  34.859  1.00  0.00     0.178 C 
ATOM      6  O   UNL     1      10.553  33.603  34.010  1.00  0.00    -0.341 OA
ENDROOT
BRANCH   1   7
ATOM      7  O   UNL     1       9.110  35.098  35.070  1.00  0.00    -0.350 OA
BRANCH   7   8
ATOM      8  C   UNL     1       7.723  34.833  35.123  1.00  0.00     0.160 C 
ATOM      9  C   UNL     1       7.008  35.720  34.116  1.00  0.00     0.035 C 
ENDBRANCH   7   8
ENDBRANCH   1   7
BRANCH   2  10
ATOM     10  O   UNL     1      10.761  35.494  31.828  1.00  0.00    -0.385 OA
ATOM     11  H   UNL     1      11.527  36.072  31.574  1.00  0.00     0.211 HD
ENDBRANCH   2  10
BRANCH   3  12
ATOM     12  O   UNL     1      12.335  37.305  33.287  1.00  0.00    -0.387 OA
ATOM     13  H   UNL     1      11.689  38.003  33.002  1.00  0.00     0.211 HD
ENDBRANCH   3  12
BRANCH   5  14
ATOM     14  C   UNL     1      12.466  32.675  35.125  1.00  0.00     0.191 C 
BRANCH  14  15
ATOM     15  O   UNL     1      13.658  32.684  34.385  1.00  0.00    -0.394 OA
ATOM     16  H   UNL     1      14.382  32.392  34.998  1.00  0.00     0.210 HD
ENDBRANCH  14  15
ENDBRANCH   5  14
BRANCH   4  17
ATOM     17  O   UNL     1      13.530  35.422  35.123  1.00  0.00    -0.387 OA
ATOM     18  H   UNL     1      14.221  35.895  34.590  1.00  0.00     0.211 HD
ENDBRANCH   4  17
TORSDOF 7
ENDMDL
