MODEL 1
REMARK VINA RESULT:    -6.850      0.000      0.000
REMARK INTER + INTRA:         -11.480
REMARK INTER:                 -10.053
REMARK INTRA:                  -1.427
REMARK UNBOUND:                -1.427
REMARK SMILES Cc1cc2c(C(C)C)c(O)c(O)c(C=O)c2c(O)c1-c1c(C)cc2c(C(C)C)c(O)c(O)c(C=O)c2c1O
REMARK SMILES IDX 1 1 2 2 3 3 4 4 16 5 13 6 11 7 9 8 5 9 17 10 19 11 20 12
REMARK SMILES IDX 37 13 21 14 36 15 23 16 22 17 24 18 33 19 25 20 31 21 29 22
REMARK SMILES IDX 38 23 34 25 35 26 26 27 27 28 28 29 32 30 30 32 18 34 6 36
REMARK SMILES IDX 7 37 8 38 14 39 15 40 10 41 12 43
REMARK H PARENT 38 24 32 31 30 33 18 35 10 42 12 44
REMARK Flexibility Score: inf
ROOT
ATOM      1  C   UNL     1     110.217 104.457 101.196  1.00  0.00     0.045 C 
ATOM      2  C   UNL     1     110.819 105.661 100.514  1.00  0.00    -0.039 A 
ATOM      3  C   UNL     1     111.390 106.673 101.286  1.00  0.00     0.013 A 
ATOM      4  C   UNL     1     111.963 107.823 100.699  1.00  0.00    -0.006 A 
ATOM      5  C   UNL     1     112.094 107.874  99.279  1.00  0.00     0.039 A 
ATOM      6  C   UNL     1     112.869 108.922  98.696  1.00  0.00     0.072 A 
ATOM      7  C   UNL     1     113.486 109.882  99.525  1.00  0.00     0.169 A 
ATOM      8  C   UNL     1     113.262 109.878 100.906  1.00  0.00     0.162 A 
ATOM      9  C   UNL     1     112.431 108.906 101.503  1.00  0.00     0.008 A 
ATOM     10  C   UNL     1     111.432 106.882  98.493  1.00  0.00     0.132 A 
ATOM     11  C   UNL     1     110.798 105.785  99.115  1.00  0.00     0.031 A 
ENDROOT
BRANCH  11  12
ATOM     12  C   UNL     1     110.111 104.753  98.294  1.00  0.00     0.031 A 
ATOM     13  C   UNL     1     108.769 104.936  97.897  1.00  0.00     0.132 A 
ATOM     14  C   UNL     1     110.802 103.591  97.922  1.00  0.00    -0.039 A 
ATOM     15  C   UNL     1     108.101 103.936  97.123  1.00  0.00     0.039 A 
ATOM     16  C   UNL     1     110.174 102.650  97.105  1.00  0.00     0.013 A 
ATOM     17  C   UNL     1     112.219 103.348  98.380  1.00  0.00     0.045 C 
ATOM     18  C   UNL     1     108.852 102.818  96.646  1.00  0.00    -0.006 A 
ATOM     19  C   UNL     1     106.715 104.029  96.797  1.00  0.00     0.072 A 
ATOM     20  C   UNL     1     108.261 101.890  95.729  1.00  0.00     0.008 A 
ATOM     21  C   UNL     1     106.114 103.037  95.995  1.00  0.00     0.169 A 
ATOM     22  C   UNL     1     106.879 101.998  95.456  1.00  0.00     0.162 A 
BRANCH  13  23
ATOM     23  O   UNL     1     108.110 106.118  98.251  1.00  0.00    -0.507 OA
ATOM     24  H   UNL     1     108.270 106.619  99.116  1.00  0.00     0.293 HD
ENDBRANCH  13  23
BRANCH  19  25
ATOM     25  C   UNL     1     105.854 105.101  97.337  1.00  0.00     0.264 C 
ATOM     26  O   UNL     1     105.493 106.062  96.607  1.00  0.00    -0.298 OA
ENDBRANCH  19  25
BRANCH  20  27
ATOM     27  C   UNL     1     109.041 100.773  95.006  1.00  0.00     0.017 C 
ATOM     28  C   UNL     1     109.499  99.669  95.968  1.00  0.00     0.012 C 
ATOM     29  C   UNL     1     110.168 101.280  94.083  1.00  0.00     0.012 C 
ENDBRANCH  20  27
BRANCH  21  30
ATOM     30  O   UNL     1     104.739 103.042  95.730  1.00  0.00    -0.504 OA
ATOM     31  H   UNL     1     104.040 102.650  96.345  1.00  0.00     0.293 HD
ENDBRANCH  21  30
BRANCH  22  32
ATOM     32  O   UNL     1     106.254 101.044  94.646  1.00  0.00    -0.504 OA
ATOM     33  H   UNL     1     105.283 100.775  94.754  1.00  0.00     0.293 HD
ENDBRANCH  22  32
ENDBRANCH  11  12
BRANCH  10  34
ATOM     34  O   UNL     1     111.381 107.001  97.099  1.00  0.00    -0.507 OA
ATOM     35  H   UNL     1     112.147 107.342  96.533  1.00  0.00     0.293 HD
ENDBRANCH  10  34
BRANCH   9  36
ATOM     36  C   UNL     1     112.059 109.027 102.991  1.00  0.00     0.017 C 
ATOM     37  C   UNL     1     113.309 108.966 103.876  1.00  0.00     0.012 C 
ATOM     38  C   UNL     1     111.204 110.266 103.314  1.00  0.00     0.012 C 
ENDBRANCH   9  36
BRANCH   6  39
ATOM     39  C   UNL     1     113.131 108.983  97.244  1.00  0.00     0.264 C 
ATOM     40  O   UNL     1     112.587 109.868  96.531  1.00  0.00    -0.298 OA
ENDBRANCH   6  39
BRANCH   8  41
ATOM     41  O   UNL     1     113.894 110.836 101.703  1.00  0.00    -0.504 OA
ATOM     42  H   UNL     1     114.881 111.052 101.630  1.00  0.00     0.293 HD
ENDBRANCH   8  41
BRANCH   7  43
ATOM     43  O   UNL     1     114.352 110.851  99.005  1.00  0.00    -0.504 OA
ATOM     44  H   UNL     1     114.275 111.842  99.192  1.00  0.00     0.293 HD
ENDBRANCH   7  43
TORSDOF 11
ENDMDL
MODEL 2
REMARK VINA RESULT:    -6.656      4.501      6.703
REMARK INTER + INTRA:         -11.196
REMARK INTER:                  -9.763
REMARK INTRA:                  -1.433
REMARK UNBOUND:                -1.427
REMARK SMILES Cc1cc2c(C(C)C)c(O)c(O)c(C=O)c2c(O)c1-c1c(C)cc2c(C(C)C)c(O)c(O)c(C=O)c2c1O
REMARK SMILES IDX 1 1 2 2 3 3 4 4 16 5 13 6 11 7 9 8 5 9 17 10 19 11 20 12
REMARK SMILES IDX 37 13 21 14 36 15 23 16 22 17 24 18 33 19 25 20 31 21 29 22
REMARK SMILES IDX 38 23 34 25 35 26 26 27 27 28 28 29 32 30 30 32 18 34 6 36
REMARK SMILES IDX 7 37 8 38 14 39 15 40 10 41 12 43
REMARK H PARENT 38 24 32 31 30 33 18 35 10 42 12 44
REMARK Flexibility Score: inf
ROOT
ATOM      1  C   UNL     1     106.751 106.772  96.424  1.00  0.00     0.045 C 
ATOM      2  C   UNL     1     106.961 108.113  97.084  1.00  0.00    -0.039 A 
ATOM      3  C   UNL     1     106.115 109.176  96.765  1.00  0.00     0.013 A 
ATOM      4  C   UNL     1     106.270 110.452  97.349  1.00  0.00    -0.006 A 
ATOM      5  C   UNL     1     107.219 110.613  98.402  1.00  0.00     0.039 A 
ATOM      6  C   UNL     1     107.224 111.831  99.145  1.00  0.00     0.072 A 
ATOM      7  C   UNL     1     106.300 112.849  98.830  1.00  0.00     0.169 A 
ATOM      8  C   UNL     1     105.447 112.717  97.729  1.00  0.00     0.162 A 
ATOM      9  C   UNL     1     105.478 111.560  96.922  1.00  0.00     0.008 A 
ATOM     10  C   UNL     1     108.140 109.552  98.663  1.00  0.00     0.132 A 
ATOM     11  C   UNL     1     108.006 108.312  98.002  1.00  0.00     0.031 A 
ENDROOT
BRANCH  11  12
ATOM     12  C   UNL     1     108.965 107.209  98.277  1.00  0.00     0.031 A 
ATOM     13  C   UNL     1     108.714 106.290  99.317  1.00  0.00     0.132 A 
ATOM     14  C   UNL     1     110.127 107.093  97.501  1.00  0.00    -0.039 A 
ATOM     15  C   UNL     1     109.644 105.240  99.595  1.00  0.00     0.039 A 
ATOM     16  C   UNL     1     110.998 106.025  97.723  1.00  0.00     0.013 A 
ATOM     17  C   UNL     1     110.445 108.096  96.419  1.00  0.00     0.045 C 
ATOM     18  C   UNL     1     110.759 105.056  98.719  1.00  0.00    -0.006 A 
ATOM     19  C   UNL     1     109.485 104.359 100.706  1.00  0.00     0.072 A 
ATOM     20  C   UNL     1     111.611 103.916  98.866  1.00  0.00     0.008 A 
ATOM     21  C   UNL     1     110.408 103.313 100.911  1.00  0.00     0.169 A 
ATOM     22  C   UNL     1     111.440 103.085  99.996  1.00  0.00     0.162 A 
BRANCH  13  23
ATOM     23  O   UNL     1     107.532 106.405 100.057  1.00  0.00    -0.507 OA
ATOM     24  H   UNL     1     107.356 105.912 100.924  1.00  0.00     0.293 HD
ENDBRANCH  13  23
BRANCH  19  25
ATOM     25  C   UNL     1     108.417 104.548 101.708  1.00  0.00     0.264 C 
ATOM     26  O   UNL     1     108.647 105.165 102.782  1.00  0.00    -0.298 OA
ENDBRANCH  19  25
BRANCH  20  27
ATOM     27  C   UNL     1     112.711 103.523  97.858  1.00  0.00     0.017 C 
ATOM     28  C   UNL     1     113.887 104.509  97.869  1.00  0.00     0.012 C 
ATOM     29  C   UNL     1     112.192 103.215  96.438  1.00  0.00     0.012 C 
ENDBRANCH  20  27
BRANCH  21  30
ATOM     30  O   UNL     1     110.340 102.486 102.039  1.00  0.00    -0.504 OA
ATOM     31  H   UNL     1     111.083 102.387 102.717  1.00  0.00     0.293 HD
ENDBRANCH  21  30
BRANCH  22  32
ATOM     32  O   UNL     1     112.325 102.025 100.219  1.00  0.00    -0.504 OA
ATOM     33  H   UNL     1     112.757 101.842 101.117  1.00  0.00     0.293 HD
ENDBRANCH  22  32
ENDBRANCH  11  12
BRANCH  10  34
ATOM     34  O   UNL     1     109.201 109.739  99.557  1.00  0.00    -0.507 OA
ATOM     35  H   UNL     1     109.356 110.591 100.080  1.00  0.00     0.293 HD
ENDBRANCH  10  34
BRANCH   9  36
ATOM     36  C   UNL     1     104.659 111.514  95.620  1.00  0.00     0.017 C 
ATOM     37  C   UNL     1     105.578 111.526  94.393  1.00  0.00     0.012 C 
ATOM     38  C   UNL     1     103.661 110.343  95.561  1.00  0.00     0.012 C 
ENDBRANCH   9  36
BRANCH   6  39
ATOM     39  C   UNL     1     108.110 112.031 100.311  1.00  0.00     0.264 C 
ATOM     40  O   UNL     1     109.087 112.822 100.245  1.00  0.00    -0.298 OA
ENDBRANCH   6  39
BRANCH   8  41
ATOM     41  O   UNL     1     104.536 113.738  97.446  1.00  0.00    -0.504 OA
ATOM     42  H   UNL     1     103.762 113.974  98.057  1.00  0.00     0.293 HD
ENDBRANCH   8  41
BRANCH   7  43
ATOM     43  O   UNL     1     106.190 114.006  99.610  1.00  0.00    -0.504 OA
ATOM     44  H   UNL     1     105.330 114.521  99.745  1.00  0.00     0.293 HD
ENDBRANCH   7  43
TORSDOF 11
ENDMDL
MODEL 3
REMARK VINA RESULT:    -6.575      0.676      9.069
REMARK INTER + INTRA:         -11.077
REMARK INTER:                  -9.601
REMARK INTRA:                  -1.476
REMARK UNBOUND:                -1.427
REMARK SMILES Cc1cc2c(C(C)C)c(O)c(O)c(C=O)c2c(O)c1-c1c(C)cc2c(C(C)C)c(O)c(O)c(C=O)c2c1O
REMARK SMILES IDX 1 1 2 2 3 3 4 4 16 5 13 6 11 7 9 8 5 9 17 10 19 11 20 12
REMARK SMILES IDX 37 13 21 14 36 15 23 16 22 17 24 18 33 19 25 20 31 21 29 22
REMARK SMILES IDX 38 23 34 25 35 26 26 27 27 28 28 29 32 30 30 32 18 34 6 36
REMARK SMILES IDX 7 37 8 38 14 39 15 40 10 41 12 43
REMARK H PARENT 38 24 32 31 30 33 18 35 10 42 12 44
REMARK Flexibility Score: inf
ROOT
ATOM      1  C   UNL     1     112.818 103.866  98.402  1.00  0.00     0.045 C 
ATOM      2  C   UNL     1     111.366 103.971  98.003  1.00  0.00    -0.039 A 
ATOM      3  C   UNL     1     110.786 102.951  97.247  1.00  0.00     0.013 A 
ATOM      4  C   UNL     1     109.434 103.001  96.843  1.00  0.00    -0.006 A 
ATOM      5  C   UNL     1     108.606 104.045  97.351  1.00  0.00     0.039 A 
ATOM      6  C   UNL     1     107.197 103.976  97.130  1.00  0.00     0.072 A 
ATOM      7  C   UNL     1     106.651 102.887  96.421  1.00  0.00     0.169 A 
ATOM      8  C   UNL     1     107.486 101.926  95.841  1.00  0.00     0.162 A 
ATOM      9  C   UNL     1     108.889 102.014  95.967  1.00  0.00     0.008 A 
ATOM     10  C   UNL     1     109.220 105.130  98.048  1.00  0.00     0.132 A 
ATOM     11  C   UNL     1     110.595 105.087  98.367  1.00  0.00     0.031 A 
ENDROOT
BRANCH  11  12
ATOM     12  C   UNL     1     111.231 106.217  99.094  1.00  0.00     0.031 A 
ATOM     13  C   UNL     1     111.760 107.314  98.382  1.00  0.00     0.132 A 
ATOM     14  C   UNL     1     111.310 106.183 100.494  1.00  0.00    -0.039 A 
ATOM     15  C   UNL     1     112.389 108.393  99.079  1.00  0.00     0.039 A 
ATOM     16  C   UNL     1     111.857 107.269 101.177  1.00  0.00     0.013 A 
ATOM     17  C   UNL     1     110.801 104.995 101.274  1.00  0.00     0.045 C 
ATOM     18  C   UNL     1     112.352 108.406 100.507  1.00  0.00    -0.006 A 
ATOM     19  C   UNL     1     113.035 109.465  98.393  1.00  0.00     0.072 A 
ATOM     20  C   UNL     1     112.818 109.550 101.230  1.00  0.00     0.008 A 
ATOM     21  C   UNL     1     113.604 110.527  99.127  1.00  0.00     0.169 A 
ATOM     22  C   UNL     1     113.479 110.576 100.518  1.00  0.00     0.162 A 
BRANCH  13  23
ATOM     23  O   UNL     1     111.640 107.343  96.988  1.00  0.00    -0.507 OA
ATOM     24  H   UNL     1     111.844 106.556  96.385  1.00  0.00     0.293 HD
ENDBRANCH  13  23
BRANCH  19  25
ATOM     25  C   UNL     1     113.200 109.469  96.925  1.00  0.00     0.264 C 
ATOM     26  O   UNL     1     112.547 110.274  96.209  1.00  0.00    -0.298 OA
ENDBRANCH  19  25
BRANCH  20  27
ATOM     27  C   UNL     1     112.639 109.745 102.750  1.00  0.00     0.017 C 
ATOM     28  C   UNL     1     113.525 108.794 103.565  1.00  0.00     0.012 C 
ATOM     29  C   UNL     1     111.169 109.758 103.220  1.00  0.00     0.012 C 
ENDBRANCH  20  27
BRANCH  21  30
ATOM     30  O   UNL     1     114.326 111.548  98.498  1.00  0.00    -0.504 OA
ATOM     31  H   UNL     1     115.135 111.395  97.912  1.00  0.00     0.293 HD
ENDBRANCH  21  30
BRANCH  22  32
ATOM     32  O   UNL     1     114.036 111.656 101.212  1.00  0.00    -0.504 OA
ATOM     33  H   UNL     1     114.898 112.109 100.934  1.00  0.00     0.293 HD
ENDBRANCH  22  32
ENDBRANCH  11  12
BRANCH  10  34
ATOM     34  O   UNL     1     108.473 106.261  98.399  1.00  0.00    -0.507 OA
ATOM     35  H   UNL     1     108.026 106.873  97.728  1.00  0.00     0.293 HD
ENDBRANCH  10  34
BRANCH   9  36
ATOM     36  C   UNL     1     109.790 101.049  95.176  1.00  0.00     0.017 C 
ATOM     37  C   UNL     1     109.499  99.592  95.552  1.00  0.00     0.012 C 
ATOM     38  C   UNL     1     109.728 101.258  93.652  1.00  0.00     0.012 C 
ENDBRANCH   9  36
BRANCH   6  39
ATOM     39  C   UNL     1     106.267 104.968  97.709  1.00  0.00     0.264 C 
ATOM     40  O   UNL     1     105.673 105.797  96.971  1.00  0.00    -0.298 OA
ENDBRANCH   6  39
BRANCH   8  41
ATOM     41  O   UNL     1     106.917 100.853  95.151  1.00  0.00    -0.504 OA
ATOM     42  H   UNL     1     107.467 100.129  94.702  1.00  0.00     0.293 HD
ENDBRANCH   8  41
BRANCH   7  43
ATOM     43  O   UNL     1     105.267 102.717  96.288  1.00  0.00    -0.504 OA
ATOM     44  H   UNL     1     104.803 102.489  95.420  1.00  0.00     0.293 HD
ENDBRANCH   7  43
TORSDOF 11
ENDMDL
MODEL 4
REMARK VINA RESULT:    -6.539      4.481      7.904
REMARK INTER + INTRA:         -11.025
REMARK INTER:                  -9.588
REMARK INTRA:                  -1.437
REMARK UNBOUND:                -1.427
REMARK SMILES Cc1cc2c(C(C)C)c(O)c(O)c(C=O)c2c(O)c1-c1c(C)cc2c(C(C)C)c(O)c(O)c(C=O)c2c1O
REMARK SMILES IDX 1 1 2 2 3 3 4 4 16 5 13 6 11 7 9 8 5 9 17 10 19 11 20 12
REMARK SMILES IDX 37 13 21 14 36 15 23 16 22 17 24 18 33 19 25 20 31 21 29 22
REMARK SMILES IDX 38 23 34 25 35 26 26 27 27 28 28 29 32 30 30 32 18 34 6 36
REMARK SMILES IDX 7 37 8 38 14 39 15 40 10 41 12 43
REMARK H PARENT 38 24 32 31 30 33 18 35 10 42 12 44
REMARK Flexibility Score: inf
ROOT
ATOM      1  C   UNL     1     110.735 108.182  96.538  1.00  0.00     0.045 C 
ATOM      2  C   UNL     1     110.359 107.127  97.550  1.00  0.00    -0.039 A 
ATOM      3  C   UNL     1     111.216 106.047  97.767  1.00  0.00     0.013 A 
ATOM      4  C   UNL     1     110.910 105.030  98.698  1.00  0.00    -0.006 A 
ATOM      5  C   UNL     1     109.773 105.194  99.543  1.00  0.00     0.039 A 
ATOM      6  C   UNL     1     109.586 104.289 100.631  1.00  0.00     0.072 A 
ATOM      7  C   UNL     1     110.520 103.256 100.851  1.00  0.00     0.169 A 
ATOM      8  C   UNL     1     111.572 103.045  99.953  1.00  0.00     0.162 A 
ATOM      9  C   UNL     1     111.734 103.870  98.820  1.00  0.00     0.008 A 
ATOM     10  C   UNL     1     108.854 106.250  99.259  1.00  0.00     0.132 A 
ATOM     11  C   UNL     1     109.151 107.208  98.264  1.00  0.00     0.031 A 
ENDROOT
BRANCH  11  12
ATOM     12  C   UNL     1     108.194 108.306  97.972  1.00  0.00     0.031 A 
ATOM     13  C   UNL     1     108.244 109.509  98.707  1.00  0.00     0.132 A 
ATOM     14  C   UNL     1     107.233 108.138  96.965  1.00  0.00    -0.039 A 
ATOM     15  C   UNL     1     107.313 110.561  98.439  1.00  0.00     0.039 A 
ATOM     16  C   UNL     1     106.371 109.190  96.654  1.00  0.00     0.013 A 
ATOM     17  C   UNL     1     107.124 106.840  96.202  1.00  0.00     0.045 C 
ATOM     18  C   UNL     1     106.421 110.426  97.330  1.00  0.00    -0.006 A 
ATOM     19  C   UNL     1     107.256 111.746  99.232  1.00  0.00     0.072 A 
ATOM     20  C   UNL     1     105.597 111.526  96.930  1.00  0.00     0.008 A 
ATOM     21  C   UNL     1     106.346 112.771  98.900  1.00  0.00     0.169 A 
ATOM     22  C   UNL     1     105.546 112.669  97.758  1.00  0.00     0.162 A 
BRANCH  13  23
ATOM     23  O   UNL     1     109.233 109.670  99.684  1.00  0.00    -0.507 OA
ATOM     24  H   UNL     1     109.308 109.094 100.514  1.00  0.00     0.293 HD
ENDBRANCH  13  23
BRANCH  19  25
ATOM     25  C   UNL     1     108.074 111.912 100.451  1.00  0.00     0.264 C 
ATOM     26  O   UNL     1     109.029 112.733 100.475  1.00  0.00    -0.298 OA
ENDBRANCH  19  25
BRANCH  20  27
ATOM     27  C   UNL     1     104.756 111.550  95.637  1.00  0.00     0.017 C 
ATOM     28  C   UNL     1     103.702 110.435  95.609  1.00  0.00     0.012 C 
ATOM     29  C   UNL     1     105.587 111.633  94.339  1.00  0.00     0.012 C 
ENDBRANCH  20  27
BRANCH  21  30
ATOM     30  O   UNL     1     106.196 113.907  99.705  1.00  0.00    -0.504 OA
ATOM     31  H   UNL     1     105.314 114.367  99.879  1.00  0.00     0.293 HD
ENDBRANCH  21  30
BRANCH  22  32
ATOM     32  O   UNL     1     104.671 113.715  97.446  1.00  0.00    -0.504 OA
ATOM     33  H   UNL     1     103.879 113.967  98.026  1.00  0.00     0.293 HD
ENDBRANCH  22  32
ENDBRANCH  11  12
BRANCH  10  34
ATOM     34  O   UNL     1     107.636 106.334  99.944  1.00  0.00    -0.507 OA
ATOM     35  H   UNL     1     107.530 106.149 100.933  1.00  0.00     0.293 HD
ENDBRANCH  10  34
BRANCH   9  36
ATOM     36  C   UNL     1     112.788 103.513  97.757  1.00  0.00     0.017 C 
ATOM     37  C   UNL     1     112.122 103.147  96.426  1.00  0.00     0.012 C 
ATOM     38  C   UNL     1     113.864 104.597  97.567  1.00  0.00     0.012 C 
ENDBRANCH   9  36
BRANCH   6  39
ATOM     39  C   UNL     1     108.487 104.456 101.605  1.00  0.00     0.264 C 
ATOM     40  O   UNL     1     108.678 105.073 102.686  1.00  0.00    -0.298 OA
ENDBRANCH   6  39
BRANCH   8  41
ATOM     41  O   UNL     1     112.487 102.020 100.202  1.00  0.00    -0.504 OA
ATOM     42  H   UNL     1     113.428 102.187 100.540  1.00  0.00     0.293 HD
ENDBRANCH   8  41
BRANCH   7  43
ATOM     43  O   UNL     1     110.442 102.424 101.975  1.00  0.00    -0.504 OA
ATOM     44  H   UNL     1     111.240 102.126 102.518  1.00  0.00     0.293 HD
ENDBRANCH   7  43
TORSDOF 11
ENDMDL
MODEL 5
REMARK VINA RESULT:    -6.470      4.304      7.351
REMARK INTER + INTRA:         -10.923
REMARK INTER:                  -9.517
REMARK INTRA:                  -1.406
REMARK UNBOUND:                -1.427
REMARK SMILES Cc1cc2c(C(C)C)c(O)c(O)c(C=O)c2c(O)c1-c1c(C)cc2c(C(C)C)c(O)c(O)c(C=O)c2c1O
REMARK SMILES IDX 1 1 2 2 3 3 4 4 16 5 13 6 11 7 9 8 5 9 17 10 19 11 20 12
REMARK SMILES IDX 37 13 21 14 36 15 23 16 22 17 24 18 33 19 25 20 31 21 29 22
REMARK SMILES IDX 38 23 34 25 35 26 26 27 27 28 28 29 32 30 30 32 18 34 6 36
REMARK SMILES IDX 7 37 8 38 14 39 15 40 10 41 12 43
REMARK H PARENT 38 24 32 31 30 33 18 35 10 42 12 44
REMARK Flexibility Score: inf
ROOT
ATOM      1  C   UNL     1     112.100 107.763  95.912  1.00  0.00     0.045 C 
ATOM      2  C   UNL     1     112.055 108.230  97.347  1.00  0.00    -0.039 A 
ATOM      3  C   UNL     1     112.560 107.407  98.354  1.00  0.00     0.013 A 
ATOM      4  C   UNL     1     112.538 107.793  99.712  1.00  0.00    -0.006 A 
ATOM      5  C   UNL     1     112.130 109.120 100.040  1.00  0.00     0.039 A 
ATOM      6  C   UNL     1     112.318 109.588 101.375  1.00  0.00     0.072 A 
ATOM      7  C   UNL     1     112.898 108.740 102.341  1.00  0.00     0.169 A 
ATOM      8  C   UNL     1     113.198 107.409 102.029  1.00  0.00     0.162 A 
ATOM      9  C   UNL     1     112.943 106.891 100.742  1.00  0.00     0.008 A 
ATOM     10  C   UNL     1     111.533 109.925  99.023  1.00  0.00     0.132 A 
ATOM     11  C   UNL     1     111.498 109.476  97.685  1.00  0.00     0.031 A 
ENDROOT
BRANCH  11  12
ATOM     12  C   UNL     1     110.878 110.317  96.628  1.00  0.00     0.031 A 
ATOM     13  C   UNL     1     109.508 110.178  96.320  1.00  0.00     0.132 A 
ATOM     14  C   UNL     1     111.665 111.244  95.930  1.00  0.00    -0.039 A 
ATOM     15  C   UNL     1     108.914 110.974  95.291  1.00  0.00     0.039 A 
ATOM     16  C   UNL     1     111.070 112.071  94.977  1.00  0.00     0.013 A 
ATOM     17  C   UNL     1     113.144 111.371  96.203  1.00  0.00     0.045 C 
ATOM     18  C   UNL     1     109.695 112.001  94.675  1.00  0.00    -0.006 A 
ATOM     19  C   UNL     1     107.562 110.788  94.872  1.00  0.00     0.072 A 
ATOM     20  C   UNL     1     109.085 112.924  93.767  1.00  0.00     0.008 A 
ATOM     21  C   UNL     1     107.012 111.627  93.881  1.00  0.00     0.169 A 
ATOM     22  C   UNL     1     107.755 112.687  93.354  1.00  0.00     0.162 A 
BRANCH  13  23
ATOM     23  O   UNL     1     108.734 109.271  97.051  1.00  0.00    -0.507 OA
ATOM     24  H   UNL     1     109.069 108.766  97.862  1.00  0.00     0.293 HD
ENDBRANCH  13  23
BRANCH  19  25
ATOM     25  C   UNL     1     106.727 109.685  95.390  1.00  0.00     0.264 C 
ATOM     26  O   UNL     1     105.817 109.911  96.231  1.00  0.00    -0.298 OA
ENDBRANCH  19  25
BRANCH  20  27
ATOM     27  C   UNL     1     109.788 114.179  93.208  1.00  0.00     0.017 C 
ATOM     28  C   UNL     1     110.803 113.835  92.110  1.00  0.00     0.012 C 
ATOM     29  C   UNL     1     110.358 115.122  94.288  1.00  0.00     0.012 C 
ENDBRANCH  20  27
BRANCH  21  30
ATOM     30  O   UNL     1     105.722 111.418  93.378  1.00  0.00    -0.504 OA
ATOM     31  H   UNL     1     105.118 112.155  93.039  1.00  0.00     0.293 HD
ENDBRANCH  21  30
BRANCH  22  32
ATOM     32  O   UNL     1     107.169 113.514  92.389  1.00  0.00    -0.504 OA
ATOM     33  H   UNL     1     107.689 114.207  91.864  1.00  0.00     0.293 HD
ENDBRANCH  22  32
ENDBRANCH  11  12
BRANCH  10  34
ATOM     34  O   UNL     1     110.952 111.158  99.344  1.00  0.00    -0.507 OA
ATOM     35  H   UNL     1     110.003 111.414  99.106  1.00  0.00     0.293 HD
ENDBRANCH  10  34
BRANCH   9  36
ATOM     36  C   UNL     1     113.115 105.385 100.475  1.00  0.00     0.017 C 
ATOM     37  C   UNL     1     111.765 104.723 100.179  1.00  0.00     0.012 C 
ATOM     38  C   UNL     1     114.148 105.067  99.379  1.00  0.00     0.012 C 
ENDBRANCH   9  36
BRANCH   6  39
ATOM     39  C   UNL     1     112.010 110.980 101.765  1.00  0.00     0.264 C 
ATOM     40  O   UNL     1     112.921 111.849 101.809  1.00  0.00    -0.298 OA
ENDBRANCH   6  39
BRANCH   8  41
ATOM     41  O   UNL     1     113.780 106.594 103.003  1.00  0.00    -0.504 OA
ATOM     42  H   UNL     1     114.503 106.918 103.635  1.00  0.00     0.293 HD
ENDBRANCH   8  41
BRANCH   7  43
ATOM     43  O   UNL     1     113.212 109.198 103.626  1.00  0.00    -0.504 OA
ATOM     44  H   UNL     1     114.069 108.978 104.114  1.00  0.00     0.293 HD
ENDBRANCH   7  43
TORSDOF 11
ENDMDL
MODEL 6
REMARK VINA RESULT:    -6.415      3.830      7.836
REMARK INTER + INTRA:         -10.842
REMARK INTER:                  -9.509
REMARK INTRA:                  -1.333
REMARK UNBOUND:                -1.427
REMARK SMILES Cc1cc2c(C(C)C)c(O)c(O)c(C=O)c2c(O)c1-c1c(C)cc2c(C(C)C)c(O)c(O)c(C=O)c2c1O
REMARK SMILES IDX 1 1 2 2 3 3 4 4 16 5 13 6 11 7 9 8 5 9 17 10 19 11 20 12
REMARK SMILES IDX 37 13 21 14 36 15 23 16 22 17 24 18 33 19 25 20 31 21 29 22
REMARK SMILES IDX 38 23 34 25 35 26 26 27 27 28 28 29 32 30 30 32 18 34 6 36
REMARK SMILES IDX 7 37 8 38 14 39 15 40 10 41 12 43
REMARK H PARENT 38 24 32 31 30 33 18 35 10 42 12 44
REMARK Flexibility Score: inf
ROOT
ATOM      1  C   UNL     1     110.222 107.077 102.089  1.00  0.00     0.045 C 
ATOM      2  C   UNL     1     109.148 106.074 101.746  1.00  0.00    -0.039 A 
ATOM      3  C   UNL     1     108.699 105.186 102.724  1.00  0.00     0.013 A 
ATOM      4  C   UNL     1     107.699 104.226 102.455  1.00  0.00    -0.006 A 
ATOM      5  C   UNL     1     107.030 104.268 101.197  1.00  0.00     0.039 A 
ATOM      6  C   UNL     1     105.874 103.452 101.003  1.00  0.00     0.072 A 
ATOM      7  C   UNL     1     105.418 102.624 102.049  1.00  0.00     0.169 A 
ATOM      8  C   UNL     1     106.145 102.516 103.239  1.00  0.00     0.162 A 
ATOM      9  C   UNL     1     107.338 103.244 103.428  1.00  0.00     0.008 A 
ATOM     10  C   UNL     1     107.550 105.115 100.171  1.00  0.00     0.132 A 
ATOM     11  C   UNL     1     108.606 106.010 100.451  1.00  0.00     0.031 A 
ENDROOT
BRANCH  11  12
ATOM     12  C   UNL     1     109.144 106.892  99.383  1.00  0.00     0.031 A 
ATOM     13  C   UNL     1     110.237 106.471  98.595  1.00  0.00     0.132 A 
ATOM     14  C   UNL     1     108.565 108.150  99.166  1.00  0.00    -0.039 A 
ATOM     15  C   UNL     1     110.768 107.325  97.579  1.00  0.00     0.039 A 
ATOM     16  C   UNL     1     109.036 108.953  98.126  1.00  0.00     0.013 A 
ATOM     17  C   UNL     1     107.432 108.645 100.031  1.00  0.00     0.045 C 
ATOM     18  C   UNL     1     110.092 108.550  97.284  1.00  0.00    -0.006 A 
ATOM     19  C   UNL     1     111.939 106.986  96.837  1.00  0.00     0.072 A 
ATOM     20  C   UNL     1     110.494 109.344  96.163  1.00  0.00     0.008 A 
ATOM     21  C   UNL     1     112.397 107.844  95.817  1.00  0.00     0.169 A 
ATOM     22  C   UNL     1     111.676 108.991  95.474  1.00  0.00     0.162 A 
BRANCH  13  23
ATOM     23  O   UNL     1     110.777 105.197  98.806  1.00  0.00    -0.507 OA
ATOM     24  H   UNL     1     111.613 104.854  98.349  1.00  0.00     0.293 HD
ENDBRANCH  13  23
BRANCH  19  25
ATOM     25  C   UNL     1     112.745 105.789  97.152  1.00  0.00     0.264 C 
ATOM     26  O   UNL     1     112.746 104.795  96.379  1.00  0.00    -0.298 OA
ENDBRANCH  19  25
BRANCH  20  27
ATOM     27  C   UNL     1     109.710 110.568  95.646  1.00  0.00     0.017 C 
ATOM     28  C   UNL     1     109.825 111.772  96.589  1.00  0.00     0.012 C 
ATOM     29  C   UNL     1     108.257 110.262  95.227  1.00  0.00     0.012 C 
ENDBRANCH  20  27
BRANCH  21  30
ATOM     30  O   UNL     1     113.592 107.594  95.130  1.00  0.00    -0.504 OA
ATOM     31  H   UNL     1     113.672 107.560  94.123  1.00  0.00     0.293 HD
ENDBRANCH  21  30
BRANCH  22  32
ATOM     32  O   UNL     1     112.147 109.808  94.441  1.00  0.00    -0.504 OA
ATOM     33  H   UNL     1     112.983 110.375  94.520  1.00  0.00     0.293 HD
ENDBRANCH  22  32
ENDBRANCH  11  12
BRANCH  10  34
ATOM     34  O   UNL     1     107.038 105.050  98.870  1.00  0.00    -0.507 OA
ATOM     35  H   UNL     1     106.073 104.835  98.652  1.00  0.00     0.293 HD
ENDBRANCH  10  34
BRANCH   9  36
ATOM     36  C   UNL     1     108.211 102.976 104.667  1.00  0.00     0.017 C 
ATOM     37  C   UNL     1     109.441 102.139 104.301  1.00  0.00     0.012 C 
ATOM     38  C   UNL     1     108.608 104.254 105.429  1.00  0.00     0.012 C 
ENDBRANCH   9  36
BRANCH   6  39
ATOM     39  C   UNL     1     105.073 103.517  99.763  1.00  0.00     0.264 C 
ATOM     40  O   UNL     1     104.041 104.237  99.704  1.00  0.00    -0.298 OA
ENDBRANCH   6  39
BRANCH   8  41
ATOM     41  O   UNL     1     105.664 101.694 104.261  1.00  0.00    -0.504 OA
ATOM     42  H   UNL     1     104.982 100.961 104.107  1.00  0.00     0.293 HD
ENDBRANCH   8  41
BRANCH   7  43
ATOM     43  O   UNL     1     104.222 101.903 101.944  1.00  0.00    -0.504 OA
ATOM     44  H   UNL     1     103.671 101.597 102.735  1.00  0.00     0.293 HD
ENDBRANCH   7  43
TORSDOF 11
ENDMDL
MODEL 7
REMARK VINA RESULT:    -6.361      3.705      5.849
REMARK INTER + INTRA:         -10.763
REMARK INTER:                  -9.384
REMARK INTRA:                  -1.378
REMARK UNBOUND:                -1.427
REMARK SMILES Cc1cc2c(C(C)C)c(O)c(O)c(C=O)c2c(O)c1-c1c(C)cc2c(C(C)C)c(O)c(O)c(C=O)c2c1O
REMARK SMILES IDX 1 1 2 2 3 3 4 4 16 5 13 6 11 7 9 8 5 9 17 10 19 11 20 12
REMARK SMILES IDX 37 13 21 14 36 15 23 16 22 17 24 18 33 19 25 20 31 21 29 22
REMARK SMILES IDX 38 23 34 25 35 26 26 27 27 28 28 29 32 30 30 32 18 34 6 36
REMARK SMILES IDX 7 37 8 38 14 39 15 40 10 41 12 43
REMARK H PARENT 38 24 32 31 30 33 18 35 10 42 12 44
REMARK Flexibility Score: inf
ROOT
ATOM      1  C   UNL     1     107.953 108.914 100.160  1.00  0.00     0.045 C 
ATOM      2  C   UNL     1     108.946 108.352  99.173  1.00  0.00    -0.039 A 
ATOM      3  C   UNL     1     109.410 109.157  98.131  1.00  0.00     0.013 A 
ATOM      4  C   UNL     1     110.336 108.680  97.178  1.00  0.00    -0.006 A 
ATOM      5  C   UNL     1     110.923 107.395  97.376  1.00  0.00     0.039 A 
ATOM      6  C   UNL     1     112.017 107.002  96.547  1.00  0.00     0.072 A 
ATOM      7  C   UNL     1     112.496 107.882  95.554  1.00  0.00     0.169 A 
ATOM      8  C   UNL     1     111.843 109.095  95.304  1.00  0.00     0.162 A 
ATOM      9  C   UNL     1     110.706 109.473  96.049  1.00  0.00     0.008 A 
ATOM     10  C   UNL     1     110.383 106.543  98.386  1.00  0.00     0.132 A 
ATOM     11  C   UNL     1     109.398 107.025  99.276  1.00  0.00     0.031 A 
ENDROOT
BRANCH  11  12
ATOM     12  C   UNL     1     108.839 106.137 100.328  1.00  0.00     0.031 A 
ATOM     13  C   UNL     1     107.669 105.388 100.080  1.00  0.00     0.132 A 
ATOM     14  C   UNL     1     109.477 106.053 101.575  1.00  0.00    -0.039 A 
ATOM     15  C   UNL     1     107.120 104.546 101.098  1.00  0.00     0.039 A 
ATOM     16  C   UNL     1     108.983 105.177 102.542  1.00  0.00     0.013 A 
ATOM     17  C   UNL     1     110.697 106.886 101.882  1.00  0.00     0.045 C 
ATOM     18  C   UNL     1     107.847 104.373 102.317  1.00  0.00    -0.006 A 
ATOM     19  C   UNL     1     105.880 103.860 100.928  1.00  0.00     0.072 A 
ATOM     20  C   UNL     1     107.414 103.410 103.283  1.00  0.00     0.008 A 
ATOM     21  C   UNL     1     105.403 103.009 101.946  1.00  0.00     0.169 A 
ATOM     22  C   UNL     1     106.167 102.774 103.093  1.00  0.00     0.162 A 
BRANCH  13  23
ATOM     23  O   UNL     1     107.069 105.460  98.818  1.00  0.00    -0.507 OA
ATOM     24  H   UNL     1     106.538 106.257  98.489  1.00  0.00     0.293 HD
ENDBRANCH  13  23
BRANCH  19  25
ATOM     25  C   UNL     1     105.027 104.067  99.740  1.00  0.00     0.264 C 
ATOM     26  O   UNL     1     104.925 103.172  98.860  1.00  0.00    -0.298 OA
ENDBRANCH  19  25
BRANCH  20  27
ATOM     27  C   UNL     1     108.232 103.008 104.528  1.00  0.00     0.017 C 
ATOM     28  C   UNL     1     108.555 104.211 105.424  1.00  0.00     0.012 C 
ATOM     29  C   UNL     1     109.464 102.130 104.224  1.00  0.00     0.012 C 
ENDBRANCH  20  27
BRANCH  21  30
ATOM     30  O   UNL     1     104.150 102.391 101.857  1.00  0.00    -0.504 OA
ATOM     31  H   UNL     1     104.012 101.392 101.797  1.00  0.00     0.293 HD
ENDBRANCH  21  30
BRANCH  22  32
ATOM     32  O   UNL     1     105.673 101.906 104.073  1.00  0.00    -0.504 OA
ATOM     33  H   UNL     1     105.862 102.022 105.062  1.00  0.00     0.293 HD
ENDBRANCH  22  32
ENDBRANCH  11  12
BRANCH  10  34
ATOM     34  O   UNL     1     110.804 105.212  98.491  1.00  0.00    -0.507 OA
ATOM     35  H   UNL     1     111.256 104.702  97.742  1.00  0.00     0.293 HD
ENDBRANCH  10  34
BRANCH   9  36
ATOM     36  C   UNL     1     109.904 110.721  95.640  1.00  0.00     0.017 C 
ATOM     37  C   UNL     1     108.440 110.365  95.361  1.00  0.00     0.012 C 
ATOM     38  C   UNL     1     110.017 111.883  96.644  1.00  0.00     0.012 C 
ENDBRANCH   9  36
BRANCH   6  39
ATOM     39  C   UNL     1     112.738 105.730  96.758  1.00  0.00     0.264 C 
ATOM     40  O   UNL     1     113.792 105.697  97.445  1.00  0.00    -0.298 OA
ENDBRANCH   6  39
BRANCH   8  41
ATOM     41  O   UNL     1     112.346 109.950  94.321  1.00  0.00    -0.504 OA
ATOM     42  H   UNL     1     113.002 110.696  94.519  1.00  0.00     0.293 HD
ENDBRANCH   8  41
BRANCH   7  43
ATOM     43  O   UNL     1     113.641 107.588  94.804  1.00  0.00    -0.504 OA
ATOM     44  H   UNL     1     113.994 106.653  94.649  1.00  0.00     0.293 HD
ENDBRANCH   7  43
TORSDOF 11
ENDMDL
MODEL 8
REMARK VINA RESULT:    -6.331      4.258      8.774
REMARK INTER + INTRA:         -10.719
REMARK INTER:                  -9.582
REMARK INTRA:                  -1.137
REMARK UNBOUND:                -1.427
REMARK SMILES Cc1cc2c(C(C)C)c(O)c(O)c(C=O)c2c(O)c1-c1c(C)cc2c(C(C)C)c(O)c(O)c(C=O)c2c1O
REMARK SMILES IDX 1 1 2 2 3 3 4 4 16 5 13 6 11 7 9 8 5 9 17 10 19 11 20 12
REMARK SMILES IDX 37 13 21 14 36 15 23 16 22 17 24 18 33 19 25 20 31 21 29 22
REMARK SMILES IDX 38 23 34 25 35 26 26 27 27 28 28 29 32 30 30 32 18 34 6 36
REMARK SMILES IDX 7 37 8 38 14 39 15 40 10 41 12 43
REMARK H PARENT 38 24 32 31 30 33 18 35 10 42 12 44
REMARK Flexibility Score: inf
ROOT
ATOM      1  C   UNL     1     110.173 109.885  98.047  1.00  0.00     0.045 C 
ATOM      2  C   UNL     1     110.940 108.647  98.442  1.00  0.00    -0.039 A 
ATOM      3  C   UNL     1     110.310 107.664  99.207  1.00  0.00     0.013 A 
ATOM      4  C   UNL     1     110.981 106.488  99.608  1.00  0.00    -0.006 A 
ATOM      5  C   UNL     1     112.285 106.233  99.088  1.00  0.00     0.039 A 
ATOM      6  C   UNL     1     112.876 104.952  99.307  1.00  0.00     0.072 A 
ATOM      7  C   UNL     1     112.168 103.967 100.026  1.00  0.00     0.169 A 
ATOM      8  C   UNL     1     110.935 104.267 100.617  1.00  0.00     0.162 A 
ATOM      9  C   UNL     1     110.365 105.551 100.492  1.00  0.00     0.008 A 
ATOM     10  C   UNL     1     112.958 107.277  98.382  1.00  0.00     0.132 A 
ATOM     11  C   UNL     1     112.283 108.476  98.066  1.00  0.00     0.031 A 
ENDROOT
BRANCH  11  12
ATOM     12  C   UNL     1     112.985 109.559  97.329  1.00  0.00     0.031 A 
ATOM     13  C   UNL     1     113.152 109.477  95.930  1.00  0.00     0.132 A 
ATOM     14  C   UNL     1     113.489 110.662  98.034  1.00  0.00    -0.039 A 
ATOM     15  C   UNL     1     113.843 110.510  95.223  1.00  0.00     0.039 A 
ATOM     16  C   UNL     1     114.098 111.704  97.335  1.00  0.00     0.013 A 
ATOM     17  C   UNL     1     113.371 110.745  99.536  1.00  0.00     0.045 C 
ATOM     18  C   UNL     1     114.241 111.685  95.932  1.00  0.00    -0.006 A 
ATOM     19  C   UNL     1     114.132 110.412  93.828  1.00  0.00     0.072 A 
ATOM     20  C   UNL     1     114.779 112.807  95.225  1.00  0.00     0.008 A 
ATOM     21  C   UNL     1     114.779 111.477  93.169  1.00  0.00     0.169 A 
ATOM     22  C   UNL     1     115.079 112.659  93.852  1.00  0.00     0.162 A 
BRANCH  13  23
ATOM     23  O   UNL     1     112.611 108.385  95.243  1.00  0.00    -0.507 OA
ATOM     24  H   UNL     1     111.776 107.890  95.533  1.00  0.00     0.293 HD
ENDBRANCH  13  23
BRANCH  19  25
ATOM     25  C   UNL     1     113.841 109.189  93.053  1.00  0.00     0.264 C 
ATOM     26  O   UNL     1     113.477 109.265  91.849  1.00  0.00    -0.298 OA
ENDBRANCH  19  25
BRANCH  20  27
ATOM     27  C   UNL     1     115.051 114.183  95.866  1.00  0.00     0.017 C 
ATOM     28  C   UNL     1     116.125 114.113  96.959  1.00  0.00     0.012 C 
ATOM     29  C   UNL     1     113.781 114.939  96.310  1.00  0.00     0.012 C 
ENDBRANCH  20  27
BRANCH  21  30
ATOM     30  O   UNL     1     115.162 111.383  91.825  1.00  0.00    -0.504 OA
ATOM     31  H   UNL     1     115.346 112.179  91.230  1.00  0.00     0.293 HD
ENDBRANCH  21  30
BRANCH  22  32
ATOM     32  O   UNL     1     115.701 113.705  93.161  1.00  0.00    -0.504 OA
ATOM     33  H   UNL     1     115.257 114.211  92.403  1.00  0.00     0.293 HD
ENDBRANCH  22  32
ENDBRANCH  11  12
BRANCH  10  34
ATOM     34  O   UNL     1     114.303 107.134  98.019  1.00  0.00    -0.507 OA
ATOM     35  H   UNL     1     114.957 106.532  98.500  1.00  0.00     0.293 HD
ENDBRANCH  10  34
BRANCH   9  36
ATOM     36  C   UNL     1     109.101 105.909 101.294  1.00  0.00     0.017 C 
ATOM     37  C   UNL     1     107.905 105.067 100.837  1.00  0.00     0.012 C 
ATOM     38  C   UNL     1     109.295 105.825 102.819  1.00  0.00     0.012 C 
ENDBRANCH   9  36
BRANCH   6  39
ATOM     39  C   UNL     1     114.179 104.583  98.716  1.00  0.00     0.264 C 
ATOM     40  O   UNL     1     114.241 104.090  97.559  1.00  0.00    -0.298 OA
ENDBRANCH   6  39
BRANCH   8  41
ATOM     41  O   UNL     1     110.253 103.269 101.316  1.00  0.00    -0.504 OA
ATOM     42  H   UNL     1     110.598 102.861 102.177  1.00  0.00     0.293 HD
ENDBRANCH   8  41
BRANCH   7  43
ATOM     43  O   UNL     1     112.657 102.662 100.157  1.00  0.00    -0.504 OA
ATOM     44  H   UNL     1     113.606 102.387  99.946  1.00  0.00     0.293 HD
ENDBRANCH   7  43
TORSDOF 11
ENDMDL
MODEL 9
REMARK VINA RESULT:    -6.289      3.585     10.323
REMARK INTER + INTRA:         -10.657
REMARK INTER:                  -9.176
REMARK INTRA:                  -1.481
REMARK UNBOUND:                -1.427
REMARK SMILES Cc1cc2c(C(C)C)c(O)c(O)c(C=O)c2c(O)c1-c1c(C)cc2c(C(C)C)c(O)c(O)c(C=O)c2c1O
REMARK SMILES IDX 1 1 2 2 3 3 4 4 16 5 13 6 11 7 9 8 5 9 17 10 19 11 20 12
REMARK SMILES IDX 37 13 21 14 36 15 23 16 22 17 24 18 33 19 25 20 31 21 29 22
REMARK SMILES IDX 38 23 34 25 35 26 26 27 27 28 28 29 32 30 30 32 18 34 6 36
REMARK SMILES IDX 7 37 8 38 14 39 15 40 10 41 12 43
REMARK H PARENT 38 24 32 31 30 33 18 35 10 42 12 44
REMARK Flexibility Score: inf
ROOT
ATOM      1  C   UNL     1     106.787 102.703  95.914  1.00  0.00     0.045 C 
ATOM      2  C   UNL     1     107.096 101.231  96.038  1.00  0.00    -0.039 A 
ATOM      3  C   UNL     1     106.292 100.302  95.376  1.00  0.00     0.013 A 
ATOM      4  C   UNL     1     106.535  98.913  95.462  1.00  0.00    -0.006 A 
ATOM      5  C   UNL     1     107.720  98.464  96.117  1.00  0.00     0.039 A 
ATOM      6  C   UNL     1     108.085  97.088  96.014  1.00  0.00     0.072 A 
ATOM      7  C   UNL     1     107.276  96.202  95.273  1.00  0.00     0.169 A 
ATOM      8  C   UNL     1     106.064  96.636  94.724  1.00  0.00     0.162 A 
ATOM      9  C   UNL     1     105.633  97.970  94.883  1.00  0.00     0.008 A 
ATOM     10  C   UNL     1     108.489  99.407  96.866  1.00  0.00     0.132 A 
ATOM     11  C   UNL     1     108.172 100.782  96.823  1.00  0.00     0.031 A 
ENDROOT
BRANCH  11  12
ATOM     12  C   UNL     1     108.975 101.761  97.601  1.00  0.00     0.031 A 
ATOM     13  C   UNL     1     108.583 102.127  98.906  1.00  0.00     0.132 A 
ATOM     14  C   UNL     1     110.122 102.327  97.027  1.00  0.00    -0.039 A 
ATOM     15  C   UNL     1     109.344 103.081  99.650  1.00  0.00     0.039 A 
ATOM     16  C   UNL     1     110.906 103.203  97.779  1.00  0.00     0.013 A 
ATOM     17  C   UNL     1     110.531 101.994  95.613  1.00  0.00     0.045 C 
ATOM     18  C   UNL     1     110.577 103.556  99.104  1.00  0.00    -0.006 A 
ATOM     19  C   UNL     1     108.922 103.562 100.925  1.00  0.00     0.072 A 
ATOM     20  C   UNL     1     111.446 104.377  99.892  1.00  0.00     0.008 A 
ATOM     21  C   UNL     1     109.731 104.473 101.636  1.00  0.00     0.169 A 
ATOM     22  C   UNL     1     110.978 104.856 101.136  1.00  0.00     0.162 A 
BRANCH  13  23
ATOM     23  O   UNL     1     107.454 101.524  99.472  1.00  0.00    -0.507 OA
ATOM     24  H   UNL     1     106.667 101.180  98.936  1.00  0.00     0.293 HD
ENDBRANCH  13  23
BRANCH  19  25
ATOM     25  C   UNL     1     107.615 103.194 101.506  1.00  0.00     0.264 C 
ATOM     26  O   UNL     1     107.550 102.440 102.513  1.00  0.00    -0.298 OA
ENDBRANCH  19  25
BRANCH  20  27
ATOM     27  C   UNL     1     112.877 104.773  99.473  1.00  0.00     0.017 C 
ATOM     28  C   UNL     1     112.891 105.654  98.217  1.00  0.00     0.012 C 
ATOM     29  C   UNL     1     113.866 103.591  99.396  1.00  0.00     0.012 C 
ENDBRANCH  20  27
BRANCH  21  30
ATOM     30  O   UNL     1     109.309 105.037 102.846  1.00  0.00    -0.504 OA
ATOM     31  H   UNL     1     109.050 104.502 103.663  1.00  0.00     0.293 HD
ENDBRANCH  21  30
BRANCH  22  32
ATOM     32  O   UNL     1     111.764 105.744 101.878  1.00  0.00    -0.504 OA
ATOM     33  H   UNL     1     112.765 105.842 101.747  1.00  0.00     0.293 HD
ENDBRANCH  22  32
ENDBRANCH  11  12
BRANCH  10  34
ATOM     34  O   UNL     1     109.550  98.976  97.671  1.00  0.00    -0.507 OA
ATOM     35  H   UNL     1     110.251  99.593  98.059  1.00  0.00     0.293 HD
ENDBRANCH  10  34
BRANCH   9  36
ATOM     36  C   UNL     1     104.221  98.378  94.426  1.00  0.00     0.017 C 
ATOM     37  C   UNL     1     104.116  98.370  92.897  1.00  0.00     0.012 C 
ATOM     38  C   UNL     1     103.100  97.542  95.069  1.00  0.00     0.012 C 
ENDBRANCH   9  36
BRANCH   6  39
ATOM     39  C   UNL     1     109.347  96.571  96.581  1.00  0.00     0.264 C 
ATOM     40  O   UNL     1     110.376  96.464  95.864  1.00  0.00    -0.298 OA
ENDBRANCH   6  39
BRANCH   8  41
ATOM     41  O   UNL     1     105.287  95.738  93.988  1.00  0.00    -0.504 OA
ATOM     42  H   UNL     1     105.388  95.610  92.988  1.00  0.00     0.293 HD
ENDBRANCH   8  41
BRANCH   7  43
ATOM     43  O   UNL     1     107.660  94.875  95.045  1.00  0.00    -0.504 OA
ATOM     44  H   UNL     1     107.730  94.453  94.129  1.00  0.00     0.293 HD
ENDBRANCH   7  43
TORSDOF 11
ENDMDL
