MODEL 1
REMARK VINA RESULT:    -4.414      0.000      0.000
REMARK INTER + INTRA:          -6.045
REMARK INTER:                  -5.963
REMARK INTRA:                  -0.083
REMARK UNBOUND:                -0.083
REMARK SMILES C=C1C(=O)O[C@@H]2[C@@H]1CCC(C)=CCC[C@@]1(C)O[C@@H]21
REMARK SMILES IDX 6 1 7 2 2 3 1 4 3 5 4 6 5 7 8 8 9 9 10 10 11 11 12 12 18 14
REMARK SMILES IDX 15 15 17 16 16 17 14 18 13 19
REMARK H PARENT
REMARK Flexibility Score: 70.00
ROOT
ATOM      1  C   UNL     1       3.026  58.408 133.246  1.00  0.00     0.216 C 
ATOM      2  C   UNL     1       2.340  59.773 133.594  1.00  0.00     0.070 C 
ATOM      3  C   UNL     1       2.903  60.701 132.557  1.00  0.00     0.037 C 
ATOM      4  C   UNL     1       2.813  62.030 132.559  1.00  0.00     0.021 C 
ATOM      5  C   UNL     1       3.579  59.902 131.568  1.00  0.00     0.334 C 
ATOM      6  O   UNL     1       4.095  60.330 130.502  1.00  0.00    -0.247 OA
ATOM      7  O   UNL     1       3.586  58.578 131.944  1.00  0.00    -0.455 OA
ENDROOT
BRANCH   2   8
ATOM      8  C   UNL     1       0.798  59.722 133.459  1.00  0.00     0.017 C 
BRANCH   8   9
ATOM      9  C   UNL     1       0.062  59.376 134.769  1.00  0.00     0.031 C 
BRANCH   9  10
ATOM     10  C   UNL     1      -0.339  57.914 134.851  1.00  0.00    -0.077 C 
ATOM     11  C   UNL     1      -1.603  57.489 134.147  1.00  0.00     0.039 C 
ATOM     12  C   UNL     1       0.358  56.966 135.518  1.00  0.00    -0.028 CG0
ATOM     13  G   UNL     1       1.689  57.152 136.206  1.00  0.00     0.000 G0
ENDBRANCH   9  10
ENDBRANCH   8   9
ENDBRANCH   2   8
BRANCH   1  14
ATOM     14  C   UNL     1       4.184  58.130 134.225  1.00  0.00     0.192 C 
ATOM     15  C   UNL     1       4.067  57.107 135.305  1.00  0.00     0.096 C 
ATOM     16  O   UNL     1       4.673  56.812 134.068  1.00  0.00    -0.362 OA
ATOM     17  C   UNL     1       5.086  57.173 136.443  1.00  0.00     0.045 C 
BRANCH  15  18
ATOM     18  C   UNL     1       2.776  56.302 135.525  1.00  0.00     0.042 C 
BRANCH  18  19
ATOM     19  C   UNL     1       1.694  57.155 136.216  1.00  0.00     0.030 CG0
ATOM     20  G   UNL     1       0.360  56.970 135.534  1.00  0.00     0.000 G0
ENDBRANCH  18  19
ENDBRANCH  15  18
ENDBRANCH   1  14
TORSDOF 0
ENDMDL
MODEL 2
REMARK VINA RESULT:    -4.384      3.777      5.044
REMARK INTER + INTRA:          -6.004
REMARK INTER:                  -6.012
REMARK INTRA:                   0.008
REMARK UNBOUND:                -0.083
REMARK SMILES C=C1C(=O)O[C@@H]2[C@@H]1CCC(C)=CCC[C@@]1(C)O[C@@H]21
REMARK SMILES IDX 6 1 7 2 2 3 1 4 3 5 4 6 5 7 8 8 9 9 10 10 11 11 12 12 18 14
REMARK SMILES IDX 15 15 17 16 16 17 14 18 13 19
REMARK H PARENT
REMARK Flexibility Score: 70.00
ROOT
ATOM      1  C   UNL     1       5.460  60.170 133.569  1.00  0.00     0.216 C 
ATOM      2  C   UNL     1       4.362  61.263 133.805  1.00  0.00     0.070 C 
ATOM      3  C   UNL     1       3.465  61.094 132.613  1.00  0.00     0.037 C 
ATOM      4  C   UNL     1       2.509  61.936 132.222  1.00  0.00     0.021 C 
ATOM      5  C   UNL     1       3.833  59.869 131.952  1.00  0.00     0.334 C 
ATOM      6  O   UNL     1       3.239  59.357 130.966  1.00  0.00    -0.247 OA
ATOM      7  O   UNL     1       4.941  59.315 132.550  1.00  0.00    -0.455 OA
ENDROOT
BRANCH   2   8
ATOM      8  C   UNL     1       3.548  61.027 135.102  1.00  0.00     0.017 C 
BRANCH   8   9
ATOM      9  C   UNL     1       4.205  61.603 136.371  1.00  0.00     0.031 C 
BRANCH   9  10
ATOM     10  C   UNL     1       5.002  60.568 137.144  1.00  0.00    -0.077 C 
ATOM     11  C   UNL     1       4.240  59.590 138.004  1.00  0.00     0.039 C 
ATOM     12  C   UNL     1       6.351  60.466 137.121  1.00  0.00    -0.028 CG0
ATOM     13  G   UNL     1       7.293  61.274 136.262  1.00  0.00     0.000 G0
ENDBRANCH   9  10
ENDBRANCH   8   9
ENDBRANCH   2   8
BRANCH   1  14
ATOM     14  C   UNL     1       6.748  60.820 133.028  1.00  0.00     0.192 C 
ATOM     15  C   UNL     1       7.994  60.888 133.847  1.00  0.00     0.096 C 
ATOM     16  O   UNL     1       7.783  59.863 132.902  1.00  0.00    -0.362 OA
ATOM     17  C   UNL     1       9.075  61.870 133.395  1.00  0.00     0.045 C 
BRANCH  15  18
ATOM     18  C   UNL     1       8.052  60.347 135.285  1.00  0.00     0.042 C 
BRANCH  18  19
ATOM     19  C   UNL     1       7.293  61.269 136.260  1.00  0.00     0.030 CG0
ATOM     20  G   UNL     1       6.347  60.465 137.119  1.00  0.00     0.000 G0
ENDBRANCH  18  19
ENDBRANCH  15  18
ENDBRANCH   1  14
TORSDOF 0
ENDMDL
MODEL 3
REMARK VINA RESULT:    -4.367      4.360      6.760
REMARK INTER + INTRA:          -5.982
REMARK INTER:                  -5.898
REMARK INTRA:                  -0.084
REMARK UNBOUND:                -0.083
REMARK SMILES C=C1C(=O)O[C@@H]2[C@@H]1CCC(C)=CCC[C@@]1(C)O[C@@H]21
REMARK SMILES IDX 6 1 7 2 2 3 1 4 3 5 4 6 5 7 8 8 9 9 10 10 11 11 12 12 18 14
REMARK SMILES IDX 15 15 17 16 16 17 14 18 13 19
REMARK H PARENT
REMARK Flexibility Score: 70.00
ROOT
ATOM      1  C   UNL     1       8.057  58.735 133.715  1.00  0.00     0.216 C 
ATOM      2  C   UNL     1       9.073  57.580 134.016  1.00  0.00     0.070 C 
ATOM      3  C   UNL     1      10.035  57.678 132.868  1.00  0.00     0.037 C 
ATOM      4  C   UNL     1      10.954  56.774 132.533  1.00  0.00     0.021 C 
ATOM      5  C   UNL     1       9.777  58.914 132.177  1.00  0.00     0.334 C 
ATOM      6  O   UNL     1      10.448  59.377 131.217  1.00  0.00    -0.247 OA
ATOM      7  O   UNL     1       8.678  59.544 132.714  1.00  0.00    -0.455 OA
ENDROOT
BRANCH   2   8
ATOM      8  C   UNL     1       9.836  57.783 135.349  1.00  0.00     0.017 C 
BRANCH   8   9
ATOM      9  C   UNL     1       9.171  57.106 136.563  1.00  0.00     0.031 C 
BRANCH   9  10
ATOM     10  C   UNL     1       8.342  58.069 137.394  1.00  0.00    -0.077 C 
ATOM     11  C   UNL     1       9.060  58.930 138.403  1.00  0.00     0.039 C 
ATOM     12  C   UNL     1       6.999  58.204 137.295  1.00  0.00    -0.028 CG0
ATOM     13  G   UNL     1       6.103  57.517 136.294  1.00  0.00     0.000 G0
ENDBRANCH   9  10
ENDBRANCH   8   9
ENDBRANCH   2   8
BRANCH   1  14
ATOM     14  C   UNL     1       6.759  58.159 133.118  1.00  0.00     0.192 C 
ATOM     15  C   UNL     1       5.497  58.085 133.912  1.00  0.00     0.096 C 
ATOM     16  O   UNL     1       5.757  59.154 133.031  1.00  0.00    -0.362 OA
ATOM     17  C   UNL     1       4.395  57.165 133.388  1.00  0.00     0.045 C 
BRANCH  15  18
ATOM     18  C   UNL     1       5.432  58.545 135.377  1.00  0.00     0.042 C 
BRANCH  18  19
ATOM     19  C   UNL     1       6.086  57.513 136.317  1.00  0.00     0.030 CG0
ATOM     20  G   UNL     1       6.997  58.201 137.305  1.00  0.00     0.000 G0
ENDBRANCH  18  19
ENDBRANCH  15  18
ENDBRANCH   1  14
TORSDOF 0
ENDMDL
MODEL 4
REMARK VINA RESULT:    -4.288      1.681      3.784
REMARK INTER + INTRA:          -5.875
REMARK INTER:                  -5.840
REMARK INTRA:                  -0.035
REMARK UNBOUND:                -0.083
REMARK SMILES C=C1C(=O)O[C@@H]2[C@@H]1CCC(C)=CCC[C@@]1(C)O[C@@H]21
REMARK SMILES IDX 6 1 7 2 2 3 1 4 3 5 4 6 5 7 8 8 9 9 10 10 11 11 12 12 18 14
REMARK SMILES IDX 15 15 17 16 16 17 14 18 13 19
REMARK H PARENT
REMARK Flexibility Score: 70.00
ROOT
ATOM      1  C   UNL     1       2.093  59.650 133.948  1.00  0.00     0.216 C 
ATOM      2  C   UNL     1       2.966  59.061 132.788  1.00  0.00     0.070 C 
ATOM      3  C   UNL     1       3.192  60.255 131.906  1.00  0.00     0.037 C 
ATOM      4  C   UNL     1       3.683  60.235 130.667  1.00  0.00     0.021 C 
ATOM      5  C   UNL     1       2.765  61.426 132.626  1.00  0.00     0.334 C 
ATOM      6  O   UNL     1       2.888  62.617 132.236  1.00  0.00    -0.247 OA
ATOM      7  O   UNL     1       2.195  61.069 133.826  1.00  0.00    -0.455 OA
ENDROOT
BRANCH   2   8
ATOM      8  C   UNL     1       4.329  58.515 133.278  1.00  0.00     0.017 C 
BRANCH   8   9
ATOM      9  C   UNL     1       4.284  57.054 133.765  1.00  0.00     0.031 C 
BRANCH   9  10
ATOM     10  C   UNL     1       4.146  56.938 135.273  1.00  0.00    -0.077 C 
ATOM     11  C   UNL     1       5.382  57.142 136.112  1.00  0.00     0.039 C 
ATOM     12  C   UNL     1       2.989  56.659 135.916  1.00  0.00    -0.028 CG0
ATOM     13  G   UNL     1       1.626  56.515 135.282  1.00  0.00     0.000 G0
ENDBRANCH   9  10
ENDBRANCH   8   9
ENDBRANCH   2   8
BRANCH   1  14
ATOM     14  C   UNL     1       0.614  59.264 133.750  1.00  0.00     0.192 C 
ATOM     15  C   UNL     1      -0.071  58.298 134.658  1.00  0.00     0.096 C 
ATOM     16  O   UNL     1      -0.171  59.691 134.847  1.00  0.00    -0.362 OA
ATOM     17  C   UNL     1      -1.384  57.689 134.167  1.00  0.00     0.045 C 
BRANCH  15  18
ATOM     18  C   UNL     1       0.667  57.607 135.817  1.00  0.00     0.042 C 
BRANCH  18  19
ATOM     19  C   UNL     1       1.618  56.510 135.300  1.00  0.00     0.030 CG0
ATOM     20  G   UNL     1       2.988  56.664 135.915  1.00  0.00     0.000 G0
ENDBRANCH  18  19
ENDBRANCH  15  18
ENDBRANCH   1  14
TORSDOF 0
ENDMDL
MODEL 5
REMARK VINA RESULT:    -4.283      2.769      4.119
REMARK INTER + INTRA:          -5.868
REMARK INTER:                  -5.767
REMARK INTRA:                  -0.102
REMARK UNBOUND:                -0.083
REMARK SMILES C=C1C(=O)O[C@@H]2[C@@H]1CCC(C)=CCC[C@@]1(C)O[C@@H]21
REMARK SMILES IDX 6 1 7 2 2 3 1 4 3 5 4 6 5 7 8 8 9 9 10 10 11 11 12 12 18 14
REMARK SMILES IDX 15 15 17 16 16 17 14 18 13 19
REMARK H PARENT
REMARK Flexibility Score: 70.00
ROOT
ATOM      1  C   UNL     1       2.111  59.387 134.741  1.00  0.00     0.216 C 
ATOM      2  C   UNL     1       3.032  60.224 133.789  1.00  0.00     0.070 C 
ATOM      3  C   UNL     1       2.076  60.687 132.727  1.00  0.00     0.037 C 
ATOM      4  C   UNL     1       2.405  61.242 131.561  1.00  0.00     0.021 C 
ATOM      5  C   UNL     1       0.739  60.407 133.182  1.00  0.00     0.334 C 
ATOM      6  O   UNL     1      -0.324  60.739 132.593  1.00  0.00    -0.247 OA
ATOM      7  O   UNL     1       0.771  59.717 134.371  1.00  0.00    -0.455 OA
ENDROOT
BRANCH   2   8
ATOM      8  C   UNL     1       3.661  61.453 134.490  1.00  0.00     0.017 C 
BRANCH   8   9
ATOM      9  C   UNL     1       5.109  61.231 134.969  1.00  0.00     0.031 C 
BRANCH   9  10
ATOM     10  C   UNL     1       5.198  60.924 136.453  1.00  0.00    -0.077 C 
ATOM     11  C   UNL     1       5.237  62.087 137.413  1.00  0.00     0.039 C 
ATOM     12  C   UNL     1       5.252  59.677 136.974  1.00  0.00    -0.028 CG0
ATOM     13  G   UNL     1       5.132  58.382 136.208  1.00  0.00     0.000 G0
ENDBRANCH   9  10
ENDBRANCH   8   9
ENDBRANCH   2   8
BRANCH   1  14
ATOM     14  C   UNL     1       2.312  57.880 134.486  1.00  0.00     0.192 C 
ATOM     15  C   UNL     1       3.135  57.035 135.401  1.00  0.00     0.096 C 
ATOM     16  O   UNL     1       1.733  57.110 135.521  1.00  0.00    -0.362 OA
ATOM     17  C   UNL     1       3.594  55.676 134.873  1.00  0.00     0.045 C 
BRANCH  15  18
ATOM     18  C   UNL     1       3.854  57.625 136.625  1.00  0.00     0.042 C 
BRANCH  18  19
ATOM     19  C   UNL     1       5.140  58.369 136.214  1.00  0.00     0.030 CG0
ATOM     20  G   UNL     1       5.255  59.676 136.960  1.00  0.00     0.000 G0
ENDBRANCH  18  19
ENDBRANCH  15  18
ENDBRANCH   1  14
TORSDOF 0
ENDMDL
MODEL 6
REMARK VINA RESULT:    -4.199      7.842     10.150
REMARK INTER + INTRA:          -5.754
REMARK INTER:                  -5.677
REMARK INTRA:                  -0.078
REMARK UNBOUND:                -0.083
REMARK SMILES C=C1C(=O)O[C@@H]2[C@@H]1CCC(C)=CCC[C@@]1(C)O[C@@H]21
REMARK SMILES IDX 6 1 7 2 2 3 1 4 3 5 4 6 5 7 8 8 9 9 10 10 11 11 12 12 18 14
REMARK SMILES IDX 15 15 17 16 16 17 14 18 13 19
REMARK H PARENT
REMARK Flexibility Score: 70.00
ROOT
ATOM      1  C   UNL     1      10.439  60.349 133.467  1.00  0.00     0.216 C 
ATOM      2  C   UNL     1      11.078  59.009 133.968  1.00  0.00     0.070 C 
ATOM      3  C   UNL     1      10.649  58.025 132.918  1.00  0.00     0.037 C 
ATOM      4  C   UNL     1      10.739  56.698 133.000  1.00  0.00     0.021 C 
ATOM      5  C   UNL     1      10.101  58.767 131.813  1.00  0.00     0.334 C 
ATOM      6  O   UNL     1       9.722  58.281 130.714  1.00  0.00    -0.247 OA
ATOM      7  O   UNL     1      10.046  60.108 132.116  1.00  0.00    -0.455 OA
ENDROOT
BRANCH   2   8
ATOM      8  C   UNL     1      12.625  59.063 134.023  1.00  0.00     0.017 C 
BRANCH   8   9
ATOM      9  C   UNL     1      13.193  59.420 135.411  1.00  0.00     0.031 C 
BRANCH   9  10
ATOM     10  C   UNL     1      13.595  60.880 135.526  1.00  0.00    -0.077 C 
ATOM     11  C   UNL     1      14.957  61.278 135.015  1.00  0.00     0.039 C 
ATOM     12  C   UNL     1      12.816  61.848 136.061  1.00  0.00    -0.028 CG0
ATOM     13  G   UNL     1      11.394  61.688 136.540  1.00  0.00     0.000 G0
ENDBRANCH   9  10
ENDBRANCH   8   9
ENDBRANCH   2   8
BRANCH   1  14
ATOM     14  C   UNL     1       9.169  60.668 134.278  1.00  0.00     0.192 C 
ATOM     15  C   UNL     1       9.158  61.724 135.333  1.00  0.00     0.096 C 
ATOM     16  O   UNL     1       8.721  61.985 134.019  1.00  0.00    -0.362 OA
ATOM     17  C   UNL     1       8.000  61.704 136.330  1.00  0.00     0.045 C 
BRANCH  15  18
ATOM     18  C   UNL     1      10.420  62.525 135.694  1.00  0.00     0.042 C 
BRANCH  18  19
ATOM     19  C   UNL     1      11.390  61.687 136.550  1.00  0.00     0.030 CG0
ATOM     20  G   UNL     1      12.809  61.862 136.065  1.00  0.00     0.000 G0
ENDBRANCH  18  19
ENDBRANCH  15  18
ENDBRANCH   1  14
TORSDOF 0
ENDMDL
MODEL 7
REMARK VINA RESULT:    -4.165      3.664      5.229
REMARK INTER + INTRA:          -5.708
REMARK INTER:                  -5.618
REMARK INTRA:                  -0.090
REMARK UNBOUND:                -0.083
REMARK SMILES C=C1C(=O)O[C@@H]2[C@@H]1CCC(C)=CCC[C@@]1(C)O[C@@H]21
REMARK SMILES IDX 6 1 7 2 2 3 1 4 3 5 4 6 5 7 8 8 9 9 10 10 11 11 12 12 18 14
REMARK SMILES IDX 15 15 17 16 16 17 14 18 13 19
REMARK H PARENT
REMARK Flexibility Score: 70.00
ROOT
ATOM      1  C   UNL     1       7.538  57.936 134.265  1.00  0.00     0.216 C 
ATOM      2  C   UNL     1       7.833  59.226 133.426  1.00  0.00     0.070 C 
ATOM      3  C   UNL     1       9.192  58.944 132.854  1.00  0.00     0.037 C 
ATOM      4  C   UNL     1       9.991  59.826 132.253  1.00  0.00     0.021 C 
ATOM      5  C   UNL     1       9.493  57.556 133.088  1.00  0.00     0.334 C 
ATOM      6  O   UNL     1      10.509  56.941 132.668  1.00  0.00    -0.247 OA
ATOM      7  O   UNL     1       8.503  56.972 133.844  1.00  0.00    -0.455 OA
ENDROOT
BRANCH   2   8
ATOM      8  C   UNL     1       6.821  59.438 132.273  1.00  0.00     0.017 C 
BRANCH   8   9
ATOM      9  C   UNL     1       5.617  60.323 132.647  1.00  0.00     0.031 C 
BRANCH   9  10
ATOM     10  C   UNL     1       4.378  59.517 132.994  1.00  0.00    -0.077 C 
ATOM     11  C   UNL     1       3.531  59.001 131.858  1.00  0.00     0.039 C 
ATOM     12  C   UNL     1       3.978  59.235 134.256  1.00  0.00    -0.028 CG0
ATOM     13  G   UNL     1       4.722  59.569 135.526  1.00  0.00     0.000 G0
ENDBRANCH   9  10
ENDBRANCH   8   9
ENDBRANCH   2   8
BRANCH   1  14
ATOM     14  C   UNL     1       7.769  58.212 135.763  1.00  0.00     0.192 C 
ATOM     15  C   UNL     1       6.630  58.356 136.717  1.00  0.00     0.096 C 
ATOM     16  O   UNL     1       7.310  57.132 136.553  1.00  0.00    -0.362 OA
ATOM     17  C   UNL     1       6.929  59.001 138.071  1.00  0.00     0.045 C 
BRANCH  15  18
ATOM     18  C   UNL     1       5.166  58.272 136.255  1.00  0.00     0.042 C 
BRANCH  18  19
ATOM     19  C   UNL     1       4.731  59.566 135.539  1.00  0.00     0.030 CG0
ATOM     20  G   UNL     1       3.992  59.242 134.263  1.00  0.00     0.000 G0
ENDBRANCH  18  19
ENDBRANCH  15  18
ENDBRANCH   1  14
TORSDOF 0
ENDMDL
MODEL 8
REMARK VINA RESULT:    -4.137      2.901      4.110
REMARK INTER + INTRA:          -5.670
REMARK INTER:                  -5.604
REMARK INTRA:                  -0.067
REMARK UNBOUND:                -0.083
REMARK SMILES C=C1C(=O)O[C@@H]2[C@@H]1CCC(C)=CCC[C@@]1(C)O[C@@H]21
REMARK SMILES IDX 6 1 7 2 2 3 1 4 3 5 4 6 5 7 8 8 9 9 10 10 11 11 12 12 18 14
REMARK SMILES IDX 15 15 17 16 16 17 14 18 13 19
REMARK H PARENT
REMARK Flexibility Score: 70.00
ROOT
ATOM      1  C   UNL     1       6.084  58.746 134.134  1.00  0.00     0.216 C 
ATOM      2  C   UNL     1       6.406  60.241 133.797  1.00  0.00     0.070 C 
ATOM      3  C   UNL     1       7.795  60.162 133.233  1.00  0.00     0.037 C 
ATOM      4  C   UNL     1       8.612  61.190 133.007  1.00  0.00     0.021 C 
ATOM      5  C   UNL     1       8.099  58.775 132.998  1.00  0.00     0.334 C 
ATOM      6  O   UNL     1       9.141  58.331 132.447  1.00  0.00    -0.247 OA
ATOM      7  O   UNL     1       7.080  57.975 133.462  1.00  0.00    -0.455 OA
ENDROOT
BRANCH   2   8
ATOM      8  C   UNL     1       5.450  60.838 132.734  1.00  0.00     0.017 C 
BRANCH   8   9
ATOM      9  C   UNL     1       4.280  61.648 133.324  1.00  0.00     0.031 C 
BRANCH   9  10
ATOM     10  C   UNL     1       2.982  60.862 133.369  1.00  0.00    -0.077 C 
ATOM     11  C   UNL     1       2.130  60.834 132.124  1.00  0.00     0.039 C 
ATOM     12  C   UNL     1       2.532  60.188 134.453  1.00  0.00    -0.028 CG0
ATOM     13  G   UNL     1       3.266  60.007 135.760  1.00  0.00     0.000 G0
ENDBRANCH   9  10
ENDBRANCH   8   9
ENDBRANCH   2   8
BRANCH   1  14
ATOM     14  C   UNL     1       6.237  58.497 135.647  1.00  0.00     0.192 C 
ATOM     15  C   UNL     1       5.050  58.383 136.546  1.00  0.00     0.096 C 
ATOM     16  O   UNL     1       5.688  57.245 136.012  1.00  0.00    -0.362 OA
ATOM     17  C   UNL     1       5.295  58.526 138.048  1.00  0.00     0.045 C 
BRANCH  15  18
ATOM     18  C   UNL     1       3.614  58.543 136.020  1.00  0.00     0.042 C 
BRANCH  18  19
ATOM     19  C   UNL     1       3.272  60.024 135.769  1.00  0.00     0.030 CG0
ATOM     20  G   UNL     1       2.536  60.182 134.460  1.00  0.00     0.000 G0
ENDBRANCH  18  19
ENDBRANCH  15  18
ENDBRANCH   1  14
TORSDOF 0
ENDMDL
MODEL 9
REMARK VINA RESULT:    -4.110      2.297      3.403
REMARK INTER + INTRA:          -5.634
REMARK INTER:                  -5.540
REMARK INTRA:                  -0.095
REMARK UNBOUND:                -0.083
REMARK SMILES C=C1C(=O)O[C@@H]2[C@@H]1CCC(C)=CCC[C@@]1(C)O[C@@H]21
REMARK SMILES IDX 6 1 7 2 2 3 1 4 3 5 4 6 5 7 8 8 9 9 10 10 11 11 12 12 18 14
REMARK SMILES IDX 15 15 17 16 16 17 14 18 13 19
REMARK H PARENT
REMARK Flexibility Score: 70.00
ROOT
ATOM      1  C   UNL     1       5.006  59.329 133.052  1.00  0.00     0.216 C 
ATOM      2  C   UNL     1       3.524  59.532 133.516  1.00  0.00     0.070 C 
ATOM      3  C   UNL     1       2.910  60.259 132.355  1.00  0.00     0.037 C 
ATOM      4  C   UNL     1       1.724  60.867 132.345  1.00  0.00     0.021 C 
ATOM      5  C   UNL     1       3.838  60.203 131.256  1.00  0.00     0.334 C 
ATOM      6  O   UNL     1       3.627  60.629 130.089  1.00  0.00    -0.247 OA
ATOM      7  O   UNL     1       5.014  59.608 131.651  1.00  0.00    -0.455 OA
ENDROOT
BRANCH   2   8
ATOM      8  C   UNL     1       2.776  58.194 133.741  1.00  0.00     0.017 C 
BRANCH   8   9
ATOM      9  C   UNL     1       2.625  57.800 135.224  1.00  0.00     0.031 C 
BRANCH   9  10
ATOM     10  C   UNL     1       3.636  56.755 135.661  1.00  0.00    -0.077 C 
ATOM     11  C   UNL     1       3.279  55.303 135.467  1.00  0.00     0.039 C 
ATOM     12  C   UNL     1       4.835  57.038 136.221  1.00  0.00    -0.028 CG0
ATOM     13  G   UNL     1       5.428  58.413 136.416  1.00  0.00     0.000 G0
ENDBRANCH   9  10
ENDBRANCH   8   9
ENDBRANCH   2   8
BRANCH   1  14
ATOM     14  C   UNL     1       5.925  60.354 133.743  1.00  0.00     0.192 C 
ATOM     15  C   UNL     1       6.746  59.991 134.935  1.00  0.00     0.096 C 
ATOM     16  O   UNL     1       7.283  59.973 133.632  1.00  0.00    -0.362 OA
ATOM     17  C   UNL     1       7.310  61.140 135.772  1.00  0.00     0.045 C 
BRANCH  15  18
ATOM     18  C   UNL     1       6.694  58.588 135.561  1.00  0.00     0.042 C 
BRANCH  18  19
ATOM     19  C   UNL     1       5.435  58.409 136.432  1.00  0.00     0.030 CG0
ATOM     20  G   UNL     1       4.843  57.036 136.229  1.00  0.00     0.000 G0
ENDBRANCH  18  19
ENDBRANCH  15  18
ENDBRANCH   1  14
TORSDOF 0
ENDMDL
