MODEL 1
REMARK VINA RESULT:    -4.641      0.000      0.000
REMARK INTER + INTRA:          -9.956
REMARK INTER:                  -8.440
REMARK INTRA:                  -1.516
REMARK UNBOUND:                -1.516
REMARK SMILES CCCCCC=CCC=CCCCCCCCC(=O)[O-]
REMARK SMILES IDX 11 1 12 2 13 3 14 4 15 5 16 6 17 7 18 8 19 9 20 10 10 11
REMARK SMILES IDX 9 12 8 13 7 14 6 15 5 16 4 17 3 18 2 19 1 20
REMARK H PARENT
REMARK Flexibility Score: inf
ROOT
ATOM      1  C   UNL     1      97.194 -67.326   3.553  1.00  0.00     0.027 C 
ENDROOT
BRANCH   1   2
ATOM      2  C   UNL     1      96.902 -65.822   3.501  1.00  0.00     0.004 C 
BRANCH   2   3
ATOM      3  C   UNL     1      98.019 -65.069   2.759  1.00  0.00     0.000 C 
BRANCH   3   4
ATOM      4  C   UNL     1      97.896 -65.196   1.231  1.00  0.00     0.000 C 
BRANCH   4   5
ATOM      5  C   UNL     1      99.193 -65.706   0.580  1.00  0.00     0.000 C 
BRANCH   5   6
ATOM      6  C   UNL     1      98.968 -66.963  -0.277  1.00  0.00     0.006 C 
BRANCH   6   7
ATOM      7  C   UNL     1      99.290 -68.256   0.484  1.00  0.00     0.053 C 
BRANCH   7   8
ATOM      8  C   UNL     1      98.624 -69.427  -0.165  1.00  0.00     0.041 C 
ATOM      9  O   UNL     1      98.473 -70.501   0.474  1.00  0.00    -0.550 OA
ATOM     10  O   UNL     1      98.191 -69.341  -1.483  1.00  0.00    -0.550 OA
ENDBRANCH   7   8
ENDBRANCH   6   7
ENDBRANCH   5   6
ENDBRANCH   4   5
ENDBRANCH   3   4
ENDBRANCH   2   3
ENDBRANCH   1   2
BRANCH   1  11
ATOM     11  C   UNL     1      98.501 -67.605   4.246  1.00  0.00    -0.031 C 
ATOM     12  C   UNL     1      99.210 -68.715   3.993  1.00  0.00    -0.027 C 
BRANCH  12  13
ATOM     13  C   UNL     1     100.516 -68.985   4.686  1.00  0.00     0.054 C 
BRANCH  13  14
ATOM     14  C   UNL     1     100.297 -69.719   5.985  1.00  0.00    -0.027 C 
ATOM     15  C   UNL     1     100.628 -69.235   7.198  1.00  0.00    -0.031 C 
BRANCH  15  16
ATOM     16  C   UNL     1     101.330 -67.920   7.426  1.00  0.00     0.027 C 
BRANCH  16  17
ATOM     17  C   UNL     1     101.571 -67.684   8.925  1.00  0.00     0.004 C 
BRANCH  17  18
ATOM     18  C   UNL     1     100.603 -68.481   9.818  1.00  0.00     0.000 C 
BRANCH  18  19
ATOM     19  C   UNL     1     100.314 -67.839  11.187  1.00  0.00    -0.003 C 
ATOM     20  C   UNL     1      99.869 -66.382  11.081  1.00  0.00     0.004 C 
ENDBRANCH  18  19
ENDBRANCH  17  18
ENDBRANCH  16  17
ENDBRANCH  15  16
ENDBRANCH  13  14
ENDBRANCH  12  13
ENDBRANCH   1  11
TORSDOF 14
ENDMDL
MODEL 2
REMARK VINA RESULT:    -4.543      0.988      1.886
REMARK INTER + INTRA:          -9.777
REMARK INTER:                  -8.098
REMARK INTRA:                  -1.679
REMARK UNBOUND:                -1.516
REMARK SMILES CCCCCC=CCC=CCCCCCCCC(=O)[O-]
REMARK SMILES IDX 11 1 12 2 13 3 14 4 15 5 16 6 17 7 18 8 19 9 20 10 10 11
REMARK SMILES IDX 9 12 8 13 7 14 6 15 5 16 4 17 3 18 2 19 1 20
REMARK H PARENT
REMARK Flexibility Score: inf
ROOT
ATOM      1  C   UNL     1      99.049 -68.743   3.889  1.00  0.00     0.027 C 
ENDROOT
BRANCH   1   2
ATOM      2  C   UNL     1      97.759 -67.922   3.768  1.00  0.00     0.004 C 
BRANCH   2   3
ATOM      3  C   UNL     1      98.072 -66.424   3.625  1.00  0.00     0.000 C 
BRANCH   3   4
ATOM      4  C   UNL     1      97.945 -65.936   2.173  1.00  0.00     0.000 C 
BRANCH   4   5
ATOM      5  C   UNL     1      99.297 -65.927   1.438  1.00  0.00     0.000 C 
BRANCH   5   6
ATOM      6  C   UNL     1      99.258 -66.723   0.123  1.00  0.00     0.006 C 
BRANCH   6   7
ATOM      7  C   UNL     1      99.839 -68.135   0.276  1.00  0.00     0.053 C 
BRANCH   7   8
ATOM      8  C   UNL     1      98.846 -69.162  -0.165  1.00  0.00     0.041 C 
ATOM      9  O   UNL     1      98.586 -70.147   0.574  1.00  0.00    -0.550 OA
ATOM     10  O   UNL     1      98.224 -69.045  -1.403  1.00  0.00    -0.550 OA
ENDBRANCH   7   8
ENDBRANCH   6   7
ENDBRANCH   5   6
ENDBRANCH   4   5
ENDBRANCH   3   4
ENDBRANCH   2   3
ENDBRANCH   1   2
BRANCH   1  11
ATOM     11  C   UNL     1      99.808 -68.387   5.138  1.00  0.00    -0.031 C 
ATOM     12  C   UNL     1     100.200 -69.322   6.017  1.00  0.00    -0.027 C 
BRANCH  12  13
ATOM     13  C   UNL     1     100.961 -68.959   7.260  1.00  0.00     0.054 C 
BRANCH  13  14
ATOM     14  C   UNL     1     101.844 -67.760   7.023  1.00  0.00    -0.027 C 
ATOM     15  C   UNL     1     101.697 -66.573   7.643  1.00  0.00    -0.031 C 
BRANCH  15  16
ATOM     16  C   UNL     1     100.587 -66.250   8.611  1.00  0.00     0.027 C 
BRANCH  16  17
ATOM     17  C   UNL     1     101.103 -66.268  10.058  1.00  0.00     0.004 C 
BRANCH  17  18
ATOM     18  C   UNL     1     100.191 -67.065  11.007  1.00  0.00     0.000 C 
BRANCH  18  19
ATOM     19  C   UNL     1     100.233 -68.591  10.811  1.00  0.00    -0.003 C 
ATOM     20  C   UNL     1     101.517 -69.226  11.343  1.00  0.00     0.004 C 
ENDBRANCH  18  19
ENDBRANCH  17  18
ENDBRANCH  16  17
ENDBRANCH  15  16
ENDBRANCH  13  14
ENDBRANCH  12  13
ENDBRANCH   1  11
TORSDOF 14
ENDMDL
MODEL 3
REMARK VINA RESULT:    -4.528      0.962      1.616
REMARK INTER + INTRA:          -9.751
REMARK INTER:                  -8.096
REMARK INTRA:                  -1.655
REMARK UNBOUND:                -1.516
REMARK SMILES CCCCCC=CCC=CCCCCCCCC(=O)[O-]
REMARK SMILES IDX 11 1 12 2 13 3 14 4 15 5 16 6 17 7 18 8 19 9 20 10 10 11
REMARK SMILES IDX 9 12 8 13 7 14 6 15 5 16 4 17 3 18 2 19 1 20
REMARK H PARENT
REMARK Flexibility Score: inf
ROOT
ATOM      1  C   UNL     1      98.097 -68.241   3.548  1.00  0.00     0.027 C 
ENDROOT
BRANCH   1   2
ATOM      2  C   UNL     1      97.743 -66.806   3.140  1.00  0.00     0.004 C 
BRANCH   2   3
ATOM      3  C   UNL     1      98.832 -65.821   3.594  1.00  0.00     0.000 C 
BRANCH   3   4
ATOM      4  C   UNL     1      99.727 -65.361   2.431  1.00  0.00     0.000 C 
BRANCH   4   5
ATOM      5  C   UNL     1      99.090 -65.636   1.057  1.00  0.00     0.000 C 
BRANCH   5   6
ATOM      6  C   UNL     1     100.020 -66.429   0.125  1.00  0.00     0.006 C 
BRANCH   6   7
ATOM      7  C   UNL     1     100.168 -67.895   0.555  1.00  0.00     0.053 C 
BRANCH   7   8
ATOM      8  C   UNL     1      99.143 -68.748  -0.123  1.00  0.00     0.041 C 
ATOM      9  O   UNL     1      98.617 -68.366  -1.201  1.00  0.00    -0.550 OA
ATOM     10  O   UNL     1      98.752 -69.954   0.447  1.00  0.00    -0.550 OA
ENDBRANCH   7   8
ENDBRANCH   6   7
ENDBRANCH   5   6
ENDBRANCH   4   5
ENDBRANCH   3   4
ENDBRANCH   2   3
ENDBRANCH   1   2
BRANCH   1  11
ATOM     11  C   UNL     1      99.105 -68.259   4.666  1.00  0.00    -0.031 C 
ATOM     12  C   UNL     1      99.709 -69.392   5.053  1.00  0.00    -0.027 C 
BRANCH  12  13
ATOM     13  C   UNL     1     100.717 -69.401   6.167  1.00  0.00     0.054 C 
BRANCH  13  14
ATOM     14  C   UNL     1     100.917 -68.015   6.726  1.00  0.00    -0.027 C 
ATOM     15  C   UNL     1     101.304 -67.753   7.990  1.00  0.00    -0.031 C 
BRANCH  15  16
ATOM     16  C   UNL     1     101.523 -68.805   9.048  1.00  0.00     0.027 C 
BRANCH  16  17
ATOM     17  C   UNL     1     100.479 -68.677  10.167  1.00  0.00     0.004 C 
BRANCH  17  18
ATOM     18  C   UNL     1     100.762 -67.498  11.116  1.00  0.00     0.000 C 
BRANCH  18  19
ATOM     19  C   UNL     1      99.697 -66.387  11.098  1.00  0.00    -0.003 C 
ATOM     20  C   UNL     1     100.175 -65.113  10.404  1.00  0.00     0.004 C 
ENDBRANCH  18  19
ENDBRANCH  17  18
ENDBRANCH  16  17
ENDBRANCH  15  16
ENDBRANCH  13  14
ENDBRANCH  12  13
ENDBRANCH   1  11
TORSDOF 14
ENDMDL
MODEL 4
REMARK VINA RESULT:    -4.500      1.615      2.066
REMARK INTER + INTRA:          -9.698
REMARK INTER:                  -7.307
REMARK INTRA:                  -2.391
REMARK UNBOUND:                -1.516
REMARK SMILES CCCCCC=CCC=CCCCCCCCC(=O)[O-]
REMARK SMILES IDX 11 1 12 2 13 3 14 4 15 5 16 6 17 7 18 8 19 9 20 10 10 11
REMARK SMILES IDX 9 12 8 13 7 14 6 15 5 16 4 17 3 18 2 19 1 20
REMARK H PARENT
REMARK Flexibility Score: inf
ROOT
ATOM      1  C   UNL     1      97.893 -67.752   3.427  1.00  0.00     0.027 C 
ENDROOT
BRANCH   1   2
ATOM      2  C   UNL     1      98.041 -66.236   3.252  1.00  0.00     0.004 C 
BRANCH   2   3
ATOM      3  C   UNL     1      99.323 -65.726   3.930  1.00  0.00     0.000 C 
BRANCH   3   4
ATOM      4  C   UNL     1     100.467 -65.502   2.926  1.00  0.00     0.000 C 
BRANCH   4   5
ATOM      5  C   UNL     1     101.593 -66.539   3.080  1.00  0.00     0.000 C 
BRANCH   5   6
ATOM      6  C   UNL     1     101.486 -67.682   2.057  1.00  0.00     0.006 C 
BRANCH   6   7
ATOM      7  C   UNL     1     101.009 -67.195   0.682  1.00  0.00     0.053 C 
BRANCH   7   8
ATOM      8  C   UNL     1      99.722 -67.858   0.307  1.00  0.00     0.041 C 
ATOM      9  O   UNL     1      98.806 -67.193  -0.244  1.00  0.00    -0.550 OA
ATOM     10  O   UNL     1      99.525 -69.205   0.585  1.00  0.00    -0.550 OA
ENDBRANCH   7   8
ENDBRANCH   6   7
ENDBRANCH   5   6
ENDBRANCH   4   5
ENDBRANCH   3   4
ENDBRANCH   2   3
ENDBRANCH   1   2
BRANCH   1  11
ATOM     11  C   UNL     1      98.680 -68.245   4.611  1.00  0.00    -0.031 C 
ATOM     12  C   UNL     1      99.464 -69.331   4.533  1.00  0.00    -0.027 C 
BRANCH  12  13
ATOM     13  C   UNL     1     100.250 -69.815   5.719  1.00  0.00     0.054 C 
BRANCH  13  14
ATOM     14  C   UNL     1     101.637 -69.224   5.725  1.00  0.00    -0.027 C 
ATOM     15  C   UNL     1     101.992 -68.124   6.419  1.00  0.00    -0.031 C 
BRANCH  15  16
ATOM     16  C   UNL     1     101.037 -67.285   7.230  1.00  0.00     0.027 C 
BRANCH  16  17
ATOM     17  C   UNL     1     101.337 -67.417   8.730  1.00  0.00     0.004 C 
BRANCH  17  18
ATOM     18  C   UNL     1     100.667 -66.316   9.572  1.00  0.00     0.000 C 
BRANCH  18  19
ATOM     19  C   UNL     1      99.939 -66.821  10.830  1.00  0.00    -0.003 C 
ATOM     20  C   UNL     1     100.262 -68.277  11.164  1.00  0.00     0.004 C 
ENDBRANCH  18  19
ENDBRANCH  17  18
ENDBRANCH  16  17
ENDBRANCH  15  16
ENDBRANCH  13  14
ENDBRANCH  12  13
ENDBRANCH   1  11
TORSDOF 14
ENDMDL
MODEL 5
REMARK VINA RESULT:    -4.365      2.085      2.930
REMARK INTER + INTRA:          -9.453
REMARK INTER:                  -8.481
REMARK INTRA:                  -0.972
REMARK UNBOUND:                -1.516
REMARK SMILES CCCCCC=CCC=CCCCCCCCC(=O)[O-]
REMARK SMILES IDX 11 1 12 2 13 3 14 4 15 5 16 6 17 7 18 8 19 9 20 10 10 11
REMARK SMILES IDX 9 12 8 13 7 14 6 15 5 16 4 17 3 18 2 19 1 20
REMARK H PARENT
REMARK Flexibility Score: inf
ROOT
ATOM      1  C   UNL     1      98.324 -68.297   3.355  1.00  0.00     0.027 C 
ENDROOT
BRANCH   1   2
ATOM      2  C   UNL     1      98.898 -67.272   2.370  1.00  0.00     0.004 C 
BRANCH   2   3
ATOM      3  C   UNL     1      99.902 -67.932   1.411  1.00  0.00     0.000 C 
BRANCH   3   4
ATOM      4  C   UNL     1      99.208 -68.721   0.289  1.00  0.00     0.000 C 
BRANCH   4   5
ATOM      5  C   UNL     1      99.285 -68.000  -1.068  1.00  0.00     0.000 C 
BRANCH   5   6
ATOM      6  C   UNL     1      98.381 -68.646  -2.131  1.00  0.00     0.006 C 
BRANCH   6   7
ATOM      7  C   UNL     1      98.651 -68.099  -3.540  1.00  0.00     0.053 C 
BRANCH   7   8
ATOM      8  C   UNL     1      97.911 -66.818  -3.758  1.00  0.00     0.041 C 
ATOM      9  O   UNL     1      96.666 -66.833  -3.944  1.00  0.00    -0.550 OA
ATOM     10  O   UNL     1      98.598 -65.610  -3.778  1.00  0.00    -0.550 OA
ENDBRANCH   7   8
ENDBRANCH   6   7
ENDBRANCH   5   6
ENDBRANCH   4   5
ENDBRANCH   3   4
ENDBRANCH   2   3
ENDBRANCH   1   2
BRANCH   1  11
ATOM     11  C   UNL     1      99.110 -68.321   4.638  1.00  0.00    -0.031 C 
ATOM     12  C   UNL     1      99.774 -69.416   5.038  1.00  0.00    -0.027 C 
BRANCH  12  13
ATOM     13  C   UNL     1     100.559 -69.431   6.318  1.00  0.00     0.054 C 
BRANCH  13  14
ATOM     14  C   UNL     1     100.934 -68.032   6.739  1.00  0.00    -0.027 C 
ATOM     15  C   UNL     1     101.445 -67.712   7.944  1.00  0.00    -0.031 C 
BRANCH  15  16
ATOM     16  C   UNL     1     101.650 -68.693   9.070  1.00  0.00     0.027 C 
BRANCH  16  17
ATOM     17  C   UNL     1     100.471 -68.648  10.053  1.00  0.00     0.004 C 
BRANCH  17  18
ATOM     18  C   UNL     1     100.709 -67.682  11.227  1.00  0.00     0.000 C 
BRANCH  18  19
ATOM     19  C   UNL     1      99.737 -66.490  11.288  1.00  0.00    -0.003 C 
ATOM     20  C   UNL     1     100.122 -65.356  10.339  1.00  0.00     0.004 C 
ENDBRANCH  18  19
ENDBRANCH  17  18
ENDBRANCH  16  17
ENDBRANCH  15  16
ENDBRANCH  13  14
ENDBRANCH  12  13
ENDBRANCH   1  11
TORSDOF 14
ENDMDL
MODEL 6
REMARK VINA RESULT:    -4.164      2.308      3.373
REMARK INTER + INTRA:          -9.089
REMARK INTER:                  -8.075
REMARK INTRA:                  -1.014
REMARK UNBOUND:                -1.516
REMARK SMILES CCCCCC=CCC=CCCCCCCCC(=O)[O-]
REMARK SMILES IDX 11 1 12 2 13 3 14 4 15 5 16 6 17 7 18 8 19 9 20 10 10 11
REMARK SMILES IDX 9 12 8 13 7 14 6 15 5 16 4 17 3 18 2 19 1 20
REMARK H PARENT
REMARK Flexibility Score: inf
ROOT
ATOM      1  C   UNL     1      98.861 -67.761   1.086  1.00  0.00     0.027 C 
ENDROOT
BRANCH   1   2
ATOM      2  C   UNL     1      99.711 -68.312  -0.064  1.00  0.00     0.004 C 
BRANCH   2   3
ATOM      3  C   UNL     1     100.653 -67.232  -0.619  1.00  0.00     0.000 C 
BRANCH   3   4
ATOM      4  C   UNL     1     101.530 -67.755  -1.769  1.00  0.00     0.000 C 
BRANCH   4   5
ATOM      5  C   UNL     1     100.695 -68.253  -2.962  1.00  0.00     0.000 C 
BRANCH   5   6
ATOM      6  C   UNL     1      99.943 -67.116  -3.672  1.00  0.00     0.006 C 
BRANCH   6   7
ATOM      7  C   UNL     1      98.678 -67.608  -4.387  1.00  0.00     0.053 C 
BRANCH   7   8
ATOM      8  C   UNL     1      97.452 -67.115  -3.686  1.00  0.00     0.041 C 
ATOM      9  O   UNL     1      97.240 -67.435  -2.487  1.00  0.00    -0.550 OA
ATOM     10  O   UNL     1      96.533 -66.322  -4.362  1.00  0.00    -0.550 OA
ENDBRANCH   7   8
ENDBRANCH   6   7
ENDBRANCH   5   6
ENDBRANCH   4   5
ENDBRANCH   3   4
ENDBRANCH   2   3
ENDBRANCH   1   2
BRANCH   1  11
ATOM     11  C   UNL     1      99.524 -67.994   2.417  1.00  0.00    -0.031 C 
ATOM     12  C   UNL     1      98.977 -67.562   3.563  1.00  0.00    -0.027 C 
BRANCH  12  13
ATOM     13  C   UNL     1      99.644 -67.802   4.888  1.00  0.00     0.054 C 
BRANCH  13  14
ATOM     14  C   UNL     1      99.754 -69.277   5.178  1.00  0.00    -0.027 C 
ATOM     15  C   UNL     1     100.569 -69.810   6.110  1.00  0.00    -0.031 C 
BRANCH  15  16
ATOM     16  C   UNL     1     101.539 -69.016   6.947  1.00  0.00     0.027 C 
BRANCH  16  17
ATOM     17  C   UNL     1     100.932 -68.685   8.318  1.00  0.00     0.004 C 
BRANCH  17  18
ATOM     18  C   UNL     1     100.946 -67.178   8.630  1.00  0.00     0.000 C 
BRANCH  18  19
ATOM     19  C   UNL     1     100.270 -66.789   9.957  1.00  0.00    -0.003 C 
ATOM     20  C   UNL     1     100.251 -67.928  10.974  1.00  0.00     0.004 C 
ENDBRANCH  18  19
ENDBRANCH  17  18
ENDBRANCH  16  17
ENDBRANCH  15  16
ENDBRANCH  13  14
ENDBRANCH  12  13
ENDBRANCH   1  11
TORSDOF 14
ENDMDL
MODEL 7
REMARK VINA RESULT:    -4.099      4.006      9.072
REMARK INTER + INTRA:          -8.969
REMARK INTER:                  -7.450
REMARK INTRA:                  -1.519
REMARK UNBOUND:                -1.516
REMARK SMILES CCCCCC=CCC=CCCCCCCCC(=O)[O-]
REMARK SMILES IDX 11 1 12 2 13 3 14 4 15 5 16 6 17 7 18 8 19 9 20 10 10 11
REMARK SMILES IDX 9 12 8 13 7 14 6 15 5 16 4 17 3 18 2 19 1 20
REMARK H PARENT
REMARK Flexibility Score: inf
ROOT
ATOM      1  C   UNL     1      98.491 -68.661   3.283  1.00  0.00     0.027 C 
ENDROOT
BRANCH   1   2
ATOM      2  C   UNL     1      99.345 -68.239   4.484  1.00  0.00     0.004 C 
BRANCH   2   3
ATOM      3  C   UNL     1      99.852 -69.466   5.258  1.00  0.00     0.000 C 
BRANCH   3   4
ATOM      4  C   UNL     1     101.040 -69.130   6.175  1.00  0.00     0.000 C 
BRANCH   4   5
ATOM      5  C   UNL     1     100.993 -67.679   6.685  1.00  0.00     0.000 C 
BRANCH   5   6
ATOM      6  C   UNL     1     101.465 -67.551   8.143  1.00  0.00     0.006 C 
BRANCH   6   7
ATOM      7  C   UNL     1     101.079 -68.770   8.992  1.00  0.00     0.053 C 
BRANCH   7   8
ATOM      8  C   UNL     1     100.549 -68.337  10.321  1.00  0.00     0.041 C 
ATOM      9  O   UNL     1     100.050 -67.190  10.459  1.00  0.00    -0.550 OA
ATOM     10  O   UNL     1     100.625 -69.192  11.415  1.00  0.00    -0.550 OA
ENDBRANCH   7   8
ENDBRANCH   6   7
ENDBRANCH   5   6
ENDBRANCH   4   5
ENDBRANCH   3   4
ENDBRANCH   2   3
ENDBRANCH   1   2
BRANCH   1  11
ATOM     11  C   UNL     1      98.919 -67.946   2.029  1.00  0.00    -0.031 C 
ATOM     12  C   UNL     1     100.214 -67.773   1.724  1.00  0.00    -0.027 C 
BRANCH  12  13
ATOM     13  C   UNL     1     100.634 -67.061   0.470  1.00  0.00     0.054 C 
BRANCH  13  14
ATOM     14  C   UNL     1     101.656 -67.866  -0.292  1.00  0.00    -0.027 C 
ATOM     15  C   UNL     1     101.815 -67.824  -1.629  1.00  0.00    -0.031 C 
BRANCH  15  16
ATOM     16  C   UNL     1     100.946 -67.021  -2.565  1.00  0.00     0.027 C 
BRANCH  16  17
ATOM     17  C   UNL     1     100.240 -67.939  -3.574  1.00  0.00     0.004 C 
BRANCH  17  18
ATOM     18  C   UNL     1      98.709 -67.784  -3.551  1.00  0.00     0.000 C 
BRANCH  18  19
ATOM     19  C   UNL     1      98.078 -67.826  -2.149  1.00  0.00    -0.003 C 
ATOM     20  C   UNL     1      98.195 -69.195  -1.481  1.00  0.00     0.004 C 
ENDBRANCH  18  19
ENDBRANCH  17  18
ENDBRANCH  16  17
ENDBRANCH  15  16
ENDBRANCH  13  14
ENDBRANCH  12  13
ENDBRANCH   1  11
TORSDOF 14
ENDMDL
MODEL 8
REMARK VINA RESULT:    -4.031      4.227      9.127
REMARK INTER + INTRA:          -8.846
REMARK INTER:                  -7.629
REMARK INTRA:                  -1.218
REMARK UNBOUND:                -1.516
REMARK SMILES CCCCCC=CCC=CCCCCCCCC(=O)[O-]
REMARK SMILES IDX 11 1 12 2 13 3 14 4 15 5 16 6 17 7 18 8 19 9 20 10 10 11
REMARK SMILES IDX 9 12 8 13 7 14 6 15 5 16 4 17 3 18 2 19 1 20
REMARK H PARENT
REMARK Flexibility Score: inf
ROOT
ATOM      1  C   UNL     1      99.944 -69.684   5.398  1.00  0.00     0.027 C 
ENDROOT
BRANCH   1   2
ATOM      2  C   UNL     1     100.828 -69.381   6.613  1.00  0.00     0.004 C 
BRANCH   2   3
ATOM      3  C   UNL     1     101.080 -67.871   6.749  1.00  0.00     0.000 C 
BRANCH   3   4
ATOM      4  C   UNL     1     101.635 -67.492   8.132  1.00  0.00     0.000 C 
BRANCH   4   5
ATOM      5  C   UNL     1     100.684 -66.567   8.911  1.00  0.00     0.000 C 
BRANCH   5   6
ATOM      6  C   UNL     1     100.486 -67.016  10.368  1.00  0.00     0.006 C 
BRANCH   6   7
ATOM      7  C   UNL     1     100.574 -68.540  10.527  1.00  0.00     0.053 C 
BRANCH   7   8
ATOM      8  C   UNL     1     101.378 -68.897  11.736  1.00  0.00     0.041 C 
ATOM      9  O   UNL     1     101.610 -70.105  12.006  1.00  0.00    -0.550 OA
ATOM     10  O   UNL     1     101.852 -67.899  12.578  1.00  0.00    -0.550 OA
ENDBRANCH   7   8
ENDBRANCH   6   7
ENDBRANCH   5   6
ENDBRANCH   4   5
ENDBRANCH   3   4
ENDBRANCH   2   3
ENDBRANCH   1   2
BRANCH   1  11
ATOM     11  C   UNL     1      99.445 -68.417   4.757  1.00  0.00    -0.031 C 
ATOM     12  C   UNL     1      98.499 -68.434   3.805  1.00  0.00    -0.027 C 
BRANCH  12  13
ATOM     13  C   UNL     1      98.002 -67.165   3.173  1.00  0.00     0.054 C 
BRANCH  13  14
ATOM     14  C   UNL     1      99.148 -66.246   2.833  1.00  0.00    -0.027 C 
ATOM     15  C   UNL     1      99.551 -65.963   1.579  1.00  0.00    -0.031 C 
BRANCH  15  16
ATOM     16  C   UNL     1      98.961 -66.580   0.336  1.00  0.00     0.027 C 
BRANCH  16  17
ATOM     17  C   UNL     1      99.648 -67.914   0.011  1.00  0.00     0.004 C 
BRANCH  17  18
ATOM     18  C   UNL     1      98.708 -68.917  -0.681  1.00  0.00     0.000 C 
BRANCH  18  19
ATOM     19  C   UNL     1      98.614 -68.762  -2.209  1.00  0.00    -0.003 C 
ATOM     20  C   UNL     1      99.855 -68.114  -2.821  1.00  0.00     0.004 C 
ENDBRANCH  18  19
ENDBRANCH  17  18
ENDBRANCH  16  17
ENDBRANCH  15  16
ENDBRANCH  13  14
ENDBRANCH  12  13
ENDBRANCH   1  11
TORSDOF 14
ENDMDL
MODEL 9
REMARK VINA RESULT:    -3.974      4.103      9.595
REMARK INTER + INTRA:          -8.743
REMARK INTER:                  -7.553
REMARK INTRA:                  -1.190
REMARK UNBOUND:                -1.516
REMARK SMILES CCCCCC=CCC=CCCCCCCCC(=O)[O-]
REMARK SMILES IDX 11 1 12 2 13 3 14 4 15 5 16 6 17 7 18 8 19 9 20 10 10 11
REMARK SMILES IDX 9 12 8 13 7 14 6 15 5 16 4 17 3 18 2 19 1 20
REMARK H PARENT
REMARK Flexibility Score: inf
ROOT
ATOM      1  C   UNL     1      98.453 -68.199   3.635  1.00  0.00     0.027 C 
ENDROOT
BRANCH   1   2
ATOM      2  C   UNL     1      99.766 -68.151   4.425  1.00  0.00     0.004 C 
BRANCH   2   3
ATOM      3  C   UNL     1      99.877 -69.348   5.383  1.00  0.00     0.000 C 
BRANCH   3   4
ATOM      4  C   UNL     1     101.209 -69.361   6.152  1.00  0.00     0.000 C 
BRANCH   4   5
ATOM      5  C   UNL     1     101.612 -67.961   6.647  1.00  0.00     0.000 C 
BRANCH   5   6
ATOM      6  C   UNL     1     100.973 -67.606   7.999  1.00  0.00     0.006 C 
BRANCH   6   7
ATOM      7  C   UNL     1     100.927 -68.805   8.957  1.00  0.00     0.053 C 
BRANCH   7   8
ATOM      8  C   UNL     1     100.541 -68.364  10.333  1.00  0.00     0.041 C 
ATOM      9  O   UNL     1     100.095 -67.202  10.521  1.00  0.00    -0.550 OA
ATOM     10  O   UNL     1     100.694 -69.228  11.411  1.00  0.00    -0.550 OA
ENDBRANCH   7   8
ENDBRANCH   6   7
ENDBRANCH   5   6
ENDBRANCH   4   5
ENDBRANCH   3   4
ENDBRANCH   2   3
ENDBRANCH   1   2
BRANCH   1  11
ATOM     11  C   UNL     1      98.651 -67.733   2.218  1.00  0.00    -0.031 C 
ATOM     12  C   UNL     1      99.260 -68.501   1.302  1.00  0.00    -0.027 C 
BRANCH  12  13
ATOM     13  C   UNL     1      99.450 -68.031  -0.113  1.00  0.00     0.054 C 
BRANCH  13  14
ATOM     14  C   UNL     1      98.678 -68.894  -1.078  1.00  0.00    -0.027 C 
ATOM     15  C   UNL     1      98.039 -68.430  -2.169  1.00  0.00    -0.031 C 
BRANCH  15  16
ATOM     16  C   UNL     1      97.942 -66.973  -2.544  1.00  0.00     0.027 C 
BRANCH  16  17
ATOM     17  C   UNL     1      98.439 -66.745  -3.979  1.00  0.00     0.004 C 
BRANCH  17  18
ATOM     18  C   UNL     1      99.265 -67.926  -4.520  1.00  0.00     0.000 C 
BRANCH  18  19
ATOM     19  C   UNL     1     100.776 -67.656  -4.633  1.00  0.00    -0.003 C 
ATOM     20  C   UNL     1     101.539 -67.984  -3.351  1.00  0.00     0.004 C 
ENDBRANCH  18  19
ENDBRANCH  17  18
ENDBRANCH  16  17
ENDBRANCH  15  16
ENDBRANCH  13  14
ENDBRANCH  12  13
ENDBRANCH   1  11
TORSDOF 14
ENDMDL
