MODEL 1
REMARK VINA RESULT:    -4.091      0.000      0.000
REMARK INTER + INTRA:          -4.866
REMARK INTER:                  -4.809
REMARK INTRA:                  -0.058
REMARK UNBOUND:                -0.058
REMARK SMILES CCCCC(=O)[O-]
REMARK SMILES IDX 4 1 5 2 6 3 7 4 3 5 2 6 1 7
REMARK H PARENT
REMARK Flexibility Score: inf
ROOT
ATOM      1  C   UNL     1      -8.580  -8.398  -1.377  1.00  0.00     0.053 C 
ENDROOT
BRANCH   1   2
ATOM      2  C   UNL     1      -7.303  -8.433  -2.161  1.00  0.00     0.041 C 
ATOM      3  O   UNL     1      -6.221  -8.740  -1.593  1.00  0.00    -0.550 OA
ATOM      4  O   UNL     1      -7.303  -8.096  -3.508  1.00  0.00    -0.550 OA
ENDBRANCH   1   2
BRANCH   1   5
ATOM      5  C   UNL     1      -9.703  -7.694  -2.149  1.00  0.00     0.006 C 
BRANCH   5   6
ATOM      6  C   UNL     1     -11.065  -8.370  -1.940  1.00  0.00    -0.003 C 
ATOM      7  C   UNL     1     -11.087  -9.767  -2.555  1.00  0.00     0.004 C 
ENDBRANCH   5   6
ENDBRANCH   1   5
TORSDOF 3
ENDMDL
MODEL 2
REMARK VINA RESULT:    -3.681     21.076     22.195
REMARK INTER + INTRA:          -4.384
REMARK INTER:                  -4.355
REMARK INTRA:                  -0.030
REMARK UNBOUND:                -0.058
REMARK SMILES CCCCC(=O)[O-]
REMARK SMILES IDX 4 1 5 2 6 3 7 4 3 5 2 6 1 7
REMARK H PARENT
REMARK Flexibility Score: inf
ROOT
ATOM      1  C   UNL     1       4.614   6.777 -10.261  1.00  0.00     0.053 C 
ENDROOT
BRANCH   1   2
ATOM      2  C   UNL     1       4.448   6.943 -11.741  1.00  0.00     0.041 C 
ATOM      3  O   UNL     1       3.831   6.072 -12.410  1.00  0.00    -0.550 OA
ATOM      4  O   UNL     1       5.003   8.041 -12.386  1.00  0.00    -0.550 OA
ENDBRANCH   1   2
BRANCH   1   5
ATOM      5  C   UNL     1       4.580   8.125  -9.529  1.00  0.00     0.006 C 
BRANCH   5   6
ATOM      6  C   UNL     1       3.964   8.010  -8.127  1.00  0.00    -0.003 C 
ATOM      7  C   UNL     1       4.256   6.645  -7.509  1.00  0.00     0.004 C 
ENDBRANCH   5   6
ENDBRANCH   1   5
TORSDOF 3
ENDMDL
MODEL 3
REMARK VINA RESULT:    -3.680      2.366      3.854
REMARK INTER + INTRA:          -4.383
REMARK INTER:                  -4.367
REMARK INTRA:                  -0.016
REMARK UNBOUND:                -0.058
REMARK SMILES CCCCC(=O)[O-]
REMARK SMILES IDX 4 1 5 2 6 3 7 4 3 5 2 6 1 7
REMARK H PARENT
REMARK Flexibility Score: inf
ROOT
ATOM      1  C   UNL     1      -9.094  -8.362  -1.006  1.00  0.00     0.053 C 
ENDROOT
BRANCH   1   2
ATOM      2  C   UNL     1     -10.226  -8.151  -1.965  1.00  0.00     0.041 C 
ATOM      3  O   UNL     1     -11.015  -9.097  -2.230  1.00  0.00    -0.550 OA
ATOM      4  O   UNL     1     -10.390  -6.922  -2.590  1.00  0.00    -0.550 OA
ENDBRANCH   1   2
BRANCH   1   5
ATOM      5  C   UNL     1      -7.740  -8.415  -1.725  1.00  0.00     0.006 C 
BRANCH   5   6
ATOM      6  C   UNL     1      -6.563  -8.509  -0.744  1.00  0.00    -0.003 C 
ATOM      7  C   UNL     1      -5.462  -9.413  -1.291  1.00  0.00     0.004 C 
ENDBRANCH   5   6
ENDBRANCH   1   5
TORSDOF 3
ENDMDL
MODEL 4
REMARK VINA RESULT:    -3.615     21.188     21.898
REMARK INTER + INTRA:          -4.306
REMARK INTER:                  -4.287
REMARK INTRA:                  -0.020
REMARK UNBOUND:                -0.058
REMARK SMILES CCCCC(=O)[O-]
REMARK SMILES IDX 4 1 5 2 6 3 7 4 3 5 2 6 1 7
REMARK H PARENT
REMARK Flexibility Score: inf
ROOT
ATOM      1  C   UNL     1       4.295   8.070  -9.173  1.00  0.00     0.053 C 
ENDROOT
BRANCH   1   2
ATOM      2  C   UNL     1       4.145   7.454  -7.814  1.00  0.00     0.041 C 
ATOM      3  O   UNL     1       4.625   6.313  -7.581  1.00  0.00    -0.550 OA
ATOM      4  O   UNL     1       3.448   8.125  -6.819  1.00  0.00    -0.550 OA
ENDBRANCH   1   2
BRANCH   1   5
ATOM      5  C   UNL     1       4.631   7.020 -10.240  1.00  0.00     0.006 C 
BRANCH   5   6
ATOM      6  C   UNL     1       4.552   7.592 -11.663  1.00  0.00    -0.003 C 
ATOM      7  C   UNL     1       3.873   6.610 -12.613  1.00  0.00     0.004 C 
ENDBRANCH   5   6
ENDBRANCH   1   5
TORSDOF 3
ENDMDL
MODEL 5
REMARK VINA RESULT:    -3.577      1.183      2.088
REMARK INTER + INTRA:          -4.263
REMARK INTER:                  -4.195
REMARK INTRA:                  -0.068
REMARK UNBOUND:                -0.058
REMARK SMILES CCCCC(=O)[O-]
REMARK SMILES IDX 4 1 5 2 6 3 7 4 3 5 2 6 1 7
REMARK H PARENT
REMARK Flexibility Score: inf
ROOT
ATOM      1  C   UNL     1      -8.996  -8.732  -2.340  1.00  0.00     0.053 C 
ENDROOT
BRANCH   1   2
ATOM      2  C   UNL     1      -7.600  -8.234  -2.563  1.00  0.00     0.041 C 
ATOM      3  O   UNL     1      -7.332  -7.539  -3.579  1.00  0.00    -0.550 OA
ATOM      4  O   UNL     1      -6.591  -8.565  -1.669  1.00  0.00    -0.550 OA
ENDBRANCH   1   2
BRANCH   1   5
ATOM      5  C   UNL     1      -9.872  -7.680  -1.649  1.00  0.00     0.006 C 
BRANCH   5   6
ATOM      6  C   UNL     1     -11.043  -7.227  -2.533  1.00  0.00    -0.003 C 
ATOM      7  C   UNL     1     -10.949  -5.737  -2.849  1.00  0.00     0.004 C 
ENDBRANCH   5   6
ENDBRANCH   1   5
TORSDOF 3
ENDMDL
MODEL 6
REMARK VINA RESULT:    -3.116     18.080     18.500
REMARK INTER + INTRA:          -3.720
REMARK INTER:                  -3.690
REMARK INTRA:                  -0.029
REMARK UNBOUND:                -0.058
REMARK SMILES CCCCC(=O)[O-]
REMARK SMILES IDX 4 1 5 2 6 3 7 4 3 5 2 6 1 7
REMARK H PARENT
REMARK Flexibility Score: inf
ROOT
ATOM      1  C   UNL     1       5.545  -2.974 -12.624  1.00  0.00     0.053 C 
ENDROOT
BRANCH   1   2
ATOM      2  C   UNL     1       6.368  -3.984 -11.882  1.00  0.00     0.041 C 
ATOM      3  O   UNL     1       6.881  -4.956 -12.497  1.00  0.00    -0.550 OA
ATOM      4  O   UNL     1       6.540  -3.869 -10.509  1.00  0.00    -0.550 OA
ENDBRANCH   1   2
BRANCH   1   5
ATOM      5  C   UNL     1       4.669  -3.632 -13.697  1.00  0.00     0.006 C 
BRANCH   5   6
ATOM      6  C   UNL     1       3.499  -2.733 -14.124  1.00  0.00    -0.003 C 
ATOM      7  C   UNL     1       3.866  -1.256 -13.997  1.00  0.00     0.004 C 
ENDBRANCH   5   6
ENDBRANCH   1   5
TORSDOF 3
ENDMDL
MODEL 7
REMARK VINA RESULT:    -3.057     18.491     18.882
REMARK INTER + INTRA:          -3.651
REMARK INTER:                  -3.559
REMARK INTRA:                  -0.093
REMARK UNBOUND:                -0.058
REMARK SMILES CCCCC(=O)[O-]
REMARK SMILES IDX 4 1 5 2 6 3 7 4 3 5 2 6 1 7
REMARK H PARENT
REMARK Flexibility Score: inf
ROOT
ATOM      1  C   UNL     1       6.212  -3.383 -13.375  1.00  0.00     0.053 C 
ENDROOT
BRANCH   1   2
ATOM      2  C   UNL     1       5.990  -3.038 -11.933  1.00  0.00     0.041 C 
ATOM      3  O   UNL     1       5.363  -1.990 -11.623  1.00  0.00    -0.550 OA
ATOM      4  O   UNL     1       6.503  -3.855 -10.934  1.00  0.00    -0.550 OA
ENDBRANCH   1   2
BRANCH   1   5
ATOM      5  C   UNL     1       5.026  -4.156 -13.965  1.00  0.00     0.006 C 
BRANCH   5   6
ATOM      6  C   UNL     1       5.327  -5.653 -14.120  1.00  0.00    -0.003 C 
ATOM      7  C   UNL     1       6.830  -5.919 -14.091  1.00  0.00     0.004 C 
ENDBRANCH   5   6
ENDBRANCH   1   5
TORSDOF 3
ENDMDL
MODEL 8
REMARK VINA RESULT:    -2.905     16.971     18.010
REMARK INTER + INTRA:          -3.473
REMARK INTER:                  -3.422
REMARK INTRA:                  -0.051
REMARK UNBOUND:                -0.058
REMARK SMILES CCCCC(=O)[O-]
REMARK SMILES IDX 4 1 5 2 6 3 7 4 3 5 2 6 1 7
REMARK H PARENT
REMARK Flexibility Score: inf
ROOT
ATOM      1  C   UNL     1       1.857   3.776   5.078  1.00  0.00     0.053 C 
ENDROOT
BRANCH   1   2
ATOM      2  C   UNL     1       3.114   4.351   5.656  1.00  0.00     0.041 C 
ATOM      3  O   UNL     1       4.151   3.641   5.748  1.00  0.00    -0.550 OA
ATOM      4  O   UNL     1       3.131   5.658   6.123  1.00  0.00    -0.550 OA
ENDBRANCH   1   2
BRANCH   1   5
ATOM      5  C   UNL     1       1.706   2.286   5.411  1.00  0.00     0.006 C 
BRANCH   5   6
ATOM      6  C   UNL     1       0.259   1.911   5.758  1.00  0.00    -0.003 C 
ATOM      7  C   UNL     1      -0.557   3.148   6.125  1.00  0.00     0.004 C 
ENDBRANCH   5   6
ENDBRANCH   1   5
TORSDOF 3
ENDMDL
MODEL 9
REMARK VINA RESULT:    -2.774     16.452     17.720
REMARK INTER + INTRA:          -3.318
REMARK INTER:                  -3.294
REMARK INTRA:                  -0.024
REMARK UNBOUND:                -0.058
REMARK SMILES CCCCC(=O)[O-]
REMARK SMILES IDX 4 1 5 2 6 3 7 4 3 5 2 6 1 7
REMARK H PARENT
REMARK Flexibility Score: inf
ROOT
ATOM      1  C   UNL     1       1.392   3.078   6.125  1.00  0.00     0.053 C 
ENDROOT
BRANCH   1   2
ATOM      2  C   UNL     1      -0.056   2.788   5.868  1.00  0.00     0.041 C 
ATOM      3  O   UNL     1      -0.402   1.674   5.391  1.00  0.00    -0.550 OA
ATOM      4  O   UNL     1      -1.017   3.756   6.123  1.00  0.00    -0.550 OA
ENDBRANCH   1   2
BRANCH   1   5
ATOM      5  C   UNL     1       1.990   3.989   5.046  1.00  0.00     0.006 C 
BRANCH   5   6
ATOM      6  C   UNL     1       3.499   4.203   5.237  1.00  0.00    -0.003 C 
ATOM      7  C   UNL     1       4.230   2.870   5.374  1.00  0.00     0.004 C 
ENDBRANCH   5   6
ENDBRANCH   1   5
TORSDOF 3
ENDMDL
