MODEL 1
REMARK VINA RESULT:    -5.219      0.000      0.000
REMARK INTER + INTRA:          -6.598
REMARK INTER:                  -6.287
REMARK INTRA:                  -0.311
REMARK UNBOUND:                -0.311
REMARK SMILES O=c1c(O)c(-c2ccc(O)c(O)c2)oc2cc(O)cc(O)c12
REMARK SMILES IDX 5 1 3 2 2 3 1 4 22 5 20 6 19 7 17 8 16 9 15 10 14 11 6 12
REMARK SMILES IDX 7 13 8 14 9 15 13 16 11 17 10 18 12 20 4 22 21 24 18 26
REMARK H PARENT 10 19 12 21 4 23 21 25 18 27
REMARK Flexibility Score: inf
ROOT
ATOM      1  C   UNL     1       1.387 -15.597  10.172  1.00  0.00     0.180 A 
ATOM      2  C   UNL     1       1.795 -16.241  11.356  1.00  0.00     0.208 A 
ATOM      3  C   UNL     1       1.720 -17.641  11.426  1.00  0.00     0.238 A 
ATOM      4  O   UNL     1       2.072 -18.229  12.484  1.00  0.00    -0.285 OA
ATOM      5  C   UNL     1       1.261 -18.372  10.310  1.00  0.00     0.111 A 
ATOM      6  C   UNL     1       1.159 -19.783  10.299  1.00  0.00     0.134 A 
ATOM      7  C   UNL     1       0.700 -20.438   9.146  1.00  0.00     0.093 A 
ATOM      8  C   UNL     1       0.343 -19.711   8.008  1.00  0.00     0.123 A 
ATOM      9  C   UNL     1       0.441 -18.316   8.014  1.00  0.00     0.094 A 
ATOM     10  C   UNL     1       0.895 -17.644   9.153  1.00  0.00     0.146 A 
ATOM     11  O   UNL     1       0.973 -16.319   9.134  1.00  0.00    -0.452 OA
ENDROOT
BRANCH   1  12
ATOM     12  C   UNL     1       1.418 -14.123  10.027  1.00  0.00     0.025 A 
ATOM     13  C   UNL     1       0.358 -13.357  10.539  1.00  0.00     0.016 A 
ATOM     14  C   UNL     1       0.376 -11.964  10.431  1.00  0.00     0.051 A 
ATOM     15  C   UNL     1       1.460 -11.317   9.825  1.00  0.00     0.157 A 
ATOM     16  C   UNL     1       2.513 -13.468   9.438  1.00  0.00     0.062 A 
ATOM     17  C   UNL     1       2.533 -12.069   9.332  1.00  0.00     0.158 A 
BRANCH  15  18
ATOM     18  O   UNL     1       1.481  -9.927   9.715  1.00  0.00    -0.504 OA
ATOM     19  H   UNL     1       1.316  -9.463   8.829  1.00  0.00     0.293 HD
ENDBRANCH  15  18
BRANCH  17  20
ATOM     20  O   UNL     1       3.616 -11.422   8.742  1.00  0.00    -0.504 OA
ATOM     21  H   UNL     1       4.529 -11.407   9.182  1.00  0.00     0.293 HD
ENDBRANCH  17  20
ENDBRANCH   1  12
BRANCH   2  22
ATOM     22  O   UNL     1       2.293 -15.497  12.428  1.00  0.00    -0.502 OA
ATOM     23  H   UNL     1       1.766 -14.747  12.860  1.00  0.00     0.293 HD
ENDBRANCH   2  22
BRANCH   6  24
ATOM     24  O   UNL     1       1.509 -20.539  11.419  1.00  0.00    -0.507 OA
ATOM     25  H   UNL     1       0.903 -21.265  11.783  1.00  0.00     0.293 HD
ENDBRANCH   6  24
BRANCH   8  26
ATOM     26  O   UNL     1      -0.108 -20.385   6.875  1.00  0.00    -0.508 OA
ATOM     27  H   UNL     1       0.535 -20.822   6.227  1.00  0.00     0.293 HD
ENDBRANCH   8  26
TORSDOF 6
ENDMDL
MODEL 2
REMARK VINA RESULT:    -4.209      1.535      3.014
REMARK INTER + INTRA:          -5.381
REMARK INTER:                  -5.091
REMARK INTRA:                  -0.290
REMARK UNBOUND:                -0.311
REMARK SMILES O=c1c(O)c(-c2ccc(O)c(O)c2)oc2cc(O)cc(O)c12
REMARK SMILES IDX 5 1 3 2 2 3 1 4 22 5 20 6 19 7 17 8 16 9 15 10 14 11 6 12
REMARK SMILES IDX 7 13 8 14 9 15 13 16 11 17 10 18 12 20 4 22 21 24 18 26
REMARK H PARENT 10 19 12 21 4 23 21 25 18 27
REMARK Flexibility Score: inf
ROOT
ATOM      1  C   UNL     1       1.358 -16.209   9.235  1.00  0.00     0.180 A 
ATOM      2  C   UNL     1       0.694 -16.781   8.133  1.00  0.00     0.208 A 
ATOM      3  C   UNL     1       0.845 -18.155   7.890  1.00  0.00     0.238 A 
ATOM      4  O   UNL     1       0.264 -18.677   6.900  1.00  0.00    -0.285 OA
ATOM      5  C   UNL     1       1.637 -18.935   8.759  1.00  0.00     0.111 A 
ATOM      6  C   UNL     1       1.837 -20.325   8.584  1.00  0.00     0.134 A 
ATOM      7  C   UNL     1       2.632 -21.032   9.498  1.00  0.00     0.093 A 
ATOM      8  C   UNL     1       3.229 -20.379  10.579  1.00  0.00     0.123 A 
ATOM      9  C   UNL     1       3.036 -19.005  10.755  1.00  0.00     0.094 A 
ATOM     10  C   UNL     1       2.248 -18.282   9.855  1.00  0.00     0.146 A 
ATOM     11  O   UNL     1       2.085 -16.978  10.042  1.00  0.00    -0.452 OA
ENDROOT
BRANCH   1  12
ATOM     12  C   UNL     1       1.264 -14.764   9.548  1.00  0.00     0.025 A 
ATOM     13  C   UNL     1       0.132 -14.275  10.218  1.00  0.00     0.016 A 
ATOM     14  C   UNL     1       0.031 -12.919  10.541  1.00  0.00     0.051 A 
ATOM     15  C   UNL     1       1.068 -12.036  10.211  1.00  0.00     0.157 A 
ATOM     16  C   UNL     1       2.311 -13.878   9.237  1.00  0.00     0.062 A 
ATOM     17  C   UNL     1       2.211 -12.517   9.563  1.00  0.00     0.158 A 
BRANCH  15  18
ATOM     18  O   UNL     1       0.971 -10.683  10.530  1.00  0.00    -0.504 OA
ATOM     19  H   UNL     1       1.205  -9.962   9.858  1.00  0.00     0.293 HD
ENDBRANCH  15  18
BRANCH  17  20
ATOM     20  O   UNL     1       3.247 -11.639   9.249  1.00  0.00    -0.504 OA
ATOM     21  H   UNL     1       3.844 -11.245   9.966  1.00  0.00     0.293 HD
ENDBRANCH  17  20
ENDBRANCH   1  12
BRANCH   2  22
ATOM     22  O   UNL     1      -0.124 -15.996   7.318  1.00  0.00    -0.502 OA
ATOM     23  H   UNL     1      -1.133 -15.977   7.419  1.00  0.00     0.293 HD
ENDBRANCH   2  22
BRANCH   6  24
ATOM     24  O   UNL     1       1.253 -21.007   7.516  1.00  0.00    -0.507 OA
ATOM     25  H   UNL     1       0.745 -21.873   7.650  1.00  0.00     0.293 HD
ENDBRANCH   6  24
BRANCH   8  26
ATOM     26  O   UNL     1       4.014 -21.105  11.472  1.00  0.00    -0.508 OA
ATOM     27  H   UNL     1       3.980 -22.117  11.507  1.00  0.00     0.293 HD
ENDBRANCH   8  26
TORSDOF 6
ENDMDL
MODEL 3
REMARK VINA RESULT:    -4.039      1.849      6.659
REMARK INTER + INTRA:          -5.176
REMARK INTER:                  -5.040
REMARK INTRA:                  -0.136
REMARK UNBOUND:                -0.311
REMARK SMILES O=c1c(O)c(-c2ccc(O)c(O)c2)oc2cc(O)cc(O)c12
REMARK SMILES IDX 5 1 3 2 2 3 1 4 22 5 20 6 19 7 17 8 16 9 15 10 14 11 6 12
REMARK SMILES IDX 7 13 8 14 9 15 13 16 11 17 10 18 12 20 4 22 21 24 18 26
REMARK H PARENT 10 19 12 21 4 23 21 25 18 27
REMARK Flexibility Score: inf
ROOT
ATOM      1  C   UNL     1       0.618 -15.784   9.935  1.00  0.00     0.180 A 
ATOM      2  C   UNL     1       0.503 -15.580  11.323  1.00  0.00     0.208 A 
ATOM      3  C   UNL     1       0.299 -14.276  11.802  1.00  0.00     0.238 A 
ATOM      4  O   UNL     1       0.205 -14.079  13.044  1.00  0.00    -0.285 OA
ATOM      5  C   UNL     1       0.193 -13.206  10.889  1.00  0.00     0.111 A 
ATOM      6  C   UNL     1      -0.016 -11.865  11.289  1.00  0.00     0.134 A 
ATOM      7  C   UNL     1      -0.119 -10.858  10.318  1.00  0.00     0.093 A 
ATOM      8  C   UNL     1      -0.018 -11.164   8.960  1.00  0.00     0.123 A 
ATOM      9  C   UNL     1       0.189 -12.488   8.558  1.00  0.00     0.094 A 
ATOM     10  C   UNL     1       0.296 -13.506   9.510  1.00  0.00     0.146 A 
ATOM     11  O   UNL     1       0.498 -14.753   9.102  1.00  0.00    -0.452 OA
ENDROOT
BRANCH   1  12
ATOM     12  C   UNL     1       0.854 -17.126   9.354  1.00  0.00     0.025 A 
ATOM     13  C   UNL     1      -0.050 -17.637   8.409  1.00  0.00     0.016 A 
ATOM     14  C   UNL     1       0.163 -18.892   7.832  1.00  0.00     0.051 A 
ATOM     15  C   UNL     1       1.290 -19.646   8.181  1.00  0.00     0.157 A 
ATOM     16  C   UNL     1       1.995 -17.878   9.685  1.00  0.00     0.062 A 
ATOM     17  C   UNL     1       2.210 -19.137   9.105  1.00  0.00     0.158 A 
BRANCH  15  18
ATOM     18  O   UNL     1       1.506 -20.900   7.609  1.00  0.00    -0.504 OA
ATOM     19  H   UNL     1       1.445 -21.750   8.157  1.00  0.00     0.293 HD
ENDBRANCH  15  18
BRANCH  17  20
ATOM     20  O   UNL     1       3.338 -19.884   9.439  1.00  0.00    -0.504 OA
ATOM     21  H   UNL     1       4.047 -19.521  10.067  1.00  0.00     0.293 HD
ENDBRANCH  17  20
ENDBRANCH   1  12
BRANCH   2  22
ATOM     22  O   UNL     1       0.562 -16.663  12.203  1.00  0.00    -0.502 OA
ATOM     23  H   UNL     1       0.681 -16.545  13.202  1.00  0.00     0.293 HD
ENDBRANCH   2  22
BRANCH   6  24
ATOM     24  O   UNL     1      -0.123 -11.526  12.639  1.00  0.00    -0.507 OA
ATOM     25  H   UNL     1      -0.658 -10.722  12.946  1.00  0.00     0.293 HD
ENDBRANCH   6  24
BRANCH   8  26
ATOM     26  O   UNL     1      -0.125 -10.145   8.015  1.00  0.00    -0.508 OA
ATOM     27  H   UNL     1       0.339  -9.254   8.142  1.00  0.00     0.293 HD
ENDBRANCH   8  26
TORSDOF 6
ENDMDL
MODEL 4
REMARK VINA RESULT:    -3.939      2.137      7.173
REMARK INTER + INTRA:          -5.056
REMARK INTER:                  -5.522
REMARK INTRA:                   0.465
REMARK UNBOUND:                -0.311
REMARK SMILES O=c1c(O)c(-c2ccc(O)c(O)c2)oc2cc(O)cc(O)c12
REMARK SMILES IDX 5 1 3 2 2 3 1 4 22 5 20 6 19 7 17 8 16 9 15 10 14 11 6 12
REMARK SMILES IDX 7 13 8 14 9 15 13 16 11 17 10 18 12 20 4 22 21 24 18 26
REMARK H PARENT 10 19 12 21 4 23 21 25 18 27
REMARK Flexibility Score: inf
ROOT
ATOM      1  C   UNL     1       1.316 -15.633  10.820  1.00  0.00     0.180 A 
ATOM      2  C   UNL     1       1.163 -14.846   9.663  1.00  0.00     0.208 A 
ATOM      3  C   UNL     1       0.744 -13.513   9.800  1.00  0.00     0.238 A 
ATOM      4  O   UNL     1       0.593 -12.802   8.770  1.00  0.00    -0.285 OA
ATOM      5  C   UNL     1       0.508 -12.985  11.086  1.00  0.00     0.111 A 
ATOM      6  C   UNL     1       0.088 -11.652  11.309  1.00  0.00     0.134 A 
ATOM      7  C   UNL     1      -0.118 -11.199  12.621  1.00  0.00     0.093 A 
ATOM      8  C   UNL     1       0.087 -12.049  13.710  1.00  0.00     0.123 A 
ATOM      9  C   UNL     1       0.501 -13.368  13.494  1.00  0.00     0.094 A 
ATOM     10  C   UNL     1       0.711 -13.839  12.195  1.00  0.00     0.146 A 
ATOM     11  O   UNL     1       1.099 -15.096  12.018  1.00  0.00    -0.452 OA
ENDROOT
BRANCH   1  12
ATOM     12  C   UNL     1       1.735 -17.051  10.758  1.00  0.00     0.025 A 
ATOM     13  C   UNL     1       1.702 -17.833  11.923  1.00  0.00     0.016 A 
ATOM     14  C   UNL     1       2.074 -19.180  11.883  1.00  0.00     0.051 A 
ATOM     15  C   UNL     1       2.469 -19.767  10.674  1.00  0.00     0.157 A 
ATOM     16  C   UNL     1       2.113 -17.651   9.543  1.00  0.00     0.062 A 
ATOM     17  C   UNL     1       2.484 -19.003   9.502  1.00  0.00     0.158 A 
BRANCH  15  18
ATOM     18  O   UNL     1       2.842 -21.110  10.630  1.00  0.00    -0.504 OA
ATOM     19  H   UNL     1       2.631 -21.692   9.828  1.00  0.00     0.293 HD
ENDBRANCH  15  18
BRANCH  17  20
ATOM     20  O   UNL     1       2.865 -19.593   8.298  1.00  0.00    -0.504 OA
ATOM     21  H   UNL     1       2.185 -20.016   7.677  1.00  0.00     0.293 HD
ENDBRANCH  17  20
ENDBRANCH   1  12
BRANCH   2  22
ATOM     22  O   UNL     1       1.452 -15.378   8.404  1.00  0.00    -0.502 OA
ATOM     23  H   UNL     1       2.379 -15.704   8.153  1.00  0.00     0.293 HD
ENDBRANCH   2  22
BRANCH   6  24
ATOM     24  O   UNL     1      -0.125 -10.776  10.244  1.00  0.00    -0.507 OA
ATOM     25  H   UNL     1      -1.057 -10.502   9.956  1.00  0.00     0.293 HD
ENDBRANCH   6  24
BRANCH   8  26
ATOM     26  O   UNL     1      -0.124 -11.574  15.002  1.00  0.00    -0.508 OA
ATOM     27  H   UNL     1       0.494 -11.822  15.765  1.00  0.00     0.293 HD
ENDBRANCH   8  26
TORSDOF 6
ENDMDL
MODEL 5
REMARK VINA RESULT:    -3.424      2.370      3.634
REMARK INTER + INTRA:          -4.436
REMARK INTER:                  -4.525
REMARK INTRA:                   0.090
REMARK UNBOUND:                -0.311
REMARK SMILES O=c1c(O)c(-c2ccc(O)c(O)c2)oc2cc(O)cc(O)c12
REMARK SMILES IDX 5 1 3 2 2 3 1 4 22 5 20 6 19 7 17 8 16 9 15 10 14 11 6 12
REMARK SMILES IDX 7 13 8 14 9 15 13 16 11 17 10 18 12 20 4 22 21 24 18 26
REMARK H PARENT 10 19 12 21 4 23 21 25 18 27
REMARK Flexibility Score: inf
ROOT
ATOM      1  C   UNL     1       1.249 -15.522  11.045  1.00  0.00     0.180 A 
ATOM      2  C   UNL     1       0.588 -15.279   9.826  1.00  0.00     0.208 A 
ATOM      3  C   UNL     1       0.588 -16.280   8.843  1.00  0.00     0.238 A 
ATOM      4  O   UNL     1       0.009 -16.070   7.743  1.00  0.00    -0.285 OA
ATOM      5  C   UNL     1       1.228 -17.510   9.100  1.00  0.00     0.111 A 
ATOM      6  C   UNL     1       1.271 -18.571   8.164  1.00  0.00     0.134 A 
ATOM      7  C   UNL     1       1.921 -19.768   8.500  1.00  0.00     0.093 A 
ATOM      8  C   UNL     1       2.527 -19.925   9.748  1.00  0.00     0.123 A 
ATOM      9  C   UNL     1       2.488 -18.880  10.677  1.00  0.00     0.094 A 
ATOM     10  C   UNL     1       1.847 -17.678  10.362  1.00  0.00     0.146 A 
ATOM     11  O   UNL     1       1.829 -16.700  11.259  1.00  0.00    -0.452 OA
ENDROOT
BRANCH   1  12
ATOM     12  C   UNL     1       1.309 -14.509  12.124  1.00  0.00     0.025 A 
ATOM     13  C   UNL     1       0.138 -13.835  12.504  1.00  0.00     0.016 A 
ATOM     14  C   UNL     1       0.168 -12.890  13.533  1.00  0.00     0.051 A 
ATOM     15  C   UNL     1       1.365 -12.617  14.206  1.00  0.00     0.157 A 
ATOM     16  C   UNL     1       2.505 -14.246  12.816  1.00  0.00     0.062 A 
ATOM     17  C   UNL     1       2.535 -13.299  13.850  1.00  0.00     0.158 A 
BRANCH  15  18
ATOM     18  O   UNL     1       1.400 -11.674  15.232  1.00  0.00    -0.504 OA
ATOM     19  H   UNL     1       1.578 -10.694  15.045  1.00  0.00     0.293 HD
ENDBRANCH  15  18
BRANCH  17  20
ATOM     20  O   UNL     1       3.722 -13.035  14.530  1.00  0.00    -0.504 OA
ATOM     21  H   UNL     1       4.611 -12.987  14.046  1.00  0.00     0.293 HD
ENDBRANCH  17  20
ENDBRANCH   1  12
BRANCH   2  22
ATOM     22  O   UNL     1      -0.082 -14.071   9.616  1.00  0.00    -0.502 OA
ATOM     23  H   UNL     1      -0.045 -13.577   8.732  1.00  0.00     0.293 HD
ENDBRANCH   2  22
BRANCH   6  24
ATOM     24  O   UNL     1       0.675 -18.447   6.909  1.00  0.00    -0.507 OA
ATOM     25  H   UNL     1      -0.079 -17.793   6.739  1.00  0.00     0.293 HD
ENDBRANCH   6  24
BRANCH   8  26
ATOM     26  O   UNL     1       3.165 -21.124  10.057  1.00  0.00    -0.508 OA
ATOM     27  H   UNL     1       2.653 -21.920  10.418  1.00  0.00     0.293 HD
ENDBRANCH   8  26
TORSDOF 6
ENDMDL
MODEL 6
REMARK VINA RESULT:    -3.225      1.811      3.252
REMARK INTER + INTRA:          -4.197
REMARK INTER:                  -4.581
REMARK INTRA:                   0.384
REMARK UNBOUND:                -0.311
REMARK SMILES O=c1c(O)c(-c2ccc(O)c(O)c2)oc2cc(O)cc(O)c12
REMARK SMILES IDX 5 1 3 2 2 3 1 4 22 5 20 6 19 7 17 8 16 9 15 10 14 11 6 12
REMARK SMILES IDX 7 13 8 14 9 15 13 16 11 17 10 18 12 20 4 22 21 24 18 26
REMARK H PARENT 10 19 12 21 4 23 21 25 18 27
REMARK Flexibility Score: inf
ROOT
ATOM      1  C   UNL     1       0.629 -14.773   9.853  1.00  0.00     0.180 A 
ATOM      2  C   UNL     1       0.386 -15.494   8.668  1.00  0.00     0.208 A 
ATOM      3  C   UNL     1       0.632 -16.876   8.653  1.00  0.00     0.238 A 
ATOM      4  O   UNL     1       0.427 -17.531   7.595  1.00  0.00    -0.285 OA
ATOM      5  C   UNL     1       1.095 -17.515   9.822  1.00  0.00     0.111 A 
ATOM      6  C   UNL     1       1.364 -18.903   9.891  1.00  0.00     0.134 A 
ATOM      7  C   UNL     1       1.815 -19.465  11.095  1.00  0.00     0.093 A 
ATOM      8  C   UNL     1       2.002 -18.669  12.227  1.00  0.00     0.123 A 
ATOM      9  C   UNL     1       1.739 -17.297  12.164  1.00  0.00     0.094 A 
ATOM     10  C   UNL     1       1.290 -16.717  10.974  1.00  0.00     0.146 A 
ATOM     11  O   UNL     1       1.052 -15.411  10.941  1.00  0.00    -0.452 OA
ENDROOT
BRANCH   1  12
ATOM     12  C   UNL     1       0.413 -13.311   9.942  1.00  0.00     0.025 A 
ATOM     13  C   UNL     1       0.384 -12.693  11.203  1.00  0.00     0.016 A 
ATOM     14  C   UNL     1       0.201 -11.312  11.310  1.00  0.00     0.051 A 
ATOM     15  C   UNL     1       0.060 -10.527  10.158  1.00  0.00     0.157 A 
ATOM     16  C   UNL     1       0.291 -12.516   8.788  1.00  0.00     0.062 A 
ATOM     17  C   UNL     1       0.110 -11.129   8.896  1.00  0.00     0.158 A 
BRANCH  15  18
ATOM     18  O   UNL     1      -0.124  -9.149  10.261  1.00  0.00    -0.504 OA
ATOM     19  H   UNL     1      -0.807  -8.662   9.693  1.00  0.00     0.293 HD
ENDBRANCH  15  18
BRANCH  17  20
ATOM     20  O   UNL     1      -0.017 -10.344   7.752  1.00  0.00    -0.504 OA
ATOM     21  H   UNL     1       0.787 -10.097   7.186  1.00  0.00     0.293 HD
ENDBRANCH  17  20
ENDBRANCH   1  12
BRANCH   2  22
ATOM     22  O   UNL     1      -0.122 -14.846   7.539  1.00  0.00    -0.502 OA
ATOM     23  H   UNL     1      -0.035 -15.233   6.607  1.00  0.00     0.293 HD
ENDBRANCH   2  22
BRANCH   6  24
ATOM     24  O   UNL     1       1.186 -19.726   8.778  1.00  0.00    -0.507 OA
ATOM     25  H   UNL     1       1.404 -19.409   7.840  1.00  0.00     0.293 HD
ENDBRANCH   6  24
BRANCH   8  26
ATOM     26  O   UNL     1       2.450 -19.252  13.410  1.00  0.00    -0.508 OA
ATOM     27  H   UNL     1       2.335 -20.242  13.590  1.00  0.00     0.293 HD
ENDBRANCH   8  26
TORSDOF 6
ENDMDL
