MODEL 1
REMARK VINA RESULT:    -7.643      0.000      0.000
REMARK INTER + INTRA:          -8.328
REMARK INTER:                  -8.090
REMARK INTRA:                  -0.238
REMARK UNBOUND:                -0.238
REMARK SMILES O=c1cc(-c2ccccc2)oc2ccccc12
REMARK SMILES IDX 4 1 3 2 2 3 1 4 17 5 16 6 15 7 14 8 13 9 12 10 11 11 5 12
REMARK SMILES IDX 8 13 7 14 9 15 6 16 10 17
REMARK H PARENT
REMARK Flexibility Score: inf
ROOT
ATOM      1  C   UNL     1      22.757  25.296  34.070  1.00  0.00     0.138 A 
ATOM      2  C   UNL     1      21.375  25.440  33.825  1.00  0.00     0.100 A 
ATOM      3  C   UNL     1      20.830  26.717  33.683  1.00  0.00     0.193 A 
ATOM      4  O   UNL     1      19.594  26.845  33.464  1.00  0.00    -0.289 OA
ATOM      5  C   UNL     1      21.664  27.839  33.787  1.00  0.00     0.065 A 
ATOM      6  C   UNL     1      21.179  29.154  33.654  1.00  0.00     0.016 A 
ATOM      7  C   UNL     1      22.055  30.237  33.767  1.00  0.00     0.001 A 
ATOM      8  C   UNL     1      23.415  30.021  34.011  1.00  0.00     0.004 A 
ATOM      9  C   UNL     1      23.904  28.718  34.145  1.00  0.00     0.048 A 
ATOM     10  C   UNL     1      23.037  27.626  34.034  1.00  0.00     0.138 A 
ATOM     11  O   UNL     1      23.513  26.392  34.161  1.00  0.00    -0.456 OA
ENDROOT
BRANCH   1  12
ATOM     12  C   UNL     1      23.421  23.966  34.234  1.00  0.00     0.017 A 
ATOM     13  C   UNL     1      24.607  21.432  34.613  1.00  0.00     0.000 A 
ATOM     14  C   UNL     1      25.130  22.315  33.667  1.00  0.00     0.001 A 
ATOM     15  C   UNL     1      23.497  21.803  35.370  1.00  0.00     0.001 A 
ATOM     16  C   UNL     1      24.546  23.571  33.476  1.00  0.00     0.012 A 
ATOM     17  C   UNL     1      22.907  23.057  35.184  1.00  0.00     0.012 A 
ENDBRANCH   1  12
TORSDOF 1
ENDMDL
MODEL 2
REMARK VINA RESULT:    -7.575      1.544      5.974
REMARK INTER + INTRA:          -8.255
REMARK INTER:                  -8.006
REMARK INTRA:                  -0.250
REMARK UNBOUND:                -0.238
REMARK SMILES O=c1cc(-c2ccccc2)oc2ccccc12
REMARK SMILES IDX 4 1 3 2 2 3 1 4 17 5 16 6 15 7 14 8 13 9 12 10 11 11 5 12
REMARK SMILES IDX 8 13 7 14 9 15 6 16 10 17
REMARK H PARENT
REMARK Flexibility Score: inf
ROOT
ATOM      1  C   UNL     1      23.089  25.382  34.277  1.00  0.00     0.138 A 
ATOM      2  C   UNL     1      22.303  24.459  34.998  1.00  0.00     0.100 A 
ATOM      3  C   UNL     1      22.743  23.142  35.140  1.00  0.00     0.193 A 
ATOM      4  O   UNL     1      22.039  22.317  35.784  1.00  0.00    -0.289 OA
ATOM      5  C   UNL     1      23.961  22.756  34.564  1.00  0.00     0.065 A 
ATOM      6  C   UNL     1      24.462  21.445  34.670  1.00  0.00     0.016 A 
ATOM      7  C   UNL     1      25.683  21.112  34.075  1.00  0.00     0.001 A 
ATOM      8  C   UNL     1      26.411  22.079  33.375  1.00  0.00     0.004 A 
ATOM      9  C   UNL     1      25.920  23.383  33.265  1.00  0.00     0.048 A 
ATOM     10  C   UNL     1      24.699  23.728  33.856  1.00  0.00     0.138 A 
ATOM     11  O   UNL     1      24.242  24.970  33.746  1.00  0.00    -0.456 OA
ENDROOT
BRANCH   1  12
ATOM     12  C   UNL     1      22.692  26.810  34.078  1.00  0.00     0.017 A 
ATOM     13  C   UNL     1      21.848  29.476  33.693  1.00  0.00     0.000 A 
ATOM     14  C   UNL     1      23.196  29.195  33.915  1.00  0.00     0.001 A 
ATOM     15  C   UNL     1      20.918  28.438  33.662  1.00  0.00     0.001 A 
ATOM     16  C   UNL     1      23.619  27.876  34.106  1.00  0.00     0.012 A 
ATOM     17  C   UNL     1      21.333  27.117  33.853  1.00  0.00     0.012 A 
ENDBRANCH   1  12
TORSDOF 1
ENDMDL
MODEL 3
REMARK VINA RESULT:    -7.307      1.560      3.131
REMARK INTER + INTRA:          -7.971
REMARK INTER:                  -7.712
REMARK INTRA:                  -0.260
REMARK UNBOUND:                -0.238
REMARK SMILES O=c1cc(-c2ccccc2)oc2ccccc12
REMARK SMILES IDX 4 1 3 2 2 3 1 4 17 5 16 6 15 7 14 8 13 9 12 10 11 11 5 12
REMARK SMILES IDX 8 13 7 14 9 15 6 16 10 17
REMARK H PARENT
REMARK Flexibility Score: inf
ROOT
ATOM      1  C   UNL     1      23.101  24.203  35.260  1.00  0.00     0.138 A 
ATOM      2  C   UNL     1      24.332  24.887  35.185  1.00  0.00     0.100 A 
ATOM      3  C   UNL     1      24.361  26.204  34.721  1.00  0.00     0.193 A 
ATOM      4  O   UNL     1      25.462  26.815  34.654  1.00  0.00    -0.289 OA
ATOM      5  C   UNL     1      23.165  26.826  34.337  1.00  0.00     0.065 A 
ATOM      6  C   UNL     1      23.125  28.151  33.861  1.00  0.00     0.016 A 
ATOM      7  C   UNL     1      21.905  28.724  33.491  1.00  0.00     0.001 A 
ATOM      8  C   UNL     1      20.721  27.986  33.592  1.00  0.00     0.004 A 
ATOM      9  C   UNL     1      20.753  26.670  34.063  1.00  0.00     0.048 A 
ATOM     10  C   UNL     1      21.968  26.086  34.436  1.00  0.00     0.138 A 
ATOM     11  O   UNL     1      21.988  24.835  34.884  1.00  0.00    -0.456 OA
ENDROOT
BRANCH   1  12
ATOM     12  C   UNL     1      22.981  22.793  35.745  1.00  0.00     0.017 A 
ATOM     13  C   UNL     1      22.851  20.118  36.637  1.00  0.00     0.000 A 
ATOM     14  C   UNL     1      21.721  20.934  36.706  1.00  0.00     0.001 A 
ATOM     15  C   UNL     1      24.045  20.627  36.129  1.00  0.00     0.001 A 
ATOM     16  C   UNL     1      21.780  22.259  36.264  1.00  0.00     0.012 A 
ATOM     17  C   UNL     1      24.113  21.951  35.686  1.00  0.00     0.012 A 
ENDBRANCH   1  12
TORSDOF 1
ENDMDL
MODEL 4
REMARK VINA RESULT:    -7.299      1.571      6.311
REMARK INTER + INTRA:          -7.963
REMARK INTER:                  -7.717
REMARK INTRA:                  -0.247
REMARK UNBOUND:                -0.238
REMARK SMILES O=c1cc(-c2ccccc2)oc2ccccc12
REMARK SMILES IDX 4 1 3 2 2 3 1 4 17 5 16 6 15 7 14 8 13 9 12 10 11 11 5 12
REMARK SMILES IDX 8 13 7 14 9 15 6 16 10 17
REMARK H PARENT
REMARK Flexibility Score: inf
ROOT
ATOM      1  C   UNL     1      23.033  25.140  34.393  1.00  0.00     0.138 A 
ATOM      2  C   UNL     1      24.203  24.592  33.826  1.00  0.00     0.100 A 
ATOM      3  C   UNL     1      24.577  23.286  34.147  1.00  0.00     0.193 A 
ATOM      4  O   UNL     1      25.622  22.796  33.639  1.00  0.00    -0.289 OA
ATOM      5  C   UNL     1      23.784  22.538  35.029  1.00  0.00     0.065 A 
ATOM      6  C   UNL     1      24.104  21.216  35.393  1.00  0.00     0.016 A 
ATOM      7  C   UNL     1      23.279  20.515  36.278  1.00  0.00     0.001 A 
ATOM      8  C   UNL     1      22.134  21.122  36.803  1.00  0.00     0.004 A 
ATOM      9  C   UNL     1      21.809  22.434  36.446  1.00  0.00     0.048 A 
ATOM     10  C   UNL     1      22.627  23.146  35.561  1.00  0.00     0.138 A 
ATOM     11  O   UNL     1      22.309  24.392  35.228  1.00  0.00    -0.456 OA
ENDROOT
BRANCH   1  12
ATOM     12  C   UNL     1      22.562  26.529  34.103  1.00  0.00     0.017 A 
ATOM     13  C   UNL     1      21.579  29.117  33.547  1.00  0.00     0.000 A 
ATOM     14  C   UNL     1      22.940  28.922  33.785  1.00  0.00     0.001 A 
ATOM     15  C   UNL     1      20.705  28.032  33.585  1.00  0.00     0.001 A 
ATOM     16  C   UNL     1      23.431  27.642  34.060  1.00  0.00     0.012 A 
ATOM     17  C   UNL     1      21.188  26.749  33.860  1.00  0.00     0.012 A 
ENDBRANCH   1  12
TORSDOF 1
ENDMDL
MODEL 5
REMARK VINA RESULT:    -7.286      1.553      6.381
REMARK INTER + INTRA:          -7.949
REMARK INTER:                  -7.705
REMARK INTRA:                  -0.244
REMARK UNBOUND:                -0.238
REMARK SMILES O=c1cc(-c2ccccc2)oc2ccccc12
REMARK SMILES IDX 4 1 3 2 2 3 1 4 17 5 16 6 15 7 14 8 13 9 12 10 11 11 5 12
REMARK SMILES IDX 8 13 7 14 9 15 6 16 10 17
REMARK H PARENT
REMARK Flexibility Score: inf
ROOT
ATOM      1  C   UNL     1      23.012  25.153  34.393  1.00  0.00     0.138 A 
ATOM      2  C   UNL     1      24.181  24.633  33.799  1.00  0.00     0.100 A 
ATOM      3  C   UNL     1      24.589  23.333  34.105  1.00  0.00     0.193 A 
ATOM      4  O   UNL     1      25.634  22.868  33.573  1.00  0.00    -0.289 OA
ATOM      5  C   UNL     1      23.830  22.563  34.997  1.00  0.00     0.065 A 
ATOM      6  C   UNL     1      24.185  21.247  35.347  1.00  0.00     0.016 A 
ATOM      7  C   UNL     1      23.393  20.523  36.243  1.00  0.00     0.001 A 
ATOM      8  C   UNL     1      22.246  21.102  36.795  1.00  0.00     0.004 A 
ATOM      9  C   UNL     1      21.886  22.409  36.453  1.00  0.00     0.048 A 
ATOM     10  C   UNL     1      22.672  23.143  35.557  1.00  0.00     0.138 A 
ATOM     11  O   UNL     1      22.321  24.384  35.237  1.00  0.00    -0.456 OA
ENDROOT
BRANCH   1  12
ATOM     12  C   UNL     1      22.505  26.533  34.121  1.00  0.00     0.017 A 
ATOM     13  C   UNL     1      21.641  29.173  33.617  1.00  0.00     0.000 A 
ATOM     14  C   UNL     1      20.721  28.124  33.614  1.00  0.00     0.001 A 
ATOM     15  C   UNL     1      22.988  28.916  33.868  1.00  0.00     0.001 A 
ATOM     16  C   UNL     1      21.144  26.815  33.864  1.00  0.00     0.012 A 
ATOM     17  C   UNL     1      23.418  27.610  34.118  1.00  0.00     0.012 A 
ENDBRANCH   1  12
TORSDOF 1
ENDMDL
MODEL 6
REMARK VINA RESULT:    -7.252      2.528      6.418
REMARK INTER + INTRA:          -7.914
REMARK INTER:                  -7.693
REMARK INTRA:                  -0.221
REMARK UNBOUND:                -0.238
REMARK SMILES O=c1cc(-c2ccccc2)oc2ccccc12
REMARK SMILES IDX 4 1 3 2 2 3 1 4 17 5 16 6 15 7 14 8 13 9 12 10 11 11 5 12
REMARK SMILES IDX 8 13 7 14 9 15 6 16 10 17
REMARK H PARENT
REMARK Flexibility Score: inf
ROOT
ATOM      1  C   UNL     1      24.109  23.700  33.515  1.00  0.00     0.138 A 
ATOM      2  C   UNL     1      24.046  22.459  34.182  1.00  0.00     0.100 A 
ATOM      3  C   UNL     1      25.148  21.603  34.151  1.00  0.00     0.193 A 
ATOM      4  O   UNL     1      25.092  20.494  34.748  1.00  0.00    -0.289 OA
ATOM      5  C   UNL     1      26.303  21.991  33.455  1.00  0.00     0.065 A 
ATOM      6  C   UNL     1      27.448  21.176  33.384  1.00  0.00     0.016 A 
ATOM      7  C   UNL     1      28.573  21.610  32.677  1.00  0.00     0.001 A 
ATOM      8  C   UNL     1      28.565  22.854  32.038  1.00  0.00     0.004 A 
ATOM      9  C   UNL     1      27.431  23.669  32.103  1.00  0.00     0.048 A 
ATOM     10  C   UNL     1      26.300  23.245  32.809  1.00  0.00     0.138 A 
ATOM     11  O   UNL     1      25.228  24.027  32.865  1.00  0.00    -0.456 OA
ENDROOT
BRANCH   1  12
ATOM     12  C   UNL     1      22.974  24.674  33.499  1.00  0.00     0.017 A 
ATOM     13  C   UNL     1      20.795  26.466  33.391  1.00  0.00     0.000 A 
ATOM     14  C   UNL     1      21.772  26.612  34.376  1.00  0.00     0.001 A 
ATOM     15  C   UNL     1      20.895  25.432  32.461  1.00  0.00     0.001 A 
ATOM     16  C   UNL     1      22.853  25.728  34.433  1.00  0.00     0.012 A 
ATOM     17  C   UNL     1      21.973  24.544  32.512  1.00  0.00     0.012 A 
ENDBRANCH   1  12
TORSDOF 1
ENDMDL
MODEL 7
REMARK VINA RESULT:    -7.239      3.792      6.106
REMARK INTER + INTRA:          -7.900
REMARK INTER:                  -7.636
REMARK INTRA:                  -0.264
REMARK UNBOUND:                -0.238
REMARK SMILES O=c1cc(-c2ccccc2)oc2ccccc12
REMARK SMILES IDX 4 1 3 2 2 3 1 4 17 5 16 6 15 7 14 8 13 9 12 10 11 11 5 12
REMARK SMILES IDX 8 13 7 14 9 15 6 16 10 17
REMARK H PARENT
REMARK Flexibility Score: inf
ROOT
ATOM      1  C   UNL     1      25.575  22.668  33.608  1.00  0.00     0.138 A 
ATOM      2  C   UNL     1      24.548  23.626  33.481  1.00  0.00     0.100 A 
ATOM      3  C   UNL     1      23.382  23.491  34.237  1.00  0.00     0.193 A 
ATOM      4  O   UNL     1      22.464  24.348  34.124  1.00  0.00    -0.289 OA
ATOM      5  C   UNL     1      23.249  22.403  35.111  1.00  0.00     0.065 A 
ATOM      6  C   UNL     1      22.101  22.207  35.902  1.00  0.00     0.016 A 
ATOM      7  C   UNL     1      22.020  21.105  36.757  1.00  0.00     0.001 A 
ATOM      8  C   UNL     1      23.077  20.193  36.832  1.00  0.00     0.004 A 
ATOM      9  C   UNL     1      24.221  20.379  36.050  1.00  0.00     0.048 A 
ATOM     10  C   UNL     1      24.314  21.479  35.190  1.00  0.00     0.138 A 
ATOM     11  O   UNL     1      25.405  21.648  34.452  1.00  0.00    -0.456 OA
ENDROOT
BRANCH   1  12
ATOM     12  C   UNL     1      26.854  22.738  32.836  1.00  0.00     0.017 A 
ATOM     13  C   UNL     1      29.288  22.778  31.407  1.00  0.00     0.000 A 
ATOM     14  C   UNL     1      28.461  23.901  31.409  1.00  0.00     0.001 A 
ATOM     15  C   UNL     1      28.911  21.635  32.110  1.00  0.00     0.001 A 
ATOM     16  C   UNL     1      27.255  23.887  32.116  1.00  0.00     0.012 A 
ATOM     17  C   UNL     1      27.706  21.612  32.819  1.00  0.00     0.012 A 
ENDBRANCH   1  12
TORSDOF 1
ENDMDL
MODEL 8
REMARK VINA RESULT:    -7.025      5.232      6.809
REMARK INTER + INTRA:          -7.673
REMARK INTER:                  -7.451
REMARK INTRA:                  -0.222
REMARK UNBOUND:                -0.238
REMARK SMILES O=c1cc(-c2ccccc2)oc2ccccc12
REMARK SMILES IDX 4 1 3 2 2 3 1 4 17 5 16 6 15 7 14 8 13 9 12 10 11 11 5 12
REMARK SMILES IDX 8 13 7 14 9 15 6 16 10 17
REMARK H PARENT
REMARK Flexibility Score: inf
ROOT
ATOM      1  C   UNL     1      27.919  23.920  32.616  1.00  0.00     0.138 A 
ATOM      2  C   UNL     1      28.277  24.182  31.277  1.00  0.00     0.100 A 
ATOM      3  C   UNL     1      29.230  25.163  30.999  1.00  0.00     0.193 A 
ATOM      4  O   UNL     1      29.550  25.397  29.801  1.00  0.00    -0.289 OA
ATOM      5  C   UNL     1      29.817  25.875  32.054  1.00  0.00     0.065 A 
ATOM      6  C   UNL     1      30.783  26.876  31.843  1.00  0.00     0.016 A 
ATOM      7  C   UNL     1      31.337  27.555  32.932  1.00  0.00     0.001 A 
ATOM      8  C   UNL     1      30.934  27.244  34.234  1.00  0.00     0.004 A 
ATOM      9  C   UNL     1      29.975  26.251  34.453  1.00  0.00     0.048 A 
ATOM     10  C   UNL     1      29.414  25.564  33.371  1.00  0.00     0.138 A 
ATOM     11  O   UNL     1      28.503  24.621  33.589  1.00  0.00    -0.456 OA
ENDROOT
BRANCH   1  12
ATOM     12  C   UNL     1      26.908  22.887  33.001  1.00  0.00     0.017 A 
ATOM     13  C   UNL     1      25.070  20.866  33.713  1.00  0.00     0.000 A 
ATOM     14  C   UNL     1      24.680  22.206  33.736  1.00  0.00     0.001 A 
ATOM     15  C   UNL     1      26.369  20.527  33.340  1.00  0.00     0.001 A 
ATOM     16  C   UNL     1      25.587  23.210  33.384  1.00  0.00     0.012 A 
ATOM     17  C   UNL     1      27.282  21.525  32.986  1.00  0.00     0.012 A 
ENDBRANCH   1  12
TORSDOF 1
ENDMDL
MODEL 9
REMARK VINA RESULT:    -6.797      3.191      6.677
REMARK INTER + INTRA:          -7.432
REMARK INTER:                  -7.167
REMARK INTRA:                  -0.265
REMARK UNBOUND:                -0.238
REMARK SMILES O=c1cc(-c2ccccc2)oc2ccccc12
REMARK SMILES IDX 4 1 3 2 2 3 1 4 17 5 16 6 15 7 14 8 13 9 12 10 11 11 5 12
REMARK SMILES IDX 8 13 7 14 9 15 6 16 10 17
REMARK H PARENT
REMARK Flexibility Score: inf
ROOT
ATOM      1  C   UNL     1      25.252  23.071  33.874  1.00  0.00     0.138 A 
ATOM      2  C   UNL     1      25.613  21.727  34.101  1.00  0.00     0.100 A 
ATOM      3  C   UNL     1      26.764  21.212  33.502  1.00  0.00     0.193 A 
ATOM      4  O   UNL     1      27.087  20.009  33.706  1.00  0.00    -0.289 OA
ATOM      5  C   UNL     1      27.546  22.040  32.684  1.00  0.00     0.065 A 
ATOM      6  C   UNL     1      28.718  21.584  32.051  1.00  0.00     0.016 A 
ATOM      7  C   UNL     1      29.460  22.452  31.245  1.00  0.00     0.001 A 
ATOM      8  C   UNL     1      29.043  23.774  31.064  1.00  0.00     0.004 A 
ATOM      9  C   UNL     1      27.880  24.234  31.688  1.00  0.00     0.048 A 
ATOM     10  C   UNL     1      27.129  23.375  32.498  1.00  0.00     0.138 A 
ATOM     11  O   UNL     1      26.026  23.822  33.088  1.00  0.00    -0.456 OA
ENDROOT
BRANCH   1  12
ATOM     12  C   UNL     1      24.037  23.701  34.476  1.00  0.00     0.017 A 
ATOM     13  C   UNL     1      21.755  24.967  35.554  1.00  0.00     0.000 A 
ATOM     14  C   UNL     1      22.137  23.706  36.013  1.00  0.00     0.001 A 
ATOM     15  C   UNL     1      22.502  25.601  34.561  1.00  0.00     0.001 A 
ATOM     16  C   UNL     1      23.266  23.075  35.482  1.00  0.00     0.012 A 
ATOM     17  C   UNL     1      23.632  24.976  34.026  1.00  0.00     0.012 A 
ENDBRANCH   1  12
TORSDOF 1
ENDMDL
