MODEL 1
REMARK VINA RESULT:     6.245      0.000      0.000
REMARK INTER + INTRA:          10.833
REMARK INTER:                  11.721
REMARK INTRA:                  -0.889
REMARK UNBOUND:                -0.889
REMARK SMILES O=C([O-])CCCCCCCCCCCCCCC(=O)[O-]
REMARK SMILES IDX 10 1 9 2 8 3 7 4 6 5 5 6 4 7 2 8 1 9 3 10 11 11 12 12 13 13
REMARK SMILES IDX 14 14 15 15 16 16 17 17 18 18 19 19 20 20
REMARK H PARENT
REMARK Flexibility Score: inf
ROOT
ATOM      1  C   UNL     1      25.622 -19.518  14.448  1.00  0.00     0.000 C 
ENDROOT
BRANCH   1   2
ATOM      2  C   UNL     1      26.495 -19.909  13.236  1.00  0.00     0.000 C 
BRANCH   2   3
ATOM      3  C   UNL     1      27.299 -18.739  12.625  1.00  0.00     0.000 C 
BRANCH   3   4
ATOM      4  C   UNL     1      27.505 -17.553  13.586  1.00  0.00     0.000 C 
BRANCH   4   5
ATOM      5  C   UNL     1      28.913 -16.935  13.559  1.00  0.00     0.000 C 
BRANCH   5   6
ATOM      6  C   UNL     1      29.018 -15.658  14.408  1.00  0.00     0.006 C 
BRANCH   6   7
ATOM      7  C   UNL     1      28.101 -15.739  15.632  1.00  0.00     0.053 C 
BRANCH   7   8
ATOM      8  C   UNL     1      28.841 -15.337  16.868  1.00  0.00     0.041 C 
ATOM      9  O   UNL     1      29.205 -16.208  17.700  1.00  0.00    -0.550 OA
ATOM     10  O   UNL     1      29.087 -13.994  17.126  1.00  0.00    -0.550 OA
ENDBRANCH   7   8
ENDBRANCH   6   7
ENDBRANCH   5   6
ENDBRANCH   4   5
ENDBRANCH   3   4
ENDBRANCH   2   3
ENDBRANCH   1   2
BRANCH   1  11
ATOM     11  C   UNL     1      25.033 -20.698  15.253  1.00  0.00     0.000 C 
BRANCH  11  12
ATOM     12  C   UNL     1      25.888 -21.977  15.279  1.00  0.00     0.000 C 
BRANCH  12  13
ATOM     13  C   UNL     1      25.056 -23.255  15.078  1.00  0.00     0.000 C 
BRANCH  13  14
ATOM     14  C   UNL     1      25.883 -24.408  14.487  1.00  0.00     0.000 C 
BRANCH  14  15
ATOM     15  C   UNL     1      27.300 -23.973  14.072  1.00  0.00     0.000 C 
BRANCH  15  16
ATOM     16  C   UNL     1      28.340 -25.100  14.203  1.00  0.00     0.006 C 
BRANCH  16  17
ATOM     17  C   UNL     1      29.378 -25.125  13.069  1.00  0.00     0.053 C 
BRANCH  17  18
ATOM     18  C   UNL     1      30.769 -24.854  13.556  1.00  0.00     0.041 C 
ATOM     19  O   UNL     1      30.988 -24.684  14.784  1.00  0.00    -0.550 OA
ATOM     20  O   UNL     1      31.819 -24.754  12.651  1.00  0.00    -0.550 OA
ENDBRANCH  17  18
ENDBRANCH  16  17
ENDBRANCH  15  16
ENDBRANCH  14  15
ENDBRANCH  13  14
ENDBRANCH  12  13
ENDBRANCH  11  12
ENDBRANCH   1  11
TORSDOF 15
ENDMDL
MODEL 2
REMARK VINA RESULT:     6.281      0.813      8.200
REMARK INTER + INTRA:          10.899
REMARK INTER:                  11.540
REMARK INTRA:                  -0.640
REMARK UNBOUND:                -0.889
REMARK SMILES O=C([O-])CCCCCCCCCCCCCCC(=O)[O-]
REMARK SMILES IDX 10 1 9 2 8 3 7 4 6 5 5 6 4 7 2 8 1 9 3 10 11 11 12 12 13 13
REMARK SMILES IDX 14 14 15 15 16 16 17 17 18 18 19 19 20 20
REMARK H PARENT
REMARK Flexibility Score: inf
ROOT
ATOM      1  C   UNL     1      25.681 -21.324  14.850  1.00  0.00     0.000 C 
ENDROOT
BRANCH   1   2
ATOM      2  C   UNL     1      24.819 -22.581  15.088  1.00  0.00     0.000 C 
BRANCH   2   3
ATOM      3  C   UNL     1      25.530 -23.915  14.765  1.00  0.00     0.000 C 
BRANCH   3   4
ATOM      4  C   UNL     1      27.026 -23.759  14.431  1.00  0.00     0.000 C 
BRANCH   4   5
ATOM      5  C   UNL     1      27.691 -25.015  13.842  1.00  0.00     0.000 C 
BRANCH   5   6
ATOM      6  C   UNL     1      29.201 -25.074  14.121  1.00  0.00     0.006 C 
BRANCH   6   7
ATOM      7  C   UNL     1      29.997 -24.539  12.926  1.00  0.00     0.053 C 
BRANCH   7   8
ATOM      8  C   UNL     1      31.467 -24.641  13.190  1.00  0.00     0.041 C 
ATOM      9  O   UNL     1      32.283 -24.637  12.232  1.00  0.00    -0.550 OA
ATOM     10  O   UNL     1      31.932 -24.789  14.490  1.00  0.00    -0.550 OA
ENDBRANCH   7   8
ENDBRANCH   6   7
ENDBRANCH   5   6
ENDBRANCH   4   5
ENDBRANCH   3   4
ENDBRANCH   2   3
ENDBRANCH   1   2
BRANCH   1  11
ATOM     11  C   UNL     1      25.427 -20.583  13.518  1.00  0.00     0.000 C 
BRANCH  11  12
ATOM     12  C   UNL     1      26.633 -19.822  12.940  1.00  0.00     0.000 C 
BRANCH  12  13
ATOM     13  C   UNL     1      26.885 -18.479  13.647  1.00  0.00     0.000 C 
BRANCH  13  14
ATOM     14  C   UNL     1      28.214 -17.832  13.224  1.00  0.00     0.000 C 
BRANCH  14  15
ATOM     15  C   UNL     1      28.225 -16.308  13.429  1.00  0.00     0.000 C 
BRANCH  15  16
ATOM     16  C   UNL     1      29.126 -15.862  14.595  1.00  0.00     0.006 C 
BRANCH  16  17
ATOM     17  C   UNL     1      28.362 -15.208  15.759  1.00  0.00     0.053 C 
BRANCH  17  18
ATOM     18  C   UNL     1      28.984 -15.498  17.091  1.00  0.00     0.041 C 
ATOM     19  O   UNL     1      28.788 -16.608  17.653  1.00  0.00    -0.550 OA
ATOM     20  O   UNL     1      29.752 -14.533  17.729  1.00  0.00    -0.550 OA
ENDBRANCH  17  18
ENDBRANCH  16  17
ENDBRANCH  15  16
ENDBRANCH  14  15
ENDBRANCH  13  14
ENDBRANCH  12  13
ENDBRANCH  11  12
ENDBRANCH   1  11
TORSDOF 15
ENDMDL
MODEL 3
REMARK VINA RESULT:     6.657     12.860     14.793
REMARK INTER + INTRA:          11.606
REMARK INTER:                  12.233
REMARK INTRA:                  -0.627
REMARK UNBOUND:                -0.889
REMARK SMILES O=C([O-])CCCCCCCCCCCCCCC(=O)[O-]
REMARK SMILES IDX 10 1 9 2 8 3 7 4 6 5 5 6 4 7 2 8 1 9 3 10 11 11 12 12 13 13
REMARK SMILES IDX 14 14 15 15 16 16 17 17 18 18 19 19 20 20
REMARK H PARENT
REMARK Flexibility Score: inf
ROOT
ATOM      1  C   UNL     1      21.174 -19.619  26.368  1.00  0.00     0.000 C 
ENDROOT
BRANCH   1   2
ATOM      2  C   UNL     1      19.729 -19.427  26.876  1.00  0.00     0.000 C 
BRANCH   2   3
ATOM      3  C   UNL     1      18.711 -19.045  25.778  1.00  0.00     0.000 C 
BRANCH   3   4
ATOM      4  C   UNL     1      17.268 -18.885  26.294  1.00  0.00     0.000 C 
BRANCH   4   5
ATOM      5  C   UNL     1      17.143 -18.207  27.668  1.00  0.00     0.000 C 
BRANCH   5   6
ATOM      6  C   UNL     1      16.492 -19.115  28.723  1.00  0.00     0.006 C 
BRANCH   6   7
ATOM      7  C   UNL     1      15.875 -20.355  28.069  1.00  0.00     0.053 C 
BRANCH   7   8
ATOM      8  C   UNL     1      16.174 -21.576  28.881  1.00  0.00     0.041 C 
ATOM      9  O   UNL     1      16.481 -21.469  30.096  1.00  0.00    -0.550 OA
ATOM     10  O   UNL     1      16.160 -22.830  28.282  1.00  0.00    -0.550 OA
ENDBRANCH   7   8
ENDBRANCH   6   7
ENDBRANCH   5   6
ENDBRANCH   4   5
ENDBRANCH   3   4
ENDBRANCH   2   3
ENDBRANCH   1   2
BRANCH   1  11
ATOM     11  C   UNL     1      21.570 -21.071  26.019  1.00  0.00     0.000 C 
BRANCH  11  12
ATOM     12  C   UNL     1      22.010 -21.308  24.564  1.00  0.00     0.000 C 
BRANCH  12  13
ATOM     13  C   UNL     1      23.395 -20.715  24.254  1.00  0.00     0.000 C 
BRANCH  13  14
ATOM     14  C   UNL     1      24.131 -21.487  23.148  1.00  0.00     0.000 C 
BRANCH  14  15
ATOM     15  C   UNL     1      24.530 -22.909  23.579  1.00  0.00     0.000 C 
BRANCH  15  16
ATOM     16  C   UNL     1      26.045 -23.070  23.803  1.00  0.00     0.006 C 
BRANCH  16  17
ATOM     17  C   UNL     1      26.413 -23.674  25.168  1.00  0.00     0.053 C 
BRANCH  17  18
ATOM     18  C   UNL     1      26.211 -22.709  26.297  1.00  0.00     0.041 C 
ATOM     19  O   UNL     1      27.188 -22.352  27.007  1.00  0.00    -0.550 OA
ATOM     20  O   UNL     1      24.940 -22.231  26.589  1.00  0.00    -0.550 OA
ENDBRANCH  17  18
ENDBRANCH  16  17
ENDBRANCH  15  16
ENDBRANCH  14  15
ENDBRANCH  13  14
ENDBRANCH  12  13
ENDBRANCH  11  12
ENDBRANCH   1  11
TORSDOF 15
ENDMDL
MODEL 4
REMARK VINA RESULT:     7.067     12.451     15.370
REMARK INTER + INTRA:          12.375
REMARK INTER:                  12.652
REMARK INTRA:                  -0.277
REMARK UNBOUND:                -0.889
REMARK SMILES O=C([O-])CCCCCCCCCCCCCCC(=O)[O-]
REMARK SMILES IDX 10 1 9 2 8 3 7 4 6 5 5 6 4 7 2 8 1 9 3 10 11 11 12 12 13 13
REMARK SMILES IDX 14 14 15 15 16 16 17 17 18 18 19 19 20 20
REMARK H PARENT
REMARK Flexibility Score: inf
ROOT
ATOM      1  C   UNL     1      21.856 -21.086  25.751  1.00  0.00     0.000 C 
ENDROOT
BRANCH   1   2
ATOM      2  C   UNL     1      22.049 -20.965  24.225  1.00  0.00     0.000 C 
BRANCH   2   3
ATOM      3  C   UNL     1      23.494 -20.631  23.788  1.00  0.00     0.000 C 
BRANCH   3   4
ATOM      4  C   UNL     1      24.113 -21.669  22.834  1.00  0.00     0.000 C 
BRANCH   4   5
ATOM      5  C   UNL     1      24.534 -22.991  23.499  1.00  0.00     0.000 C 
BRANCH   5   6
ATOM      6  C   UNL     1      26.045 -23.066  23.771  1.00  0.00     0.006 C 
BRANCH   6   7
ATOM      7  C   UNL     1      26.331 -23.877  25.038  1.00  0.00     0.053 C 
BRANCH   7   8
ATOM      8  C   UNL     1      26.436 -22.973  26.226  1.00  0.00     0.041 C 
ATOM      9  O   UNL     1      27.494 -22.943  26.907  1.00  0.00    -0.550 OA
ATOM     10  O   UNL     1      25.348 -22.199  26.609  1.00  0.00    -0.550 OA
ENDBRANCH   7   8
ENDBRANCH   6   7
ENDBRANCH   5   6
ENDBRANCH   4   5
ENDBRANCH   3   4
ENDBRANCH   2   3
ENDBRANCH   1   2
BRANCH   1  11
ATOM     11  C   UNL     1      21.228 -19.856  26.443  1.00  0.00     0.000 C 
BRANCH  11  12
ATOM     12  C   UNL     1      19.689 -19.818  26.463  1.00  0.00     0.000 C 
BRANCH  12  13
ATOM     13  C   UNL     1      19.083 -19.449  25.099  1.00  0.00     0.000 C 
BRANCH  13  14
ATOM     14  C   UNL     1      17.645 -18.922  25.217  1.00  0.00     0.000 C 
BRANCH  14  15
ATOM     15  C   UNL     1      17.222 -18.670  26.675  1.00  0.00     0.000 C 
BRANCH  15  16
ATOM     16  C   UNL     1      16.469 -19.858  27.299  1.00  0.00     0.006 C 
BRANCH  16  17
ATOM     17  C   UNL     1      16.207 -19.707  28.807  1.00  0.00     0.053 C 
BRANCH  17  18
ATOM     18  C   UNL     1      16.739 -18.419  29.358  1.00  0.00     0.041 C 
ATOM     19  O   UNL     1      17.764 -18.418  30.090  1.00  0.00    -0.550 OA
ATOM     20  O   UNL     1      16.085 -17.223  29.092  1.00  0.00    -0.550 OA
ENDBRANCH  17  18
ENDBRANCH  16  17
ENDBRANCH  15  16
ENDBRANCH  14  15
ENDBRANCH  13  14
ENDBRANCH  12  13
ENDBRANCH  11  12
ENDBRANCH   1  11
TORSDOF 15
ENDMDL
MODEL 5
REMARK VINA RESULT:     7.126     13.198     15.798
REMARK INTER + INTRA:          12.486
REMARK INTER:                  11.500
REMARK INTRA:                   0.986
REMARK UNBOUND:                -0.889
REMARK SMILES O=C([O-])CCCCCCCCCCCCCCC(=O)[O-]
REMARK SMILES IDX 10 1 9 2 8 3 7 4 6 5 5 6 4 7 2 8 1 9 3 10 11 11 12 12 13 13
REMARK SMILES IDX 14 14 15 15 16 16 17 17 18 18 19 19 20 20
REMARK H PARENT
REMARK Flexibility Score: inf
ROOT
ATOM      1  C   UNL     1      21.151 -19.912  26.557  1.00  0.00     0.000 C 
ENDROOT
BRANCH   1   2
ATOM      2  C   UNL     1      21.519 -20.504  25.180  1.00  0.00     0.000 C 
BRANCH   2   3
ATOM      3  C   UNL     1      23.038 -20.646  24.930  1.00  0.00     0.000 C 
BRANCH   3   4
ATOM      4  C   UNL     1      23.420 -20.726  23.440  1.00  0.00     0.000 C 
BRANCH   4   5
ATOM      5  C   UNL     1      24.246 -21.964  23.050  1.00  0.00     0.000 C 
BRANCH   5   6
ATOM      6  C   UNL     1      24.483 -22.918  24.231  1.00  0.00     0.006 C 
BRANCH   6   7
ATOM      7  C   UNL     1      25.980 -23.089  24.503  1.00  0.00     0.053 C 
BRANCH   7   8
ATOM      8  C   UNL     1      26.277 -22.867  25.952  1.00  0.00     0.041 C 
ATOM      9  O   UNL     1      25.468 -22.227  26.673  1.00  0.00    -0.550 OA
ATOM     10  O   UNL     1      27.471 -23.325  26.496  1.00  0.00    -0.550 OA
ENDBRANCH   7   8
ENDBRANCH   6   7
ENDBRANCH   5   6
ENDBRANCH   4   5
ENDBRANCH   3   4
ENDBRANCH   2   3
ENDBRANCH   1   2
BRANCH   1  11
ATOM     11  C   UNL     1      19.653 -19.971  26.930  1.00  0.00     0.000 C 
BRANCH  11  12
ATOM     12  C   UNL     1      18.710 -19.162  26.021  1.00  0.00     0.000 C 
BRANCH  12  13
ATOM     13  C   UNL     1      17.268 -19.109  26.555  1.00  0.00     0.000 C 
BRANCH  13  14
ATOM     14  C   UNL     1      16.888 -17.717  27.082  1.00  0.00     0.000 C 
BRANCH  14  15
ATOM     15  C   UNL     1      16.803 -17.665  28.617  1.00  0.00     0.000 C 
BRANCH  15  16
ATOM     16  C   UNL     1      16.204 -18.942  29.232  1.00  0.00     0.006 C 
BRANCH  16  17
ATOM     17  C   UNL     1      15.926 -20.056  28.208  1.00  0.00     0.053 C 
BRANCH  17  18
ATOM     18  C   UNL     1      16.000 -21.425  28.813  1.00  0.00     0.041 C 
ATOM     19  O   UNL     1      16.207 -21.561  30.048  1.00  0.00    -0.550 OA
ATOM     20  O   UNL     1      15.875 -22.551  28.010  1.00  0.00    -0.550 OA
ENDBRANCH  17  18
ENDBRANCH  16  17
ENDBRANCH  15  16
ENDBRANCH  14  15
ENDBRANCH  13  14
ENDBRANCH  12  13
ENDBRANCH  11  12
ENDBRANCH   1  11
TORSDOF 15
ENDMDL
MODEL 6
REMARK VINA RESULT:     7.273     11.183     14.012
REMARK INTER + INTRA:          12.762
REMARK INTER:                  13.859
REMARK INTRA:                  -1.097
REMARK UNBOUND:                -0.889
REMARK SMILES O=C([O-])CCCCCCCCCCCCCCC(=O)[O-]
REMARK SMILES IDX 10 1 9 2 8 3 7 4 6 5 5 6 4 7 2 8 1 9 3 10 11 11 12 12 13 13
REMARK SMILES IDX 14 14 15 15 16 16 17 17 18 18 19 19 20 20
REMARK H PARENT
REMARK Flexibility Score: inf
ROOT
ATOM      1  C   UNL     1      16.995 -19.249  24.268  1.00  0.00     0.000 C 
ENDROOT
BRANCH   1   2
ATOM      2  C   UNL     1      17.928 -19.504  23.065  1.00  0.00     0.000 C 
BRANCH   2   3
ATOM      3  C   UNL     1      17.341 -20.444  21.989  1.00  0.00     0.000 C 
BRANCH   3   4
ATOM      4  C   UNL     1      16.293 -21.435  22.530  1.00  0.00     0.000 C 
BRANCH   4   5
ATOM      5  C   UNL     1      16.366 -22.848  21.927  1.00  0.00     0.000 C 
BRANCH   5   6
ATOM      6  C   UNL     1      17.809 -23.326  21.701  1.00  0.00     0.006 C 
BRANCH   6   7
ATOM      7  C   UNL     1      17.840 -24.556  20.789  1.00  0.00     0.053 C 
BRANCH   7   8
ATOM      8  C   UNL     1      18.080 -24.148  19.370  1.00  0.00     0.041 C 
ATOM      9  O   UNL     1      17.875 -24.964  18.433  1.00  0.00    -0.550 OA
ATOM     10  O   UNL     1      18.577 -22.883  19.084  1.00  0.00    -0.550 OA
ENDBRANCH   7   8
ENDBRANCH   6   7
ENDBRANCH   5   6
ENDBRANCH   4   5
ENDBRANCH   3   4
ENDBRANCH   2   3
ENDBRANCH   1   2
BRANCH   1  11
ATOM     11  C   UNL     1      17.636 -18.509  25.464  1.00  0.00     0.000 C 
BRANCH  11  12
ATOM     12  C   UNL     1      17.414 -19.157  26.842  1.00  0.00     0.000 C 
BRANCH  12  13
ATOM     13  C   UNL     1      18.726 -19.597  27.513  1.00  0.00     0.000 C 
BRANCH  13  14
ATOM     14  C   UNL     1      19.945 -19.417  26.594  1.00  0.00     0.000 C 
BRANCH  14  15
ATOM     15  C   UNL     1      20.485 -20.753  26.054  1.00  0.00     0.000 C 
BRANCH  15  16
ATOM     16  C   UNL     1      21.954 -20.670  25.602  1.00  0.00     0.006 C 
BRANCH  16  17
ATOM     17  C   UNL     1      22.242 -21.403  24.280  1.00  0.00     0.053 C 
BRANCH  17  18
ATOM     18  C   UNL     1      23.589 -21.065  23.717  1.00  0.00     0.041 C 
ATOM     19  O   UNL     1      24.022 -19.884  23.776  1.00  0.00    -0.550 OA
ATOM     20  O   UNL     1      24.352 -22.045  23.096  1.00  0.00    -0.550 OA
ENDBRANCH  17  18
ENDBRANCH  16  17
ENDBRANCH  15  16
ENDBRANCH  14  15
ENDBRANCH  13  14
ENDBRANCH  12  13
ENDBRANCH  11  12
ENDBRANCH   1  11
TORSDOF 15
ENDMDL
MODEL 7
REMARK VINA RESULT:     7.374     11.183     13.364
REMARK INTER + INTRA:          12.952
REMARK INTER:                  14.018
REMARK INTRA:                  -1.066
REMARK UNBOUND:                -0.889
REMARK SMILES O=C([O-])CCCCCCCCCCCCCCC(=O)[O-]
REMARK SMILES IDX 10 1 9 2 8 3 7 4 6 5 5 6 4 7 2 8 1 9 3 10 11 11 12 12 13 13
REMARK SMILES IDX 14 14 15 15 16 16 17 17 18 18 19 19 20 20
REMARK H PARENT
REMARK Flexibility Score: inf
ROOT
ATOM      1  C   UNL     1      17.728 -18.445  25.344  1.00  0.00     0.000 C 
ENDROOT
BRANCH   1   2
ATOM      2  C   UNL     1      17.419 -19.012  26.746  1.00  0.00     0.000 C 
BRANCH   2   3
ATOM      3  C   UNL     1      18.609 -19.731  27.421  1.00  0.00     0.000 C 
BRANCH   3   4
ATOM      4  C   UNL     1      19.959 -19.501  26.715  1.00  0.00     0.000 C 
BRANCH   4   5
ATOM      5  C   UNL     1      20.543 -20.740  26.015  1.00  0.00     0.000 C 
BRANCH   5   6
ATOM      6  C   UNL     1      21.990 -20.530  25.542  1.00  0.00     0.006 C 
BRANCH   6   7
ATOM      7  C   UNL     1      22.294 -21.395  24.315  1.00  0.00     0.053 C 
BRANCH   7   8
ATOM      8  C   UNL     1      23.626 -21.034  23.738  1.00  0.00     0.041 C 
ATOM      9  O   UNL     1      24.104 -19.884  23.921  1.00  0.00    -0.550 OA
ATOM     10  O   UNL     1      24.317 -21.950  22.956  1.00  0.00    -0.550 OA
ENDBRANCH   7   8
ENDBRANCH   6   7
ENDBRANCH   5   6
ENDBRANCH   4   5
ENDBRANCH   3   4
ENDBRANCH   2   3
ENDBRANCH   1   2
BRANCH   1  11
ATOM     11  C   UNL     1      17.027 -19.160  24.167  1.00  0.00     0.000 C 
BRANCH  11  12
ATOM     12  C   UNL     1      17.932 -19.521  22.976  1.00  0.00     0.000 C 
BRANCH  12  13
ATOM     13  C   UNL     1      17.249 -20.468  21.974  1.00  0.00     0.000 C 
BRANCH  13  14
ATOM     14  C   UNL     1      16.331 -21.490  22.664  1.00  0.00     0.000 C 
BRANCH  14  15
ATOM     15  C   UNL     1      16.313 -22.852  21.947  1.00  0.00     0.000 C 
BRANCH  15  16
ATOM     16  C   UNL     1      17.711 -23.479  21.808  1.00  0.00     0.006 C 
BRANCH  16  17
ATOM     17  C   UNL     1      17.787 -24.608  20.766  1.00  0.00     0.053 C 
BRANCH  17  18
ATOM     18  C   UNL     1      18.052 -24.098  19.382  1.00  0.00     0.041 C 
ATOM     19  O   UNL     1      18.421 -22.907  19.207  1.00  0.00    -0.550 OA
ATOM     20  O   UNL     1      17.858 -24.925  18.283  1.00  0.00    -0.550 OA
ENDBRANCH  17  18
ENDBRANCH  16  17
ENDBRANCH  15  16
ENDBRANCH  14  15
ENDBRANCH  13  14
ENDBRANCH  12  13
ENDBRANCH  11  12
ENDBRANCH   1  11
TORSDOF 15
ENDMDL
MODEL 8
REMARK VINA RESULT:     8.177     12.517     14.436
REMARK INTER + INTRA:          14.459
REMARK INTER:                  15.161
REMARK INTRA:                  -0.702
REMARK UNBOUND:                -0.889
REMARK SMILES O=C([O-])CCCCCCCCCCCCCCC(=O)[O-]
REMARK SMILES IDX 10 1 9 2 8 3 7 4 6 5 5 6 4 7 2 8 1 9 3 10 11 11 12 12 13 13
REMARK SMILES IDX 14 14 15 15 16 16 17 17 18 18 19 19 20 20
REMARK H PARENT
REMARK Flexibility Score: inf
ROOT
ATOM      1  C   UNL     1      22.975 -20.455  24.536  1.00  0.00     0.000 C 
ENDROOT
BRANCH   1   2
ATOM      2  C   UNL     1      21.743 -20.960  25.317  1.00  0.00     0.000 C 
BRANCH   2   3
ATOM      3  C   UNL     1      21.111 -19.912  26.261  1.00  0.00     0.000 C 
BRANCH   3   4
ATOM      4  C   UNL     1      19.580 -20.028  26.387  1.00  0.00     0.000 C 
BRANCH   4   5
ATOM      5  C   UNL     1      18.785 -18.951  25.629  1.00  0.00     0.000 C 
BRANCH   5   6
ATOM      6  C   UNL     1      17.416 -18.663  26.267  1.00  0.00     0.006 C 
BRANCH   6   7
ATOM      7  C   UNL     1      17.237 -19.466  27.559  1.00  0.00     0.053 C 
BRANCH   7   8
ATOM      8  C   UNL     1      16.949 -18.551  28.707  1.00  0.00     0.041 C 
ATOM      9  O   UNL     1      16.042 -17.683  28.613  1.00  0.00    -0.550 OA
ATOM     10  O   UNL     1      17.716 -18.622  29.863  1.00  0.00    -0.550 OA
ENDBRANCH   7   8
ENDBRANCH   6   7
ENDBRANCH   5   6
ENDBRANCH   4   5
ENDBRANCH   3   4
ENDBRANCH   2   3
ENDBRANCH   1   2
BRANCH   1  11
ATOM     11  C   UNL     1      23.360 -21.283  23.290  1.00  0.00     0.000 C 
BRANCH  11  12
ATOM     12  C   UNL     1      24.098 -22.603  23.571  1.00  0.00     0.000 C 
BRANCH  12  13
ATOM     13  C   UNL     1      25.559 -22.389  24.005  1.00  0.00     0.000 C 
BRANCH  13  14
ATOM     14  C   UNL     1      26.121 -23.586  24.789  1.00  0.00     0.000 C 
BRANCH  14  15
ATOM     15  C   UNL     1      27.081 -23.162  25.914  1.00  0.00     0.000 C 
BRANCH  15  16
ATOM     16  C   UNL     1      26.361 -22.859  27.240  1.00  0.00     0.006 C 
BRANCH  16  17
ATOM     17  C   UNL     1      25.052 -22.069  27.071  1.00  0.00     0.053 C 
BRANCH  17  18
ATOM     18  C   UNL     1      24.047 -22.386  28.138  1.00  0.00     0.041 C 
ATOM     19  O   UNL     1      23.052 -23.111  27.875  1.00  0.00    -0.550 OA
ATOM     20  O   UNL     1      24.190 -21.853  29.412  1.00  0.00    -0.550 OA
ENDBRANCH  17  18
ENDBRANCH  16  17
ENDBRANCH  15  16
ENDBRANCH  14  15
ENDBRANCH  13  14
ENDBRANCH  12  13
ENDBRANCH  11  12
ENDBRANCH   1  11
TORSDOF 15
ENDMDL
MODEL 9
REMARK VINA RESULT:     8.283     11.635     14.191
REMARK INTER + INTRA:          14.658
REMARK INTER:                  14.670
REMARK INTRA:                  -0.012
REMARK UNBOUND:                -0.889
REMARK SMILES O=C([O-])CCCCCCCCCCCCCCC(=O)[O-]
REMARK SMILES IDX 10 1 9 2 8 3 7 4 6 5 5 6 4 7 2 8 1 9 3 10 11 11 12 12 13 13
REMARK SMILES IDX 14 14 15 15 16 16 17 17 18 18 19 19 20 20
REMARK H PARENT
REMARK Flexibility Score: inf
ROOT
ATOM      1  C   UNL     1      21.889 -21.109  25.846  1.00  0.00     0.000 C 
ENDROOT
BRANCH   1   2
ATOM      2  C   UNL     1      21.945 -20.969  24.310  1.00  0.00     0.000 C 
BRANCH   2   3
ATOM      3  C   UNL     1      23.342 -20.616  23.751  1.00  0.00     0.000 C 
BRANCH   3   4
ATOM      4  C   UNL     1      24.122 -21.828  23.209  1.00  0.00     0.000 C 
BRANCH   4   5
ATOM      5  C   UNL     1      24.983 -22.563  24.250  1.00  0.00     0.000 C 
BRANCH   5   6
ATOM      6  C   UNL     1      25.396 -21.662  25.424  1.00  0.00     0.006 C 
BRANCH   6   7
ATOM      7  C   UNL     1      25.656 -22.493  26.685  1.00  0.00     0.053 C 
BRANCH   7   8
ATOM      8  C   UNL     1      27.035 -23.072  26.653  1.00  0.00     0.041 C 
ATOM      9  O   UNL     1      27.978 -22.433  26.117  1.00  0.00    -0.550 OA
ATOM     10  O   UNL     1      27.270 -24.339  27.172  1.00  0.00    -0.550 OA
ENDBRANCH   7   8
ENDBRANCH   6   7
ENDBRANCH   5   6
ENDBRANCH   4   5
ENDBRANCH   3   4
ENDBRANCH   2   3
ENDBRANCH   1   2
BRANCH   1  11
ATOM     11  C   UNL     1      21.201 -19.947  26.597  1.00  0.00     0.000 C 
BRANCH  11  12
ATOM     12  C   UNL     1      19.724 -19.705  26.235  1.00  0.00     0.000 C 
BRANCH  12  13
ATOM     13  C   UNL     1      18.797 -19.736  27.462  1.00  0.00     0.000 C 
BRANCH  13  14
ATOM     14  C   UNL     1      17.389 -19.207  27.148  1.00  0.00     0.000 C 
BRANCH  14  15
ATOM     15  C   UNL     1      17.385 -18.153  26.027  1.00  0.00     0.000 C 
BRANCH  15  16
ATOM     16  C   UNL     1      17.788 -18.728  24.658  1.00  0.00     0.006 C 
BRANCH  16  17
ATOM     17  C   UNL     1      16.662 -19.501  23.950  1.00  0.00     0.053 C 
BRANCH  17  18
ATOM     18  C   UNL     1      17.144 -20.235  22.735  1.00  0.00     0.041 C 
ATOM     19  O   UNL     1      16.623 -21.335  22.412  1.00  0.00    -0.550 OA
ATOM     20  O   UNL     1      18.190 -19.723  21.979  1.00  0.00    -0.550 OA
ENDBRANCH  17  18
ENDBRANCH  16  17
ENDBRANCH  15  16
ENDBRANCH  14  15
ENDBRANCH  13  14
ENDBRANCH  12  13
ENDBRANCH  11  12
ENDBRANCH   1  11
TORSDOF 15
ENDMDL
