MODEL 1
REMARK VINA RESULT:    17.874      0.000      0.000
REMARK INTER + INTRA:          26.621
REMARK INTER:                  26.233
REMARK INTRA:                   0.388
REMARK UNBOUND:                 0.388
REMARK SMILES O=c1c(O[C@H]2O[C@@H](CO)[C@H](O)[C@@H](O)[C@H]2O)c(-c2ccc(O)c(O)c2)oc2cc(O)cc(O)c12
REMARK SMILES IDX 4 1 3 2 16 3 25 4 2 5 26 6 1 7 33 8 27 9 31 10 28 11 30 12
REMARK SMILES IDX 17 13 18 14 19 15 20 16 24 17 22 18 21 19 23 21 32 23 29 25
REMARK SMILES IDX 5 27 14 28 6 29 12 30 7 31 10 32 15 33 13 35 8 37 9 38 11 40
REMARK H PARENT 21 20 23 22 32 24 29 26 15 34 13 36 9 39 11 41
REMARK Flexibility Score: inf
ROOT
ATOM      1  O   UNL     1     159.816 147.212 169.667  1.00  0.00    -0.454 OA
ENDROOT
BRANCH   1   2
ATOM      2  C   UNL     1     159.898 148.439 168.993  1.00  0.00     0.214 A 
ATOM      3  C   UNL     1     159.976 148.518 167.585  1.00  0.00     0.180 A 
ATOM      4  O   UNL     1     159.959 149.705 166.989  1.00  0.00    -0.452 OA
ATOM      5  C   UNL     1     159.899 149.625 169.734  1.00  0.00     0.239 A 
ATOM      6  C   UNL     1     159.917 150.854 167.654  1.00  0.00     0.146 A 
ATOM      7  O   UNL     1     159.881 149.562 170.994  1.00  0.00    -0.285 OA
ATOM      8  C   UNL     1     159.902 150.867 169.068  1.00  0.00     0.111 A 
ATOM      9  C   UNL     1     159.902 152.055 166.939  1.00  0.00     0.094 A 
ATOM     10  C   UNL     1     159.876 152.109 169.746  1.00  0.00     0.134 A 
ATOM     11  C   UNL     1     159.875 153.280 167.614  1.00  0.00     0.123 A 
ATOM     12  C   UNL     1     159.864 153.303 169.010  1.00  0.00     0.093 A 
BRANCH   3  13
ATOM     13  C   UNL     1     160.099 147.315 166.733  1.00  0.00     0.025 A 
ATOM     14  C   UNL     1     160.901 147.324 165.580  1.00  0.00     0.016 A 
ATOM     15  C   UNL     1     161.003 146.182 164.783  1.00  0.00     0.051 A 
ATOM     16  C   UNL     1     160.293 145.021 165.117  1.00  0.00     0.157 A 
ATOM     17  C   UNL     1     159.371 146.159 167.052  1.00  0.00     0.062 A 
ATOM     18  C   UNL     1     159.469 145.012 166.255  1.00  0.00     0.158 A 
BRANCH  16  19
ATOM     19  O   UNL     1     160.399 143.881 164.321  1.00  0.00    -0.504 OA
ATOM     20  H   UNL     1     159.932 143.814 163.424  1.00  0.00     0.293 HD
ENDBRANCH  16  19
BRANCH  18  21
ATOM     21  O   UNL     1     158.744 143.875 166.611  1.00  0.00    -0.504 OA
ATOM     22  H   UNL     1     158.801 143.014 166.082  1.00  0.00     0.293 HD
ENDBRANCH  18  21
ENDBRANCH   3  13
BRANCH  10  23
ATOM     23  O   UNL     1     159.861 152.166 171.141  1.00  0.00    -0.507 OA
ATOM     24  H   UNL     1     159.340 151.498 171.696  1.00  0.00     0.293 HD
ENDBRANCH  10  23
BRANCH  11  25
ATOM     25  O   UNL     1     159.861 154.480 166.906  1.00  0.00    -0.508 OA
ATOM     26  H   UNL     1     159.545 154.525 165.946  1.00  0.00     0.293 HD
ENDBRANCH  11  25
ENDBRANCH   1   2
BRANCH   1  27
ATOM     27  C   UNL     1     159.748 147.102 171.092  1.00  0.00     0.339 C 
ATOM     28  C   UNL     1     160.966 146.356 171.663  1.00  0.00     0.214 C 
ATOM     29  O   UNL     1     158.519 146.516 171.498  1.00  0.00    -0.332 OA
ATOM     30  C   UNL     1     160.934 144.869 171.278  1.00  0.00     0.180 C 
ATOM     31  C   UNL     1     158.387 145.139 171.159  1.00  0.00     0.179 C 
ATOM     32  C   UNL     1     159.570 144.265 171.651  1.00  0.00     0.177 C 
BRANCH  28  33
ATOM     33  O   UNL     1     162.150 146.962 171.212  1.00  0.00    -0.384 OA
ATOM     34  H   UNL     1     162.384 147.663 171.877  1.00  0.00     0.211 HD
ENDBRANCH  28  33
BRANCH  30  35
ATOM     35  O   UNL     1     161.176 144.697 169.905  1.00  0.00    -0.387 OA
ATOM     36  H   UNL     1     160.341 144.338 169.504  1.00  0.00     0.211 HD
ENDBRANCH  30  35
BRANCH  31  37
ATOM     37  C   UNL     1     158.015 144.928 169.674  1.00  0.00     0.191 C 
BRANCH  37  38
ATOM     38  O   UNL     1     156.625 144.996 169.499  1.00  0.00    -0.394 OA
ATOM     39  H   UNL     1     156.297 145.723 170.090  1.00  0.00     0.210 HD
ENDBRANCH  37  38
ENDBRANCH  31  37
BRANCH  32  40
ATOM     40  O   UNL     1     159.481 144.136 173.049  1.00  0.00    -0.387 OA
ATOM     41  H   UNL     1     158.589 143.750 173.250  1.00  0.00     0.211 HD
ENDBRANCH  32  40
ENDBRANCH   1  27
TORSDOF 12
ENDMDL
MODEL 2
REMARK VINA RESULT:    19.574      1.950      6.172
REMARK INTER + INTRA:          29.115
REMARK INTER:                  29.188
REMARK INTRA:                  -0.073
REMARK UNBOUND:                 0.388
REMARK SMILES O=c1c(O[C@H]2O[C@@H](CO)[C@H](O)[C@@H](O)[C@H]2O)c(-c2ccc(O)c(O)c2)oc2cc(O)cc(O)c12
REMARK SMILES IDX 4 1 3 2 16 3 25 4 2 5 26 6 1 7 33 8 27 9 31 10 28 11 30 12
REMARK SMILES IDX 17 13 18 14 19 15 20 16 24 17 22 18 21 19 23 21 32 23 29 25
REMARK SMILES IDX 5 27 14 28 6 29 12 30 7 31 10 32 15 33 13 35 8 37 9 38 11 40
REMARK H PARENT 21 20 23 22 32 24 29 26 15 34 13 36 9 39 11 41
REMARK Flexibility Score: inf
ROOT
ATOM      1  O   UNL     1     160.291 148.589 169.583  1.00  0.00    -0.454 OA
ENDROOT
BRANCH   1   2
ATOM      2  C   UNL     1     160.371 147.585 170.558  1.00  0.00     0.214 A 
ATOM      3  C   UNL     1     160.507 146.221 170.221  1.00  0.00     0.180 A 
ATOM      4  O   UNL     1     160.670 145.317 171.182  1.00  0.00    -0.452 OA
ATOM      5  C   UNL     1     160.319 147.943 171.910  1.00  0.00     0.239 A 
ATOM      6  C   UNL     1     160.670 145.620 172.475  1.00  0.00     0.146 A 
ATOM      7  O   UNL     1     160.147 149.154 172.219  1.00  0.00    -0.285 OA
ATOM      8  C   UNL     1     160.476 146.954 172.902  1.00  0.00     0.111 A 
ATOM      9  C   UNL     1     160.849 144.600 173.414  1.00  0.00     0.094 A 
ATOM     10  C   UNL     1     160.462 147.240 174.288  1.00  0.00     0.134 A 
ATOM     11  C   UNL     1     160.837 144.888 174.783  1.00  0.00     0.123 A 
ATOM     12  C   UNL     1     160.642 146.202 175.214  1.00  0.00     0.093 A 
BRANCH   3  13
ATOM     13  C   UNL     1     160.452 145.744 168.822  1.00  0.00     0.025 A 
ATOM     14  C   UNL     1     161.614 145.325 168.154  1.00  0.00     0.016 A 
ATOM     15  C   UNL     1     161.545 144.882 166.831  1.00  0.00     0.051 A 
ATOM     16  C   UNL     1     160.319 144.869 166.152  1.00  0.00     0.157 A 
ATOM     17  C   UNL     1     159.229 145.752 168.133  1.00  0.00     0.062 A 
ATOM     18  C   UNL     1     159.156 145.310 166.806  1.00  0.00     0.158 A 
BRANCH  16  19
ATOM     19  O   UNL     1     160.254 144.424 164.833  1.00  0.00    -0.504 OA
ATOM     20  H   UNL     1     159.370 144.189 164.395  1.00  0.00     0.293 HD
ENDBRANCH  16  19
BRANCH  18  21
ATOM     21  O   UNL     1     157.923 145.316 166.157  1.00  0.00    -0.504 OA
ATOM     22  H   UNL     1     157.676 144.620 165.464  1.00  0.00     0.293 HD
ENDBRANCH  18  21
ENDBRANCH   3  13
BRANCH  10  23
ATOM     23  O   UNL     1     160.273 148.544 174.751  1.00  0.00    -0.507 OA
ATOM     24  H   UNL     1     159.651 149.190 174.283  1.00  0.00     0.293 HD
ENDBRANCH  10  23
BRANCH  11  25
ATOM     25  O   UNL     1     161.014 143.875 175.722  1.00  0.00    -0.508 OA
ATOM     26  H   UNL     1     161.851 143.304 175.735  1.00  0.00     0.293 HD
ENDBRANCH  11  25
ENDBRANCH   1   2
BRANCH   1  27
ATOM     27  C   UNL     1     159.057 149.178 169.160  1.00  0.00     0.339 C 
ATOM     28  C   UNL     1     159.089 149.553 167.668  1.00  0.00     0.214 C 
ATOM     29  O   UNL     1     158.711 150.280 169.986  1.00  0.00    -0.332 OA
ATOM     30  C   UNL     1     160.046 150.728 167.415  1.00  0.00     0.180 C 
ATOM     31  C   UNL     1     159.562 151.413 169.837  1.00  0.00     0.179 C 
ATOM     32  C   UNL     1     159.711 151.887 168.368  1.00  0.00     0.177 C 
BRANCH  28  33
ATOM     33  O   UNL     1     159.459 148.434 166.903  1.00  0.00    -0.384 OA
ATOM     34  H   UNL     1     159.804 148.781 166.038  1.00  0.00     0.211 HD
ENDBRANCH  28  33
BRANCH  30  35
ATOM     35  O   UNL     1     161.384 150.336 167.586  1.00  0.00    -0.387 OA
ATOM     36  H   UNL     1     161.519 149.513 167.047  1.00  0.00     0.211 HD
ENDBRANCH  30  35
BRANCH  31  37
ATOM     37  C   UNL     1     160.901 151.248 170.591  1.00  0.00     0.191 C 
BRANCH  37  38
ATOM     38  O   UNL     1     161.820 152.228 170.185  1.00  0.00    -0.394 OA
ATOM     39  H   UNL     1     161.529 153.083 170.597  1.00  0.00     0.210 HD
ENDBRANCH  37  38
ENDBRANCH  31  37
BRANCH  32  40
ATOM     40  O   UNL     1     158.505 152.489 167.968  1.00  0.00    -0.387 OA
ATOM     41  H   UNL     1     158.346 152.225 167.024  1.00  0.00     0.211 HD
ENDBRANCH  32  40
ENDBRANCH   1  27
TORSDOF 12
ENDMDL
MODEL 3
REMARK VINA RESULT:    20.337      2.164      6.884
REMARK INTER + INTRA:          30.236
REMARK INTER:                  30.105
REMARK INTRA:                   0.131
REMARK UNBOUND:                 0.388
REMARK SMILES O=c1c(O[C@H]2O[C@@H](CO)[C@H](O)[C@@H](O)[C@H]2O)c(-c2ccc(O)c(O)c2)oc2cc(O)cc(O)c12
REMARK SMILES IDX 4 1 3 2 16 3 25 4 2 5 26 6 1 7 33 8 27 9 31 10 28 11 30 12
REMARK SMILES IDX 17 13 18 14 19 15 20 16 24 17 22 18 21 19 23 21 32 23 29 25
REMARK SMILES IDX 5 27 14 28 6 29 12 30 7 31 10 32 15 33 13 35 8 37 9 38 11 40
REMARK H PARENT 21 20 23 22 32 24 29 26 15 34 13 36 9 39 11 41
REMARK Flexibility Score: inf
ROOT
ATOM      1  O   UNL     1     160.271 147.051 169.129  1.00  0.00    -0.454 OA
ENDROOT
BRANCH   1   2
ATOM      2  C   UNL     1     160.597 146.990 170.491  1.00  0.00     0.214 A 
ATOM      3  C   UNL     1     160.100 147.927 171.424  1.00  0.00     0.180 A 
ATOM      4  O   UNL     1     160.364 147.773 172.717  1.00  0.00    -0.452 OA
ATOM      5  C   UNL     1     161.437 145.968 170.946  1.00  0.00     0.239 A 
ATOM      6  C   UNL     1     161.122 146.793 173.195  1.00  0.00     0.146 A 
ATOM      7  O   UNL     1     161.926 145.158 170.112  1.00  0.00    -0.285 OA
ATOM      8  C   UNL     1     161.711 145.848 172.323  1.00  0.00     0.111 A 
ATOM      9  C   UNL     1     161.343 146.713 174.573  1.00  0.00     0.094 A 
ATOM     10  C   UNL     1     162.529 144.827 172.863  1.00  0.00     0.134 A 
ATOM     11  C   UNL     1     162.151 145.700 175.102  1.00  0.00     0.123 A 
ATOM     12  C   UNL     1     162.740 144.765 174.248  1.00  0.00     0.093 A 
BRANCH   3  13
ATOM     13  C   UNL     1     159.304 149.104 171.013  1.00  0.00     0.025 A 
ATOM     14  C   UNL     1     158.101 149.426 171.660  1.00  0.00     0.016 A 
ATOM     15  C   UNL     1     157.358 150.538 171.257  1.00  0.00     0.051 A 
ATOM     16  C   UNL     1     157.799 151.333 170.190  1.00  0.00     0.157 A 
ATOM     17  C   UNL     1     159.731 149.888 169.930  1.00  0.00     0.062 A 
ATOM     18  C   UNL     1     158.989 151.003 169.521  1.00  0.00     0.158 A 
BRANCH  16  19
ATOM     19  O   UNL     1     157.057 152.444 169.792  1.00  0.00    -0.504 OA
ATOM     20  H   UNL     1     157.177 152.862 168.876  1.00  0.00     0.293 HD
ENDBRANCH  16  19
BRANCH  18  21
ATOM     21  O   UNL     1     159.451 151.769 168.452  1.00  0.00    -0.504 OA
ATOM     22  H   UNL     1     159.082 152.691 168.251  1.00  0.00     0.293 HD
ENDBRANCH  18  21
ENDBRANCH   3  13
BRANCH  10  23
ATOM     23  O   UNL     1     163.130 143.875 172.037  1.00  0.00    -0.507 OA
ATOM     24  H   UNL     1     162.738 143.628 171.137  1.00  0.00     0.293 HD
ENDBRANCH  10  23
BRANCH  11  25
ATOM     25  O   UNL     1     162.375 145.616 176.474  1.00  0.00    -0.508 OA
ATOM     26  H   UNL     1     162.988 144.913 176.869  1.00  0.00     0.293 HD
ENDBRANCH  11  25
ENDBRANCH   1   2
BRANCH   1  27
ATOM     27  C   UNL     1     159.046 146.543 168.591  1.00  0.00     0.339 C 
ATOM     28  C   UNL     1     159.063 145.008 168.491  1.00  0.00     0.214 C 
ATOM     29  O   UNL     1     158.743 147.160 167.348  1.00  0.00    -0.332 OA
ATOM     30  C   UNL     1     160.046 144.535 167.409  1.00  0.00     0.180 C 
ATOM     31  C   UNL     1     159.621 146.800 166.286  1.00  0.00     0.179 C 
ATOM     32  C   UNL     1     159.758 145.268 166.088  1.00  0.00     0.177 C 
BRANCH  28  33
ATOM     33  O   UNL     1     159.390 144.453 169.740  1.00  0.00    -0.384 OA
ATOM     34  H   UNL     1     160.359 144.618 169.880  1.00  0.00     0.211 HD
ENDBRANCH  28  33
BRANCH  30  35
ATOM     35  O   UNL     1     161.376 144.760 167.802  1.00  0.00    -0.387 OA
ATOM     36  H   UNL     1     161.913 144.855 166.973  1.00  0.00     0.211 HD
ENDBRANCH  30  35
BRANCH  31  37
ATOM     37  C   UNL     1     160.967 147.556 166.350  1.00  0.00     0.191 C 
BRANCH  37  38
ATOM     38  O   UNL     1     160.848 148.827 165.770  1.00  0.00    -0.394 OA
ATOM     39  H   UNL     1     161.121 149.485 166.462  1.00  0.00     0.210 HD
ENDBRANCH  37  38
ENDBRANCH  31  37
BRANCH  32  40
ATOM     40  O   UNL     1     158.562 144.779 165.533  1.00  0.00    -0.387 OA
ATOM     41  H   UNL     1     158.123 144.223 166.229  1.00  0.00     0.211 HD
ENDBRANCH  32  40
ENDBRANCH   1  27
TORSDOF 12
ENDMDL
MODEL 4
REMARK VINA RESULT:    20.434      2.006      6.113
REMARK INTER + INTRA:          30.378
REMARK INTER:                  31.294
REMARK INTRA:                  -0.916
REMARK UNBOUND:                 0.388
REMARK SMILES O=c1c(O[C@H]2O[C@@H](CO)[C@H](O)[C@@H](O)[C@H]2O)c(-c2ccc(O)c(O)c2)oc2cc(O)cc(O)c12
REMARK SMILES IDX 4 1 3 2 16 3 25 4 2 5 26 6 1 7 33 8 27 9 31 10 28 11 30 12
REMARK SMILES IDX 17 13 18 14 19 15 20 16 24 17 22 18 21 19 23 21 32 23 29 25
REMARK SMILES IDX 5 27 14 28 6 29 12 30 7 31 10 32 15 33 13 35 8 37 9 38 11 40
REMARK H PARENT 21 20 23 22 32 24 29 26 15 34 13 36 9 39 11 41
REMARK Flexibility Score: inf
ROOT
ATOM      1  O   UNL     1     159.865 148.762 169.755  1.00  0.00    -0.454 OA
ENDROOT
BRANCH   1   2
ATOM      2  C   UNL     1     160.132 147.756 170.694  1.00  0.00     0.214 A 
ATOM      3  C   UNL     1     160.440 146.433 170.308  1.00  0.00     0.180 A 
ATOM      4  O   UNL     1     160.775 145.537 171.231  1.00  0.00    -0.452 OA
ATOM      5  C   UNL     1     160.099 148.069 172.057  1.00  0.00     0.239 A 
ATOM      6  C   UNL     1     160.797 145.805 172.532  1.00  0.00     0.146 A 
ATOM      7  O   UNL     1     159.776 149.235 172.412  1.00  0.00    -0.285 OA
ATOM      8  C   UNL     1     160.441 147.088 173.009  1.00  0.00     0.111 A 
ATOM      9  C   UNL     1     161.163 144.797 173.429  1.00  0.00     0.094 A 
ATOM     10  C   UNL     1     160.457 147.334 174.403  1.00  0.00     0.134 A 
ATOM     11  C   UNL     1     161.179 145.046 174.805  1.00  0.00     0.123 A 
ATOM     12  C   UNL     1     160.826 146.309 175.286  1.00  0.00     0.093 A 
BRANCH   3  13
ATOM     13  C   UNL     1     160.381 145.988 168.899  1.00  0.00     0.025 A 
ATOM     14  C   UNL     1     161.536 145.549 168.230  1.00  0.00     0.016 A 
ATOM     15  C   UNL     1     161.465 145.137 166.897  1.00  0.00     0.051 A 
ATOM     16  C   UNL     1     160.244 145.175 166.210  1.00  0.00     0.157 A 
ATOM     17  C   UNL     1     159.165 146.046 168.201  1.00  0.00     0.062 A 
ATOM     18  C   UNL     1     159.090 145.636 166.864  1.00  0.00     0.158 A 
BRANCH  16  19
ATOM     19  O   UNL     1     160.176 144.760 164.880  1.00  0.00    -0.504 OA
ATOM     20  H   UNL     1     159.506 145.159 164.233  1.00  0.00     0.293 HD
ENDBRANCH  16  19
BRANCH  18  21
ATOM     21  O   UNL     1     157.862 145.692 166.207  1.00  0.00    -0.504 OA
ATOM     22  H   UNL     1     157.657 145.115 165.400  1.00  0.00     0.293 HD
ENDBRANCH  18  21
ENDBRANCH   3  13
BRANCH  10  23
ATOM     23  O   UNL     1     160.112 148.586 174.916  1.00  0.00    -0.507 OA
ATOM     24  H   UNL     1     159.584 148.683 175.774  1.00  0.00     0.293 HD
ENDBRANCH  10  23
BRANCH  11  25
ATOM     25  O   UNL     1     161.542 144.045 175.703  1.00  0.00    -0.508 OA
ATOM     26  H   UNL     1     162.201 144.219 176.453  1.00  0.00     0.293 HD
ENDBRANCH  11  25
ENDBRANCH   1   2
BRANCH   1  27
ATOM     27  C   UNL     1     160.233 150.132 169.946  1.00  0.00     0.339 C 
ATOM     28  C   UNL     1     159.005 151.058 169.924  1.00  0.00     0.214 C 
ATOM     29  O   UNL     1     161.223 150.528 169.008  1.00  0.00    -0.332 OA
ATOM     30  C   UNL     1     158.399 151.138 168.514  1.00  0.00     0.180 C 
ATOM     31  C   UNL     1     160.758 150.606 167.664  1.00  0.00     0.179 C 
ATOM     32  C   UNL     1     159.496 151.491 167.496  1.00  0.00     0.177 C 
BRANCH  28  33
ATOM     33  O   UNL     1     158.051 150.608 170.852  1.00  0.00    -0.384 OA
ATOM     34  H   UNL     1     157.258 151.199 170.758  1.00  0.00     0.211 HD
ENDBRANCH  28  33
BRANCH  30  35
ATOM     35  O   UNL     1     157.785 149.926 168.158  1.00  0.00    -0.387 OA
ATOM     36  H   UNL     1     157.035 150.147 167.547  1.00  0.00     0.211 HD
ENDBRANCH  30  35
BRANCH  31  37
ATOM     37  C   UNL     1     160.655 149.217 166.993  1.00  0.00     0.191 C 
BRANCH  37  38
ATOM     38  O   UNL     1     159.713 149.240 165.953  1.00  0.00    -0.394 OA
ATOM     39  H   UNL     1     159.353 150.164 165.912  1.00  0.00     0.210 HD
ENDBRANCH  37  38
ENDBRANCH  31  37
BRANCH  32  40
ATOM     40  O   UNL     1     159.868 152.837 167.656  1.00  0.00    -0.387 OA
ATOM     41  H   UNL     1     160.189 153.158 166.773  1.00  0.00     0.211 HD
ENDBRANCH  32  40
ENDBRANCH   1  27
TORSDOF 12
ENDMDL
