MODEL 1
REMARK VINA RESULT:    -3.643      0.000      0.000
REMARK INTER + INTRA:          -8.293
REMARK INTER:                  -6.412
REMARK INTRA:                  -1.880
REMARK UNBOUND:                -1.880
REMARK SMILES CCCCCCCCCCCCCCC(=O)[O-]
REMARK SMILES IDX 9 1 10 2 11 3 12 4 13 5 14 6 15 7 16 8 17 9 8 10 7 11 6 12
REMARK SMILES IDX 5 13 4 14 3 15 2 16 1 17
REMARK H PARENT
REMARK Flexibility Score: inf
ROOT
ATOM      1  C   UNL     1       7.039   1.219  48.734  1.00  0.00     0.000 C 
ENDROOT
BRANCH   1   2
ATOM      2  C   UNL     1       6.469   1.980  47.527  1.00  0.00     0.000 C 
BRANCH   2   3
ATOM      3  C   UNL     1       5.758   3.288  47.922  1.00  0.00     0.000 C 
BRANCH   3   4
ATOM      4  C   UNL     1       6.504   4.146  48.959  1.00  0.00     0.000 C 
BRANCH   4   5
ATOM      5  C   UNL     1       7.159   5.396  48.346  1.00  0.00     0.006 C 
BRANCH   5   6
ATOM      6  C   UNL     1       7.276   6.544  49.357  1.00  0.00     0.053 C 
BRANCH   6   7
ATOM      7  C   UNL     1       7.776   7.801  48.712  1.00  0.00     0.041 C 
ATOM      8  O   UNL     1       7.765   7.917  47.458  1.00  0.00    -0.550 OA
ATOM      9  O   UNL     1       8.219   8.858  49.497  1.00  0.00    -0.550 OA
ENDBRANCH   6   7
ENDBRANCH   5   6
ENDBRANCH   4   5
ENDBRANCH   3   4
ENDBRANCH   2   3
ENDBRANCH   1   2
BRANCH   1  10
ATOM     10  C   UNL     1       5.993   0.260  49.322  1.00  0.00     0.000 C 
BRANCH  10  11
ATOM     11  C   UNL     1       5.946   0.309  50.857  1.00  0.00    -0.000 C 
BRANCH  11  12
ATOM     12  C   UNL     1       6.758   1.480  51.438  1.00  0.00    -0.000 C 
BRANCH  12  13
ATOM     13  C   UNL     1       5.883   2.477  52.213  1.00  0.00    -0.000 C 
BRANCH  13  14
ATOM     14  C   UNL     1       4.449   1.961  52.424  1.00  0.00    -0.000 C 
BRANCH  14  15
ATOM     15  C   UNL     1       3.386   2.949  51.919  1.00  0.00    -0.000 C 
BRANCH  15  16
ATOM     16  C   UNL     1       3.220   2.907  50.393  1.00  0.00    -0.003 C 
ATOM     17  C   UNL     1       2.585   1.594  49.944  1.00  0.00     0.004 C 
ENDBRANCH  15  16
ENDBRANCH  14  15
ENDBRANCH  13  14
ENDBRANCH  12  13
ENDBRANCH  11  12
ENDBRANCH  10  11
ENDBRANCH   1  10
TORSDOF 13
ENDMDL
MODEL 2
REMARK VINA RESULT:    -3.620      1.681      2.641
REMARK INTER + INTRA:          -8.251
REMARK INTER:                  -6.295
REMARK INTRA:                  -1.956
REMARK UNBOUND:                -1.880
REMARK SMILES CCCCCCCCCCCCCCC(=O)[O-]
REMARK SMILES IDX 9 1 10 2 11 3 12 4 13 5 14 6 15 7 16 8 17 9 8 10 7 11 6 12
REMARK SMILES IDX 5 13 4 14 3 15 2 16 1 17
REMARK H PARENT
REMARK Flexibility Score: inf
ROOT
ATOM      1  C   UNL     1       6.188   0.244  49.702  1.00  0.00     0.000 C 
ENDROOT
BRANCH   1   2
ATOM      2  C   UNL     1       7.059   1.265  48.954  1.00  0.00     0.000 C 
BRANCH   2   3
ATOM      3  C   UNL     1       6.365   1.853  47.712  1.00  0.00     0.000 C 
BRANCH   3   4
ATOM      4  C   UNL     1       5.720   3.236  47.921  1.00  0.00     0.000 C 
BRANCH   4   5
ATOM      5  C   UNL     1       6.720   4.296  48.412  1.00  0.00     0.006 C 
BRANCH   5   6
ATOM      6  C   UNL     1       6.181   5.090  49.609  1.00  0.00     0.053 C 
BRANCH   6   7
ATOM      7  C   UNL     1       7.280   5.507  50.538  1.00  0.00     0.041 C 
ATOM      8  O   UNL     1       7.788   4.674  51.334  1.00  0.00    -0.550 OA
ATOM      9  O   UNL     1       7.769   6.808  50.499  1.00  0.00    -0.550 OA
ENDBRANCH   6   7
ENDBRANCH   5   6
ENDBRANCH   4   5
ENDBRANCH   3   4
ENDBRANCH   2   3
ENDBRANCH   1   2
BRANCH   1  10
ATOM     10  C   UNL     1       6.231   0.491  51.218  1.00  0.00     0.000 C 
BRANCH  10  11
ATOM     11  C   UNL     1       5.752   1.901  51.599  1.00  0.00    -0.000 C 
BRANCH  11  12
ATOM     12  C   UNL     1       4.232   1.967  51.832  1.00  0.00    -0.000 C 
BRANCH  12  13
ATOM     13  C   UNL     1       3.499   2.739  50.726  1.00  0.00    -0.000 C 
BRANCH  13  14
ATOM     14  C   UNL     1       2.737   1.810  49.763  1.00  0.00    -0.000 C 
BRANCH  14  15
ATOM     15  C   UNL     1       2.544   0.397  50.336  1.00  0.00    -0.000 C 
BRANCH  15  16
ATOM     16  C   UNL     1       1.098  -0.101  50.202  1.00  0.00    -0.003 C 
ATOM     17  C   UNL     1       0.725  -0.321  48.738  1.00  0.00     0.004 C 
ENDBRANCH  15  16
ENDBRANCH  14  15
ENDBRANCH  13  14
ENDBRANCH  12  13
ENDBRANCH  11  12
ENDBRANCH  10  11
ENDBRANCH   1  10
TORSDOF 13
ENDMDL
MODEL 3
REMARK VINA RESULT:    -3.615      0.803      1.450
REMARK INTER + INTRA:          -8.242
REMARK INTER:                  -6.445
REMARK INTRA:                  -1.797
REMARK UNBOUND:                -1.880
REMARK SMILES CCCCCCCCCCCCCCC(=O)[O-]
REMARK SMILES IDX 9 1 10 2 11 3 12 4 13 5 14 6 15 7 16 8 17 9 8 10 7 11 6 12
REMARK SMILES IDX 5 13 4 14 3 15 2 16 1 17
REMARK H PARENT
REMARK Flexibility Score: inf
ROOT
ATOM      1  C   UNL     1       6.387   2.189  47.478  1.00  0.00     0.000 C 
ENDROOT
BRANCH   1   2
ATOM      2  C   UNL     1       5.760   3.426  48.141  1.00  0.00     0.000 C 
BRANCH   2   3
ATOM      3  C   UNL     1       6.751   4.595  48.293  1.00  0.00     0.000 C 
BRANCH   3   4
ATOM      4  C   UNL     1       7.003   5.049  49.741  1.00  0.00     0.000 C 
BRANCH   4   5
ATOM      5  C   UNL     1       7.499   6.502  49.838  1.00  0.00     0.006 C 
BRANCH   5   6
ATOM      6  C   UNL     1       8.003   7.033  48.489  1.00  0.00     0.053 C 
BRANCH   6   7
ATOM      7  C   UNL     1       7.620   8.466  48.279  1.00  0.00     0.041 C 
ATOM      8  O   UNL     1       6.479   8.758  47.832  1.00  0.00    -0.550 OA
ATOM      9  O   UNL     1       8.509   9.480  48.613  1.00  0.00    -0.550 OA
ENDBRANCH   6   7
ENDBRANCH   5   6
ENDBRANCH   4   5
ENDBRANCH   3   4
ENDBRANCH   2   3
ENDBRANCH   1   2
BRANCH   1  10
ATOM     10  C   UNL     1       7.063   1.290  48.524  1.00  0.00     0.000 C 
BRANCH  10  11
ATOM     11  C   UNL     1       6.075   0.326  49.200  1.00  0.00    -0.000 C 
BRANCH  11  12
ATOM     12  C   UNL     1       6.220   0.308  50.732  1.00  0.00    -0.000 C 
BRANCH  12  13
ATOM     13  C   UNL     1       6.759   1.634  51.289  1.00  0.00    -0.000 C 
BRANCH  13  14
ATOM     14  C   UNL     1       5.796   2.284  52.299  1.00  0.00    -0.000 C 
BRANCH  14  15
ATOM     15  C   UNL     1       4.648   3.043  51.616  1.00  0.00    -0.000 C 
BRANCH  15  16
ATOM     16  C   UNL     1       3.371   2.199  51.498  1.00  0.00    -0.003 C 
ATOM     17  C   UNL     1       2.909   2.101  50.046  1.00  0.00     0.004 C 
ENDBRANCH  15  16
ENDBRANCH  14  15
ENDBRANCH  13  14
ENDBRANCH  12  13
ENDBRANCH  11  12
ENDBRANCH  10  11
ENDBRANCH   1  10
TORSDOF 13
ENDMDL
MODEL 4
REMARK VINA RESULT:    -3.597      4.075      6.266
REMARK INTER + INTRA:          -8.211
REMARK INTER:                  -6.017
REMARK INTRA:                  -2.194
REMARK UNBOUND:                -1.880
REMARK SMILES CCCCCCCCCCCCCCC(=O)[O-]
REMARK SMILES IDX 9 1 10 2 11 3 12 4 13 5 14 6 15 7 16 8 17 9 8 10 7 11 6 12
REMARK SMILES IDX 5 13 4 14 3 15 2 16 1 17
REMARK H PARENT
REMARK Flexibility Score: inf
ROOT
ATOM      1  C   UNL     1       6.271   2.041  52.340  1.00  0.00     0.000 C 
ENDROOT
BRANCH   1   2
ATOM      2  C   UNL     1       4.736   2.094  52.336  1.00  0.00     0.000 C 
BRANCH   2   3
ATOM      3  C   UNL     1       4.181   3.410  51.758  1.00  0.00     0.000 C 
BRANCH   3   4
ATOM      4  C   UNL     1       2.937   3.254  50.866  1.00  0.00     0.000 C 
BRANCH   4   5
ATOM      5  C   UNL     1       2.228   1.901  51.054  1.00  0.00     0.006 C 
BRANCH   5   6
ATOM      6  C   UNL     1       2.235   1.060  49.771  1.00  0.00     0.053 C 
BRANCH   6   7
ATOM      7  C   UNL     1       1.092   0.092  49.738  1.00  0.00     0.041 C 
ATOM      8  O   UNL     1       0.681  -0.367  48.639  1.00  0.00    -0.550 OA
ATOM      9  O   UNL     1       0.503  -0.332  50.923  1.00  0.00    -0.550 OA
ENDBRANCH   6   7
ENDBRANCH   5   6
ENDBRANCH   4   5
ENDBRANCH   3   4
ENDBRANCH   2   3
ENDBRANCH   1   2
BRANCH   1  10
ATOM     10  C   UNL     1       6.786   0.933  51.408  1.00  0.00     0.000 C 
BRANCH  10  11
ATOM     11  C   UNL     1       5.647   0.195  50.688  1.00  0.00    -0.000 C 
BRANCH  11  12
ATOM     12  C   UNL     1       5.843   0.149  49.161  1.00  0.00    -0.000 C 
BRANCH  12  13
ATOM     13  C   UNL     1       6.986   1.059  48.687  1.00  0.00    -0.000 C 
BRANCH  13  14
ATOM     14  C   UNL     1       6.512   2.127  47.684  1.00  0.00    -0.000 C 
BRANCH  14  15
ATOM     15  C   UNL     1       5.751   3.277  48.363  1.00  0.00    -0.000 C 
BRANCH  15  16
ATOM     16  C   UNL     1       6.604   4.546  48.502  1.00  0.00    -0.003 C 
ATOM     17  C   UNL     1       7.065   4.742  49.944  1.00  0.00     0.004 C 
ENDBRANCH  15  16
ENDBRANCH  14  15
ENDBRANCH  13  14
ENDBRANCH  12  13
ENDBRANCH  11  12
ENDBRANCH  10  11
ENDBRANCH   1  10
TORSDOF 13
ENDMDL
MODEL 5
REMARK VINA RESULT:    -3.504      1.467      3.410
REMARK INTER + INTRA:          -8.046
REMARK INTER:                  -6.121
REMARK INTRA:                  -1.925
REMARK UNBOUND:                -1.880
REMARK SMILES CCCCCCCCCCCCCCC(=O)[O-]
REMARK SMILES IDX 9 1 10 2 11 3 12 4 13 5 14 6 15 7 16 8 17 9 8 10 7 11 6 12
REMARK SMILES IDX 5 13 4 14 3 15 2 16 1 17
REMARK H PARENT
REMARK Flexibility Score: inf
ROOT
ATOM      1  C   UNL     1       7.351   3.496  51.366  1.00  0.00     0.000 C 
ENDROOT
BRANCH   1   2
ATOM      2  C   UNL     1       7.941   4.556  52.309  1.00  0.00     0.000 C 
BRANCH   2   3
ATOM      3  C   UNL     1       7.228   5.917  52.205  1.00  0.00     0.000 C 
BRANCH   3   4
ATOM      4  C   UNL     1       7.559   6.729  50.941  1.00  0.00     0.000 C 
BRANCH   4   5
ATOM      5  C   UNL     1       6.616   6.421  49.765  1.00  0.00     0.006 C 
BRANCH   5   6
ATOM      6  C   UNL     1       7.381   6.172  48.458  1.00  0.00     0.053 C 
BRANCH   6   7
ATOM      7  C   UNL     1       7.960   7.439  47.906  1.00  0.00     0.041 C 
ATOM      8  O   UNL     1       7.225   8.444  47.721  1.00  0.00    -0.550 OA
ATOM      9  O   UNL     1       9.320   7.521  47.630  1.00  0.00    -0.550 OA
ENDBRANCH   6   7
ENDBRANCH   5   6
ENDBRANCH   4   5
ENDBRANCH   3   4
ENDBRANCH   2   3
ENDBRANCH   1   2
BRANCH   1  10
ATOM     10  C   UNL     1       6.720   2.343  52.162  1.00  0.00     0.000 C 
BRANCH  10  11
ATOM     11  C   UNL     1       5.184   2.401  52.164  1.00  0.00    -0.000 C 
BRANCH  11  12
ATOM     12  C   UNL     1       4.633   3.562  51.316  1.00  0.00    -0.000 C 
BRANCH  12  13
ATOM     13  C   UNL     1       3.611   3.093  50.270  1.00  0.00    -0.000 C 
BRANCH  13  14
ATOM     14  C   UNL     1       4.269   2.334  49.103  1.00  0.00    -0.000 C 
BRANCH  14  15
ATOM     15  C   UNL     1       5.198   3.228  48.267  1.00  0.00    -0.000 C 
BRANCH  15  16
ATOM     16  C   UNL     1       6.403   2.460  47.703  1.00  0.00    -0.003 C 
ATOM     17  C   UNL     1       6.724   1.237  48.558  1.00  0.00     0.004 C 
ENDBRANCH  15  16
ENDBRANCH  14  15
ENDBRANCH  13  14
ENDBRANCH  12  13
ENDBRANCH  11  12
ENDBRANCH  10  11
ENDBRANCH   1  10
TORSDOF 13
ENDMDL
MODEL 6
REMARK VINA RESULT:    -3.478      3.173      4.896
REMARK INTER + INTRA:          -8.001
REMARK INTER:                  -5.809
REMARK INTRA:                  -2.192
REMARK UNBOUND:                -1.880
REMARK SMILES CCCCCCCCCCCCCCC(=O)[O-]
REMARK SMILES IDX 9 1 10 2 11 3 12 4 13 5 14 6 15 7 16 8 17 9 8 10 7 11 6 12
REMARK SMILES IDX 5 13 4 14 3 15 2 16 1 17
REMARK H PARENT
REMARK Flexibility Score: inf
ROOT
ATOM      1  C   UNL     1       4.399   0.771  51.623  1.00  0.00     0.000 C 
ENDROOT
BRANCH   1   2
ATOM      2  C   UNL     1       3.791   0.919  50.221  1.00  0.00     0.000 C 
BRANCH   2   3
ATOM      3  C   UNL     1       3.053   2.257  50.023  1.00  0.00     0.000 C 
BRANCH   3   4
ATOM      4  C   UNL     1       2.368   2.813  51.284  1.00  0.00     0.000 C 
BRANCH   4   5
ATOM      5  C   UNL     1       2.943   4.167  51.733  1.00  0.00     0.006 C 
BRANCH   5   6
ATOM      6  C   UNL     1       2.473   5.322  50.839  1.00  0.00     0.053 C 
BRANCH   6   7
ATOM      7  C   UNL     1       1.330   6.069  51.455  1.00  0.00     0.041 C 
ATOM      8  O   UNL     1       0.184   5.547  51.505  1.00  0.00    -0.550 OA
ATOM      9  O   UNL     1       1.537   7.327  52.008  1.00  0.00    -0.550 OA
ENDBRANCH   6   7
ENDBRANCH   5   6
ENDBRANCH   4   5
ENDBRANCH   3   4
ENDBRANCH   2   3
ENDBRANCH   1   2
BRANCH   1  10
ATOM     10  C   UNL     1       5.922   0.971  51.585  1.00  0.00     0.000 C 
BRANCH  10  11
ATOM     11  C   UNL     1       6.348   2.351  52.111  1.00  0.00    -0.000 C 
BRANCH  11  12
ATOM     12  C   UNL     1       7.515   2.956  51.310  1.00  0.00    -0.000 C 
BRANCH  12  13
ATOM     13  C   UNL     1       7.226   4.390  50.842  1.00  0.00    -0.000 C 
BRANCH  13  14
ATOM     14  C   UNL     1       6.070   4.457  49.827  1.00  0.00    -0.000 C 
BRANCH  14  15
ATOM     15  C   UNL     1       6.533   4.189  48.386  1.00  0.00    -0.000 C 
BRANCH  15  16
ATOM     16  C   UNL     1       5.852   2.959  47.768  1.00  0.00    -0.003 C 
ATOM     17  C   UNL     1       6.771   1.741  47.815  1.00  0.00     0.004 C 
ENDBRANCH  15  16
ENDBRANCH  14  15
ENDBRANCH  13  14
ENDBRANCH  12  13
ENDBRANCH  11  12
ENDBRANCH  10  11
ENDBRANCH   1  10
TORSDOF 13
ENDMDL
MODEL 7
REMARK VINA RESULT:    -3.475      1.662      3.178
REMARK INTER + INTRA:          -7.996
REMARK INTER:                  -6.420
REMARK INTRA:                  -1.576
REMARK UNBOUND:                -1.880
REMARK SMILES CCCCCCCCCCCCCCC(=O)[O-]
REMARK SMILES IDX 9 1 10 2 11 3 12 4 13 5 14 6 15 7 16 8 17 9 8 10 7 11 6 12
REMARK SMILES IDX 5 13 4 14 3 15 2 16 1 17
REMARK H PARENT
REMARK Flexibility Score: inf
ROOT
ATOM      1  C   UNL     1       5.032   3.493  48.685  1.00  0.00     0.000 C 
ENDROOT
BRANCH   1   2
ATOM      2  C   UNL     1       5.354   4.224  49.997  1.00  0.00     0.000 C 
BRANCH   2   3
ATOM      3  C   UNL     1       6.841   4.137  50.386  1.00  0.00     0.000 C 
BRANCH   3   4
ATOM      4  C   UNL     1       7.515   5.488  50.686  1.00  0.00     0.000 C 
BRANCH   4   5
ATOM      5  C   UNL     1       6.972   6.636  49.818  1.00  0.00     0.006 C 
BRANCH   5   6
ATOM      6  C   UNL     1       7.543   6.605  48.394  1.00  0.00     0.053 C 
BRANCH   6   7
ATOM      7  C   UNL     1       7.790   7.986  47.867  1.00  0.00     0.041 C 
ATOM      8  O   UNL     1       6.842   8.811  47.782  1.00  0.00    -0.550 OA
ATOM      9  O   UNL     1       9.074   8.373  47.504  1.00  0.00    -0.550 OA
ENDBRANCH   6   7
ENDBRANCH   5   6
ENDBRANCH   4   5
ENDBRANCH   3   4
ENDBRANCH   2   3
ENDBRANCH   1   2
BRANCH   1  10
ATOM     10  C   UNL     1       6.316   3.182  47.901  1.00  0.00     0.000 C 
BRANCH  10  11
ATOM     11  C   UNL     1       6.478   1.682  47.606  1.00  0.00    -0.000 C 
BRANCH  11  12
ATOM     12  C   UNL     1       6.948   0.884  48.836  1.00  0.00    -0.000 C 
BRANCH  12  13
ATOM     13  C   UNL     1       5.859  -0.053  49.381  1.00  0.00    -0.000 C 
BRANCH  13  14
ATOM     14  C   UNL     1       5.286   0.428  50.726  1.00  0.00    -0.000 C 
BRANCH  14  15
ATOM     15  C   UNL     1       6.384   0.797  51.737  1.00  0.00    -0.000 C 
BRANCH  15  16
ATOM     16  C   UNL     1       6.320  -0.054  53.013  1.00  0.00    -0.003 C 
ATOM     17  C   UNL     1       6.717  -1.500  52.729  1.00  0.00     0.004 C 
ENDBRANCH  15  16
ENDBRANCH  14  15
ENDBRANCH  13  14
ENDBRANCH  12  13
ENDBRANCH  11  12
ENDBRANCH  10  11
ENDBRANCH   1  10
TORSDOF 13
ENDMDL
MODEL 8
REMARK VINA RESULT:    -3.457      2.068      4.041
REMARK INTER + INTRA:          -7.965
REMARK INTER:                  -6.407
REMARK INTRA:                  -1.558
REMARK UNBOUND:                -1.880
REMARK SMILES CCCCCCCCCCCCCCC(=O)[O-]
REMARK SMILES IDX 9 1 10 2 11 3 12 4 13 5 14 6 15 7 16 8 17 9 8 10 7 11 6 12
REMARK SMILES IDX 5 13 4 14 3 15 2 16 1 17
REMARK H PARENT
REMARK Flexibility Score: inf
ROOT
ATOM      1  C   UNL     1       6.771   5.059  48.714  1.00  0.00     0.000 C 
ENDROOT
BRANCH   1   2
ATOM      2  C   UNL     1       7.428   5.796  49.891  1.00  0.00     0.000 C 
BRANCH   2   3
ATOM      3  C   UNL     1       7.922   7.206  49.517  1.00  0.00     0.000 C 
BRANCH   3   4
ATOM      4  C   UNL     1       7.613   7.642  48.074  1.00  0.00     0.000 C 
BRANCH   4   5
ATOM      5  C   UNL     1       6.542   8.743  47.995  1.00  0.00     0.006 C 
BRANCH   5   6
ATOM      6  C   UNL     1       6.162   9.281  49.381  1.00  0.00     0.053 C 
BRANCH   6   7
ATOM      7  C   UNL     1       4.760   8.906  49.756  1.00  0.00     0.041 C 
ATOM      8  O   UNL     1       4.528   7.804  50.318  1.00  0.00    -0.550 OA
ATOM      9  O   UNL     1       3.715   9.790  49.516  1.00  0.00    -0.550 OA
ENDBRANCH   6   7
ENDBRANCH   5   6
ENDBRANCH   4   5
ENDBRANCH   3   4
ENDBRANCH   2   3
ENDBRANCH   1   2
BRANCH   1  10
ATOM     10  C   UNL     1       5.560   4.239  49.186  1.00  0.00     0.000 C 
BRANCH  10  11
ATOM     11  C   UNL     1       5.160   3.148  48.181  1.00  0.00    -0.000 C 
BRANCH  11  12
ATOM     12  C   UNL     1       6.377   2.473  47.523  1.00  0.00    -0.000 C 
BRANCH  12  13
ATOM     13  C   UNL     1       6.973   1.356  48.392  1.00  0.00    -0.000 C 
BRANCH  13  14
ATOM     14  C   UNL     1       5.901   0.600  49.198  1.00  0.00    -0.000 C 
BRANCH  14  15
ATOM     15  C   UNL     1       6.241   0.510  50.694  1.00  0.00    -0.000 C 
BRANCH  15  16
ATOM     16  C   UNL     1       7.077   1.703  51.181  1.00  0.00    -0.003 C 
ATOM     17  C   UNL     1       6.388   2.420  52.339  1.00  0.00     0.004 C 
ENDBRANCH  15  16
ENDBRANCH  14  15
ENDBRANCH  13  14
ENDBRANCH  12  13
ENDBRANCH  11  12
ENDBRANCH  10  11
ENDBRANCH   1  10
TORSDOF 13
ENDMDL
MODEL 9
REMARK VINA RESULT:    -3.416      2.215      3.991
REMARK INTER + INTRA:          -7.893
REMARK INTER:                  -6.456
REMARK INTRA:                  -1.437
REMARK UNBOUND:                -1.880
REMARK SMILES CCCCCCCCCCCCCCC(=O)[O-]
REMARK SMILES IDX 9 1 10 2 11 3 12 4 13 5 14 6 15 7 16 8 17 9 8 10 7 11 6 12
REMARK SMILES IDX 5 13 4 14 3 15 2 16 1 17
REMARK H PARENT
REMARK Flexibility Score: inf
ROOT
ATOM      1  C   UNL     1       7.498   5.801  50.733  1.00  0.00     0.000 C 
ENDROOT
BRANCH   1   2
ATOM      2  C   UNL     1       6.698   6.139  49.465  1.00  0.00     0.000 C 
BRANCH   2   3
ATOM      3  C   UNL     1       7.596   6.461  48.256  1.00  0.00     0.000 C 
BRANCH   3   4
ATOM      4  C   UNL     1       7.758   7.960  47.948  1.00  0.00     0.000 C 
BRANCH   4   5
ATOM      5  C   UNL     1       6.415   8.702  47.848  1.00  0.00     0.006 C 
BRANCH   5   6
ATOM      6  C   UNL     1       6.411  10.006  48.656  1.00  0.00     0.053 C 
BRANCH   6   7
ATOM      7  C   UNL     1       5.192  10.829  48.374  1.00  0.00     0.041 C 
ATOM      8  O   UNL     1       4.127  10.627  49.017  1.00  0.00    -0.550 OA
ATOM      9  O   UNL     1       5.241  11.845  47.427  1.00  0.00    -0.550 OA
ENDBRANCH   6   7
ENDBRANCH   5   6
ENDBRANCH   4   5
ENDBRANCH   3   4
ENDBRANCH   2   3
ENDBRANCH   1   2
BRANCH   1  10
ATOM     10  C   UNL     1       7.498   4.287  50.994  1.00  0.00     0.000 C 
BRANCH  10  11
ATOM     11  C   UNL     1       6.343   3.846  51.907  1.00  0.00    -0.000 C 
BRANCH  11  12
ATOM     12  C   UNL     1       6.060   2.336  51.818  1.00  0.00    -0.000 C 
BRANCH  12  13
ATOM     13  C   UNL     1       6.971   1.625  50.806  1.00  0.00    -0.000 C 
BRANCH  13  14
ATOM     14  C   UNL     1       6.197   1.095  49.586  1.00  0.00    -0.000 C 
BRANCH  14  15
ATOM     15  C   UNL     1       6.854   1.487  48.254  1.00  0.00    -0.000 C 
BRANCH  15  16
ATOM     16  C   UNL     1       6.376   2.853  47.741  1.00  0.00    -0.003 C 
ATOM     17  C   UNL     1       4.974   3.173  48.253  1.00  0.00     0.004 C 
ENDBRANCH  15  16
ENDBRANCH  14  15
ENDBRANCH  13  14
ENDBRANCH  12  13
ENDBRANCH  11  12
ENDBRANCH  10  11
ENDBRANCH   1  10
TORSDOF 13
ENDMDL
