MODEL 1
REMARK VINA RESULT:    -4.343      0.000      0.000
REMARK INTER + INTRA:          -7.027
REMARK INTER:                  -6.628
REMARK INTRA:                  -0.398
REMARK UNBOUND:                -0.398
REMARK SMILES CC1=CCC[C@@H](C)C(=O)C[C@@H](C(C)C)C(=O)C1
REMARK SMILES IDX 8 1 9 2 6 3 7 4 5 5 4 6 3 7 2 8 1 9 10 11 11 12 15 13 16 14
REMARK SMILES IDX 17 15 12 17 13 18 14 19
REMARK H PARENT
REMARK Flexibility Score: 70.00
ROOT
ATOM      1  C   UNL     1      24.955  55.350   8.301  1.00  0.00     0.136 C 
ATOM      2  O   UNL     1      24.034  56.110   8.033  1.00  0.00    -0.299 OA
ENDROOT
BRANCH   1   3
ATOM      3  C   UNL     1      25.232  54.158   7.409  1.00  0.00     0.053 C 
ATOM      4  C   UNL     1      25.672  54.649   6.026  1.00  0.00     0.016 C 
BRANCH   3   5
ATOM      5  C   UNL     1      24.005  53.224   7.276  1.00  0.00     0.015 C 
BRANCH   5   6
ATOM      6  C   UNL     1      23.929  52.140   8.361  1.00  0.00     0.028 C 
BRANCH   6   7
ATOM      7  C   UNL     1      22.864  52.457   9.383  1.00  0.00    -0.028 C 
ATOM      8  C   UNL     1      23.093  52.698  10.694  1.00  0.00    -0.070 CG0
ATOM      9  C   UNL     1      21.910  53.003  11.577  1.00  0.00     0.039 C 
ATOM     10  G   UNL     1      24.484  52.686  11.303  1.00  0.00     0.000 G0
ENDBRANCH   6   7
ENDBRANCH   5   6
ENDBRANCH   3   5
ENDBRANCH   1   3
BRANCH   1  11
ATOM     11  C   UNL     1      25.838  55.652   9.487  1.00  0.00     0.087 C 
BRANCH  11  12
ATOM     12  C   UNL     1      26.275  54.393  10.282  1.00  0.00     0.066 C 
BRANCH  12  13
ATOM     13  C   UNL     1      25.209  54.017  11.307  1.00  0.00     0.140 C 
ATOM     14  O   UNL     1      24.968  54.796  12.218  1.00  0.00    -0.299 OA
BRANCH  13  15
ATOM     15  C   UNL     1      24.497  52.678  11.312  1.00  0.00     0.106 CG0
ATOM     16  G   UNL     1      23.110  52.706  10.696  1.00  0.00     0.000 G0
ENDBRANCH  13  15
ENDBRANCH  12  13
BRANCH  12  17
ATOM     17  C   UNL     1      27.652  54.613  10.989  1.00  0.00    -0.006 C 
ATOM     18  C   UNL     1      28.275  55.977  10.637  1.00  0.00     0.008 C 
ATOM     19  C   UNL     1      28.656  53.504  10.630  1.00  0.00     0.008 C 
ENDBRANCH  12  17
ENDBRANCH  11  12
ENDBRANCH   1  11
TORSDOF 1
ENDMDL
MODEL 2
REMARK VINA RESULT:    -4.295      7.033      8.970
REMARK INTER + INTRA:          -6.953
REMARK INTER:                  -6.958
REMARK INTRA:                   0.005
REMARK UNBOUND:                -0.398
REMARK SMILES CC1=CCC[C@@H](C)C(=O)C[C@@H](C(C)C)C(=O)C1
REMARK SMILES IDX 8 1 9 2 6 3 7 4 5 5 4 6 3 7 2 8 1 9 10 11 11 12 15 13 16 14
REMARK SMILES IDX 17 15 12 17 13 18 14 19
REMARK H PARENT
REMARK Flexibility Score: 70.00
ROOT
ATOM      1  C   UNL     1      26.475  50.934  16.693  1.00  0.00     0.136 C 
ATOM      2  O   UNL     1      25.886  51.279  15.678  1.00  0.00    -0.299 OA
ENDROOT
BRANCH   1   3
ATOM      3  C   UNL     1      26.068  51.511  18.033  1.00  0.00     0.053 C 
ATOM      4  C   UNL     1      24.709  50.936  18.442  1.00  0.00     0.016 C 
BRANCH   3   5
ATOM      5  C   UNL     1      26.008  53.057  18.015  1.00  0.00     0.015 C 
BRANCH   5   6
ATOM      6  C   UNL     1      27.385  53.733  18.087  1.00  0.00     0.028 C 
BRANCH   6   7
ATOM      7  C   UNL     1      27.760  54.361  16.766  1.00  0.00    -0.028 C 
ATOM      8  C   UNL     1      28.834  54.015  16.020  1.00  0.00    -0.070 CG0
ATOM      9  C   UNL     1      29.059  54.745  14.720  1.00  0.00     0.039 C 
ATOM     10  G   UNL     1      29.804  52.922  16.429  1.00  0.00     0.000 G0
ENDBRANCH   6   7
ENDBRANCH   5   6
ENDBRANCH   3   5
ENDBRANCH   1   3
BRANCH   1  11
ATOM     11  C   UNL     1      27.562  49.891  16.596  1.00  0.00     0.087 C 
BRANCH  11  12
ATOM     12  C   UNL     1      28.976  50.421  16.954  1.00  0.00     0.066 C 
BRANCH  12  13
ATOM     13  C   UNL     1      29.396  51.514  15.974  1.00  0.00     0.140 C 
ATOM     14  O   UNL     1      29.476  51.239  14.786  1.00  0.00    -0.299 OA
BRANCH  13  15
ATOM     15  C   UNL     1      29.816  52.904  16.411  1.00  0.00     0.106 CG0
ATOM     16  G   UNL     1      28.843  54.002  16.019  1.00  0.00     0.000 G0
ENDBRANCH  13  15
ENDBRANCH  12  13
BRANCH  12  17
ATOM     17  C   UNL     1      30.032  49.270  16.966  1.00  0.00    -0.006 C 
ATOM     18  C   UNL     1      31.476  49.805  16.993  1.00  0.00     0.008 C 
ATOM     19  C   UNL     1      29.872  48.342  15.748  1.00  0.00     0.008 C 
ENDBRANCH  12  17
ENDBRANCH  11  12
ENDBRANCH   1  11
TORSDOF 1
ENDMDL
MODEL 3
REMARK VINA RESULT:    -4.290      7.370      9.157
REMARK INTER + INTRA:          -6.945
REMARK INTER:                  -6.674
REMARK INTRA:                  -0.271
REMARK UNBOUND:                -0.398
REMARK SMILES CC1=CCC[C@@H](C)C(=O)C[C@@H](C(C)C)C(=O)C1
REMARK SMILES IDX 8 1 9 2 6 3 7 4 5 5 4 6 3 7 2 8 1 9 10 11 11 12 15 13 16 14
REMARK SMILES IDX 17 15 12 17 13 18 14 19
REMARK H PARENT
REMARK Flexibility Score: 70.00
ROOT
ATOM      1  C   UNL     1      25.869  54.061  17.746  1.00  0.00     0.136 C 
ATOM      2  O   UNL     1      25.132  55.013  17.964  1.00  0.00    -0.299 OA
ENDROOT
BRANCH   1   3
ATOM      3  C   UNL     1      27.318  54.114  18.185  1.00  0.00     0.053 C 
ATOM      4  C   UNL     1      27.442  55.007  19.424  1.00  0.00     0.016 C 
BRANCH   3   5
ATOM      5  C   UNL     1      28.254  54.626  17.064  1.00  0.00     0.015 C 
BRANCH   5   6
ATOM      6  C   UNL     1      28.529  53.591  15.963  1.00  0.00     0.028 C 
BRANCH   6   7
ATOM      7  C   UNL     1      29.183  52.351  16.523  1.00  0.00    -0.028 C 
ATOM      8  C   UNL     1      28.690  51.097  16.413  1.00  0.00    -0.070 CG0
ATOM      9  C   UNL     1      29.478  49.968  17.029  1.00  0.00     0.039 C 
ATOM     10  G   UNL     1      27.394  50.781  15.688  1.00  0.00     0.000 G0
ENDBRANCH   6   7
ENDBRANCH   5   6
ENDBRANCH   3   5
ENDBRANCH   1   3
BRANCH   1  11
ATOM     11  C   UNL     1      25.301  52.823  17.097  1.00  0.00     0.087 C 
BRANCH  11  12
ATOM     12  C   UNL     1      25.789  51.496  17.737  1.00  0.00     0.066 C 
BRANCH  12  13
ATOM     13  C   UNL     1      26.217  50.511  16.653  1.00  0.00     0.140 C 
ATOM     14  O   UNL     1      25.650  49.431  16.584  1.00  0.00    -0.299 OA
BRANCH  13  15
ATOM     15  C   UNL     1      27.381  50.762  15.714  1.00  0.00     0.106 CG0
ATOM     16  G   UNL     1      28.686  51.099  16.414  1.00  0.00     0.000 G0
ENDBRANCH  13  15
ENDBRANCH  12  13
BRANCH  12  17
ATOM     17  C   UNL     1      24.687  50.859  18.644  1.00  0.00    -0.006 C 
ATOM     18  C   UNL     1      23.332  51.577  18.503  1.00  0.00     0.008 C 
ATOM     19  C   UNL     1      25.099  50.868  20.126  1.00  0.00     0.008 C 
ENDBRANCH  12  17
ENDBRANCH  11  12
ENDBRANCH   1  11
TORSDOF 1
ENDMDL
MODEL 4
REMARK VINA RESULT:    -4.243      2.812      5.008
REMARK INTER + INTRA:          -6.874
REMARK INTER:                  -6.407
REMARK INTRA:                  -0.467
REMARK UNBOUND:                -0.398
REMARK SMILES CC1=CCC[C@@H](C)C(=O)C[C@@H](C(C)C)C(=O)C1
REMARK SMILES IDX 8 1 9 2 6 3 7 4 5 5 4 6 3 7 2 8 1 9 10 11 11 12 15 13 16 14
REMARK SMILES IDX 17 15 12 17 13 18 14 19
REMARK H PARENT
REMARK Flexibility Score: 70.00
ROOT
ATOM      1  C   UNL     1      25.797  53.130  10.222  1.00  0.00     0.136 C 
ATOM      2  O   UNL     1      25.182  52.097  10.452  1.00  0.00    -0.299 OA
ENDROOT
BRANCH   1   3
ATOM      3  C   UNL     1      27.107  53.075   9.463  1.00  0.00     0.053 C 
ATOM      4  C   UNL     1      26.939  52.192   8.223  1.00  0.00     0.016 C 
BRANCH   3   5
ATOM      5  C   UNL     1      28.272  52.552  10.336  1.00  0.00     0.015 C 
BRANCH   5   6
ATOM      6  C   UNL     1      28.617  53.463  11.523  1.00  0.00     0.028 C 
BRANCH   6   7
ATOM      7  C   UNL     1      29.327  54.715  11.068  1.00  0.00    -0.028 C 
ATOM      8  C   UNL     1      28.845  55.972  11.201  1.00  0.00    -0.070 CG0
ATOM      9  C   UNL     1      29.690  57.113  10.693  1.00  0.00     0.039 C 
ATOM     10  G   UNL     1      27.506  56.277  11.847  1.00  0.00     0.000 G0
ENDBRANCH   6   7
ENDBRANCH   5   6
ENDBRANCH   3   5
ENDBRANCH   1   3
BRANCH   1  11
ATOM     11  C   UNL     1      25.204  54.450  10.650  1.00  0.00     0.087 C 
BRANCH  11  12
ATOM     12  C   UNL     1      25.767  55.673   9.877  1.00  0.00     0.066 C 
BRANCH  12  13
ATOM     13  C   UNL     1      26.411  56.661  10.846  1.00  0.00     0.140 C 
ATOM     14  O   UNL     1      26.098  57.840  10.776  1.00  0.00    -0.299 OA
BRANCH  13  15
ATOM     15  C   UNL     1      27.497  56.272  11.829  1.00  0.00     0.106 CG0
ATOM     16  G   UNL     1      28.841  55.974  11.189  1.00  0.00     0.000 G0
ENDBRANCH  13  15
ENDBRANCH  12  13
BRANCH  12  17
ATOM     17  C   UNL     1      24.653  56.382   9.040  1.00  0.00    -0.006 C 
ATOM     18  C   UNL     1      23.249  55.839   9.363  1.00  0.00     0.008 C 
ATOM     19  C   UNL     1      24.904  56.238   7.529  1.00  0.00     0.008 C 
ENDBRANCH  12  17
ENDBRANCH  11  12
ENDBRANCH   1  11
TORSDOF 1
ENDMDL
MODEL 5
REMARK VINA RESULT:    -4.157      2.004      4.451
REMARK INTER + INTRA:          -6.743
REMARK INTER:                  -6.300
REMARK INTRA:                  -0.443
REMARK UNBOUND:                -0.398
REMARK SMILES CC1=CCC[C@@H](C)C(=O)C[C@@H](C(C)C)C(=O)C1
REMARK SMILES IDX 8 1 9 2 6 3 7 4 5 5 4 6 3 7 2 8 1 9 10 11 11 12 15 13 16 14
REMARK SMILES IDX 17 15 12 17 13 18 14 19
REMARK H PARENT
REMARK Flexibility Score: 70.00
ROOT
ATOM      1  C   UNL     1      26.768  54.436  10.524  1.00  0.00     0.136 C 
ATOM      2  O   UNL     1      27.716  55.199  10.648  1.00  0.00    -0.299 OA
ENDROOT
BRANCH   1   3
ATOM      3  C   UNL     1      27.009  52.944  10.425  1.00  0.00     0.053 C 
ATOM      4  C   UNL     1      27.917  52.498  11.575  1.00  0.00     0.016 C 
BRANCH   3   5
ATOM      5  C   UNL     1      27.630  52.536   9.068  1.00  0.00     0.015 C 
BRANCH   5   6
ATOM      6  C   UNL     1      26.595  52.154   8.000  1.00  0.00     0.028 C 
BRANCH   6   7
ATOM      7  C   UNL     1      26.391  53.270   7.005  1.00  0.00    -0.028 C 
ATOM      8  C   UNL     1      25.216  53.898   6.772  1.00  0.00    -0.070 CG0
ATOM      9  C   UNL     1      25.192  54.999   5.742  1.00  0.00     0.039 C 
ATOM     10  G   UNL     1      23.936  53.551   7.511  1.00  0.00     0.000 G0
ENDBRANCH   6   7
ENDBRANCH   5   6
ENDBRANCH   3   5
ENDBRANCH   1   3
BRANCH   1  11
ATOM     11  C   UNL     1      25.366  54.996  10.532  1.00  0.00     0.087 C 
BRANCH  11  12
ATOM     12  C   UNL     1      24.278  53.973  10.112  1.00  0.00     0.066 C 
BRANCH  12  13
ATOM     13  C   UNL     1      23.686  54.355   8.758  1.00  0.00     0.140 C 
ATOM     14  O   UNL     1      22.919  55.304   8.698  1.00  0.00    -0.299 OA
BRANCH  13  15
ATOM     15  C   UNL     1      23.925  53.555   7.491  1.00  0.00     0.106 CG0
ATOM     16  G   UNL     1      25.227  53.883   6.782  1.00  0.00     0.000 G0
ENDBRANCH  13  15
ENDBRANCH  12  13
BRANCH  12  17
ATOM     17  C   UNL     1      23.147  53.867  11.186  1.00  0.00    -0.006 C 
ATOM     18  C   UNL     1      23.703  53.543  12.585  1.00  0.00     0.008 C 
ATOM     19  C   UNL     1      22.106  52.798  10.809  1.00  0.00     0.008 C 
ENDBRANCH  12  17
ENDBRANCH  11  12
ENDBRANCH   1  11
TORSDOF 1
ENDMDL
MODEL 6
REMARK VINA RESULT:    -4.084      1.618      2.588
REMARK INTER + INTRA:          -6.631
REMARK INTER:                  -6.782
REMARK INTRA:                   0.152
REMARK UNBOUND:                -0.398
REMARK SMILES CC1=CCC[C@@H](C)C(=O)C[C@@H](C(C)C)C(=O)C1
REMARK SMILES IDX 8 1 9 2 6 3 7 4 5 5 4 6 3 7 2 8 1 9 10 11 11 12 15 13 16 14
REMARK SMILES IDX 17 15 12 17 13 18 14 19
REMARK H PARENT
REMARK Flexibility Score: 70.00
ROOT
ATOM      1  C   UNL     1      24.856  55.921   7.928  1.00  0.00     0.136 C 
ATOM      2  O   UNL     1      24.861  56.982   7.319  1.00  0.00    -0.299 OA
ENDROOT
BRANCH   1   3
ATOM      3  C   UNL     1      25.264  54.644   7.221  1.00  0.00     0.053 C 
ATOM      4  C   UNL     1      25.504  54.939   5.737  1.00  0.00     0.016 C 
BRANCH   3   5
ATOM      5  C   UNL     1      24.209  53.522   7.377  1.00  0.00     0.015 C 
BRANCH   5   6
ATOM      6  C   UNL     1      24.781  52.204   7.918  1.00  0.00     0.028 C 
BRANCH   6   7
ATOM      7  C   UNL     1      26.232  52.350   8.307  1.00  0.00    -0.028 C 
ATOM      8  C   UNL     1      26.681  52.552   9.566  1.00  0.00    -0.070 CG0
ATOM      9  C   UNL     1      28.169  52.672   9.778  1.00  0.00     0.039 C 
ATOM     10  G   UNL     1      25.756  52.648  10.766  1.00  0.00     0.000 G0
ENDBRANCH   6   7
ENDBRANCH   5   6
ENDBRANCH   3   5
ENDBRANCH   1   3
BRANCH   1  11
ATOM     11  C   UNL     1      24.499  55.915   9.394  1.00  0.00     0.087 C 
BRANCH  11  12
ATOM     12  C   UNL     1      25.587  55.282  10.303  1.00  0.00     0.066 C 
BRANCH  12  13
ATOM     13  C   UNL     1      25.067  53.994  10.934  1.00  0.00     0.140 C 
ATOM     14  O   UNL     1      24.086  54.050  11.661  1.00  0.00    -0.299 OA
BRANCH  13  15
ATOM     15  C   UNL     1      25.764  52.655  10.785  1.00  0.00     0.106 CG0
ATOM     16  G   UNL     1      26.670  52.554   9.571  1.00  0.00     0.000 G0
ENDBRANCH  13  15
ENDBRANCH  12  13
BRANCH  12  17
ATOM     17  C   UNL     1      26.055  56.278  11.413  1.00  0.00    -0.006 C 
ATOM     18  C   UNL     1      25.091  57.469  11.570  1.00  0.00     0.008 C 
ATOM     19  C   UNL     1      27.467  56.821  11.128  1.00  0.00     0.008 C 
ENDBRANCH  12  17
ENDBRANCH  11  12
ENDBRANCH   1  11
TORSDOF 1
ENDMDL
MODEL 7
REMARK VINA RESULT:    -4.073      3.005      4.586
REMARK INTER + INTRA:          -6.614
REMARK INTER:                  -6.699
REMARK INTRA:                   0.085
REMARK UNBOUND:                -0.398
REMARK SMILES CC1=CCC[C@@H](C)C(=O)C[C@@H](C(C)C)C(=O)C1
REMARK SMILES IDX 8 1 9 2 6 3 7 4 5 5 4 6 3 7 2 8 1 9 10 11 11 12 15 13 16 14
REMARK SMILES IDX 17 15 12 17 13 18 14 19
REMARK H PARENT
REMARK Flexibility Score: 70.00
ROOT
ATOM      1  C   UNL     1      26.273  55.874  11.048  1.00  0.00     0.136 C 
ATOM      2  O   UNL     1      25.686  55.582  12.081  1.00  0.00    -0.299 OA
ENDROOT
BRANCH   1   3
ATOM      3  C   UNL     1      25.892  55.197   9.747  1.00  0.00     0.053 C 
ATOM      4  C   UNL     1      24.435  55.528   9.410  1.00  0.00     0.016 C 
BRANCH   3   5
ATOM      5  C   UNL     1      26.091  53.664   9.800  1.00  0.00     0.015 C 
BRANCH   5   6
ATOM      6  C   UNL     1      27.559  53.232   9.925  1.00  0.00     0.028 C 
BRANCH   6   7
ATOM      7  C   UNL     1      27.843  52.626  11.278  1.00  0.00    -0.028 C 
ATOM      8  C   UNL     1      28.837  53.015  12.109  1.00  0.00    -0.070 CG0
ATOM      9  C   UNL     1      28.976  52.302  13.430  1.00  0.00     0.039 C 
ATOM     10  G   UNL     1      29.800  54.139  11.773  1.00  0.00     0.000 G0
ENDBRANCH   6   7
ENDBRANCH   5   6
ENDBRANCH   3   5
ENDBRANCH   1   3
BRANCH   1  11
ATOM     11  C   UNL     1      27.330  56.951  11.081  1.00  0.00     0.087 C 
BRANCH  11  12
ATOM     12  C   UNL     1      28.769  56.428  10.830  1.00  0.00     0.066 C 
BRANCH  12  13
ATOM     13  C   UNL     1      29.220  55.542  11.989  1.00  0.00     0.140 C 
ATOM     14  O   UNL     1      29.193  55.999  13.122  1.00  0.00    -0.299 OA
BRANCH  13  15
ATOM     15  C   UNL     1      29.796  54.153  11.797  1.00  0.00     0.106 CG0
ATOM     16  G   UNL     1      28.834  53.026  12.131  1.00  0.00     0.000 G0
ENDBRANCH  13  15
ENDBRANCH  12  13
BRANCH  12  17
ATOM     17  C   UNL     1      29.777  57.604  10.624  1.00  0.00    -0.006 C 
ATOM     18  C   UNL     1      31.242  57.129  10.665  1.00  0.00     0.008 C 
ATOM     19  C   UNL     1      29.585  58.706  11.680  1.00  0.00     0.008 C 
ENDBRANCH  12  17
ENDBRANCH  11  12
ENDBRANCH   1  11
TORSDOF 1
ENDMDL
MODEL 8
REMARK VINA RESULT:    -4.014      2.165      4.947
REMARK INTER + INTRA:          -6.524
REMARK INTER:                  -6.614
REMARK INTRA:                   0.090
REMARK UNBOUND:                -0.398
REMARK SMILES CC1=CCC[C@@H](C)C(=O)C[C@@H](C(C)C)C(=O)C1
REMARK SMILES IDX 8 1 9 2 6 3 7 4 5 5 4 6 3 7 2 8 1 9 10 11 11 12 15 13 16 14
REMARK SMILES IDX 17 15 12 17 13 18 14 19
REMARK H PARENT
REMARK Flexibility Score: 70.00
ROOT
ATOM      1  C   UNL     1      27.543  52.526   9.277  1.00  0.00     0.136 C 
ATOM      2  O   UNL     1      27.861  51.968   8.236  1.00  0.00    -0.299 OA
ENDROOT
BRANCH   1   3
ATOM      3  C   UNL     1      28.579  52.752  10.359  1.00  0.00     0.053 C 
ATOM      4  C   UNL     1      29.859  51.988  10.005  1.00  0.00     0.016 C 
BRANCH   3   5
ATOM      5  C   UNL     1      28.073  52.323  11.757  1.00  0.00     0.015 C 
BRANCH   5   6
ATOM      6  C   UNL     1      27.486  53.475  12.586  1.00  0.00     0.028 C 
BRANCH   6   7
ATOM      7  C   UNL     1      27.996  54.813  12.108  1.00  0.00    -0.028 C 
ATOM      8  C   UNL     1      27.272  55.713  11.403  1.00  0.00    -0.070 CG0
ATOM      9  C   UNL     1      27.938  57.007  11.009  1.00  0.00     0.039 C 
ATOM     10  G   UNL     1      25.825  55.479  11.009  1.00  0.00     0.000 G0
ENDBRANCH   6   7
ENDBRANCH   5   6
ENDBRANCH   3   5
ENDBRANCH   1   3
BRANCH   1  11
ATOM     11  C   UNL     1      26.131  53.036   9.438  1.00  0.00     0.087 C 
BRANCH  11  12
ATOM     12  C   UNL     1      25.820  54.301   8.594  1.00  0.00     0.066 C 
BRANCH  12  13
ATOM     13  C   UNL     1      25.572  55.499   9.508  1.00  0.00     0.140 C 
ATOM     14  O   UNL     1      25.233  56.560   9.006  1.00  0.00    -0.299 OA
BRANCH  13  15
ATOM     15  C   UNL     1      25.820  55.468  11.004  1.00  0.00     0.106 CG0
ATOM     16  G   UNL     1      27.264  55.708  11.403  1.00  0.00     0.000 G0
ENDBRANCH  13  15
ENDBRANCH  12  13
BRANCH  12  17
ATOM     17  C   UNL     1      24.593  54.074   7.654  1.00  0.00    -0.006 C 
ATOM     18  C   UNL     1      23.843  52.769   7.981  1.00  0.00     0.008 C 
ATOM     19  C   UNL     1      25.012  54.045   6.174  1.00  0.00     0.008 C 
ENDBRANCH  12  17
ENDBRANCH  11  12
ENDBRANCH   1  11
TORSDOF 1
ENDMDL
MODEL 9
REMARK VINA RESULT:    -3.977      3.087      5.028
REMARK INTER + INTRA:          -6.467
REMARK INTER:                  -6.366
REMARK INTRA:                  -0.101
REMARK UNBOUND:                -0.398
REMARK SMILES CC1=CCC[C@@H](C)C(=O)C[C@@H](C(C)C)C(=O)C1
REMARK SMILES IDX 8 1 9 2 6 3 7 4 5 5 4 6 3 7 2 8 1 9 10 11 11 12 15 13 16 14
REMARK SMILES IDX 17 15 12 17 13 18 14 19
REMARK H PARENT
REMARK Flexibility Score: 70.00
ROOT
ATOM      1  C   UNL     1      29.762  55.915  11.086  1.00  0.00     0.136 C 
ATOM      2  O   UNL     1      30.897  55.980  10.634  1.00  0.00    -0.299 OA
ENDROOT
BRANCH   1   3
ATOM      3  C   UNL     1      29.326  54.684  11.854  1.00  0.00     0.053 C 
ATOM      4  C   UNL     1      30.509  54.147  12.667  1.00  0.00     0.016 C 
BRANCH   3   5
ATOM      5  C   UNL     1      28.772  53.576  10.927  1.00  0.00     0.015 C 
BRANCH   5   6
ATOM      6  C   UNL     1      27.273  53.299  11.117  1.00  0.00     0.028 C 
BRANCH   6   7
ATOM      7  C   UNL     1      26.432  54.177  10.223  1.00  0.00    -0.028 C 
ATOM      8  C   UNL     1      25.836  55.330  10.605  1.00  0.00    -0.070 CG0
ATOM      9  C   UNL     1      25.032  56.087   9.579  1.00  0.00     0.039 C 
ATOM     10  G   UNL     1      25.956  55.893  12.010  1.00  0.00     0.000 G0
ENDBRANCH   6   7
ENDBRANCH   5   6
ENDBRANCH   3   5
ENDBRANCH   1   3
BRANCH   1  11
ATOM     11  C   UNL     1      28.834  57.093  10.920  1.00  0.00     0.087 C 
BRANCH  11  12
ATOM     12  C   UNL     1      28.102  57.506  12.225  1.00  0.00     0.066 C 
BRANCH  12  13
ATOM     13  C   UNL     1      26.599  57.273  12.086  1.00  0.00     0.140 C 
ATOM     14  O   UNL     1      25.851  58.239  12.108  1.00  0.00    -0.299 OA
BRANCH  13  15
ATOM     15  C   UNL     1      25.975  55.893  12.020  1.00  0.00     0.106 CG0
ATOM     16  G   UNL     1      25.835  55.337  10.614  1.00  0.00     0.000 G0
ENDBRANCH  13  15
ENDBRANCH  12  13
BRANCH  12  17
ATOM     17  C   UNL     1      28.387  58.997  12.594  1.00  0.00    -0.006 C 
ATOM     18  C   UNL     1      29.803  59.438  12.179  1.00  0.00     0.008 C 
ATOM     19  C   UNL     1      28.213  59.251  14.102  1.00  0.00     0.008 C 
ENDBRANCH  12  17
ENDBRANCH  11  12
ENDBRANCH   1  11
TORSDOF 1
ENDMDL
