MODEL 1
REMARK VINA RESULT:    -5.447      0.000      0.000
REMARK INTER + INTRA:          -8.883
REMARK INTER:                  -7.677
REMARK INTRA:                  -1.206
REMARK UNBOUND:                -1.206
REMARK SMILES C=CC(=C)CCC=C(C)CCC=C(C)C
REMARK SMILES IDX 8 1 7 2 9 3 10 4 11 5 12 6 14 7 13 8 15 9 6 10 5 11 3 12
REMARK SMILES IDX 4 13 2 14 1 15
REMARK H PARENT
REMARK Flexibility Score: inf
ROOT
ATOM      1  C   UNL     1     146.764 149.824 164.559  1.00  0.00    -0.077 C 
ATOM      2  C   UNL     1     146.457 148.513 164.690  1.00  0.00    -0.028 C 
ATOM      3  C   UNL     1     148.093 150.383 165.009  1.00  0.00     0.039 C 
ENDROOT
BRANCH   1   4
ATOM      4  C   UNL     1     145.749 150.757 163.936  1.00  0.00     0.034 C 
BRANCH   4   5
ATOM      5  C   UNL     1     145.259 150.204 162.594  1.00  0.00     0.032 C 
BRANCH   5   6
ATOM      6  C   UNL     1     146.312 150.374 161.528  1.00  0.00    -0.028 C 
ATOM      7  C   UNL     1     146.407 147.925 161.009  1.00  0.00     0.039 C 
ATOM      8  C   UNL     1     146.856 149.356 160.824  1.00  0.00    -0.080 C 
ATOM      9  C   UNL     1     147.930 149.673 159.816  1.00  0.00     0.039 C 
ENDBRANCH   5   6
ENDBRANCH   4   5
ENDBRANCH   1   4
BRANCH   2  10
ATOM     10  C   UNL     1     147.397 147.454 165.216  1.00  0.00     0.032 C 
BRANCH  10  11
ATOM     11  C   UNL     1     148.107 146.723 164.070  1.00  0.00     0.039 C 
BRANCH  11  12
ATOM     12  C   UNL     1     148.573 145.340 164.477  1.00  0.00    -0.055 C 
ATOM     13  C   UNL     1     147.664 144.420 164.820  1.00  0.00     0.012 C 
BRANCH  12  14
ATOM     14  C   UNL     1     150.008 144.953 164.472  1.00  0.00    -0.005 C 
ATOM     15  C   UNL     1     150.765 144.914 163.375  1.00  0.00     0.009 C 
ENDBRANCH  12  14
ENDBRANCH  11  12
ENDBRANCH  10  11
ENDBRANCH   2  10
TORSDOF 7
ENDMDL
MODEL 2
REMARK VINA RESULT:    -5.434      4.547      6.129
REMARK INTER + INTRA:          -8.864
REMARK INTER:                  -7.649
REMARK INTRA:                  -1.214
REMARK UNBOUND:                -1.206
REMARK SMILES C=CC(=C)CCC=C(C)CCC=C(C)C
REMARK SMILES IDX 8 1 7 2 9 3 10 4 11 5 12 6 14 7 13 8 15 9 6 10 5 11 3 12
REMARK SMILES IDX 4 13 2 14 1 15
REMARK H PARENT
REMARK Flexibility Score: inf
ROOT
ATOM      1  C   UNL     1     149.748 143.989 164.606  1.00  0.00    -0.077 C 
ATOM      2  C   UNL     1     148.440 144.311 164.739  1.00  0.00    -0.028 C 
ATOM      3  C   UNL     1     150.293 142.655 165.057  1.00  0.00     0.039 C 
ENDROOT
BRANCH   1   4
ATOM      4  C   UNL     1     150.690 144.993 163.981  1.00  0.00     0.034 C 
BRANCH   4   5
ATOM      5  C   UNL     1     150.175 145.437 162.608  1.00  0.00     0.032 C 
BRANCH   5   6
ATOM      6  C   UNL     1     150.273 144.311 161.609  1.00  0.00    -0.028 C 
ATOM      7  C   UNL     1     147.834 144.388 161.044  1.00  0.00     0.039 C 
ATOM      8  C   UNL     1     149.225 143.812 160.917  1.00  0.00    -0.080 C 
ATOM      9  C   UNL     1     149.467 142.657 159.980  1.00  0.00     0.039 C 
ENDBRANCH   5   6
ENDBRANCH   4   5
ENDBRANCH   1   4
BRANCH   2  10
ATOM     10  C   UNL     1     147.372 143.383 165.268  1.00  0.00     0.032 C 
BRANCH  10  11
ATOM     11  C   UNL     1     146.597 142.718 164.123  1.00  0.00     0.039 C 
BRANCH  11  12
ATOM     12  C   UNL     1     145.244 142.205 164.572  1.00  0.00    -0.055 C 
ATOM     13  C   UNL     1     144.203 143.045 164.594  1.00  0.00     0.012 C 
BRANCH  12  14
ATOM     14  C   UNL     1     145.021 140.786 164.951  1.00  0.00    -0.005 C 
ATOM     15  C   UNL     1     144.762 139.812 164.078  1.00  0.00     0.009 C 
ENDBRANCH  12  14
ENDBRANCH  11  12
ENDBRANCH  10  11
ENDBRANCH   2  10
TORSDOF 7
ENDMDL
MODEL 3
REMARK VINA RESULT:    -5.396      5.354      8.482
REMARK INTER + INTRA:          -8.811
REMARK INTER:                  -7.443
REMARK INTRA:                  -1.368
REMARK UNBOUND:                -1.206
REMARK SMILES C=CC(=C)CCC=C(C)CCC=C(C)C
REMARK SMILES IDX 8 1 7 2 9 3 10 4 11 5 12 6 14 7 13 8 15 9 6 10 5 11 3 12
REMARK SMILES IDX 4 13 2 14 1 15
REMARK H PARENT
REMARK Flexibility Score: inf
ROOT
ATOM      1  C   UNL     1     142.637 143.902 162.715  1.00  0.00    -0.077 C 
ATOM      2  C   UNL     1     141.656 144.541 162.036  1.00  0.00    -0.028 C 
ATOM      3  C   UNL     1     142.801 144.047 164.209  1.00  0.00     0.039 C 
ENDROOT
BRANCH   1   4
ATOM      4  C   UNL     1     143.594 143.011 161.955  1.00  0.00     0.034 C 
BRANCH   4   5
ATOM      5  C   UNL     1     143.250 141.534 162.176  1.00  0.00     0.032 C 
BRANCH   5   6
ATOM      6  C   UNL     1     144.252 140.882 163.095  1.00  0.00    -0.028 C 
ATOM      7  C   UNL     1     142.552 140.410 164.872  1.00  0.00     0.039 C 
ATOM      8  C   UNL     1     143.958 140.394 164.321  1.00  0.00    -0.080 C 
ATOM      9  C   UNL     1     145.073 139.805 165.146  1.00  0.00     0.039 C 
ENDBRANCH   5   6
ENDBRANCH   4   5
ENDBRANCH   1   4
BRANCH   2  10
ATOM     10  C   UNL     1     140.584 145.395 162.669  1.00  0.00     0.032 C 
BRANCH  10  11
ATOM     11  C   UNL     1     140.927 146.886 162.562  1.00  0.00     0.039 C 
BRANCH  11  12
ATOM     12  C   UNL     1     141.445 147.448 163.871  1.00  0.00    -0.055 C 
ATOM     13  C   UNL     1     140.580 147.704 164.859  1.00  0.00     0.012 C 
BRANCH  12  14
ATOM     14  C   UNL     1     142.892 147.686 164.113  1.00  0.00    -0.005 C 
ATOM     15  C   UNL     1     143.793 147.848 163.144  1.00  0.00     0.009 C 
ENDBRANCH  12  14
ENDBRANCH  11  12
ENDBRANCH  10  11
ENDBRANCH   2  10
TORSDOF 7
ENDMDL
MODEL 4
REMARK VINA RESULT:    -5.371      5.168      7.491
REMARK INTER + INTRA:          -8.775
REMARK INTER:                  -7.468
REMARK INTRA:                  -1.307
REMARK UNBOUND:                -1.206
REMARK SMILES C=CC(=C)CCC=C(C)CCC=C(C)C
REMARK SMILES IDX 8 1 7 2 9 3 10 4 11 5 12 6 14 7 13 8 15 9 6 10 5 11 3 12
REMARK SMILES IDX 4 13 2 14 1 15
REMARK H PARENT
REMARK Flexibility Score: inf
ROOT
ATOM      1  C   UNL     1     146.788 142.445 162.633  1.00  0.00    -0.077 C 
ATOM      2  C   UNL     1     146.080 141.524 161.939  1.00  0.00    -0.028 C 
ATOM      3  C   UNL     1     146.697 142.558 164.136  1.00  0.00     0.039 C 
ENDROOT
BRANCH   1   4
ATOM      4  C   UNL     1     147.704 143.384 161.880  1.00  0.00     0.034 C 
BRANCH   4   5
ATOM      5  C   UNL     1     149.170 143.103 162.227  1.00  0.00     0.032 C 
BRANCH   5   6
ATOM      6  C   UNL     1     149.717 144.168 163.144  1.00  0.00    -0.028 C 
ATOM      7  C   UNL     1     150.348 142.530 164.930  1.00  0.00     0.039 C 
ATOM      8  C   UNL     1     150.227 143.929 164.372  1.00  0.00    -0.080 C 
ATOM      9  C   UNL     1     150.702 145.100 165.194  1.00  0.00     0.039 C 
ENDBRANCH   5   6
ENDBRANCH   4   5
ENDBRANCH   1   4
BRANCH   2  10
ATOM     10  C   UNL     1     145.191 140.472 162.559  1.00  0.00     0.032 C 
BRANCH  10  11
ATOM     11  C   UNL     1     143.721 140.911 162.549  1.00  0.00     0.039 C 
BRANCH  11  12
ATOM     12  C   UNL     1     143.271 141.427 163.901  1.00  0.00    -0.055 C 
ATOM     13  C   UNL     1     143.064 140.555 164.895  1.00  0.00     0.012 C 
BRANCH  12  14
ATOM     14  C   UNL     1     143.089 142.875 164.177  1.00  0.00    -0.005 C 
ATOM     15  C   UNL     1     142.916 143.798 163.231  1.00  0.00     0.009 C 
ENDBRANCH  12  14
ENDBRANCH  11  12
ENDBRANCH  10  11
ENDBRANCH   2  10
TORSDOF 7
ENDMDL
MODEL 5
REMARK VINA RESULT:    -5.366      5.129      8.128
REMARK INTER + INTRA:          -8.769
REMARK INTER:                  -7.360
REMARK INTRA:                  -1.409
REMARK UNBOUND:                -1.206
REMARK SMILES C=CC(=C)CCC=C(C)CCC=C(C)C
REMARK SMILES IDX 8 1 7 2 9 3 10 4 11 5 12 6 14 7 13 8 15 9 6 10 5 11 3 12
REMARK SMILES IDX 4 13 2 14 1 15
REMARK H PARENT
REMARK Flexibility Score: inf
ROOT
ATOM      1  C   UNL     1     143.111 142.596 163.930  1.00  0.00    -0.077 C 
ATOM      2  C   UNL     1     142.723 143.188 162.776  1.00  0.00    -0.028 C 
ATOM      3  C   UNL     1     143.496 143.397 165.150  1.00  0.00     0.039 C 
ENDROOT
BRANCH   1   4
ATOM      4  C   UNL     1     143.152 141.085 164.001  1.00  0.00     0.034 C 
BRANCH   4   5
ATOM      5  C   UNL     1     144.600 140.582 163.982  1.00  0.00     0.032 C 
BRANCH   5   6
ATOM      6  C   UNL     1     145.171 140.647 162.589  1.00  0.00    -0.028 C 
ATOM      7  C   UNL     1     146.729 142.528 163.143  1.00  0.00     0.039 C 
ATOM      8  C   UNL     1     146.112 141.532 162.190  1.00  0.00    -0.080 C 
ATOM      9  C   UNL     1     146.561 141.504 160.752  1.00  0.00     0.039 C 
ENDBRANCH   5   6
ENDBRANCH   4   5
ENDBRANCH   1   4
BRANCH   2  10
ATOM     10  C   UNL     1     142.557 144.677 162.584  1.00  0.00     0.032 C 
BRANCH  10  11
ATOM     11  C   UNL     1     141.113 145.115 162.865  1.00  0.00     0.039 C 
BRANCH  11  12
ATOM     12  C   UNL     1     141.025 146.067 164.040  1.00  0.00    -0.055 C 
ATOM     13  C   UNL     1     140.121 145.836 165.000  1.00  0.00     0.012 C 
BRANCH  12  14
ATOM     14  C   UNL     1     141.936 147.231 164.188  1.00  0.00    -0.005 C 
ATOM     15  C   UNL     1     142.845 147.348 165.156  1.00  0.00     0.009 C 
ENDBRANCH  12  14
ENDBRANCH  11  12
ENDBRANCH  10  11
ENDBRANCH   2  10
TORSDOF 7
ENDMDL
MODEL 6
REMARK VINA RESULT:    -5.364      6.285      8.555
REMARK INTER + INTRA:          -8.766
REMARK INTER:                  -7.345
REMARK INTRA:                  -1.421
REMARK UNBOUND:                -1.206
REMARK SMILES C=CC(=C)CCC=C(C)CCC=C(C)C
REMARK SMILES IDX 8 1 7 2 9 3 10 4 11 5 12 6 14 7 13 8 15 9 6 10 5 11 3 12
REMARK SMILES IDX 4 13 2 14 1 15
REMARK H PARENT
REMARK Flexibility Score: inf
ROOT
ATOM      1  C   UNL     1     143.935 141.031 164.470  1.00  0.00    -0.077 C 
ATOM      2  C   UNL     1     144.219 142.352 164.539  1.00  0.00    -0.028 C 
ATOM      3  C   UNL     1     142.597 140.477 164.898  1.00  0.00     0.039 C 
ENDROOT
BRANCH   1   4
ATOM      4  C   UNL     1     144.986 140.081 163.941  1.00  0.00     0.034 C 
BRANCH   4   5
ATOM      5  C   UNL     1     145.476 140.530 162.560  1.00  0.00     0.032 C 
BRANCH   5   6
ATOM      6  C   UNL     1     144.363 140.447 161.545  1.00  0.00    -0.028 C 
ATOM      7  C   UNL     1     144.595 142.846 160.862  1.00  0.00     0.039 C 
ATOM      8  C   UNL     1     143.939 141.486 160.792  1.00  0.00    -0.080 C 
ATOM      9  C   UNL     1     142.788 141.265 159.845  1.00  0.00     0.039 C 
ENDBRANCH   5   6
ENDBRANCH   4   5
ENDBRANCH   1   4
BRANCH   2  10
ATOM     10  C   UNL     1     143.244 143.423 164.968  1.00  0.00     0.032 C 
BRANCH  10  11
ATOM     11  C   UNL     1     143.098 144.504 163.889  1.00  0.00     0.039 C 
BRANCH  11  12
ATOM     12  C   UNL     1     141.693 145.068 163.834  1.00  0.00    -0.055 C 
ATOM     13  C   UNL     1     141.154 145.586 164.944  1.00  0.00     0.012 C 
BRANCH  12  14
ATOM     14  C   UNL     1     140.902 145.106 162.576  1.00  0.00    -0.005 C 
ATOM     15  C   UNL     1     141.372 144.721 161.389  1.00  0.00     0.009 C 
ENDBRANCH  12  14
ENDBRANCH  11  12
ENDBRANCH  10  11
ENDBRANCH   2  10
TORSDOF 7
ENDMDL
MODEL 7
REMARK VINA RESULT:    -5.344      4.075      5.803
REMARK INTER + INTRA:          -8.737
REMARK INTER:                  -7.323
REMARK INTRA:                  -1.414
REMARK UNBOUND:                -1.206
REMARK SMILES C=CC(=C)CCC=C(C)CCC=C(C)C
REMARK SMILES IDX 8 1 7 2 9 3 10 4 11 5 12 6 14 7 13 8 15 9 6 10 5 11 3 12
REMARK SMILES IDX 4 13 2 14 1 15
REMARK H PARENT
REMARK Flexibility Score: inf
ROOT
ATOM      1  C   UNL     1     142.737 147.607 164.025  1.00  0.00    -0.077 C 
ATOM      2  C   UNL     1     143.247 148.018 162.841  1.00  0.00    -0.028 C 
ATOM      3  C   UNL     1     143.622 147.219 165.185  1.00  0.00     0.039 C 
ENDROOT
BRANCH   1   4
ATOM      4  C   UNL     1     141.236 147.543 164.193  1.00  0.00     0.034 C 
BRANCH   4   5
ATOM      5  C   UNL     1     140.748 146.091 164.146  1.00  0.00     0.032 C 
BRANCH   5   6
ATOM      6  C   UNL     1     140.715 145.582 162.727  1.00  0.00    -0.028 C 
ATOM      7  C   UNL     1     142.636 144.013 163.078  1.00  0.00     0.039 C 
ATOM      8  C   UNL     1     141.573 144.666 162.225  1.00  0.00    -0.080 C 
ATOM      9  C   UNL     1     141.445 144.281 160.774  1.00  0.00     0.039 C 
ENDBRANCH   5   6
ENDBRANCH   4   5
ENDBRANCH   1   4
BRANCH   2  10
ATOM     10  C   UNL     1     144.718 148.209 162.554  1.00  0.00     0.032 C 
BRANCH  10  11
ATOM     11  C   UNL     1     145.128 149.679 162.710  1.00  0.00     0.039 C 
BRANCH  11  12
ATOM     12  C   UNL     1     146.090 149.883 163.864  1.00  0.00    -0.055 C 
ATOM     13  C   UNL     1     145.872 150.884 164.724  1.00  0.00     0.012 C 
BRANCH  12  14
ATOM     14  C   UNL     1     147.249 148.983 164.098  1.00  0.00    -0.005 C 
ATOM     15  C   UNL     1     147.365 148.178 165.155  1.00  0.00     0.009 C 
ENDBRANCH  12  14
ENDBRANCH  11  12
ENDBRANCH  10  11
ENDBRANCH   2  10
TORSDOF 7
ENDMDL
MODEL 8
REMARK VINA RESULT:    -5.317      3.396      6.291
REMARK INTER + INTRA:          -8.699
REMARK INTER:                  -7.034
REMARK INTRA:                  -1.664
REMARK UNBOUND:                -1.206
REMARK SMILES C=CC(=C)CCC=C(C)CCC=C(C)C
REMARK SMILES IDX 8 1 7 2 9 3 10 4 11 5 12 6 14 7 13 8 15 9 6 10 5 11 3 12
REMARK SMILES IDX 4 13 2 14 1 15
REMARK H PARENT
REMARK Flexibility Score: inf
ROOT
ATOM      1  C   UNL     1     147.239 143.233 164.445  1.00  0.00    -0.077 C 
ATOM      2  C   UNL     1     146.288 143.974 165.060  1.00  0.00    -0.028 C 
ATOM      3  C   UNL     1     146.986 142.543 163.126  1.00  0.00     0.039 C 
ENDROOT
BRANCH   1   4
ATOM      4  C   UNL     1     148.598 143.099 165.095  1.00  0.00     0.034 C 
BRANCH   4   5
ATOM      5  C   UNL     1     149.378 144.414 164.996  1.00  0.00     0.032 C 
BRANCH   5   6
ATOM      6  C   UNL     1     149.905 144.620 163.598  1.00  0.00    -0.028 C 
ATOM      7  C   UNL     1     148.367 146.540 163.130  1.00  0.00     0.039 C 
ATOM      8  C   UNL     1     149.444 145.556 162.739  1.00  0.00    -0.080 C 
ATOM      9  C   UNL     1     150.042 145.619 161.357  1.00  0.00     0.039 C 
ENDBRANCH   5   6
ENDBRANCH   4   5
ENDBRANCH   1   4
BRANCH   2  10
ATOM     10  C   UNL     1     144.917 144.262 164.494  1.00  0.00     0.032 C 
BRANCH  10  11
ATOM     11  C   UNL     1     143.851 143.365 165.135  1.00  0.00     0.039 C 
BRANCH  11  12
ATOM     12  C   UNL     1     143.501 142.180 164.259  1.00  0.00    -0.055 C 
ATOM     13  C   UNL     1     143.074 142.396 163.009  1.00  0.00     0.012 C 
BRANCH  12  14
ATOM     14  C   UNL     1     143.653 140.776 164.724  1.00  0.00    -0.005 C 
ATOM     15  C   UNL     1     144.802 140.255 165.157  1.00  0.00     0.009 C 
ENDBRANCH  12  14
ENDBRANCH  11  12
ENDBRANCH  10  11
ENDBRANCH   2  10
TORSDOF 7
ENDMDL
MODEL 9
REMARK VINA RESULT:    -5.308      4.680      7.872
REMARK INTER + INTRA:          -8.687
REMARK INTER:                  -6.992
REMARK INTRA:                  -1.695
REMARK UNBOUND:                -1.206
REMARK SMILES C=CC(=C)CCC=C(C)CCC=C(C)C
REMARK SMILES IDX 8 1 7 2 9 3 10 4 11 5 12 6 14 7 13 8 15 9 6 10 5 11 3 12
REMARK SMILES IDX 4 13 2 14 1 15
REMARK H PARENT
REMARK Flexibility Score: inf
ROOT
ATOM      1  C   UNL     1     143.217 143.657 164.347  1.00  0.00    -0.077 C 
ATOM      2  C   UNL     1     143.899 144.637 164.984  1.00  0.00    -0.028 C 
ATOM      3  C   UNL     1     142.572 143.877 163.000  1.00  0.00     0.039 C 
ENDROOT
BRANCH   1   4
ATOM      4  C   UNL     1     143.102 142.298 165.002  1.00  0.00     0.034 C 
BRANCH   4   5
ATOM      5  C   UNL     1     144.446 141.562 164.960  1.00  0.00     0.032 C 
BRANCH   5   6
ATOM      6  C   UNL     1     144.709 141.007 163.583  1.00  0.00    -0.028 C 
ATOM      7  C   UNL     1     146.630 142.555 163.152  1.00  0.00     0.039 C 
ATOM      8  C   UNL     1     145.671 141.460 162.748  1.00  0.00    -0.080 C 
ATOM      9  C   UNL     1     145.792 140.833 161.384  1.00  0.00     0.039 C 
ENDBRANCH   5   6
ENDBRANCH   4   5
ENDBRANCH   1   4
BRANCH   2  10
ATOM     10  C   UNL     1     144.163 146.012 164.418  1.00  0.00     0.032 C 
BRANCH  10  11
ATOM     11  C   UNL     1     143.260 147.065 165.074  1.00  0.00     0.039 C 
BRANCH  11  12
ATOM     12  C   UNL     1     141.979 147.283 164.294  1.00  0.00    -0.055 C 
ATOM     13  C   UNL     1     142.053 147.681 163.018  1.00  0.00     0.012 C 
BRANCH  12  14
ATOM     14  C   UNL     1     140.639 147.033 164.885  1.00  0.00    -0.005 C 
ATOM     15  C   UNL     1     140.163 145.819 165.166  1.00  0.00     0.009 C 
ENDBRANCH  12  14
ENDBRANCH  11  12
ENDBRANCH  10  11
ENDBRANCH   2  10
TORSDOF 7
ENDMDL
