MODEL 1
REMARK VINA RESULT:    -4.728      0.000      0.000
REMARK INTER + INTRA:          -5.188
REMARK INTER:                  -5.142
REMARK INTRA:                  -0.046
REMARK UNBOUND:                -0.046
REMARK SMILES COc1ccccc1O
REMARK SMILES IDX 3 1 4 2 5 3 6 4 7 5 8 6 2 7 1 8 9 9
REMARK H PARENT 9 10
REMARK Flexibility Score: inf
ROOT
ATOM      1  C   UNL     1       0.821 -13.478 -39.564  1.00  0.00     0.160 A 
ATOM      2  C   UNL     1      -0.386 -12.861 -39.949  1.00  0.00     0.050 A 
ATOM      3  C   UNL     1      -1.577 -13.162 -39.282  1.00  0.00     0.004 A 
ATOM      4  C   UNL     1      -1.578 -14.077 -38.228  1.00  0.00     0.004 A 
ATOM      5  C   UNL     1      -0.387 -14.695 -37.838  1.00  0.00     0.050 A 
ATOM      6  C   UNL     1       0.812 -14.401 -38.500  1.00  0.00     0.157 A 
ENDROOT
BRANCH   1   7
ATOM      7  O   UNL     1       2.036 -13.201 -40.211  1.00  0.00    -0.493 OA
ATOM      8  C   UNL     1       2.873 -12.089 -39.912  1.00  0.00     0.278 C 
ENDBRANCH   1   7
BRANCH   6   9
ATOM      9  O   UNL     1       1.982 -15.034 -38.085  1.00  0.00    -0.504 OA
ATOM     10  H   UNL     1       2.586 -14.641 -37.372  1.00  0.00     0.293 HD
ENDBRANCH   6   9
TORSDOF 2
ENDMDL
MODEL 2
REMARK VINA RESULT:    -4.317      2.322      2.419
REMARK INTER + INTRA:          -4.741
REMARK INTER:                  -4.695
REMARK INTRA:                  -0.045
REMARK UNBOUND:                -0.046
REMARK SMILES COc1ccccc1O
REMARK SMILES IDX 3 1 4 2 5 3 6 4 7 5 8 6 2 7 1 8 9 9
REMARK H PARENT 9 10
REMARK Flexibility Score: inf
ROOT
ATOM      1  C   UNL     1      -0.083 -12.120 -38.518  1.00  0.00     0.160 A 
ATOM      2  C   UNL     1      -0.068 -12.903 -39.690  1.00  0.00     0.050 A 
ATOM      3  C   UNL     1      -0.486 -14.237 -39.654  1.00  0.00     0.004 A 
ATOM      4  C   UNL     1      -0.922 -14.802 -38.455  1.00  0.00     0.004 A 
ATOM      5  C   UNL     1      -0.943 -14.035 -37.287  1.00  0.00     0.050 A 
ATOM      6  C   UNL     1      -0.526 -12.698 -37.312  1.00  0.00     0.157 A 
ENDROOT
BRANCH   1   7
ATOM      7  O   UNL     1       0.329 -10.778 -38.516  1.00  0.00    -0.493 OA
ATOM      8  C   UNL     1       1.681 -10.349 -38.401  1.00  0.00     0.278 C 
ENDBRANCH   1   7
BRANCH   6   9
ATOM      9  O   UNL     1      -0.559 -11.961 -36.129  1.00  0.00    -0.504 OA
ATOM     10  H   UNL     1      -1.427 -11.735 -35.658  1.00  0.00     0.293 HD
ENDBRANCH   6   9
TORSDOF 2
ENDMDL
MODEL 3
REMARK VINA RESULT:    -4.309     10.217     12.996
REMARK INTER + INTRA:          -4.732
REMARK INTER:                  -4.689
REMARK INTRA:                  -0.044
REMARK UNBOUND:                -0.046
REMARK SMILES COc1ccccc1O
REMARK SMILES IDX 3 1 4 2 5 3 6 4 7 5 8 6 2 7 1 8 9 9
REMARK H PARENT 9 10
REMARK Flexibility Score: inf
ROOT
ATOM      1  C   UNL     1       8.312  -4.575 -40.633  1.00  0.00     0.160 A 
ATOM      2  C   UNL     1       9.535  -5.255 -40.802  1.00  0.00     0.050 A 
ATOM      3  C   UNL     1      10.711  -4.745 -40.243  1.00  0.00     0.004 A 
ATOM      4  C   UNL     1      10.680  -3.557 -39.511  1.00  0.00     0.004 A 
ATOM      5  C   UNL     1       9.473  -2.875 -39.336  1.00  0.00     0.050 A 
ATOM      6  C   UNL     1       8.290  -3.376 -39.892  1.00  0.00     0.157 A 
ENDROOT
BRANCH   1   7
ATOM      7  O   UNL     1       7.112  -5.056 -41.179  1.00  0.00    -0.493 OA
ATOM      8  C   UNL     1       6.427  -6.218 -40.724  1.00  0.00     0.278 C 
ENDBRANCH   1   7
BRANCH   6   9
ATOM      9  O   UNL     1       7.104  -2.670 -39.698  1.00  0.00    -0.504 OA
ATOM     10  H   UNL     1       6.205  -3.034 -39.990  1.00  0.00     0.293 HD
ENDBRANCH   6   9
TORSDOF 2
ENDMDL
MODEL 4
REMARK VINA RESULT:    -4.227     11.015     13.277
REMARK INTER + INTRA:          -4.643
REMARK INTER:                  -4.613
REMARK INTRA:                  -0.031
REMARK UNBOUND:                -0.046
REMARK SMILES COc1ccccc1O
REMARK SMILES IDX 3 1 4 2 5 3 6 4 7 5 8 6 2 7 1 8 9 9
REMARK H PARENT 9 10
REMARK Flexibility Score: inf
ROOT
ATOM      1  C   UNL     1       9.395  -4.813 -38.124  1.00  0.00     0.160 A 
ATOM      2  C   UNL     1       8.391  -4.170 -38.875  1.00  0.00     0.050 A 
ATOM      3  C   UNL     1       8.732  -3.364 -39.966  1.00  0.00     0.004 A 
ATOM      4  C   UNL     1      10.071  -3.193 -40.318  1.00  0.00     0.004 A 
ATOM      5  C   UNL     1      11.074  -3.826 -39.580  1.00  0.00     0.050 A 
ATOM      6  C   UNL     1      10.744  -4.635 -38.486  1.00  0.00     0.157 A 
ENDROOT
BRANCH   1   7
ATOM      7  O   UNL     1       9.090  -5.630 -37.023  1.00  0.00    -0.493 OA
ATOM      8  C   UNL     1       8.031  -6.580 -36.991  1.00  0.00     0.278 C 
ENDBRANCH   1   7
BRANCH   6   9
ATOM      9  O   UNL     1      11.770  -5.252 -37.772  1.00  0.00    -0.504 OA
ATOM     10  H   UNL     1      12.455  -4.724 -37.245  1.00  0.00     0.293 HD
ENDBRANCH   6   9
TORSDOF 2
ENDMDL
MODEL 5
REMARK VINA RESULT:    -4.209      9.172     10.097
REMARK INTER + INTRA:          -4.624
REMARK INTER:                  -4.578
REMARK INTRA:                  -0.046
REMARK UNBOUND:                -0.046
REMARK SMILES COc1ccccc1O
REMARK SMILES IDX 3 1 4 2 5 3 6 4 7 5 8 6 2 7 1 8 9 9
REMARK H PARENT 9 10
REMARK Flexibility Score: inf
ROOT
ATOM      1  C   UNL     1       6.887  -9.345 -45.299  1.00  0.00     0.160 A 
ATOM      2  C   UNL     1       6.234 -10.593 -45.259  1.00  0.00     0.050 A 
ATOM      3  C   UNL     1       4.952 -10.737 -45.798  1.00  0.00     0.004 A 
ATOM      4  C   UNL     1       4.310  -9.643 -46.381  1.00  0.00     0.004 A 
ATOM      5  C   UNL     1       4.948  -8.401 -46.426  1.00  0.00     0.050 A 
ATOM      6  C   UNL     1       6.232  -8.246 -45.889  1.00  0.00     0.157 A 
ENDROOT
BRANCH   1   7
ATOM      7  O   UNL     1       8.174  -9.162 -44.768  1.00  0.00    -0.493 OA
ATOM      8  C   UNL     1       8.452  -8.918 -43.394  1.00  0.00     0.278 C 
ENDBRANCH   1   7
BRANCH   6   9
ATOM      9  O   UNL     1       6.840  -6.993 -45.951  1.00  0.00    -0.504 OA
ATOM     10  H   UNL     1       6.652  -6.267 -45.270  1.00  0.00     0.293 HD
ENDBRANCH   6   9
TORSDOF 2
ENDMDL
MODEL 6
REMARK VINA RESULT:    -4.205      7.055      8.277
REMARK INTER + INTRA:          -4.620
REMARK INTER:                  -4.582
REMARK INTRA:                  -0.037
REMARK UNBOUND:                -0.046
REMARK SMILES COc1ccccc1O
REMARK SMILES IDX 3 1 4 2 5 3 6 4 7 5 8 6 2 7 1 8 9 9
REMARK H PARENT 9 10
REMARK Flexibility Score: inf
ROOT
ATOM      1  C   UNL     1       2.125  -9.890 -45.065  1.00  0.00     0.160 A 
ATOM      2  C   UNL     1       2.670  -8.624 -45.358  1.00  0.00     0.050 A 
ATOM      3  C   UNL     1       3.899  -8.519 -46.016  1.00  0.00     0.004 A 
ATOM      4  C   UNL     1       4.595  -9.670 -46.388  1.00  0.00     0.004 A 
ATOM      5  C   UNL     1       4.065 -10.930 -46.102  1.00  0.00     0.050 A 
ATOM      6  C   UNL     1       2.835 -11.047 -45.443  1.00  0.00     0.157 A 
ENDROOT
BRANCH   1   7
ATOM      7  O   UNL     1       0.894 -10.035 -44.406  1.00  0.00    -0.493 OA
ATOM      8  C   UNL     1      -0.339  -9.500 -44.874  1.00  0.00     0.278 C 
ENDBRANCH   1   7
BRANCH   6   9
ATOM      9  O   UNL     1       2.334 -12.320 -45.174  1.00  0.00    -0.504 OA
ATOM     10  H   UNL     1       1.398 -12.600 -45.440  1.00  0.00     0.293 HD
ENDBRANCH   6   9
TORSDOF 2
ENDMDL
MODEL 7
REMARK VINA RESULT:    -4.189     12.542     13.214
REMARK INTER + INTRA:          -4.602
REMARK INTER:                  -4.557
REMARK INTRA:                  -0.045
REMARK UNBOUND:                -0.046
REMARK SMILES COc1ccccc1O
REMARK SMILES IDX 3 1 4 2 5 3 6 4 7 5 8 6 2 7 1 8 9 9
REMARK H PARENT 9 10
REMARK Flexibility Score: inf
ROOT
ATOM      1  C   UNL     1      10.077  -5.556 -39.339  1.00  0.00     0.160 A 
ATOM      2  C   UNL     1      10.081  -5.132 -40.683  1.00  0.00     0.050 A 
ATOM      3  C   UNL     1       9.836  -3.793 -41.003  1.00  0.00     0.004 A 
ATOM      4  C   UNL     1       9.587  -2.866 -39.990  1.00  0.00     0.004 A 
ATOM      5  C   UNL     1       9.581  -3.275 -38.654  1.00  0.00     0.050 A 
ATOM      6  C   UNL     1       9.824  -4.614 -38.323  1.00  0.00     0.157 A 
ENDROOT
BRANCH   1   7
ATOM      7  O   UNL     1      10.319  -6.892 -38.981  1.00  0.00    -0.493 OA
ATOM      8  C   UNL     1      11.599  -7.513 -38.999  1.00  0.00     0.278 C 
ENDBRANCH   1   7
BRANCH   6   9
ATOM      9  O   UNL     1       9.812  -4.988 -36.980  1.00  0.00    -0.504 OA
ATOM     10  H   UNL     1       9.683  -4.316 -36.233  1.00  0.00     0.293 HD
ENDBRANCH   6   9
TORSDOF 2
ENDMDL
MODEL 8
REMARK VINA RESULT:    -4.139      1.207      2.378
REMARK INTER + INTRA:          -4.548
REMARK INTER:                  -4.522
REMARK INTRA:                  -0.026
REMARK UNBOUND:                -0.046
REMARK SMILES COc1ccccc1O
REMARK SMILES IDX 3 1 4 2 5 3 6 4 7 5 8 6 2 7 1 8 9 9
REMARK H PARENT 9 10
REMARK Flexibility Score: inf
ROOT
ATOM      1  C   UNL     1       0.753 -13.221 -39.605  1.00  0.00     0.160 A 
ATOM      2  C   UNL     1       0.995 -14.095 -38.526  1.00  0.00     0.050 A 
ATOM      3  C   UNL     1      -0.072 -14.624 -37.793  1.00  0.00     0.004 A 
ATOM      4  C   UNL     1      -1.385 -14.289 -38.126  1.00  0.00     0.004 A 
ATOM      5  C   UNL     1      -1.636 -13.425 -39.194  1.00  0.00     0.050 A 
ATOM      6  C   UNL     1      -0.576 -12.889 -39.935  1.00  0.00     0.157 A 
ENDROOT
BRANCH   1   7
ATOM      7  O   UNL     1       1.798 -12.671 -40.365  1.00  0.00    -0.493 OA
ATOM      8  C   UNL     1       3.135 -13.160 -40.371  1.00  0.00     0.278 C 
ENDBRANCH   1   7
BRANCH   6   9
ATOM      9  O   UNL     1      -0.862 -12.029 -40.994  1.00  0.00    -0.504 OA
ATOM     10  H   UNL     1      -0.365 -11.158 -41.132  1.00  0.00     0.293 HD
ENDBRANCH   6   9
TORSDOF 2
ENDMDL
MODEL 9
REMARK VINA RESULT:    -4.136     10.162     12.770
REMARK INTER + INTRA:          -4.544
REMARK INTER:                  -4.513
REMARK INTRA:                  -0.032
REMARK UNBOUND:                -0.046
REMARK SMILES COc1ccccc1O
REMARK SMILES IDX 3 1 4 2 5 3 6 4 7 5 8 6 2 7 1 8 9 9
REMARK H PARENT 9 10
REMARK Flexibility Score: inf
ROOT
ATOM      1  C   UNL     1       8.480  -4.944 -39.059  1.00  0.00     0.160 A 
ATOM      2  C   UNL     1       8.374  -4.328 -40.323  1.00  0.00     0.050 A 
ATOM      3  C   UNL     1       9.304  -3.362 -40.719  1.00  0.00     0.004 A 
ATOM      4  C   UNL     1      10.346  -3.002 -39.864  1.00  0.00     0.004 A 
ATOM      5  C   UNL     1      10.462  -3.606 -38.610  1.00  0.00     0.050 A 
ATOM      6  C   UNL     1       9.536  -4.574 -38.203  1.00  0.00     0.157 A 
ENDROOT
BRANCH   1   7
ATOM      7  O   UNL     1       7.565  -5.918 -38.628  1.00  0.00    -0.493 OA
ATOM      8  C   UNL     1       7.108  -7.004 -39.425  1.00  0.00     0.278 C 
ENDBRANCH   1   7
BRANCH   6   9
ATOM      9  O   UNL     1       9.681  -5.158 -36.945  1.00  0.00    -0.504 OA
ATOM     10  H   UNL     1       9.387  -4.690 -36.096  1.00  0.00     0.293 HD
ENDBRANCH   6   9
TORSDOF 2
ENDMDL
