MODEL 1
REMARK VINA RESULT:    -8.692      0.000      0.000
REMARK INTER + INTRA:         -13.550
REMARK INTER:                 -11.995
REMARK INTRA:                  -1.555
REMARK UNBOUND:                -1.555
REMARK SMILES CC[C@H](CC[C@@H](C)[C@@H]1CC[C@@H]2[C@@H]3CC=C4C[C@H](O)CC[C@@]4(C)[C@@H]3CC[C@@]21C)C(C)C
REMARK SMILES IDX 5 1 4 2 3 3 2 4 1 5 28 6 29 7 30 8 6 9 7 10 8 11 9 12 26 13
REMARK SMILES IDX 10 14 11 15 25 16 27 17 12 18 24 19 23 20 13 21 21 22 14 23
REMARK SMILES IDX 15 24 20 25 22 26 16 27 19 28 17 29 18 30
REMARK H PARENT 18 31
REMARK Flexibility Score: inf
ROOT
ATOM      1  C   UNL     1     133.902 129.951 135.900  1.00  0.00     0.004 C 
ENDROOT
BRANCH   1   2
ATOM      2  C   UNL     1     133.789 131.361 136.525  1.00  0.00     0.004 C 
BRANCH   2   3
ATOM      3  C   UNL     1     132.346 131.734 136.974  1.00  0.00    -0.009 C 
BRANCH   3   4
ATOM      4  C   UNL     1     131.752 132.984 136.248  1.00  0.00     0.000 C 
ATOM      5  C   UNL     1     132.747 134.097 135.894  1.00  0.00     0.004 C 
ENDBRANCH   3   4
BRANCH   3   6
ATOM      6  C   UNL     1     131.408 130.480 136.974  1.00  0.00    -0.014 C 
ATOM      7  C   UNL     1     130.148 130.640 136.115  1.00  0.00     0.007 C 
ATOM      8  C   UNL     1     131.025 130.038 138.397  1.00  0.00     0.007 C 
ENDBRANCH   3   6
ENDBRANCH   2   3
ENDBRANCH   1   2
BRANCH   1   9
ATOM      9  C   UNL     1     134.905 129.018 136.643  1.00  0.00    -0.011 C 
ATOM     10  C   UNL     1     135.961 129.866 137.376  1.00  0.00     0.008 C 
BRANCH   9  11
ATOM     11  C   UNL     1     134.125 127.976 137.520  1.00  0.00    -0.002 C 
ATOM     12  C   UNL     1     134.060 128.239 139.029  1.00  0.00     0.005 C 
ATOM     13  C   UNL     1     134.414 126.450 137.399  1.00  0.00    -0.026 C 
ATOM     14  C   UNL     1     133.601 126.911 139.655  1.00  0.00     0.005 C 
ATOM     15  C   UNL     1     133.453 125.916 138.485  1.00  0.00    -0.001 C 
ATOM     16  C   UNL     1     135.903 126.070 137.731  1.00  0.00     0.007 C 
ATOM     17  C   UNL     1     134.016 125.927 135.999  1.00  0.00     0.012 C 
ATOM     18  C   UNL     1     133.600 124.398 138.803  1.00  0.00     0.000 C 
ATOM     19  C   UNL     1     136.109 124.921 138.737  1.00  0.00     0.005 C 
ATOM     20  C   UNL     1     135.041 123.819 138.634  1.00  0.00     0.003 C 
ATOM     21  C   UNL     1     132.952 124.005 140.136  1.00  0.00     0.031 C 
ATOM     22  C   UNL     1     135.363 122.531 139.524  1.00  0.00    -0.008 C 
ATOM     23  C   UNL     1     132.978 122.514 140.275  1.00  0.00    -0.027 C 
ATOM     24  C   UNL     1     134.070 121.803 139.933  1.00  0.00    -0.065 C 
ATOM     25  C   UNL     1     136.273 121.576 138.686  1.00  0.00     0.014 C 
ATOM     26  C   UNL     1     136.107 122.896 140.840  1.00  0.00     0.016 C 
ATOM     27  C   UNL     1     134.087 120.323 140.273  1.00  0.00     0.063 C 
ATOM     28  C   UNL     1     136.381 120.160 139.259  1.00  0.00     0.033 C 
ATOM     29  C   UNL     1     134.996 119.519 139.338  1.00  0.00     0.118 C 
BRANCH  29  30
ATOM     30  O   UNL     1     135.126 118.203 139.812  1.00  0.00    -0.393 OA
ATOM     31  H   UNL     1     134.443 117.660 139.339  1.00  0.00     0.210 HD
ENDBRANCH  29  30
ENDBRANCH   9  11
ENDBRANCH   1   9
TORSDOF 7
ENDMDL
MODEL 2
REMARK VINA RESULT:    -8.584      0.467      1.622
REMARK INTER + INTRA:         -13.400
REMARK INTER:                 -12.322
REMARK INTRA:                  -1.078
REMARK UNBOUND:                -1.555
REMARK SMILES CC[C@H](CC[C@@H](C)[C@@H]1CC[C@@H]2[C@@H]3CC=C4C[C@H](O)CC[C@@]4(C)[C@@H]3CC[C@@]21C)C(C)C
REMARK SMILES IDX 5 1 4 2 3 3 2 4 1 5 28 6 29 7 30 8 6 9 7 10 8 11 9 12 26 13
REMARK SMILES IDX 10 14 11 15 25 16 27 17 12 18 24 19 23 20 13 21 21 22 14 23
REMARK SMILES IDX 15 24 20 25 22 26 16 27 19 28 17 29 18 30
REMARK H PARENT 18 31
REMARK Flexibility Score: inf
ROOT
ATOM      1  C   UNL     1     134.009 129.960 135.876  1.00  0.00     0.004 C 
ENDROOT
BRANCH   1   2
ATOM      2  C   UNL     1     133.637 131.240 136.660  1.00  0.00     0.004 C 
BRANCH   2   3
ATOM      3  C   UNL     1     132.270 131.857 136.243  1.00  0.00    -0.009 C 
BRANCH   3   4
ATOM      4  C   UNL     1     131.055 131.350 137.085  1.00  0.00     0.000 C 
ATOM      5  C   UNL     1     130.056 130.444 136.354  1.00  0.00     0.004 C 
ENDBRANCH   3   4
BRANCH   3   6
ATOM      6  C   UNL     1     132.365 133.415 136.115  1.00  0.00    -0.014 C 
ATOM      7  C   UNL     1     133.773 133.978 136.345  1.00  0.00     0.007 C 
ATOM      8  C   UNL     1     131.352 134.136 137.021  1.00  0.00     0.007 C 
ENDBRANCH   3   6
ENDBRANCH   2   3
ENDBRANCH   1   2
BRANCH   1   9
ATOM      9  C   UNL     1     134.975 129.014 136.650  1.00  0.00    -0.011 C 
ATOM     10  C   UNL     1     135.993 129.847 137.450  1.00  0.00     0.008 C 
BRANCH   9  11
ATOM     11  C   UNL     1     134.153 127.955 137.468  1.00  0.00    -0.002 C 
ATOM     12  C   UNL     1     133.980 128.211 138.970  1.00  0.00     0.005 C 
ATOM     13  C   UNL     1     134.473 126.435 137.362  1.00  0.00    -0.026 C 
ATOM     14  C   UNL     1     133.499 126.874 139.558  1.00  0.00     0.005 C 
ATOM     15  C   UNL     1     133.448 125.881 138.377  1.00  0.00    -0.001 C 
ATOM     16  C   UNL     1     135.942 126.077 137.795  1.00  0.00     0.007 C 
ATOM     17  C   UNL     1     134.182 125.911 135.936  1.00  0.00     0.012 C 
ATOM     18  C   UNL     1     133.597 124.364 138.700  1.00  0.00     0.000 C 
ATOM     19  C   UNL     1     136.096 124.927 138.809  1.00  0.00     0.005 C 
ATOM     20  C   UNL     1     135.056 123.809 138.629  1.00  0.00     0.003 C 
ATOM     21  C   UNL     1     132.865 123.956 139.984  1.00  0.00     0.031 C 
ATOM     22  C   UNL     1     135.336 122.523 139.535  1.00  0.00    -0.008 C 
ATOM     23  C   UNL     1     132.906 122.465 140.120  1.00  0.00    -0.027 C 
ATOM     24  C   UNL     1     134.030 121.772 139.852  1.00  0.00    -0.065 C 
ATOM     25  C   UNL     1     136.317 121.585 138.759  1.00  0.00     0.014 C 
ATOM     26  C   UNL     1     135.981 122.893 140.901  1.00  0.00     0.016 C 
ATOM     27  C   UNL     1     134.047 120.291 140.188  1.00  0.00     0.063 C 
ATOM     28  C   UNL     1     136.408 120.169 139.334  1.00  0.00     0.033 C 
ATOM     29  C   UNL     1     135.032 119.505 139.315  1.00  0.00     0.118 C 
BRANCH  29  30
ATOM     30  O   UNL     1     135.150 118.190 139.793  1.00  0.00    -0.393 OA
ATOM     31  H   UNL     1     135.990 117.822 139.414  1.00  0.00     0.210 HD
ENDBRANCH  29  30
ENDBRANCH   9  11
ENDBRANCH   1   9
TORSDOF 7
ENDMDL
MODEL 3
REMARK VINA RESULT:    -8.303      4.152      9.465
REMARK INTER + INTRA:         -13.013
REMARK INTER:                 -12.345
REMARK INTRA:                  -0.668
REMARK UNBOUND:                -1.555
REMARK SMILES CC[C@H](CC[C@@H](C)[C@@H]1CC[C@@H]2[C@@H]3CC=C4C[C@H](O)CC[C@@]4(C)[C@@H]3CC[C@@]21C)C(C)C
REMARK SMILES IDX 5 1 4 2 3 3 2 4 1 5 28 6 29 7 30 8 6 9 7 10 8 11 9 12 26 13
REMARK SMILES IDX 10 14 11 15 25 16 27 17 12 18 24 19 23 20 13 21 21 22 14 23
REMARK SMILES IDX 15 24 20 25 22 26 16 27 19 28 17 29 18 30
REMARK H PARENT 18 31
REMARK Flexibility Score: inf
ROOT
ATOM      1  C   UNL     1     135.852 121.964 139.996  1.00  0.00     0.004 C 
ENDROOT
BRANCH   1   2
ATOM      2  C   UNL     1     136.077 121.327 138.605  1.00  0.00     0.004 C 
BRANCH   2   3
ATOM      3  C   UNL     1     136.779 119.939 138.656  1.00  0.00    -0.009 C 
BRANCH   3   4
ATOM      4  C   UNL     1     136.956 119.362 140.098  1.00  0.00     0.000 C 
ATOM      5  C   UNL     1     138.375 119.412 140.677  1.00  0.00     0.004 C 
ENDBRANCH   3   4
BRANCH   3   6
ATOM      6  C   UNL     1     136.139 118.940 137.633  1.00  0.00    -0.014 C 
ATOM      7  C   UNL     1     135.301 117.831 138.282  1.00  0.00     0.007 C 
ATOM      8  C   UNL     1     137.185 118.327 136.685  1.00  0.00     0.007 C 
ENDBRANCH   3   6
ENDBRANCH   2   3
ENDBRANCH   1   2
BRANCH   1   9
ATOM      9  C   UNL     1     135.434 123.463 139.936  1.00  0.00    -0.011 C 
ATOM     10  C   UNL     1     135.699 124.022 138.525  1.00  0.00     0.008 C 
BRANCH   9  11
ATOM     11  C   UNL     1     133.973 123.638 140.485  1.00  0.00    -0.002 C 
ATOM     12  C   UNL     1     132.852 122.903 139.741  1.00  0.00     0.005 C 
ATOM     13  C   UNL     1     133.391 125.053 140.776  1.00  0.00    -0.026 C 
ATOM     14  C   UNL     1     131.545 123.548 140.234  1.00  0.00     0.005 C 
ATOM     15  C   UNL     1     131.963 124.661 141.219  1.00  0.00    -0.001 C 
ATOM     16  C   UNL     1     133.350 125.982 139.508  1.00  0.00     0.007 C 
ATOM     17  C   UNL     1     134.162 125.737 141.930  1.00  0.00     0.012 C 
ATOM     18  C   UNL     1     130.985 125.857 141.416  1.00  0.00     0.000 C 
ATOM     19  C   UNL     1     132.011 126.686 139.217  1.00  0.00     0.005 C 
ATOM     20  C   UNL     1     131.241 127.087 140.487  1.00  0.00     0.003 C 
ATOM     21  C   UNL     1     129.514 125.424 141.440  1.00  0.00     0.031 C 
ATOM     22  C   UNL     1     129.960 127.996 140.198  1.00  0.00    -0.008 C 
ATOM     23  C   UNL     1     128.661 126.597 141.813  1.00  0.00    -0.027 C 
ATOM     24  C   UNL     1     128.894 127.819 141.295  1.00  0.00    -0.065 C 
ATOM     25  C   UNL     1     130.425 129.488 140.140  1.00  0.00     0.014 C 
ATOM     26  C   UNL     1     129.276 127.639 138.848  1.00  0.00     0.016 C 
ATOM     27  C   UNL     1     127.880 128.913 141.577  1.00  0.00     0.063 C 
ATOM     28  C   UNL     1     129.277 130.500 140.217  1.00  0.00     0.033 C 
ATOM     29  C   UNL     1     128.500 130.314 141.519  1.00  0.00     0.118 C 
BRANCH  29  30
ATOM     30  O   UNL     1     127.491 131.287 141.594  1.00  0.00    -0.393 OA
ATOM     31  H   UNL     1     127.897 132.144 141.301  1.00  0.00     0.210 HD
ENDBRANCH  29  30
ENDBRANCH   9  11
ENDBRANCH   1   9
TORSDOF 7
ENDMDL
MODEL 4
REMARK VINA RESULT:    -8.112      1.631      2.621
REMARK INTER + INTRA:         -12.749
REMARK INTER:                 -11.265
REMARK INTRA:                  -1.484
REMARK UNBOUND:                -1.555
REMARK SMILES CC[C@H](CC[C@@H](C)[C@@H]1CC[C@@H]2[C@@H]3CC=C4C[C@H](O)CC[C@@]4(C)[C@@H]3CC[C@@]21C)C(C)C
REMARK SMILES IDX 5 1 4 2 3 3 2 4 1 5 28 6 29 7 30 8 6 9 7 10 8 11 9 12 26 13
REMARK SMILES IDX 10 14 11 15 25 16 27 17 12 18 24 19 23 20 13 21 21 22 14 23
REMARK SMILES IDX 15 24 20 25 22 26 16 27 19 28 17 29 18 30
REMARK H PARENT 18 31
REMARK Flexibility Score: inf
ROOT
ATOM      1  C   UNL     1     131.803 131.405 135.935  1.00  0.00     0.004 C 
ENDROOT
BRANCH   1   2
ATOM      2  C   UNL     1     132.115 132.913 136.077  1.00  0.00     0.004 C 
BRANCH   2   3
ATOM      3  C   UNL     1     131.087 133.686 136.955  1.00  0.00    -0.009 C 
BRANCH   3   4
ATOM      4  C   UNL     1     129.836 132.845 137.367  1.00  0.00     0.000 C 
ATOM      5  C   UNL     1     128.537 133.630 137.590  1.00  0.00     0.004 C 
ENDBRANCH   3   4
BRANCH   3   6
ATOM      6  C   UNL     1     131.794 134.420 138.143  1.00  0.00    -0.014 C 
ATOM      7  C   UNL     1     133.187 134.964 137.804  1.00  0.00     0.007 C 
ATOM      8  C   UNL     1     131.859 133.550 139.410  1.00  0.00     0.007 C 
ENDBRANCH   3   6
ENDBRANCH   2   3
ENDBRANCH   1   2
BRANCH   1   9
ATOM      9  C   UNL     1     132.892 130.481 136.559  1.00  0.00    -0.011 C 
ATOM     10  C   UNL     1     133.855 131.319 137.421  1.00  0.00     0.008 C 
BRANCH   9  11
ATOM     11  C   UNL     1     132.217 129.255 137.269  1.00  0.00    -0.002 C 
ATOM     12  C   UNL     1     131.707 129.467 138.700  1.00  0.00     0.005 C 
ATOM     13  C   UNL     1     132.917 127.864 137.304  1.00  0.00    -0.026 C 
ATOM     14  C   UNL     1     131.469 128.055 139.261  1.00  0.00     0.005 C 
ATOM     15  C   UNL     1     131.888 127.075 138.144  1.00  0.00    -0.001 C 
ATOM     16  C   UNL     1     134.320 127.890 138.013  1.00  0.00     0.007 C 
ATOM     17  C   UNL     1     133.036 127.275 135.878  1.00  0.00     0.012 C 
ATOM     18  C   UNL     1     132.342 125.646 138.568  1.00  0.00     0.000 C 
ATOM     19  C   UNL     1     134.559 126.821 139.097  1.00  0.00     0.005 C 
ATOM     20  C   UNL     1     133.879 125.476 138.791  1.00  0.00     0.003 C 
ATOM     21  C   UNL     1     131.505 125.074 139.718  1.00  0.00     0.031 C 
ATOM     22  C   UNL     1     134.292 124.307 139.799  1.00  0.00    -0.008 C 
ATOM     23  C   UNL     1     131.885 123.642 139.938  1.00  0.00    -0.027 C 
ATOM     24  C   UNL     1     133.175 123.253 139.914  1.00  0.00    -0.065 C 
ATOM     25  C   UNL     1     135.602 123.642 139.263  1.00  0.00     0.014 C 
ATOM     26  C   UNL     1     134.557 124.835 141.237  1.00  0.00     0.016 C 
ATOM     27  C   UNL     1     133.493 121.826 140.325  1.00  0.00     0.063 C 
ATOM     28  C   UNL     1     135.929 122.297 139.919  1.00  0.00     0.033 C 
ATOM     29  C   UNL     1     134.787 121.309 139.687  1.00  0.00     0.118 C 
BRANCH  29  30
ATOM     30  O   UNL     1     135.133 120.068 140.246  1.00  0.00    -0.393 OA
ATOM     31  H   UNL     1     134.411 119.432 140.002  1.00  0.00     0.210 HD
ENDBRANCH  29  30
ENDBRANCH   9  11
ENDBRANCH   1   9
TORSDOF 7
ENDMDL
MODEL 5
REMARK VINA RESULT:    -7.836      4.005      9.821
REMARK INTER + INTRA:         -12.369
REMARK INTER:                 -10.721
REMARK INTRA:                  -1.648
REMARK UNBOUND:                -1.555
REMARK SMILES CC[C@H](CC[C@@H](C)[C@@H]1CC[C@@H]2[C@@H]3CC=C4C[C@H](O)CC[C@@]4(C)[C@@H]3CC[C@@]21C)C(C)C
REMARK SMILES IDX 5 1 4 2 3 3 2 4 1 5 28 6 29 7 30 8 6 9 7 10 8 11 9 12 26 13
REMARK SMILES IDX 10 14 11 15 25 16 27 17 12 18 24 19 23 20 13 21 21 22 14 23
REMARK SMILES IDX 15 24 20 25 22 26 16 27 19 28 17 29 18 30
REMARK H PARENT 18 31
REMARK Flexibility Score: inf
ROOT
ATOM      1  C   UNL     1     131.798 123.811 140.251  1.00  0.00     0.004 C 
ENDROOT
BRANCH   1   2
ATOM      2  C   UNL     1     133.008 123.638 139.304  1.00  0.00     0.004 C 
BRANCH   2   3
ATOM      3  C   UNL     1     134.277 123.069 140.004  1.00  0.00    -0.009 C 
BRANCH   3   4
ATOM      4  C   UNL     1     134.361 121.508 140.008  1.00  0.00     0.000 C 
ATOM      5  C   UNL     1     135.677 120.900 139.505  1.00  0.00     0.004 C 
ENDBRANCH   3   4
BRANCH   3   6
ATOM      6  C   UNL     1     135.574 123.785 139.499  1.00  0.00    -0.014 C 
ATOM      7  C   UNL     1     136.226 124.706 140.538  1.00  0.00     0.007 C 
ATOM      8  C   UNL     1     135.344 124.550 138.185  1.00  0.00     0.007 C 
ENDBRANCH   3   6
ENDBRANCH   2   3
ENDBRANCH   1   2
BRANCH   1   9
ATOM      9  C   UNL     1     131.710 125.225 140.898  1.00  0.00    -0.011 C 
ATOM     10  C   UNL     1     132.582 125.274 142.167  1.00  0.00     0.008 C 
BRANCH   9  11
ATOM     11  C   UNL     1     131.995 126.331 139.820  1.00  0.00    -0.002 C 
ATOM     12  C   UNL     1     133.354 127.038 139.885  1.00  0.00     0.005 C 
ATOM     13  C   UNL     1     130.970 127.472 139.552  1.00  0.00    -0.026 C 
ATOM     14  C   UNL     1     133.205 128.288 139.002  1.00  0.00     0.005 C 
ATOM     15  C   UNL     1     131.750 128.278 138.488  1.00  0.00    -0.001 C 
ATOM     16  C   UNL     1     130.675 128.355 140.820  1.00  0.00     0.007 C 
ATOM     17  C   UNL     1     129.657 126.903 138.965  1.00  0.00     0.012 C 
ATOM     18  C   UNL     1     131.110 129.644 138.099  1.00  0.00     0.000 C 
ATOM     19  C   UNL     1     130.775 129.881 140.630  1.00  0.00     0.005 C 
ATOM     20  C   UNL     1     130.317 130.356 139.241  1.00  0.00     0.003 C 
ATOM     21  C   UNL     1     132.093 130.578 137.383  1.00  0.00     0.031 C 
ATOM     22  C   UNL     1     130.219 131.946 139.109  1.00  0.00    -0.008 C 
ATOM     23  C   UNL     1     131.354 131.783 136.887  1.00  0.00    -0.027 C 
ATOM     24  C   UNL     1     130.430 132.395 137.652  1.00  0.00    -0.065 C 
ATOM     25  C   UNL     1     128.805 132.390 139.608  1.00  0.00     0.014 C 
ATOM     26  C   UNL     1     131.296 132.675 139.962  1.00  0.00     0.016 C 
ATOM     27  C   UNL     1     129.859 133.712 137.155  1.00  0.00     0.063 C 
ATOM     28  C   UNL     1     128.434 133.825 139.223  1.00  0.00     0.033 C 
ATOM     29  C   UNL     1     128.454 133.984 137.704  1.00  0.00     0.118 C 
BRANCH  29  30
ATOM     30  O   UNL     1     128.055 135.289 137.373  1.00  0.00    -0.393 OA
ATOM     31  H   UNL     1     127.816 135.280 136.410  1.00  0.00     0.210 HD
ENDBRANCH  29  30
ENDBRANCH   9  11
ENDBRANCH   1   9
TORSDOF 7
ENDMDL
MODEL 6
REMARK VINA RESULT:    -7.660      1.826      2.751
REMARK INTER + INTRA:         -12.125
REMARK INTER:                 -10.462
REMARK INTRA:                  -1.663
REMARK UNBOUND:                -1.555
REMARK SMILES CC[C@H](CC[C@@H](C)[C@@H]1CC[C@@H]2[C@@H]3CC=C4C[C@H](O)CC[C@@]4(C)[C@@H]3CC[C@@]21C)C(C)C
REMARK SMILES IDX 5 1 4 2 3 3 2 4 1 5 28 6 29 7 30 8 6 9 7 10 8 11 9 12 26 13
REMARK SMILES IDX 10 14 11 15 25 16 27 17 12 18 24 19 23 20 13 21 21 22 14 23
REMARK SMILES IDX 15 24 20 25 22 26 16 27 19 28 17 29 18 30
REMARK H PARENT 18 31
REMARK Flexibility Score: inf
ROOT
ATOM      1  C   UNL     1     133.250 128.499 137.887  1.00  0.00     0.004 C 
ENDROOT
BRANCH   1   2
ATOM      2  C   UNL     1     131.781 128.081 137.649  1.00  0.00     0.004 C 
BRANCH   2   3
ATOM      3  C   UNL     1     130.742 129.035 138.306  1.00  0.00    -0.009 C 
BRANCH   3   4
ATOM      4  C   UNL     1     130.107 130.068 137.320  1.00  0.00     0.000 C 
ATOM      5  C   UNL     1     130.645 130.051 135.883  1.00  0.00     0.004 C 
ENDBRANCH   3   4
BRANCH   3   6
ATOM      6  C   UNL     1     129.704 128.240 139.167  1.00  0.00    -0.014 C 
ATOM      7  C   UNL     1     129.805 128.505 140.674  1.00  0.00     0.007 C 
ATOM      8  C   UNL     1     129.755 126.727 138.892  1.00  0.00     0.007 C 
ENDBRANCH   3   6
ENDBRANCH   2   3
ENDBRANCH   1   2
BRANCH   1   9
ATOM      9  C   UNL     1     133.823 128.014 139.252  1.00  0.00    -0.011 C 
ATOM     10  C   UNL     1     133.536 129.065 140.341  1.00  0.00     0.008 C 
BRANCH   9  11
ATOM     11  C   UNL     1     133.335 126.553 139.555  1.00  0.00    -0.002 C 
ATOM     12  C   UNL     1     133.066 126.195 141.021  1.00  0.00     0.005 C 
ATOM     13  C   UNL     1     134.091 125.319 138.980  1.00  0.00    -0.026 C 
ATOM     14  C   UNL     1     132.990 124.659 141.057  1.00  0.00     0.005 C 
ATOM     15  C   UNL     1     133.256 124.183 139.613  1.00  0.00    -0.001 C 
ATOM     16  C   UNL     1     135.591 125.238 139.443  1.00  0.00     0.007 C 
ATOM     17  C   UNL     1     133.993 125.286 137.437  1.00  0.00     0.012 C 
ATOM     18  C   UNL     1     133.839 122.752 139.418  1.00  0.00     0.000 C 
ATOM     19  C   UNL     1     136.059 123.887 140.018  1.00  0.00     0.005 C 
ATOM     20  C   UNL     1     135.397 122.673 139.343  1.00  0.00     0.003 C 
ATOM     21  C   UNL     1     133.236 121.728 140.387  1.00  0.00     0.031 C 
ATOM     22  C   UNL     1     136.027 121.273 139.786  1.00  0.00    -0.008 C 
ATOM     23  C   UNL     1     133.711 120.358 140.014  1.00  0.00    -0.027 C 
ATOM     24  C   UNL     1     134.994 120.137 139.667  1.00  0.00    -0.065 C 
ATOM     25  C   UNL     1     137.255 120.978 138.865  1.00  0.00     0.014 C 
ATOM     26  C   UNL     1     136.509 121.285 141.265  1.00  0.00     0.016 C 
ATOM     27  C   UNL     1     135.440 118.698 139.480  1.00  0.00     0.063 C 
ATOM     28  C   UNL     1     137.748 119.530 138.932  1.00  0.00     0.033 C 
ATOM     29  C   UNL     1     136.629 118.574 138.521  1.00  0.00     0.118 C 
BRANCH  29  30
ATOM     30  O   UNL     1     137.121 117.259 138.534  1.00  0.00    -0.393 OA
ATOM     31  H   UNL     1     136.446 116.706 139.008  1.00  0.00     0.210 HD
ENDBRANCH  29  30
ENDBRANCH   9  11
ENDBRANCH   1   9
TORSDOF 7
ENDMDL
MODEL 7
REMARK VINA RESULT:    -7.619      3.230      5.487
REMARK INTER + INTRA:         -12.068
REMARK INTER:                 -10.401
REMARK INTRA:                  -1.668
REMARK UNBOUND:                -1.555
REMARK SMILES CC[C@H](CC[C@@H](C)[C@@H]1CC[C@@H]2[C@@H]3CC=C4C[C@H](O)CC[C@@]4(C)[C@@H]3CC[C@@]21C)C(C)C
REMARK SMILES IDX 5 1 4 2 3 3 2 4 1 5 28 6 29 7 30 8 6 9 7 10 8 11 9 12 26 13
REMARK SMILES IDX 10 14 11 15 25 16 27 17 12 18 24 19 23 20 13 21 21 22 14 23
REMARK SMILES IDX 15 24 20 25 22 26 16 27 19 28 17 29 18 30
REMARK H PARENT 18 31
REMARK Flexibility Score: inf
ROOT
ATOM      1  C   UNL     1     127.828 132.790 139.935  1.00  0.00     0.004 C 
ENDROOT
BRANCH   1   2
ATOM      2  C   UNL     1     128.229 133.464 138.602  1.00  0.00     0.004 C 
BRANCH   2   3
ATOM      3  C   UNL     1     129.758 133.720 138.463  1.00  0.00    -0.009 C 
BRANCH   3   4
ATOM      4  C   UNL     1     130.395 133.114 137.171  1.00  0.00     0.000 C 
ATOM      5  C   UNL     1     131.590 133.876 136.584  1.00  0.00     0.004 C 
ENDBRANCH   3   4
BRANCH   3   6
ATOM      6  C   UNL     1     130.107 135.226 138.712  1.00  0.00    -0.014 C 
ATOM      7  C   UNL     1     131.066 135.462 139.885  1.00  0.00     0.007 C 
ATOM      8  C   UNL     1     128.849 136.097 138.874  1.00  0.00     0.007 C 
ENDBRANCH   3   6
ENDBRANCH   2   3
ENDBRANCH   1   2
BRANCH   1   9
ATOM      9  C   UNL     1     129.012 132.079 140.656  1.00  0.00    -0.011 C 
ATOM     10  C   UNL     1     129.275 132.752 142.016  1.00  0.00     0.008 C 
BRANCH   9  11
ATOM     11  C   UNL     1     128.771 130.528 140.688  1.00  0.00    -0.002 C 
ATOM     12  C   UNL     1     128.261 129.925 142.002  1.00  0.00     0.005 C 
ATOM     13  C   UNL     1     129.868 129.536 140.200  1.00  0.00    -0.026 C 
ATOM     14  C   UNL     1     128.489 128.409 141.870  1.00  0.00     0.005 C 
ATOM     15  C   UNL     1     129.159 128.196 140.496  1.00  0.00    -0.001 C 
ATOM     16  C   UNL     1     131.213 129.650 141.006  1.00  0.00     0.007 C 
ATOM     17  C   UNL     1     130.125 129.705 138.683  1.00  0.00     0.012 C 
ATOM     18  C   UNL     1     130.046 126.928 140.313  1.00  0.00     0.000 C 
ATOM     19  C   UNL     1     131.803 128.332 141.544  1.00  0.00     0.005 C 
ATOM     20  C   UNL     1     131.566 127.131 140.615  1.00  0.00     0.003 C 
ATOM     21  C   UNL     1     129.461 125.689 141.001  1.00  0.00     0.031 C 
ATOM     22  C   UNL     1     132.349 125.811 141.061  1.00  0.00    -0.008 C 
ATOM     23  C   UNL     1     130.272 124.488 140.625  1.00  0.00    -0.027 C 
ATOM     24  C   UNL     1     131.618 124.543 140.584  1.00  0.00    -0.065 C 
ATOM     25  C   UNL     1     133.785 125.866 140.445  1.00  0.00     0.014 C 
ATOM     26  C   UNL     1     132.478 125.698 142.607  1.00  0.00     0.016 C 
ATOM     27  C   UNL     1     132.374 123.243 140.374  1.00  0.00     0.063 C 
ATOM     28  C   UNL     1     134.531 124.529 140.491  1.00  0.00     0.033 C 
ATOM     29  C   UNL     1     133.747 123.463 139.728  1.00  0.00     0.118 C 
BRANCH  29  30
ATOM     30  O   UNL     1     134.476 122.264 139.735  1.00  0.00    -0.393 OA
ATOM     31  H   UNL     1     133.957 121.616 140.279  1.00  0.00     0.210 HD
ENDBRANCH  29  30
ENDBRANCH   9  11
ENDBRANCH   1   9
TORSDOF 7
ENDMDL
MODEL 8
REMARK VINA RESULT:    -7.478      4.467      6.858
REMARK INTER + INTRA:         -11.875
REMARK INTER:                  -9.496
REMARK INTRA:                  -2.379
REMARK UNBOUND:                -1.555
REMARK SMILES CC[C@H](CC[C@@H](C)[C@@H]1CC[C@@H]2[C@@H]3CC=C4C[C@H](O)CC[C@@]4(C)[C@@H]3CC[C@@]21C)C(C)C
REMARK SMILES IDX 5 1 4 2 3 3 2 4 1 5 28 6 29 7 30 8 6 9 7 10 8 11 9 12 26 13
REMARK SMILES IDX 10 14 11 15 25 16 27 17 12 18 24 19 23 20 13 21 21 22 14 23
REMARK SMILES IDX 15 24 20 25 22 26 16 27 19 28 17 29 18 30
REMARK H PARENT 18 31
REMARK Flexibility Score: inf
ROOT
ATOM      1  C   UNL     1     131.025 135.256 141.668  1.00  0.00     0.004 C 
ENDROOT
BRANCH   1   2
ATOM      2  C   UNL     1     130.173 135.632 140.434  1.00  0.00     0.004 C 
BRANCH   2   3
ATOM      3  C   UNL     1     130.896 135.396 139.076  1.00  0.00    -0.009 C 
BRANCH   3   4
ATOM      4  C   UNL     1     132.344 134.823 139.212  1.00  0.00     0.000 C 
ATOM      5  C   UNL     1     133.486 135.779 138.847  1.00  0.00     0.004 C 
ENDBRANCH   3   4
BRANCH   3   6
ATOM      6  C   UNL     1     129.982 134.613 138.074  1.00  0.00    -0.014 C 
ATOM      7  C   UNL     1     128.505 134.559 138.485  1.00  0.00     0.007 C 
ATOM      8  C   UNL     1     130.505 133.194 137.794  1.00  0.00     0.007 C 
ENDBRANCH   3   6
ENDBRANCH   2   3
ENDBRANCH   1   2
BRANCH   1   9
ATOM      9  C   UNL     1     130.441 134.069 142.491  1.00  0.00    -0.011 C 
ATOM     10  C   UNL     1     129.382 134.591 143.480  1.00  0.00     0.008 C 
BRANCH   9  11
ATOM     11  C   UNL     1     129.980 132.918 141.528  1.00  0.00    -0.002 C 
ATOM     12  C   UNL     1     128.482 132.592 141.492  1.00  0.00     0.005 C 
ATOM     13  C   UNL     1     130.685 131.530 141.542  1.00  0.00    -0.026 C 
ATOM     14  C   UNL     1     128.380 131.224 140.796  1.00  0.00     0.005 C 
ATOM     15  C   UNL     1     129.829 130.792 140.488  1.00  0.00    -0.001 C 
ATOM     16  C   UNL     1     130.606 130.806 142.936  1.00  0.00     0.007 C 
ATOM     17  C   UNL     1     132.154 131.656 141.075  1.00  0.00     0.012 C 
ATOM     18  C   UNL     1     130.117 129.266 140.359  1.00  0.00     0.000 C 
ATOM     19  C   UNL     1     130.123 129.343 142.921  1.00  0.00     0.005 C 
ATOM     20  C   UNL     1     130.573 128.562 141.676  1.00  0.00     0.003 C 
ATOM     21  C   UNL     1     128.997 128.510 139.635  1.00  0.00     0.031 C 
ATOM     22  C   UNL     1     130.256 126.997 141.753  1.00  0.00    -0.008 C 
ATOM     23  C   UNL     1     129.433 127.097 139.394  1.00  0.00    -0.027 C 
ATOM     24  C   UNL     1     130.079 126.397 140.346  1.00  0.00    -0.065 C 
ATOM     25  C   UNL     1     131.443 126.295 142.489  1.00  0.00     0.014 C 
ATOM     26  C   UNL     1     128.944 126.700 142.534  1.00  0.00     0.016 C 
ATOM     27  C   UNL     1     130.325 124.920 140.095  1.00  0.00     0.063 C 
ATOM     28  C   UNL     1     131.454 124.771 142.336  1.00  0.00     0.033 C 
ATOM     29  C   UNL     1     131.545 124.392 140.859  1.00  0.00     0.118 C 
BRANCH  29  30
ATOM     30  O   UNL     1     131.612 122.994 140.747  1.00  0.00    -0.393 OA
ATOM     31  H   UNL     1     130.763 122.700 140.323  1.00  0.00     0.210 HD
ENDBRANCH  29  30
ENDBRANCH   9  11
ENDBRANCH   1   9
TORSDOF 7
ENDMDL
MODEL 9
REMARK VINA RESULT:    -7.386      2.808      5.561
REMARK INTER + INTRA:         -11.748
REMARK INTER:                  -9.774
REMARK INTRA:                  -1.974
REMARK UNBOUND:                -1.555
REMARK SMILES CC[C@H](CC[C@@H](C)[C@@H]1CC[C@@H]2[C@@H]3CC=C4C[C@H](O)CC[C@@]4(C)[C@@H]3CC[C@@]21C)C(C)C
REMARK SMILES IDX 5 1 4 2 3 3 2 4 1 5 28 6 29 7 30 8 6 9 7 10 8 11 9 12 26 13
REMARK SMILES IDX 10 14 11 15 25 16 27 17 12 18 24 19 23 20 13 21 21 22 14 23
REMARK SMILES IDX 15 24 20 25 22 26 16 27 19 28 17 29 18 30
REMARK H PARENT 18 31
REMARK Flexibility Score: inf
ROOT
ATOM      1  C   UNL     1     131.010 134.254 137.579  1.00  0.00     0.004 C 
ENDROOT
BRANCH   1   2
ATOM      2  C   UNL     1     131.156 135.022 138.913  1.00  0.00     0.004 C 
BRANCH   2   3
ATOM      3  C   UNL     1     131.019 134.121 140.175  1.00  0.00    -0.009 C 
BRANCH   3   4
ATOM      4  C   UNL     1     132.323 134.012 141.030  1.00  0.00     0.000 C 
ATOM      5  C   UNL     1     132.559 132.670 141.734  1.00  0.00     0.004 C 
ENDBRANCH   3   4
BRANCH   3   6
ATOM      6  C   UNL     1     129.736 134.483 140.995  1.00  0.00    -0.014 C 
ATOM      7  C   UNL     1     128.762 133.313 141.186  1.00  0.00     0.007 C 
ATOM      8  C   UNL     1     128.994 135.698 140.412  1.00  0.00     0.007 C 
ENDBRANCH   3   6
ENDBRANCH   2   3
ENDBRANCH   1   2
BRANCH   1   9
ATOM      9  C   UNL     1     130.152 132.959 137.696  1.00  0.00    -0.011 C 
ATOM     10  C   UNL     1     128.710 133.245 137.237  1.00  0.00     0.008 C 
BRANCH   9  11
ATOM     11  C   UNL     1     130.879 131.764 136.983  1.00  0.00    -0.002 C 
ATOM     12  C   UNL     1     129.999 130.752 136.240  1.00  0.00     0.005 C 
ATOM     13  C   UNL     1     131.925 130.894 137.742  1.00  0.00    -0.026 C 
ATOM     14  C   UNL     1     130.903 129.532 135.992  1.00  0.00     0.005 C 
ATOM     15  C   UNL     1     132.265 129.870 136.635  1.00  0.00    -0.001 C 
ATOM     16  C   UNL     1     131.334 130.176 139.009  1.00  0.00     0.007 C 
ATOM     17  C   UNL     1     133.167 131.736 138.120  1.00  0.00     0.012 C 
ATOM     18  C   UNL     1     133.164 128.683 137.092  1.00  0.00     0.000 C 
ATOM     19  C   UNL     1     131.607 128.664 139.129  1.00  0.00     0.005 C 
ATOM     20  C   UNL     1     132.981 128.245 138.581  1.00  0.00     0.003 C 
ATOM     21  C   UNL     1     133.132 127.503 136.114  1.00  0.00     0.031 C 
ATOM     22  C   UNL     1     133.355 126.722 138.889  1.00  0.00    -0.008 C 
ATOM     23  C   UNL     1     134.154 126.491 136.531  1.00  0.00    -0.027 C 
ATOM     24  C   UNL     1     134.318 126.161 137.827  1.00  0.00    -0.065 C 
ATOM     25  C   UNL     1     134.022 126.661 140.302  1.00  0.00     0.014 C 
ATOM     26  C   UNL     1     132.105 125.797 138.892  1.00  0.00     0.016 C 
ATOM     27  C   UNL     1     135.241 125.000 138.151  1.00  0.00     0.063 C 
ATOM     28  C   UNL     1     134.744 125.342 140.592  1.00  0.00     0.033 C 
ATOM     29  C   UNL     1     135.843 125.107 139.557  1.00  0.00     0.118 C 
BRANCH  29  30
ATOM     30  O   UNL     1     136.527 123.923 139.876  1.00  0.00    -0.393 OA
ATOM     31  H   UNL     1     135.918 123.171 139.655  1.00  0.00     0.210 HD
ENDBRANCH  29  30
ENDBRANCH   9  11
ENDBRANCH   1   9
TORSDOF 7
ENDMDL
