MODEL 1
REMARK VINA RESULT:    -5.252      0.000      0.000
REMARK INTER + INTRA:          -5.802
REMARK INTER:                  -5.559
REMARK INTRA:                  -0.243
REMARK UNBOUND:                -0.243
REMARK SMILES O=c1cc(-c2ccccc2)oc2ccccc12
REMARK SMILES IDX 4 1 3 2 2 3 1 4 17 5 16 6 15 7 14 8 13 9 12 10 11 11 5 12
REMARK SMILES IDX 8 13 7 14 9 15 6 16 10 17
REMARK H PARENT
REMARK Flexibility Score: inf
ROOT
ATOM      1  C   UNL     1      15.334  20.262   5.084  1.00  0.00     0.138 A 
ATOM      2  C   UNL     1      15.571  19.263   6.051  1.00  0.00     0.100 A 
ATOM      3  C   UNL     1      16.546  19.468   7.029  1.00  0.00     0.193 A 
ATOM      4  O   UNL     1      16.757  18.574   7.893  1.00  0.00    -0.289 OA
ATOM      5  C   UNL     1      17.275  20.665   7.036  1.00  0.00     0.065 A 
ATOM      6  C   UNL     1      18.271  20.934   7.993  1.00  0.00     0.016 A 
ATOM      7  C   UNL     1      18.969  22.146   7.954  1.00  0.00     0.001 A 
ATOM      8  C   UNL     1      18.681  23.092   6.966  1.00  0.00     0.004 A 
ATOM      9  C   UNL     1      17.694  22.832   6.012  1.00  0.00     0.048 A 
ATOM     10  C   UNL     1      16.989  21.624   6.042  1.00  0.00     0.138 A 
ATOM     11  O   UNL     1      16.052  21.386   5.129  1.00  0.00    -0.456 OA
ENDROOT
BRANCH   1  12
ATOM     12  C   UNL     1      14.309  20.124   4.003  1.00  0.00     0.017 A 
ATOM     13  C   UNL     1      12.343  19.950   1.986  1.00  0.00     0.000 A 
ATOM     14  C   UNL     1      13.229  18.894   2.190  1.00  0.00     0.001 A 
ATOM     15  C   UNL     1      12.429  21.092   2.780  1.00  0.00     0.001 A 
ATOM     16  C   UNL     1      14.206  18.974   3.187  1.00  0.00     0.012 A 
ATOM     17  C   UNL     1      13.402  21.181   3.781  1.00  0.00     0.012 A 
ENDBRANCH   1  12
TORSDOF 1
ENDMDL
MODEL 2
REMARK VINA RESULT:    -5.237      1.091      2.346
REMARK INTER + INTRA:          -5.786
REMARK INTER:                  -5.553
REMARK INTRA:                  -0.234
REMARK UNBOUND:                -0.243
REMARK SMILES O=c1cc(-c2ccccc2)oc2ccccc12
REMARK SMILES IDX 4 1 3 2 2 3 1 4 17 5 16 6 15 7 14 8 13 9 12 10 11 11 5 12
REMARK SMILES IDX 8 13 7 14 9 15 6 16 10 17
REMARK H PARENT
REMARK Flexibility Score: inf
ROOT
ATOM      1  C   UNL     1      15.486  20.758   4.933  1.00  0.00     0.138 A 
ATOM      2  C   UNL     1      16.336  21.877   4.809  1.00  0.00     0.100 A 
ATOM      3  C   UNL     1      17.322  22.102   5.771  1.00  0.00     0.193 A 
ATOM      4  O   UNL     1      18.082  23.103   5.659  1.00  0.00    -0.289 OA
ATOM      5  C   UNL     1      17.453  21.213   6.847  1.00  0.00     0.065 A 
ATOM      6  C   UNL     1      18.426  21.383   7.850  1.00  0.00     0.016 A 
ATOM      7  C   UNL     1      18.513  20.465   8.901  1.00  0.00     0.001 A 
ATOM      8  C   UNL     1      17.637  19.378   8.961  1.00  0.00     0.004 A 
ATOM      9  C   UNL     1      16.668  19.202   7.969  1.00  0.00     0.048 A 
ATOM     10  C   UNL     1      16.572  20.114   6.911  1.00  0.00     0.138 A 
ATOM     11  O   UNL     1      15.646  19.938   5.974  1.00  0.00    -0.456 OA
ENDROOT
BRANCH   1  12
ATOM     12  C   UNL     1      14.404  20.444   3.949  1.00  0.00     0.017 A 
ATOM     13  C   UNL     1      12.324  19.937   2.110  1.00  0.00     0.000 A 
ATOM     14  C   UNL     1      13.315  18.980   2.324  1.00  0.00     0.001 A 
ATOM     15  C   UNL     1      12.363  21.145   2.805  1.00  0.00     0.001 A 
ATOM     16  C   UNL     1      14.348  19.225   3.234  1.00  0.00     0.012 A 
ATOM     17  C   UNL     1      13.392  21.398   3.717  1.00  0.00     0.012 A 
ENDBRANCH   1  12
TORSDOF 1
ENDMDL
MODEL 3
REMARK VINA RESULT:    -5.179      8.987     11.757
REMARK INTER + INTRA:          -5.724
REMARK INTER:                  -5.496
REMARK INTRA:                  -0.229
REMARK UNBOUND:                -0.243
REMARK SMILES O=c1cc(-c2ccccc2)oc2ccccc12
REMARK SMILES IDX 4 1 3 2 2 3 1 4 17 5 16 6 15 7 14 8 13 9 12 10 11 11 5 12
REMARK SMILES IDX 8 13 7 14 9 15 6 16 10 17
REMARK H PARENT
REMARK Flexibility Score: inf
ROOT
ATOM      1  C   UNL     1      18.956  22.183  15.337  1.00  0.00     0.138 A 
ATOM      2  C   UNL     1      17.661  21.641  15.465  1.00  0.00     0.100 A 
ATOM      3  C   UNL     1      17.241  21.144  16.701  1.00  0.00     0.193 A 
ATOM      4  O   UNL     1      16.083  20.659  16.815  1.00  0.00    -0.289 OA
ATOM      5  C   UNL     1      18.115  21.192  17.796  1.00  0.00     0.065 A 
ATOM      6  C   UNL     1      17.754  20.709  19.068  1.00  0.00     0.016 A 
ATOM      7  C   UNL     1      18.665  20.782  20.127  1.00  0.00     0.001 A 
ATOM      8  C   UNL     1      19.934  21.334  19.928  1.00  0.00     0.004 A 
ATOM      9  C   UNL     1      20.299  21.815  18.668  1.00  0.00     0.048 A 
ATOM     10  C   UNL     1      19.396  21.748  17.601  1.00  0.00     0.138 A 
ATOM     11  O   UNL     1      19.754  22.209  16.407  1.00  0.00    -0.456 OA
ENDROOT
BRANCH   1  12
ATOM     12  C   UNL     1      19.484  22.736  14.051  1.00  0.00     0.017 A 
ATOM     13  C   UNL     1      20.481  23.689  11.588  1.00  0.00     0.000 A 
ATOM     14  C   UNL     1      20.233  24.578  12.632  1.00  0.00     0.001 A 
ATOM     15  C   UNL     1      20.236  22.327  11.763  1.00  0.00     0.001 A 
ATOM     16  C   UNL     1      19.739  24.113  13.855  1.00  0.00     0.012 A 
ATOM     17  C   UNL     1      19.743  21.853  12.982  1.00  0.00     0.012 A 
ENDBRANCH   1  12
TORSDOF 1
ENDMDL
MODEL 4
REMARK VINA RESULT:    -5.025      9.946     12.826
REMARK INTER + INTRA:          -5.562
REMARK INTER:                  -5.338
REMARK INTRA:                  -0.224
REMARK UNBOUND:                -0.243
REMARK SMILES O=c1cc(-c2ccccc2)oc2ccccc12
REMARK SMILES IDX 4 1 3 2 2 3 1 4 17 5 16 6 15 7 14 8 13 9 12 10 11 11 5 12
REMARK SMILES IDX 8 13 7 14 9 15 6 16 10 17
REMARK H PARENT
REMARK Flexibility Score: inf
ROOT
ATOM      1  C   UNL     1      18.807  21.149  16.807  1.00  0.00     0.138 A 
ATOM      2  C   UNL     1      17.659  20.422  17.186  1.00  0.00     0.100 A 
ATOM      3  C   UNL     1      17.172  20.533  18.490  1.00  0.00     0.193 A 
ATOM      4  O   UNL     1      16.146  19.883  18.829  1.00  0.00    -0.289 OA
ATOM      5  C   UNL     1      17.833  21.366  19.404  1.00  0.00     0.065 A 
ATOM      6  C   UNL     1      17.395  21.523  20.733  1.00  0.00     0.016 A 
ATOM      7  C   UNL     1      18.091  22.367  21.603  1.00  0.00     0.001 A 
ATOM      8  C   UNL     1      19.223  23.058  21.159  1.00  0.00     0.004 A 
ATOM      9  C   UNL     1      19.664  22.908  19.842  1.00  0.00     0.048 A 
ATOM     10  C   UNL     1      18.975  22.066  18.961  1.00  0.00     0.138 A 
ATOM     11  O   UNL     1      19.403  21.929  17.711  1.00  0.00    -0.456 OA
ENDROOT
BRANCH   1  12
ATOM     12  C   UNL     1      19.393  21.087  15.432  1.00  0.00     0.017 A 
ATOM     13  C   UNL     1      20.423  21.022  12.805  1.00  0.00     0.000 A 
ATOM     14  C   UNL     1      21.114  20.397  13.843  1.00  0.00     0.001 A 
ATOM     15  C   UNL     1      19.222  21.679  13.069  1.00  0.00     0.001 A 
ATOM     16  C   UNL     1      20.609  20.426  15.146  1.00  0.00     0.012 A 
ATOM     17  C   UNL     1      18.709  21.713  14.369  1.00  0.00     0.012 A 
ENDBRANCH   1  12
TORSDOF 1
ENDMDL
MODEL 5
REMARK VINA RESULT:    -4.990      9.104     11.834
REMARK INTER + INTRA:          -5.524
REMARK INTER:                  -5.286
REMARK INTRA:                  -0.238
REMARK UNBOUND:                -0.243
REMARK SMILES O=c1cc(-c2ccccc2)oc2ccccc12
REMARK SMILES IDX 4 1 3 2 2 3 1 4 17 5 16 6 15 7 14 8 13 9 12 10 11 11 5 12
REMARK SMILES IDX 8 13 7 14 9 15 6 16 10 17
REMARK H PARENT
REMARK Flexibility Score: inf
ROOT
ATOM      1  C   UNL     1       5.309  16.534   2.628  1.00  0.00     0.138 A 
ATOM      2  C   UNL     1       6.241  17.538   2.967  1.00  0.00     0.100 A 
ATOM      3  C   UNL     1       7.606  17.244   2.950  1.00  0.00     0.193 A 
ATOM      4  O   UNL     1       8.439  18.142   3.253  1.00  0.00    -0.289 OA
ATOM      5  C   UNL     1       8.030  15.956   2.597  1.00  0.00     0.065 A 
ATOM      6  C   UNL     1       9.390  15.594   2.560  1.00  0.00     0.016 A 
ATOM      7  C   UNL     1       9.758  14.294   2.201  1.00  0.00     0.001 A 
ATOM      8  C   UNL     1       8.779  13.349   1.877  1.00  0.00     0.004 A 
ATOM      9  C   UNL     1       7.427  13.700   1.911  1.00  0.00     0.048 A 
ATOM     10  C   UNL     1       7.047  14.999   2.269  1.00  0.00     0.138 A 
ATOM     11  O   UNL     1       5.758  15.322   2.299  1.00  0.00    -0.456 OA
ENDROOT
BRANCH   1  12
ATOM     12  C   UNL     1       3.831  16.765   2.621  1.00  0.00     0.017 A 
ATOM     13  C   UNL     1       1.032  17.123   2.668  1.00  0.00     0.000 A 
ATOM     14  C   UNL     1       1.833  17.974   1.907  1.00  0.00     0.001 A 
ATOM     15  C   UNL     1       1.616  16.095   3.405  1.00  0.00     0.001 A 
ATOM     16  C   UNL     1       3.220  17.802   1.880  1.00  0.00     0.012 A 
ATOM     17  C   UNL     1       3.003  15.915   3.384  1.00  0.00     0.012 A 
ENDBRANCH   1  12
TORSDOF 1
ENDMDL
MODEL 6
REMARK VINA RESULT:    -4.956      2.025      3.475
REMARK INTER + INTRA:          -5.488
REMARK INTER:                  -5.228
REMARK INTRA:                  -0.260
REMARK UNBOUND:                -0.243
REMARK SMILES O=c1cc(-c2ccccc2)oc2ccccc12
REMARK SMILES IDX 4 1 3 2 2 3 1 4 17 5 16 6 15 7 14 8 13 9 12 10 11 11 5 12
REMARK SMILES IDX 8 13 7 14 9 15 6 16 10 17
REMARK H PARENT
REMARK Flexibility Score: inf
ROOT
ATOM      1  C   UNL     1      15.210  19.199   5.154  1.00  0.00     0.138 A 
ATOM      2  C   UNL     1      15.925  20.089   5.983  1.00  0.00     0.100 A 
ATOM      3  C   UNL     1      16.753  19.581   6.985  1.00  0.00     0.193 A 
ATOM      4  O   UNL     1      17.392  20.376   7.727  1.00  0.00    -0.289 OA
ATOM      5  C   UNL     1      16.862  18.193   7.154  1.00  0.00     0.065 A 
ATOM      6  C   UNL     1      17.678  17.616   8.145  1.00  0.00     0.016 A 
ATOM      7  C   UNL     1      17.749  16.225   8.269  1.00  0.00     0.001 A 
ATOM      8  C   UNL     1      17.012  15.403   7.411  1.00  0.00     0.004 A 
ATOM      9  C   UNL     1      16.200  15.968   6.424  1.00  0.00     0.048 A 
ATOM     10  C   UNL     1      16.120  17.359   6.291  1.00  0.00     0.138 A 
ATOM     11  O   UNL     1      15.344  17.886   5.350  1.00  0.00    -0.456 OA
ENDROOT
BRANCH   1  12
ATOM     12  C   UNL     1      14.303  19.659   4.057  1.00  0.00     0.017 A 
ATOM     13  C   UNL     1      12.581  20.612   2.034  1.00  0.00     0.000 A 
ATOM     14  C   UNL     1      13.108  19.324   1.953  1.00  0.00     0.001 A 
ATOM     15  C   UNL     1      12.906  21.429   3.116  1.00  0.00     0.001 A 
ATOM     16  C   UNL     1      13.962  18.847   2.952  1.00  0.00     0.012 A 
ATOM     17  C   UNL     1      13.758  20.959   4.120  1.00  0.00     0.012 A 
ENDBRANCH   1  12
TORSDOF 1
ENDMDL
MODEL 7
REMARK VINA RESULT:    -4.933      1.993      3.622
REMARK INTER + INTRA:          -5.464
REMARK INTER:                  -5.206
REMARK INTRA:                  -0.258
REMARK UNBOUND:                -0.243
REMARK SMILES O=c1cc(-c2ccccc2)oc2ccccc12
REMARK SMILES IDX 4 1 3 2 2 3 1 4 17 5 16 6 15 7 14 8 13 9 12 10 11 11 5 12
REMARK SMILES IDX 8 13 7 14 9 15 6 16 10 17
REMARK H PARENT
REMARK Flexibility Score: inf
ROOT
ATOM      1  C   UNL     1      15.208  19.270   5.184  1.00  0.00     0.138 A 
ATOM      2  C   UNL     1      15.953  20.158   5.988  1.00  0.00     0.100 A 
ATOM      3  C   UNL     1      16.797  19.648   6.977  1.00  0.00     0.193 A 
ATOM      4  O   UNL     1      17.462  20.442   7.696  1.00  0.00    -0.289 OA
ATOM      5  C   UNL     1      16.892  18.261   7.155  1.00  0.00     0.065 A 
ATOM      6  C   UNL     1      17.723  17.682   8.132  1.00  0.00     0.016 A 
ATOM      7  C   UNL     1      17.780  16.291   8.267  1.00  0.00     0.001 A 
ATOM      8  C   UNL     1      17.013  15.471   7.433  1.00  0.00     0.004 A 
ATOM      9  C   UNL     1      16.186  16.038   6.461  1.00  0.00     0.048 A 
ATOM     10  C   UNL     1      16.121  17.429   6.316  1.00  0.00     0.138 A 
ATOM     11  O   UNL     1      15.330  17.957   5.389  1.00  0.00    -0.456 OA
ENDROOT
BRANCH   1  12
ATOM     12  C   UNL     1      14.281  19.732   4.104  1.00  0.00     0.017 A 
ATOM     13  C   UNL     1      12.548  20.519   2.020  1.00  0.00     0.000 A 
ATOM     14  C   UNL     1      12.778  21.373   3.098  1.00  0.00     0.001 A 
ATOM     15  C   UNL     1      13.176  19.276   1.974  1.00  0.00     0.001 A 
ATOM     16  C   UNL     1      13.635  20.989   4.133  1.00  0.00     0.012 A 
ATOM     17  C   UNL     1      14.036  18.883   3.004  1.00  0.00     0.012 A 
ENDBRANCH   1  12
TORSDOF 1
ENDMDL
MODEL 8
REMARK VINA RESULT:    -4.924      1.456      2.278
REMARK INTER + INTRA:          -5.455
REMARK INTER:                  -5.201
REMARK INTRA:                  -0.254
REMARK UNBOUND:                -0.243
REMARK SMILES O=c1cc(-c2ccccc2)oc2ccccc12
REMARK SMILES IDX 4 1 3 2 2 3 1 4 17 5 16 6 15 7 14 8 13 9 12 10 11 11 5 12
REMARK SMILES IDX 8 13 7 14 9 15 6 16 10 17
REMARK H PARENT
REMARK Flexibility Score: inf
ROOT
ATOM      1  C   UNL     1      15.075  19.252   5.308  1.00  0.00     0.138 A 
ATOM      2  C   UNL     1      15.082  17.899   5.705  1.00  0.00     0.100 A 
ATOM      3  C   UNL     1      15.880  17.500   6.779  1.00  0.00     0.193 A 
ATOM      4  O   UNL     1      15.886  16.290   7.134  1.00  0.00    -0.289 OA
ATOM      5  C   UNL     1      16.663  18.452   7.448  1.00  0.00     0.065 A 
ATOM      6  C   UNL     1      17.488  18.117   8.537  1.00  0.00     0.016 A 
ATOM      7  C   UNL     1      18.249  19.107   9.168  1.00  0.00     0.001 A 
ATOM      8  C   UNL     1      18.192  20.430   8.721  1.00  0.00     0.004 A 
ATOM      9  C   UNL     1      17.374  20.771   7.641  1.00  0.00     0.048 A 
ATOM     10  C   UNL     1      16.609  19.789   7.001  1.00  0.00     0.138 A 
ATOM     11  O   UNL     1      15.835  20.124   5.974  1.00  0.00    -0.456 OA
ENDROOT
BRANCH   1  12
ATOM     12  C   UNL     1      14.250  19.763   4.170  1.00  0.00     0.017 A 
ATOM     13  C   UNL     1      12.705  20.640   1.976  1.00  0.00     0.000 A 
ATOM     14  C   UNL     1      12.929  21.491   3.058  1.00  0.00     0.001 A 
ATOM     15  C   UNL     1      13.245  19.355   1.981  1.00  0.00     0.001 A 
ATOM     16  C   UNL     1      13.694  21.062   4.147  1.00  0.00     0.012 A 
ATOM     17  C   UNL     1      14.011  18.918   3.066  1.00  0.00     0.012 A 
ENDBRANCH   1  12
TORSDOF 1
ENDMDL
MODEL 9
REMARK VINA RESULT:    -4.674      2.682      4.443
REMARK INTER + INTRA:          -5.190
REMARK INTER:                  -4.945
REMARK INTRA:                  -0.245
REMARK UNBOUND:                -0.243
REMARK SMILES O=c1cc(-c2ccccc2)oc2ccccc12
REMARK SMILES IDX 4 1 3 2 2 3 1 4 17 5 16 6 15 7 14 8 13 9 12 10 11 11 5 12
REMARK SMILES IDX 8 13 7 14 9 15 6 16 10 17
REMARK H PARENT
REMARK Flexibility Score: inf
ROOT
ATOM      1  C   UNL     1      16.530  19.143   6.573  1.00  0.00     0.138 A 
ATOM      2  C   UNL     1      17.042  19.549   7.823  1.00  0.00     0.100 A 
ATOM      3  C   UNL     1      17.580  18.595   8.689  1.00  0.00     0.193 A 
ATOM      4  O   UNL     1      18.038  18.958   9.807  1.00  0.00    -0.289 OA
ATOM      5  C   UNL     1      17.603  17.247   8.303  1.00  0.00     0.065 A 
ATOM      6  C   UNL     1      18.131  16.236   9.128  1.00  0.00     0.016 A 
ATOM      7  C   UNL     1      18.129  14.907   8.693  1.00  0.00     0.001 A 
ATOM      8  C   UNL     1      17.605  14.578   7.440  1.00  0.00     0.004 A 
ATOM      9  C   UNL     1      17.079  15.575   6.615  1.00  0.00     0.048 A 
ATOM     10  C   UNL     1      17.076  16.909   7.039  1.00  0.00     0.138 A 
ATOM     11  O   UNL     1      16.573  17.850   6.247  1.00  0.00    -0.456 OA
ENDROOT
BRANCH   1  12
ATOM     12  C   UNL     1      15.937  20.099   5.587  1.00  0.00     0.017 A 
ATOM     13  C   UNL     1      14.892  21.964   3.744  1.00  0.00     0.000 A 
ATOM     14  C   UNL     1      14.227  20.760   3.972  1.00  0.00     0.001 A 
ATOM     15  C   UNL     1      16.074  22.245   4.427  1.00  0.00     0.001 A 
ATOM     16  C   UNL     1      14.740  19.832   4.884  1.00  0.00     0.012 A 
ATOM     17  C   UNL     1      16.594  21.323   5.341  1.00  0.00     0.012 A 
ENDBRANCH   1  12
TORSDOF 1
ENDMDL
