MODEL 1
REMARK VINA RESULT:    -3.383      0.000      0.000
REMARK INTER + INTRA:          -5.936
REMARK INTER:                  -4.966
REMARK INTRA:                  -0.970
REMARK UNBOUND:                -0.970
REMARK SMILES CCCCCC(=O)CCCCC
REMARK SMILES IDX 6 1 7 2 5 3 4 4 3 5 2 6 1 7 8 8 9 9 10 10 11 11 12 12
REMARK H PARENT
REMARK Flexibility Score: inf
ROOT
ATOM      1  C   UNL     1     117.217 118.770 112.983  1.00  0.00     0.132 C 
ATOM      2  O   UNL     1     116.864 118.779 114.153  1.00  0.00    -0.300 OA
ENDROOT
BRANCH   1   3
ATOM      3  C   UNL     1     118.642 118.425 112.640  1.00  0.00     0.075 C 
BRANCH   3   4
ATOM      4  C   UNL     1     118.714 117.098 111.877  1.00  0.00     0.008 C 
BRANCH   4   5
ATOM      5  C   UNL     1     118.471 115.909 112.817  1.00  0.00     0.000 C 
BRANCH   5   6
ATOM      6  C   UNL     1     118.266 114.589 112.060  1.00  0.00    -0.003 C 
ATOM      7  C   UNL     1     118.445 113.360 112.952  1.00  0.00     0.004 C 
ENDBRANCH   5   6
ENDBRANCH   4   5
ENDBRANCH   3   4
ENDBRANCH   1   3
BRANCH   1   8
ATOM      8  C   UNL     1     116.213 119.069 111.904  1.00  0.00     0.075 C 
BRANCH   8   9
ATOM      9  C   UNL     1     114.858 118.383 112.146  1.00  0.00     0.008 C 
BRANCH   9  10
ATOM     10  C   UNL     1     114.877 116.865 111.875  1.00  0.00     0.000 C 
BRANCH  10  11
ATOM     11  C   UNL     1     114.356 116.047 113.067  1.00  0.00    -0.003 C 
ATOM     12  C   UNL     1     114.226 114.570 112.705  1.00  0.00     0.004 C 
ENDBRANCH  10  11
ENDBRANCH   9  10
ENDBRANCH   8   9
ENDBRANCH   1   8
TORSDOF 8
ENDMDL
MODEL 2
REMARK VINA RESULT:    -3.358      1.578      3.238
REMARK INTER + INTRA:          -5.899
REMARK INTER:                  -4.931
REMARK INTRA:                  -0.968
REMARK UNBOUND:                -0.970
REMARK SMILES CCCCCC(=O)CCCCC
REMARK SMILES IDX 6 1 7 2 5 3 4 4 3 5 2 6 1 7 8 8 9 9 10 10 11 11 12 12
REMARK H PARENT
REMARK Flexibility Score: inf
ROOT
ATOM      1  C   UNL     1     118.891 117.086 112.348  1.00  0.00     0.132 C 
ATOM      2  O   UNL     1     119.937 117.616 112.003  1.00  0.00    -0.300 OA
ENDROOT
BRANCH   1   3
ATOM      3  C   UNL     1     118.590 115.679 111.907  1.00  0.00     0.075 C 
BRANCH   3   4
ATOM      4  C   UNL     1     117.786 114.932 112.975  1.00  0.00     0.008 C 
BRANCH   4   5
ATOM      5  C   UNL     1     116.416 114.502 112.433  1.00  0.00     0.000 C 
BRANCH   5   6
ATOM      6  C   UNL     1     115.270 114.813 113.407  1.00  0.00    -0.003 C 
ATOM      7  C   UNL     1     113.892 114.702 112.755  1.00  0.00     0.004 C 
ENDBRANCH   5   6
ENDBRANCH   4   5
ENDBRANCH   3   4
ENDBRANCH   1   3
BRANCH   1   8
ATOM      8  C   UNL     1     117.938 117.838 113.237  1.00  0.00     0.075 C 
BRANCH   8   9
ATOM      9  C   UNL     1     117.047 118.818 112.457  1.00  0.00     0.008 C 
BRANCH   9  10
ATOM     10  C   UNL     1     115.775 118.169 111.875  1.00  0.00     0.000 C 
BRANCH  10  11
ATOM     11  C   UNL     1     114.491 118.686 112.543  1.00  0.00    -0.003 C 
ATOM     12  C   UNL     1     114.794 119.832 113.504  1.00  0.00     0.004 C 
ENDBRANCH  10  11
ENDBRANCH   9  10
ENDBRANCH   8   9
ENDBRANCH   1   8
TORSDOF 8
ENDMDL
MODEL 3
REMARK VINA RESULT:    -3.356      1.525      3.624
REMARK INTER + INTRA:          -5.896
REMARK INTER:                  -4.699
REMARK INTRA:                  -1.196
REMARK UNBOUND:                -0.970
REMARK SMILES CCCCCC(=O)CCCCC
REMARK SMILES IDX 6 1 7 2 5 3 4 4 3 5 2 6 1 7 8 8 9 9 10 10 11 11 12 12
REMARK H PARENT
REMARK Flexibility Score: inf
ROOT
ATOM      1  C   UNL     1     116.100 117.226 113.441  1.00  0.00     0.132 C 
ATOM      2  O   UNL     1     116.203 118.084 114.307  1.00  0.00    -0.300 OA
ENDROOT
BRANCH   1   3
ATOM      3  C   UNL     1     115.348 115.957 113.739  1.00  0.00     0.075 C 
BRANCH   3   4
ATOM      4  C   UNL     1     116.130 114.732 113.253  1.00  0.00     0.008 C 
BRANCH   4   5
ATOM      5  C   UNL     1     117.348 114.466 114.150  1.00  0.00     0.000 C 
BRANCH   5   6
ATOM      6  C   UNL     1     118.536 113.880 113.373  1.00  0.00    -0.003 C 
ATOM      7  C   UNL     1     118.472 114.184 111.875  1.00  0.00     0.004 C 
ENDBRANCH   5   6
ENDBRANCH   4   5
ENDBRANCH   3   4
ENDBRANCH   1   3
BRANCH   1   8
ATOM      8  C   UNL     1     116.698 117.470 112.083  1.00  0.00     0.075 C 
BRANCH   8   9
ATOM      9  C   UNL     1     117.818 118.523 112.107  1.00  0.00     0.008 C 
BRANCH   9  10
ATOM     10  C   UNL     1     119.226 117.924 112.300  1.00  0.00     0.000 C 
BRANCH  10  11
ATOM     11  C   UNL     1     119.924 118.453 113.562  1.00  0.00    -0.003 C 
ATOM     12  C   UNL     1     119.620 117.570 114.769  1.00  0.00     0.004 C 
ENDBRANCH  10  11
ENDBRANCH   9  10
ENDBRANCH   8   9
ENDBRANCH   1   8
TORSDOF 8
ENDMDL
MODEL 4
REMARK VINA RESULT:    -3.343      1.611      3.728
REMARK INTER + INTRA:          -5.877
REMARK INTER:                  -4.874
REMARK INTRA:                  -1.003
REMARK UNBOUND:                -0.970
REMARK SMILES CCCCCC(=O)CCCCC
REMARK SMILES IDX 6 1 7 2 5 3 4 4 3 5 2 6 1 7 8 8 9 9 10 10 11 11 12 12
REMARK H PARENT
REMARK Flexibility Score: inf
ROOT
ATOM      1  C   UNL     1     114.985 117.073 113.134  1.00  0.00     0.132 C 
ATOM      2  O   UNL     1     114.340 117.632 112.258  1.00  0.00    -0.300 OA
ENDROOT
BRANCH   1   3
ATOM      3  C   UNL     1     115.951 117.872 113.968  1.00  0.00     0.075 C 
BRANCH   3   4
ATOM      4  C   UNL     1     117.164 118.301 113.137  1.00  0.00     0.008 C 
BRANCH   4   5
ATOM      5  C   UNL     1     118.469 118.092 113.919  1.00  0.00     0.000 C 
BRANCH   5   6
ATOM      6  C   UNL     1     119.704 118.583 113.150  1.00  0.00    -0.003 C 
ATOM      7  C   UNL     1     119.966 117.780 111.875  1.00  0.00     0.004 C 
ENDBRANCH   5   6
ENDBRANCH   4   5
ENDBRANCH   3   4
ENDBRANCH   1   3
BRANCH   1   8
ATOM      8  C   UNL     1     114.776 115.605 113.385  1.00  0.00     0.075 C 
BRANCH   8   9
ATOM      9  C   UNL     1     115.959 114.746 112.908  1.00  0.00     0.008 C 
BRANCH   9  10
ATOM     10  C   UNL     1     116.933 114.353 114.037  1.00  0.00     0.000 C 
BRANCH  10  11
ATOM     11  C   UNL     1     118.401 114.378 113.584  1.00  0.00    -0.003 C 
ATOM     12  C   UNL     1     118.508 114.359 112.062  1.00  0.00     0.004 C 
ENDBRANCH  10  11
ENDBRANCH   9  10
ENDBRANCH   8   9
ENDBRANCH   1   8
TORSDOF 8
ENDMDL
MODEL 5
REMARK VINA RESULT:    -3.341      2.061      3.404
REMARK INTER + INTRA:          -5.873
REMARK INTER:                  -4.616
REMARK INTRA:                  -1.257
REMARK UNBOUND:                -0.970
REMARK SMILES CCCCCC(=O)CCCCC
REMARK SMILES IDX 6 1 7 2 5 3 4 4 3 5 2 6 1 7 8 8 9 9 10 10 11 11 12 12
REMARK H PARENT
REMARK Flexibility Score: inf
ROOT
ATOM      1  C   UNL     1     118.338 116.201 112.169  1.00  0.00     0.132 C 
ATOM      2  O   UNL     1     118.772 115.151 112.622  1.00  0.00    -0.300 OA
ENDROOT
BRANCH   1   3
ATOM      3  C   UNL     1     119.287 117.332 111.875  1.00  0.00     0.075 C 
BRANCH   3   4
ATOM      4  C   UNL     1     119.052 118.504 112.833  1.00  0.00     0.008 C 
BRANCH   4   5
ATOM      5  C   UNL     1     119.735 118.254 114.185  1.00  0.00     0.000 C 
BRANCH   5   6
ATOM      6  C   UNL     1     118.730 118.099 115.336  1.00  0.00    -0.003 C 
ATOM      7  C   UNL     1     118.641 116.663 115.854  1.00  0.00     0.004 C 
ENDBRANCH   5   6
ENDBRANCH   4   5
ENDBRANCH   3   4
ENDBRANCH   1   3
BRANCH   1   8
ATOM      8  C   UNL     1     116.867 116.331 111.883  1.00  0.00     0.075 C 
BRANCH   8   9
ATOM      9  C   UNL     1     116.014 116.364 113.162  1.00  0.00     0.008 C 
BRANCH   9  10
ATOM     10  C   UNL     1     115.333 117.724 113.417  1.00  0.00     0.000 C 
BRANCH  10  11
ATOM     11  C   UNL     1     114.929 118.434 112.116  1.00  0.00    -0.003 C 
ATOM     12  C   UNL     1     115.497 119.850 112.063  1.00  0.00     0.004 C 
ENDBRANCH  10  11
ENDBRANCH   9  10
ENDBRANCH   8   9
ENDBRANCH   1   8
TORSDOF 8
ENDMDL
MODEL 6
REMARK VINA RESULT:    -3.332      1.660      5.073
REMARK INTER + INTRA:          -5.861
REMARK INTER:                  -4.936
REMARK INTRA:                  -0.925
REMARK UNBOUND:                -0.970
REMARK SMILES CCCCCC(=O)CCCCC
REMARK SMILES IDX 6 1 7 2 5 3 4 4 3 5 2 6 1 7 8 8 9 9 10 10 11 11 12 12
REMARK H PARENT
REMARK Flexibility Score: inf
ROOT
ATOM      1  C   UNL     1     116.006 114.591 113.148  1.00  0.00     0.132 C 
ATOM      2  O   UNL     1     116.290 114.410 114.323  1.00  0.00    -0.300 OA
ENDROOT
BRANCH   1   3
ATOM      3  C   UNL     1     114.569 114.807 112.755  1.00  0.00     0.075 C 
BRANCH   3   4
ATOM      4  C   UNL     1     114.386 116.172 112.083  1.00  0.00     0.008 C 
BRANCH   4   5
ATOM      5  C   UNL     1     114.665 117.313 113.071  1.00  0.00     0.000 C 
BRANCH   5   6
ATOM      6  C   UNL     1     114.648 118.694 112.399  1.00  0.00    -0.003 C 
ATOM      7  C   UNL     1     114.674 119.844 113.407  1.00  0.00     0.004 C 
ENDBRANCH   5   6
ENDBRANCH   4   5
ENDBRANCH   3   4
ENDBRANCH   1   3
BRANCH   1   8
ATOM      8  C   UNL     1     117.103 114.630 112.119  1.00  0.00     0.075 C 
BRANCH   8   9
ATOM      9  C   UNL     1     118.284 115.519 112.543  1.00  0.00     0.008 C 
BRANCH   9  10
ATOM     10  C   UNL     1     118.269 116.918 111.896  1.00  0.00     0.000 C 
BRANCH  10  11
ATOM     11  C   UNL     1     118.301 118.049 112.936  1.00  0.00    -0.003 C 
ATOM     12  C   UNL     1     119.726 118.545 113.166  1.00  0.00     0.004 C 
ENDBRANCH  10  11
ENDBRANCH   9  10
ENDBRANCH   8   9
ENDBRANCH   1   8
TORSDOF 8
ENDMDL
MODEL 7
REMARK VINA RESULT:    -3.329      1.646      3.653
REMARK INTER + INTRA:          -5.856
REMARK INTER:                  -4.840
REMARK INTRA:                  -1.016
REMARK UNBOUND:                -0.970
REMARK SMILES CCCCCC(=O)CCCCC
REMARK SMILES IDX 6 1 7 2 5 3 4 4 3 5 2 6 1 7 8 8 9 9 10 10 11 11 12 12
REMARK H PARENT
REMARK Flexibility Score: inf
ROOT
ATOM      1  C   UNL     1     116.296 114.374 113.099  1.00  0.00     0.132 C 
ATOM      2  O   UNL     1     115.959 114.459 114.271  1.00  0.00    -0.300 OA
ENDROOT
BRANCH   1   3
ATOM      3  C   UNL     1     117.663 113.846 112.754  1.00  0.00     0.075 C 
BRANCH   3   4
ATOM      4  C   UNL     1     118.461 114.879 111.952  1.00  0.00     0.008 C 
BRANCH   4   5
ATOM      5  C   UNL     1     118.750 116.128 112.797  1.00  0.00     0.000 C 
BRANCH   5   6
ATOM      6  C   UNL     1     119.125 117.346 111.940  1.00  0.00    -0.003 C 
ATOM      7  C   UNL     1     119.462 118.579 112.780  1.00  0.00     0.004 C 
ENDBRANCH   5   6
ENDBRANCH   4   5
ENDBRANCH   3   4
ENDBRANCH   1   3
BRANCH   1   8
ATOM      8  C   UNL     1     115.325 114.768 112.020  1.00  0.00     0.075 C 
BRANCH   8   9
ATOM      9  C   UNL     1     114.550 116.052 112.358  1.00  0.00     0.008 C 
BRANCH   9  10
ATOM     10  C   UNL     1     115.286 117.345 111.949  1.00  0.00     0.000 C 
BRANCH  10  11
ATOM     11  C   UNL     1     115.579 118.260 113.148  1.00  0.00    -0.003 C 
ATOM     12  C   UNL     1     114.736 119.531 113.088  1.00  0.00     0.004 C 
ENDBRANCH  10  11
ENDBRANCH   9  10
ENDBRANCH   8   9
ENDBRANCH   1   8
TORSDOF 8
ENDMDL
MODEL 8
REMARK VINA RESULT:    -3.319      1.238      3.909
REMARK INTER + INTRA:          -5.842
REMARK INTER:                  -4.825
REMARK INTRA:                  -1.017
REMARK UNBOUND:                -0.970
REMARK SMILES CCCCCC(=O)CCCCC
REMARK SMILES IDX 6 1 7 2 5 3 4 4 3 5 2 6 1 7 8 8 9 9 10 10 11 11 12 12
REMARK H PARENT
REMARK Flexibility Score: inf
ROOT
ATOM      1  C   UNL     1     116.905 117.887 112.430  1.00  0.00     0.132 C 
ATOM      2  O   UNL     1     117.601 118.887 112.331  1.00  0.00    -0.300 OA
ENDROOT
BRANCH   1   3
ATOM      3  C   UNL     1     115.506 117.898 111.875  1.00  0.00     0.075 C 
BRANCH   3   4
ATOM      4  C   UNL     1     114.563 117.072 112.756  1.00  0.00     0.008 C 
BRANCH   4   5
ATOM      5  C   UNL     1     113.995 115.873 111.982  1.00  0.00     0.000 C 
BRANCH   5   6
ATOM      6  C   UNL     1     113.627 114.698 112.899  1.00  0.00    -0.003 C 
ATOM      7  C   UNL     1     114.293 114.788 114.273  1.00  0.00     0.004 C 
ENDBRANCH   5   6
ENDBRANCH   4   5
ENDBRANCH   3   4
ENDBRANCH   1   3
BRANCH   1   8
ATOM      8  C   UNL     1     117.472 116.651 113.073  1.00  0.00     0.075 C 
BRANCH   8   9
ATOM      9  C   UNL     1     117.924 115.600 112.046  1.00  0.00     0.008 C 
BRANCH   9  10
ATOM     10  C   UNL     1     117.454 114.169 112.377  1.00  0.00     0.000 C 
BRANCH  10  11
ATOM     11  C   UNL     1     118.509 113.367 113.154  1.00  0.00    -0.003 C 
ATOM     12  C   UNL     1     118.193 113.343 114.647  1.00  0.00     0.004 C 
ENDBRANCH  10  11
ENDBRANCH   9  10
ENDBRANCH   8   9
ENDBRANCH   1   8
TORSDOF 8
ENDMDL
