MODEL 1
REMARK VINA RESULT:    -4.453      0.000      0.000
REMARK INTER + INTRA:          -6.565
REMARK INTER:                  -6.796
REMARK INTRA:                   0.231
REMARK UNBOUND:                 0.231
REMARK SMILES CC1=CCC[C@@H](C)C(=O)C[C@H](C(C)C)C(=O)C1
REMARK SMILES IDX 8 1 9 2 6 3 7 4 5 5 4 6 3 7 2 8 1 9 10 11 11 12 15 13 16 14
REMARK SMILES IDX 17 15 12 17 13 18 14 19
REMARK H PARENT
REMARK Flexibility Score: 70.00
ROOT
ATOM      1  C   UNL     1      36.961  21.867  26.264  1.00  0.00     0.136 C 
ATOM      2  O   UNL     1      37.756  22.147  25.377  1.00  0.00    -0.299 OA
ENDROOT
BRANCH   1   3
ATOM      3  C   UNL     1      37.129  22.470  27.639  1.00  0.00     0.053 C 
ATOM      4  C   UNL     1      36.817  23.971  27.600  1.00  0.00     0.016 C 
BRANCH   3   5
ATOM      5  C   UNL     1      38.546  22.222  28.193  1.00  0.00     0.015 C 
BRANCH   5   6
ATOM      6  C   UNL     1      38.757  20.771  28.672  1.00  0.00     0.028 C 
BRANCH   6   7
ATOM      7  C   UNL     1      39.433  19.930  27.614  1.00  0.00    -0.028 C 
ATOM      8  C   UNL     1      38.865  18.983  26.827  1.00  0.00    -0.070 CG0
ATOM      9  C   UNL     1      39.773  18.231  25.884  1.00  0.00     0.039 C 
ATOM     10  G   UNL     1      37.385  18.636  26.819  1.00  0.00     0.000 G0
ENDBRANCH   6   7
ENDBRANCH   5   6
ENDBRANCH   3   5
ENDBRANCH   1   3
BRANCH   1  11
ATOM     11  C   UNL     1      35.765  20.990  25.969  1.00  0.00     0.087 C 
BRANCH  11  12
ATOM     12  C   UNL     1      36.043  19.900  24.902  1.00  0.00     0.066 C 
BRANCH  12  13
ATOM     13  C   UNL     1      36.794  18.690  25.443  1.00  0.00     0.140 C 
ATOM     14  O   UNL     1      36.859  17.693  24.737  1.00  0.00    -0.299 OA
BRANCH  13  15
ATOM     15  C   UNL     1      37.383  18.627  26.836  1.00  0.00     0.106 CG0
ATOM     16  G   UNL     1      38.861  18.978  26.824  1.00  0.00     0.000 G0
ENDBRANCH  13  15
ENDBRANCH  12  13
BRANCH  12  17
ATOM     17  C   UNL     1      34.782  19.459  24.097  1.00  0.00    -0.006 C 
ATOM     18  C   UNL     1      34.301  20.555  23.132  1.00  0.00     0.008 C 
ATOM     19  C   UNL     1      33.612  18.984  24.977  1.00  0.00     0.008 C 
ENDBRANCH  12  17
ENDBRANCH  11  12
ENDBRANCH   1  11
TORSDOF 1
ENDMDL
MODEL 2
REMARK VINA RESULT:    -4.062      1.834      3.981
REMARK INTER + INTRA:          -5.967
REMARK INTER:                  -6.082
REMARK INTRA:                   0.115
REMARK UNBOUND:                 0.231
REMARK SMILES CC1=CCC[C@@H](C)C(=O)C[C@H](C(C)C)C(=O)C1
REMARK SMILES IDX 8 1 9 2 6 3 7 4 5 5 4 6 3 7 2 8 1 9 10 11 11 12 15 13 16 14
REMARK SMILES IDX 17 15 12 17 13 18 14 19
REMARK H PARENT
REMARK Flexibility Score: 70.00
ROOT
ATOM      1  C   UNL     1      36.346  18.714  25.685  1.00  0.00     0.136 C 
ATOM      2  O   UNL     1      35.620  18.032  24.974  1.00  0.00    -0.299 OA
ENDROOT
BRANCH   1   3
ATOM      3  C   UNL     1      36.104  20.201  25.796  1.00  0.00     0.053 C 
ATOM      4  C   UNL     1      34.705  20.549  25.270  1.00  0.00     0.016 C 
BRANCH   3   5
ATOM      5  C   UNL     1      37.183  21.006  25.046  1.00  0.00     0.015 C 
BRANCH   5   6
ATOM      6  C   UNL     1      37.763  22.162  25.888  1.00  0.00     0.028 C 
BRANCH   6   7
ATOM      7  C   UNL     1      38.197  21.689  27.256  1.00  0.00    -0.028 C 
ATOM      8  C   UNL     1      39.182  20.803  27.547  1.00  0.00    -0.070 CG0
ATOM      9  C   UNL     1      39.381  20.443  28.999  1.00  0.00     0.039 C 
ATOM     10  G   UNL     1      40.101  20.159  26.522  1.00  0.00     0.000 G0
ENDBRANCH   6   7
ENDBRANCH   5   6
ENDBRANCH   3   5
ENDBRANCH   1   3
BRANCH   1  11
ATOM     11  C   UNL     1      37.430  18.066  26.516  1.00  0.00     0.087 C 
BRANCH  11  12
ATOM     12  C   UNL     1      38.789  17.945  25.779  1.00  0.00     0.066 C 
BRANCH  12  13
ATOM     13  C   UNL     1      39.938  18.640  26.495  1.00  0.00     0.140 C 
ATOM     14  O   UNL     1      40.717  17.948  27.136  1.00  0.00    -0.299 OA
BRANCH  13  15
ATOM     15  C   UNL     1      40.114  20.143  26.531  1.00  0.00     0.106 CG0
ATOM     16  G   UNL     1      39.183  20.781  27.549  1.00  0.00     0.000 G0
ENDBRANCH  13  15
ENDBRANCH  12  13
BRANCH  12  17
ATOM     17  C   UNL     1      39.176  16.484  25.390  1.00  0.00    -0.006 C 
ATOM     18  C   UNL     1      38.537  16.054  24.059  1.00  0.00     0.008 C 
ATOM     19  C   UNL     1      38.869  15.444  26.481  1.00  0.00     0.008 C 
ENDBRANCH  12  17
ENDBRANCH  11  12
ENDBRANCH   1  11
TORSDOF 1
ENDMDL
MODEL 3
REMARK VINA RESULT:    -4.028      2.553      4.698
REMARK INTER + INTRA:          -5.915
REMARK INTER:                  -5.824
REMARK INTRA:                  -0.091
REMARK UNBOUND:                 0.231
REMARK SMILES CC1=CCC[C@@H](C)C(=O)C[C@H](C(C)C)C(=O)C1
REMARK SMILES IDX 8 1 9 2 6 3 7 4 5 5 4 6 3 7 2 8 1 9 10 11 11 12 15 13 16 14
REMARK SMILES IDX 17 15 12 17 13 18 14 19
REMARK H PARENT
REMARK Flexibility Score: 70.00
ROOT
ATOM      1  C   UNL     1      38.903  23.963  28.379  1.00  0.00     0.136 C 
ATOM      2  O   UNL     1      39.155  24.992  28.992  1.00  0.00    -0.299 OA
ENDROOT
BRANCH   1   3
ATOM      3  C   UNL     1      37.786  23.952  27.362  1.00  0.00     0.053 C 
ATOM      4  C   UNL     1      36.498  23.415  27.998  1.00  0.00     0.016 C 
BRANCH   3   5
ATOM      5  C   UNL     1      38.164  23.126  26.117  1.00  0.00     0.015 C 
BRANCH   5   6
ATOM      6  C   UNL     1      37.133  22.026  25.790  1.00  0.00     0.028 C 
BRANCH   6   7
ATOM      7  C   UNL     1      37.808  20.741  25.367  1.00  0.00    -0.028 C 
ATOM      8  C   UNL     1      38.190  19.711  26.161  1.00  0.00    -0.070 CG0
ATOM      9  C   UNL     1      38.908  18.559  25.502  1.00  0.00     0.039 C 
ATOM     10  G   UNL     1      37.938  19.630  27.658  1.00  0.00     0.000 G0
ENDBRANCH   6   7
ENDBRANCH   5   6
ENDBRANCH   3   5
ENDBRANCH   1   3
BRANCH   1  11
ATOM     11  C   UNL     1      39.755  22.730  28.572  1.00  0.00     0.087 C 
BRANCH  11  12
ATOM     12  C   UNL     1      38.999  21.550  29.235  1.00  0.00     0.066 C 
BRANCH  12  13
ATOM     13  C   UNL     1      39.098  20.244  28.458  1.00  0.00     0.140 C 
ATOM     14  O   UNL     1      40.191  19.696  28.396  1.00  0.00    -0.299 OA
BRANCH  13  15
ATOM     15  C   UNL     1      37.945  19.640  27.687  1.00  0.00     0.106 CG0
ATOM     16  G   UNL     1      38.189  19.709  26.188  1.00  0.00     0.000 G0
ENDBRANCH  13  15
ENDBRANCH  12  13
BRANCH  12  17
ATOM     17  C   UNL     1      39.350  21.332  30.740  1.00  0.00    -0.006 C 
ATOM     18  C   UNL     1      38.344  20.403  31.438  1.00  0.00     0.008 C 
ATOM     19  C   UNL     1      39.505  22.636  31.541  1.00  0.00     0.008 C 
ENDBRANCH  12  17
ENDBRANCH  11  12
ENDBRANCH   1  11
TORSDOF 1
ENDMDL
MODEL 4
REMARK VINA RESULT:    -3.973      2.062      3.924
REMARK INTER + INTRA:          -5.831
REMARK INTER:                  -5.617
REMARK INTRA:                  -0.214
REMARK UNBOUND:                 0.231
REMARK SMILES CC1=CCC[C@@H](C)C(=O)C[C@H](C(C)C)C(=O)C1
REMARK SMILES IDX 8 1 9 2 6 3 7 4 5 5 4 6 3 7 2 8 1 9 10 11 11 12 15 13 16 14
REMARK SMILES IDX 17 15 12 17 13 18 14 19
REMARK H PARENT
REMARK Flexibility Score: 70.00
ROOT
ATOM      1  C   UNL     1      39.663  19.595  27.104  1.00  0.00     0.136 C 
ATOM      2  O   UNL     1      40.053  18.442  27.234  1.00  0.00    -0.299 OA
ENDROOT
BRANCH   1   3
ATOM      3  C   UNL     1      39.907  20.598  28.207  1.00  0.00     0.053 C 
ATOM      4  C   UNL     1      41.380  20.564  28.635  1.00  0.00     0.016 C 
BRANCH   3   5
ATOM      5  C   UNL     1      38.983  20.344  29.414  1.00  0.00     0.015 C 
BRANCH   5   6
ATOM      6  C   UNL     1      38.007  21.509  29.678  1.00  0.00     0.028 C 
BRANCH   6   7
ATOM      7  C   UNL     1      38.496  22.795  29.052  1.00  0.00    -0.028 C 
ATOM      8  C   UNL     1      38.050  23.378  27.912  1.00  0.00    -0.070 CG0
ATOM      9  C   UNL     1      38.750  24.636  27.459  1.00  0.00     0.039 C 
ATOM     10  G   UNL     1      36.894  22.863  27.069  1.00  0.00     0.000 G0
ENDBRANCH   6   7
ENDBRANCH   5   6
ENDBRANCH   3   5
ENDBRANCH   1   3
BRANCH   1  11
ATOM     11  C   UNL     1      39.016  20.041  25.813  1.00  0.00     0.087 C 
BRANCH  11  12
ATOM     12  C   UNL     1      37.546  20.505  25.983  1.00  0.00     0.066 C 
BRANCH  12  13
ATOM     13  C   UNL     1      37.366  22.015  25.895  1.00  0.00     0.140 C 
ATOM     14  O   UNL     1      37.696  22.571  24.856  1.00  0.00    -0.299 OA
BRANCH  13  15
ATOM     15  C   UNL     1      36.888  22.868  27.049  1.00  0.00     0.106 CG0
ATOM     16  G   UNL     1      38.056  23.362  27.887  1.00  0.00     0.000 G0
ENDBRANCH  13  15
ENDBRANCH  12  13
BRANCH  12  17
ATOM     17  C   UNL     1      36.533  19.767  25.055  1.00  0.00    -0.006 C 
ATOM     18  C   UNL     1      35.090  20.249  25.277  1.00  0.00     0.008 C 
ATOM     19  C   UNL     1      36.596  18.233  25.155  1.00  0.00     0.008 C 
ENDBRANCH  12  17
ENDBRANCH  11  12
ENDBRANCH   1  11
TORSDOF 1
ENDMDL
MODEL 5
REMARK VINA RESULT:    -3.887      2.836      6.209
REMARK INTER + INTRA:          -5.700
REMARK INTER:                  -5.594
REMARK INTRA:                  -0.106
REMARK UNBOUND:                 0.231
REMARK SMILES CC1=CCC[C@@H](C)C(=O)C[C@H](C(C)C)C(=O)C1
REMARK SMILES IDX 8 1 9 2 6 3 7 4 5 5 4 6 3 7 2 8 1 9 10 11 11 12 15 13 16 14
REMARK SMILES IDX 17 15 12 17 13 18 14 19
REMARK H PARENT
REMARK Flexibility Score: 70.00
ROOT
ATOM      1  C   UNL     1      40.647  15.455  25.728  1.00  0.00     0.136 C 
ATOM      2  O   UNL     1      41.392  14.550  25.375  1.00  0.00    -0.299 OA
ENDROOT
BRANCH   1   3
ATOM      3  C   UNL     1      39.153  15.303  25.561  1.00  0.00     0.053 C 
ATOM      4  C   UNL     1      38.760  15.526  24.096  1.00  0.00     0.016 C 
BRANCH   3   5
ATOM      5  C   UNL     1      38.382  16.265  26.485  1.00  0.00     0.015 C 
BRANCH   5   6
ATOM      6  C   UNL     1      37.630  17.367  25.711  1.00  0.00     0.028 C 
BRANCH   6   7
ATOM      7  C   UNL     1      37.442  18.608  26.553  1.00  0.00    -0.028 C 
ATOM      8  C   UNL     1      38.223  19.717  26.571  1.00  0.00    -0.070 CG0
ATOM      9  C   UNL     1      37.859  20.803  27.554  1.00  0.00     0.039 C 
ATOM     10  G   UNL     1      39.424  19.947  25.669  1.00  0.00     0.000 G0
ENDBRANCH   6   7
ENDBRANCH   5   6
ENDBRANCH   3   5
ENDBRANCH   1   3
BRANCH   1  11
ATOM     11  C   UNL     1      41.206  16.685  26.404  1.00  0.00     0.087 C 
BRANCH  11  12
ATOM     12  C   UNL     1      41.218  17.942  25.495  1.00  0.00     0.066 C 
BRANCH  12  13
ATOM     13  C   UNL     1      40.657  19.188  26.167  1.00  0.00     0.140 C 
ATOM     14  O   UNL     1      41.177  19.561  27.210  1.00  0.00    -0.299 OA
BRANCH  13  15
ATOM     15  C   UNL     1      39.440  19.933  25.663  1.00  0.00     0.106 CG0
ATOM     16  G   UNL     1      38.247  19.722  26.581  1.00  0.00     0.000 G0
ENDBRANCH  13  15
ENDBRANCH  12  13
BRANCH  12  17
ATOM     17  C   UNL     1      42.599  18.238  24.833  1.00  0.00    -0.006 C 
ATOM     18  C   UNL     1      42.486  18.390  23.308  1.00  0.00     0.008 C 
ATOM     19  C   UNL     1      43.691  17.212  25.180  1.00  0.00     0.008 C 
ENDBRANCH  12  17
ENDBRANCH  11  12
ENDBRANCH   1  11
TORSDOF 1
ENDMDL
MODEL 6
REMARK VINA RESULT:    -3.826      2.925      5.125
REMARK INTER + INTRA:          -5.608
REMARK INTER:                  -5.474
REMARK INTRA:                  -0.134
REMARK UNBOUND:                 0.231
REMARK SMILES CC1=CCC[C@@H](C)C(=O)C[C@H](C(C)C)C(=O)C1
REMARK SMILES IDX 8 1 9 2 6 3 7 4 5 5 4 6 3 7 2 8 1 9 10 11 11 12 15 13 16 14
REMARK SMILES IDX 17 15 12 17 13 18 14 19
REMARK H PARENT
REMARK Flexibility Score: 70.00
ROOT
ATOM      1  C   UNL     1      41.918  18.421  24.453  1.00  0.00     0.136 C 
ATOM      2  O   UNL     1      42.193  19.489  23.923  1.00  0.00    -0.299 OA
ENDROOT
BRANCH   1   3
ATOM      3  C   UNL     1      42.820  17.866  25.530  1.00  0.00     0.053 C 
ATOM      4  C   UNL     1      43.110  16.384  25.264  1.00  0.00     0.016 C 
BRANCH   3   5
ATOM      5  C   UNL     1      42.209  18.058  26.932  1.00  0.00     0.015 C 
BRANCH   5   6
ATOM      6  C   UNL     1      42.031  19.543  27.311  1.00  0.00     0.028 C 
BRANCH   6   7
ATOM      7  C   UNL     1      40.725  19.779  28.035  1.00  0.00    -0.028 C 
ATOM      8  C   UNL     1      39.520  20.068  27.486  1.00  0.00    -0.070 CG0
ATOM      9  C   UNL     1      38.373  20.324  28.433  1.00  0.00     0.039 C 
ATOM     10  G   UNL     1      39.241  20.141  25.993  1.00  0.00     0.000 G0
ENDBRANCH   6   7
ENDBRANCH   5   6
ENDBRANCH   3   5
ENDBRANCH   1   3
BRANCH   1  11
ATOM     11  C   UNL     1      40.640  17.697  24.097  1.00  0.00     0.087 C 
BRANCH  11  12
ATOM     12  C   UNL     1      39.641  17.583  25.278  1.00  0.00     0.066 C 
BRANCH  12  13
ATOM     13  C   UNL     1      38.750  18.805  25.448  1.00  0.00     0.140 C 
ATOM     14  O   UNL     1      37.589  18.725  25.069  1.00  0.00    -0.299 OA
BRANCH  13  15
ATOM     15  C   UNL     1      39.246  20.135  25.973  1.00  0.00     0.106 CG0
ATOM     16  G   UNL     1      39.506  20.073  27.469  1.00  0.00     0.000 G0
ENDBRANCH  13  15
ENDBRANCH  12  13
BRANCH  12  17
ATOM     17  C   UNL     1      38.796  16.271  25.273  1.00  0.00    -0.006 C 
ATOM     18  C   UNL     1      39.253  15.287  26.362  1.00  0.00     0.008 C 
ATOM     19  C   UNL     1      38.749  15.562  23.909  1.00  0.00     0.008 C 
ENDBRANCH  12  17
ENDBRANCH  11  12
ENDBRANCH   1  11
TORSDOF 1
ENDMDL
MODEL 7
REMARK VINA RESULT:    -3.823      1.958      4.425
REMARK INTER + INTRA:          -5.602
REMARK INTER:                  -5.434
REMARK INTRA:                  -0.168
REMARK UNBOUND:                 0.231
REMARK SMILES CC1=CCC[C@@H](C)C(=O)C[C@H](C(C)C)C(=O)C1
REMARK SMILES IDX 8 1 9 2 6 3 7 4 5 5 4 6 3 7 2 8 1 9 10 11 11 12 15 13 16 14
REMARK SMILES IDX 17 15 12 17 13 18 14 19
REMARK H PARENT
REMARK Flexibility Score: 70.00
ROOT
ATOM      1  C   UNL     1      37.259  21.154  26.109  1.00  0.00     0.136 C 
ATOM      2  O   UNL     1      36.479  22.022  26.480  1.00  0.00    -0.299 OA
ENDROOT
BRANCH   1   3
ATOM      3  C   UNL     1      36.760  20.015  25.252  1.00  0.00     0.053 C 
ATOM      4  C   UNL     1      35.606  20.490  24.361  1.00  0.00     0.016 C 
BRANCH   3   5
ATOM      5  C   UNL     1      36.324  18.811  26.112  1.00  0.00     0.015 C 
BRANCH   5   6
ATOM      6  C   UNL     1      37.258  17.593  25.955  1.00  0.00     0.028 C 
BRANCH   6   7
ATOM      7  C   UNL     1      38.411  17.893  25.026  1.00  0.00    -0.028 C 
ATOM      8  C   UNL     1      39.699  18.149  25.366  1.00  0.00    -0.070 CG0
ATOM      9  C   UNL     1      40.655  18.485  24.248  1.00  0.00     0.039 C 
ATOM     10  G   UNL     1      40.245  18.110  26.784  1.00  0.00     0.000 G0
ENDBRANCH   6   7
ENDBRANCH   5   6
ENDBRANCH   3   5
ENDBRANCH   1   3
BRANCH   1  11
ATOM     11  C   UNL     1      38.731  21.261  26.434  1.00  0.00     0.087 C 
BRANCH  11  12
ATOM     12  C   UNL     1      39.161  20.411  27.658  1.00  0.00     0.066 C 
BRANCH  12  13
ATOM     13  C   UNL     1      40.357  19.508  27.387  1.00  0.00     0.140 C 
ATOM     14  O   UNL     1      41.475  19.961  27.589  1.00  0.00    -0.299 OA
BRANCH  13  15
ATOM     15  C   UNL     1      40.238  18.119  26.798  1.00  0.00     0.106 CG0
ATOM     16  G   UNL     1      39.698  18.169  25.378  1.00  0.00     0.000 G0
ENDBRANCH  13  15
ENDBRANCH  12  13
BRANCH  12  17
ATOM     17  C   UNL     1      39.369  21.236  28.965  1.00  0.00    -0.006 C 
ATOM     18  C   UNL     1      38.171  21.115  29.920  1.00  0.00     0.008 C 
ATOM     19  C   UNL     1      39.701  22.719  28.723  1.00  0.00     0.008 C 
ENDBRANCH  12  17
ENDBRANCH  11  12
ENDBRANCH   1  11
TORSDOF 1
ENDMDL
MODEL 8
REMARK VINA RESULT:    -3.768      5.467      7.556
REMARK INTER + INTRA:          -5.518
REMARK INTER:                  -5.311
REMARK INTRA:                  -0.208
REMARK UNBOUND:                 0.231
REMARK SMILES CC1=CCC[C@@H](C)C(=O)C[C@H](C(C)C)C(=O)C1
REMARK SMILES IDX 8 1 9 2 6 3 7 4 5 5 4 6 3 7 2 8 1 9 10 11 11 12 15 13 16 14
REMARK SMILES IDX 17 15 12 17 13 18 14 19
REMARK H PARENT
REMARK Flexibility Score: 70.00
ROOT
ATOM      1  C   UNL     1      40.521  17.349  24.833  1.00  0.00     0.136 C 
ATOM      2  O   UNL     1      39.814  18.154  25.424  1.00  0.00    -0.299 OA
ENDROOT
BRANCH   1   3
ATOM      3  C   UNL     1      40.145  15.886  24.823  1.00  0.00     0.053 C 
ATOM      4  C   UNL     1      38.746  15.705  24.221  1.00  0.00     0.016 C 
BRANCH   3   5
ATOM      5  C   UNL     1      40.212  15.277  26.237  1.00  0.00     0.015 C 
BRANCH   5   6
ATOM      6  C   UNL     1      41.152  14.057  26.321  1.00  0.00     0.028 C 
BRANCH   6   7
ATOM      7  C   UNL     1      42.498  14.431  26.897  1.00  0.00    -0.028 C 
ATOM      8  C   UNL     1      43.583  14.889  26.225  1.00  0.00    -0.070 CG0
ATOM      9  C   UNL     1      44.840  15.132  27.025  1.00  0.00     0.039 C 
ATOM     10  G   UNL     1      43.620  15.183  24.734  1.00  0.00     0.000 G0
ENDBRANCH   6   7
ENDBRANCH   5   6
ENDBRANCH   3   5
ENDBRANCH   1   3
BRANCH   1  11
ATOM     11  C   UNL     1      41.721  17.822  24.043  1.00  0.00     0.087 C 
BRANCH  11  12
ATOM     12  C   UNL     1      43.047  17.786  24.847  1.00  0.00     0.066 C 
BRANCH  12  13
ATOM     13  C   UNL     1      43.963  16.631  24.464  1.00  0.00     0.140 C 
ATOM     14  O   UNL     1      44.984  16.891  23.842  1.00  0.00    -0.299 OA
BRANCH  13  15
ATOM     15  C   UNL     1      43.634  15.179  24.733  1.00  0.00     0.106 CG0
ATOM     16  G   UNL     1      43.587  14.892  26.225  1.00  0.00     0.000 G0
ENDBRANCH  13  15
ENDBRANCH  12  13
BRANCH  12  17
ATOM     17  C   UNL     1      43.825  19.137  24.854  1.00  0.00    -0.006 C 
ATOM     18  C   UNL     1      43.967  19.714  26.272  1.00  0.00     0.008 C 
ATOM     19  C   UNL     1      43.239  20.202  23.910  1.00  0.00     0.008 C 
ENDBRANCH  12  17
ENDBRANCH  11  12
ENDBRANCH   1  11
TORSDOF 1
ENDMDL
MODEL 9
REMARK VINA RESULT:    -3.725      2.680      5.349
REMARK INTER + INTRA:          -5.454
REMARK INTER:                  -5.648
REMARK INTRA:                   0.194
REMARK UNBOUND:                 0.231
REMARK SMILES CC1=CCC[C@@H](C)C(=O)C[C@H](C(C)C)C(=O)C1
REMARK SMILES IDX 8 1 9 2 6 3 7 4 5 5 4 6 3 7 2 8 1 9 10 11 11 12 15 13 16 14
REMARK SMILES IDX 17 15 12 17 13 18 14 19
REMARK H PARENT
REMARK Flexibility Score: 70.00
ROOT
ATOM      1  C   UNL     1      39.016  17.365  25.646  1.00  0.00     0.136 C 
ATOM      2  O   UNL     1      38.249  16.941  26.501  1.00  0.00    -0.299 OA
ENDROOT
BRANCH   1   3
ATOM      3  C   UNL     1      39.748  16.394  24.749  1.00  0.00     0.053 C 
ATOM      4  C   UNL     1      38.757  15.407  24.119  1.00  0.00     0.016 C 
BRANCH   3   5
ATOM      5  C   UNL     1      40.853  15.642  25.515  1.00  0.00     0.015 C 
BRANCH   5   6
ATOM      6  C   UNL     1      42.129  16.487  25.712  1.00  0.00     0.028 C 
BRANCH   6   7
ATOM      7  C   UNL     1      42.325  16.865  27.162  1.00  0.00    -0.028 C 
ATOM      8  C   UNL     1      42.167  18.090  27.723  1.00  0.00    -0.070 CG0
ATOM      9  C   UNL     1      42.489  18.224  29.191  1.00  0.00     0.039 C 
ATOM     10  G   UNL     1      41.680  19.326  26.984  1.00  0.00     0.000 G0
ENDBRANCH   6   7
ENDBRANCH   5   6
ENDBRANCH   3   5
ENDBRANCH   1   3
BRANCH   1  11
ATOM     11  C   UNL     1      39.170  18.852  25.428  1.00  0.00     0.087 C 
BRANCH  11  12
ATOM     12  C   UNL     1      39.042  19.688  26.728  1.00  0.00     0.066 C 
BRANCH  12  13
ATOM     13  C   UNL     1      40.345  19.813  27.506  1.00  0.00     0.140 C 
ATOM     14  O   UNL     1      40.317  20.399  28.580  1.00  0.00    -0.299 OA
BRANCH  13  15
ATOM     15  C   UNL     1      41.681  19.333  26.983  1.00  0.00     0.106 CG0
ATOM     16  G   UNL     1      42.157  18.102  27.737  1.00  0.00     0.000 G0
ENDBRANCH  13  15
ENDBRANCH  12  13
BRANCH  12  17
ATOM     17  C   UNL     1      38.376  21.084  26.526  1.00  0.00    -0.006 C 
ATOM     18  C   UNL     1      37.470  21.467  27.707  1.00  0.00     0.008 C 
ATOM     19  C   UNL     1      37.603  21.222  25.204  1.00  0.00     0.008 C 
ENDBRANCH  12  17
ENDBRANCH  11  12
ENDBRANCH   1  11
TORSDOF 1
ENDMDL
