MODEL 1
REMARK VINA RESULT:    -4.613      0.000      0.000
REMARK INTER + INTRA:          -5.114
REMARK INTER:                  -5.017
REMARK INTRA:                  -0.096
REMARK UNBOUND:                -0.096
REMARK SMILES C=C(C)[C@@H]1CC=C(C)[C@H](O)C1
REMARK SMILES IDX 8 1 7 2 6 3 5 4 4 5 11 6 9 7 10 8 2 10 1 11 3 12
REMARK H PARENT 10 9
REMARK Flexibility Score: inf
ROOT
ATOM      1  C   UNL     1      35.844   9.250   7.867  1.00  0.00     0.042 C 
ATOM      2  C   UNL     1      35.322   9.624   6.504  1.00  0.00    -0.049 C 
ATOM      3  C   UNL     1      35.000   8.635   5.643  1.00  0.00    -0.025 C 
ATOM      4  C   UNL     1      34.466   8.891   4.257  1.00  0.00     0.035 C 
ATOM      5  C   UNL     1      34.881  10.275   3.729  1.00  0.00     0.021 C 
ATOM      6  C   UNL     1      34.543  11.347   4.775  1.00  0.00     0.044 C 
ATOM      7  C   UNL     1      35.320  11.089   6.080  1.00  0.00     0.140 C 
ENDROOT
BRANCH   7   8
ATOM      8  O   UNL     1      34.818  11.910   7.105  1.00  0.00    -0.389 OA
ATOM      9  H   UNL     1      35.483  11.904   7.844  1.00  0.00     0.211 HD
ENDBRANCH   7   8
BRANCH   5  10
ATOM     10  C   UNL     1      34.239  10.577   2.381  1.00  0.00    -0.077 C 
ATOM     11  C   UNL     1      33.911  11.832   2.027  1.00  0.00     0.008 C 
ATOM     12  C   UNL     1      33.960   9.459   1.410  1.00  0.00     0.039 C 
ENDBRANCH   5  10
TORSDOF 2
ENDMDL
MODEL 2
REMARK VINA RESULT:    -4.474     15.360     17.487
REMARK INTER + INTRA:          -4.962
REMARK INTER:                  -4.866
REMARK INTRA:                  -0.096
REMARK UNBOUND:                -0.096
REMARK SMILES C=C(C)[C@@H]1CC=C(C)[C@H](O)C1
REMARK SMILES IDX 8 1 7 2 6 3 5 4 4 5 11 6 9 7 10 8 2 10 1 11 3 12
REMARK H PARENT 10 9
REMARK Flexibility Score: inf
ROOT
ATOM      1  C   UNL     1      41.115   3.584 -11.410  1.00  0.00     0.042 C 
ATOM      2  C   UNL     1      41.549   3.076 -10.060  1.00  0.00    -0.049 C 
ATOM      3  C   UNL     1      40.599   2.741  -9.161  1.00  0.00    -0.025 C 
ATOM      4  C   UNL     1      40.916   2.218  -7.783  1.00  0.00     0.035 C 
ATOM      5  C   UNL     1      42.311   2.661  -7.310  1.00  0.00     0.021 C 
ATOM      6  C   UNL     1      43.350   2.336  -8.394  1.00  0.00     0.044 C 
ATOM      7  C   UNL     1      43.029   3.102  -9.692  1.00  0.00     0.140 C 
ENDROOT
BRANCH   7   8
ATOM      8  O   UNL     1      43.819   2.609 -10.745  1.00  0.00    -0.389 OA
ATOM      9  H   UNL     1      43.631   3.168 -11.545  1.00  0.00     0.211 HD
ENDBRANCH   7   8
BRANCH   5  10
ATOM     10  C   UNL     1      42.676   2.030  -5.971  1.00  0.00    -0.077 C 
ATOM     11  C   UNL     1      43.948   1.717  -5.667  1.00  0.00     0.008 C 
ATOM     12  C   UNL     1      41.602   1.747  -4.953  1.00  0.00     0.039 C 
ENDBRANCH   5  10
TORSDOF 2
ENDMDL
MODEL 3
REMARK VINA RESULT:    -4.359      2.458      4.632
REMARK INTER + INTRA:          -4.838
REMARK INTER:                  -4.742
REMARK INTRA:                  -0.096
REMARK UNBOUND:                -0.096
REMARK SMILES C=C(C)[C@@H]1CC=C(C)[C@H](O)C1
REMARK SMILES IDX 8 1 7 2 6 3 5 4 4 5 11 6 9 7 10 8 2 10 1 11 3 12
REMARK H PARENT 10 9
REMARK Flexibility Score: inf
ROOT
ATOM      1  C   UNL     1      33.731  12.106   2.081  1.00  0.00     0.042 C 
ATOM      2  C   UNL     1      34.207  10.879   2.814  1.00  0.00    -0.049 C 
ATOM      3  C   UNL     1      34.458  10.975   4.137  1.00  0.00    -0.025 C 
ATOM      4  C   UNL     1      34.933   9.813   4.972  1.00  0.00     0.035 C 
ATOM      5  C   UNL     1      35.650   8.751   4.120  1.00  0.00     0.021 C 
ATOM      6  C   UNL     1      34.776   8.382   2.913  1.00  0.00     0.044 C 
ATOM      7  C   UNL     1      34.539   9.617   2.023  1.00  0.00     0.140 C 
ENDROOT
BRANCH   7   8
ATOM      8  O   UNL     1      33.539   9.339   1.075  1.00  0.00    -0.389 OA
ATOM      9  H   UNL     1      33.198  10.209   0.737  1.00  0.00     0.211 HD
ENDBRANCH   7   8
BRANCH   5  10
ATOM     10  C   UNL     1      36.019   7.526   4.946  1.00  0.00    -0.077 C 
ATOM     11  C   UNL     1      35.884   7.515   6.284  1.00  0.00     0.008 C 
ATOM     12  C   UNL     1      36.544   6.288   4.267  1.00  0.00     0.039 C 
ENDBRANCH   5  10
TORSDOF 2
ENDMDL
MODEL 4
REMARK VINA RESULT:    -4.347      1.859      2.623
REMARK INTER + INTRA:          -4.825
REMARK INTER:                  -4.729
REMARK INTRA:                  -0.096
REMARK UNBOUND:                -0.096
REMARK SMILES C=C(C)[C@@H]1CC=C(C)[C@H](O)C1
REMARK SMILES IDX 8 1 7 2 6 3 5 4 4 5 11 6 9 7 10 8 2 10 1 11 3 12
REMARK H PARENT 10 9
REMARK Flexibility Score: inf
ROOT
ATOM      1  C   UNL     1      35.541   8.303   7.629  1.00  0.00     0.042 C 
ATOM      2  C   UNL     1      35.260   8.760   6.221  1.00  0.00    -0.049 C 
ATOM      3  C   UNL     1      35.391  10.073   5.932  1.00  0.00    -0.025 C 
ATOM      4  C   UNL     1      35.141  10.642   4.559  1.00  0.00     0.035 C 
ATOM      5  C   UNL     1      34.189   9.757   3.736  1.00  0.00     0.021 C 
ATOM      6  C   UNL     1      34.683   8.303   3.767  1.00  0.00     0.044 C 
ATOM      7  C   UNL     1      34.690   7.768   5.212  1.00  0.00     0.140 C 
ENDROOT
BRANCH   7   8
ATOM      8  O   UNL     1      35.378   6.544   5.265  1.00  0.00    -0.389 OA
ATOM      9  H   UNL     1      36.349   6.750   5.334  1.00  0.00     0.211 HD
ENDBRANCH   7   8
BRANCH   5  10
ATOM     10  C   UNL     1      34.037  10.271   2.310  1.00  0.00    -0.077 C 
ATOM     11  C   UNL     1      33.912   9.428   1.270  1.00  0.00     0.008 C 
ATOM     12  C   UNL     1      34.020  11.754   2.040  1.00  0.00     0.039 C 
ENDBRANCH   5  10
TORSDOF 2
ENDMDL
MODEL 5
REMARK VINA RESULT:    -4.291      2.615      3.254
REMARK INTER + INTRA:          -4.764
REMARK INTER:                  -4.668
REMARK INTRA:                  -0.096
REMARK UNBOUND:                -0.096
REMARK SMILES C=C(C)[C@@H]1CC=C(C)[C@H](O)C1
REMARK SMILES IDX 8 1 7 2 6 3 5 4 4 5 11 6 9 7 10 8 2 10 1 11 3 12
REMARK H PARENT 10 9
REMARK Flexibility Score: inf
ROOT
ATOM      1  C   UNL     1      35.963   5.834   6.871  1.00  0.00     0.042 C 
ATOM      2  C   UNL     1      35.651   6.949   5.907  1.00  0.00    -0.049 C 
ATOM      3  C   UNL     1      35.317   8.158   6.407  1.00  0.00    -0.025 C 
ATOM      4  C   UNL     1      34.990   9.347   5.538  1.00  0.00     0.035 C 
ATOM      5  C   UNL     1      34.500   8.920   4.144  1.00  0.00     0.021 C 
ATOM      6  C   UNL     1      35.487   7.912   3.538  1.00  0.00     0.044 C 
ATOM      7  C   UNL     1      35.570   6.647   4.414  1.00  0.00     0.140 C 
ENDROOT
BRANCH   7   8
ATOM      8  O   UNL     1      36.651   5.850   4.001  1.00  0.00    -0.389 OA
ATOM      9  H   UNL     1      36.655   5.035   4.571  1.00  0.00     0.211 HD
ENDBRANCH   7   8
BRANCH   5  10
ATOM     10  C   UNL     1      34.289  10.122   3.232  1.00  0.00    -0.077 C 
ATOM     11  C   UNL     1      34.350  11.380   3.704  1.00  0.00     0.008 C 
ATOM     12  C   UNL     1      34.008   9.917   1.766  1.00  0.00     0.039 C 
ENDBRANCH   5  10
TORSDOF 2
ENDMDL
MODEL 6
REMARK VINA RESULT:    -4.279     15.088     16.517
REMARK INTER + INTRA:          -4.751
REMARK INTER:                  -4.659
REMARK INTRA:                  -0.092
REMARK UNBOUND:                -0.096
REMARK SMILES C=C(C)[C@@H]1CC=C(C)[C@H](O)C1
REMARK SMILES IDX 8 1 7 2 6 3 5 4 4 5 11 6 9 7 10 8 2 10 1 11 3 12
REMARK H PARENT 10 9
REMARK Flexibility Score: inf
ROOT
ATOM      1  C   UNL     1      39.156   3.666 -10.515  1.00  0.00     0.042 C 
ATOM      2  C   UNL     1      40.059   3.268  -9.376  1.00  0.00    -0.049 C 
ATOM      3  C   UNL     1      41.370   3.073  -9.632  1.00  0.00    -0.025 C 
ATOM      4  C   UNL     1      42.366   2.678  -8.570  1.00  0.00     0.035 C 
ATOM      5  C   UNL     1      41.690   1.964  -7.388  1.00  0.00     0.021 C 
ATOM      6  C   UNL     1      40.498   2.798  -6.896  1.00  0.00     0.044 C 
ATOM      7  C   UNL     1      39.449   2.949  -8.015  1.00  0.00     0.140 C 
ENDROOT
BRANCH   7   8
ATOM      8  O   UNL     1      38.496   3.916  -7.650  1.00  0.00    -0.389 OA
ATOM      9  H   UNL     1      37.763   3.879  -8.320  1.00  0.00     0.211 HD
ENDBRANCH   7   8
BRANCH   5  10
ATOM     10  C   UNL     1      42.680   1.678  -6.266  1.00  0.00    -0.077 C 
ATOM     11  C   UNL     1      43.365   2.668  -5.665  1.00  0.00     0.008 C 
ATOM     12  C   UNL     1      42.907   0.262  -5.802  1.00  0.00     0.039 C 
ENDBRANCH   5  10
TORSDOF 2
ENDMDL
MODEL 7
REMARK VINA RESULT:    -4.275      1.694      2.278
REMARK INTER + INTRA:          -4.746
REMARK INTER:                  -4.651
REMARK INTRA:                  -0.095
REMARK UNBOUND:                -0.096
REMARK SMILES C=C(C)[C@@H]1CC=C(C)[C@H](O)C1
REMARK SMILES IDX 8 1 7 2 6 3 5 4 4 5 11 6 9 7 10 8 2 10 1 11 3 12
REMARK H PARENT 10 9
REMARK Flexibility Score: inf
ROOT
ATOM      1  C   UNL     1      36.448   6.194   5.938  1.00  0.00     0.042 C 
ATOM      2  C   UNL     1      35.839   7.454   5.379  1.00  0.00    -0.049 C 
ATOM      3  C   UNL     1      35.409   7.450   4.099  1.00  0.00    -0.025 C 
ATOM      4  C   UNL     1      34.780   8.650   3.438  1.00  0.00     0.035 C 
ATOM      5  C   UNL     1      35.213   9.965   4.107  1.00  0.00     0.021 C 
ATOM      6  C   UNL     1      35.004   9.864   5.626  1.00  0.00     0.044 C 
ATOM      7  C   UNL     1      35.868   8.731   6.213  1.00  0.00     0.140 C 
ENDROOT
BRANCH   7   8
ATOM      8  O   UNL     1      35.483   8.476   7.541  1.00  0.00    -0.389 OA
ATOM      9  H   UNL     1      36.263   8.679   8.121  1.00  0.00     0.211 HD
ENDBRANCH   7   8
BRANCH   5  10
ATOM     10  C   UNL     1      34.482  11.163   3.515  1.00  0.00    -0.077 C 
ATOM     11  C   UNL     1      33.949  12.117   4.299  1.00  0.00     0.008 C 
ATOM     12  C   UNL     1      34.345  11.301   2.021  1.00  0.00     0.039 C 
ENDBRANCH   5  10
TORSDOF 2
ENDMDL
MODEL 8
REMARK VINA RESULT:    -4.224      1.878      4.681
REMARK INTER + INTRA:          -4.691
REMARK INTER:                  -4.597
REMARK INTRA:                  -0.094
REMARK UNBOUND:                -0.096
REMARK SMILES C=C(C)[C@@H]1CC=C(C)[C@H](O)C1
REMARK SMILES IDX 8 1 7 2 6 3 5 4 4 5 11 6 9 7 10 8 2 10 1 11 3 12
REMARK H PARENT 10 9
REMARK Flexibility Score: inf
ROOT
ATOM      1  C   UNL     1      33.853  10.833   1.797  1.00  0.00     0.042 C 
ATOM      2  C   UNL     1      34.196  10.784   3.263  1.00  0.00    -0.049 C 
ATOM      3  C   UNL     1      34.077  11.914   3.992  1.00  0.00    -0.025 C 
ATOM      4  C   UNL     1      34.388  11.980   5.465  1.00  0.00     0.035 C 
ATOM      5  C   UNL     1      35.376  10.881   5.893  1.00  0.00     0.021 C 
ATOM      6  C   UNL     1      34.883   9.519   5.383  1.00  0.00     0.044 C 
ATOM      7  C   UNL     1      34.812   9.514   3.844  1.00  0.00     0.140 C 
ENDROOT
BRANCH   7   8
ATOM      8  O   UNL     1      34.123   8.372   3.401  1.00  0.00    -0.389 OA
ATOM      9  H   UNL     1      33.217   8.392   3.810  1.00  0.00     0.211 HD
ENDBRANCH   7   8
BRANCH   5  10
ATOM     10  C   UNL     1      35.591  10.876   7.401  1.00  0.00    -0.077 C 
ATOM     11  C   UNL     1      35.511  12.007   8.124  1.00  0.00     0.008 C 
ATOM     12  C   UNL     1      35.898   9.586   8.115  1.00  0.00     0.039 C 
ENDBRANCH   5  10
TORSDOF 2
ENDMDL
MODEL 9
REMARK VINA RESULT:    -2.799     14.505     15.632
REMARK INTER + INTRA:          -3.141
REMARK INTER:                  -3.044
REMARK INTRA:                  -0.097
REMARK UNBOUND:                -0.096
REMARK SMILES C=C(C)[C@@H]1CC=C(C)[C@H](O)C1
REMARK SMILES IDX 8 1 7 2 6 3 5 4 4 5 11 6 9 7 10 8 2 10 1 11 3 12
REMARK H PARENT 10 9
REMARK Flexibility Score: inf
ROOT
ATOM      1  C   UNL     1      44.125   1.540  -5.722  1.00  0.00     0.042 C 
ATOM      2  C   UNL     1      42.904   2.054  -6.440  1.00  0.00    -0.049 C 
ATOM      3  C   UNL     1      43.003   2.341  -7.756  1.00  0.00    -0.025 C 
ATOM      4  C   UNL     1      41.847   2.856  -8.575  1.00  0.00     0.035 C 
ATOM      5  C   UNL     1      40.796   3.564  -7.703  1.00  0.00     0.021 C 
ATOM      6  C   UNL     1      40.416   2.660  -6.521  1.00  0.00     0.044 C 
ATOM      7  C   UNL     1      41.648   2.381  -5.639  1.00  0.00     0.140 C 
ENDROOT
BRANCH   7   8
ATOM      8  O   UNL     1      41.356   1.359  -4.719  1.00  0.00    -0.389 OA
ATOM      9  H   UNL     1      40.905   1.779  -3.939  1.00  0.00     0.211 HD
ENDBRANCH   7   8
BRANCH   5  10
ATOM     10  C   UNL     1      39.575   3.973  -8.517  1.00  0.00    -0.077 C 
ATOM     11  C   UNL     1      38.494   4.519  -7.933  1.00  0.00     0.008 C 
ATOM     12  C   UNL     1      39.562   3.773 -10.010  1.00  0.00     0.039 C 
ENDBRANCH   5  10
TORSDOF 2
ENDMDL
