MODEL 1
REMARK VINA RESULT:    -3.351      0.000      0.000
REMARK INTER + INTRA:          -4.017
REMARK INTER:                  -3.938
REMARK INTRA:                  -0.078
REMARK UNBOUND:                -0.078
REMARK SMILES O=C([O-])CCC(=O)[O-]
REMARK SMILES IDX 4 1 2 2 1 3 3 4 5 5 6 6 7 7 8 8
REMARK H PARENT
REMARK Flexibility Score: inf
ROOT
ATOM      1  C   UNL     1     -36.223  84.735 -17.607  1.00  0.00     0.059 C 
ENDROOT
BRANCH   1   2
ATOM      2  C   UNL     1     -34.967  85.010 -18.372  1.00  0.00     0.042 C 
ATOM      3  O   UNL     1     -34.917  84.783 -19.609  1.00  0.00    -0.550 OA
ATOM      4  O   UNL     1     -33.836  85.471 -17.709  1.00  0.00    -0.550 OA
ENDBRANCH   1   2
BRANCH   1   5
ATOM      5  C   UNL     1     -37.021  83.613 -18.275  1.00  0.00     0.059 C 
BRANCH   5   6
ATOM      6  C   UNL     1     -36.432  82.280 -17.937  1.00  0.00     0.042 C 
ATOM      7  O   UNL     1     -36.024  82.046 -16.769  1.00  0.00    -0.550 OA
ATOM      8  O   UNL     1     -36.378  81.279 -18.899  1.00  0.00    -0.550 OA
ENDBRANCH   5   6
ENDBRANCH   1   5
TORSDOF 3
ENDMDL
MODEL 2
REMARK VINA RESULT:    -3.294     16.838     18.533
REMARK INTER + INTRA:          -3.951
REMARK INTER:                  -3.919
REMARK INTRA:                  -0.032
REMARK UNBOUND:                -0.078
REMARK SMILES O=C([O-])CCC(=O)[O-]
REMARK SMILES IDX 4 1 2 2 1 3 3 4 5 5 6 6 7 7 8 8
REMARK H PARENT
REMARK Flexibility Score: inf
ROOT
ATOM      1  C   UNL     1     -25.114  95.935 -28.272  1.00  0.00     0.059 C 
ENDROOT
BRANCH   1   2
ATOM      2  C   UNL     1     -24.531  95.767 -29.639  1.00  0.00     0.042 C 
ATOM      3  O   UNL     1     -24.350  96.770 -30.378  1.00  0.00    -0.550 OA
ATOM      4  O   UNL     1     -24.234  94.496 -30.117  1.00  0.00    -0.550 OA
ENDBRANCH   1   2
BRANCH   1   5
ATOM      5  C   UNL     1     -25.592  94.588 -27.724  1.00  0.00     0.059 C 
BRANCH   5   6
ATOM      6  C   UNL     1     -26.633  94.791 -26.670  1.00  0.00     0.042 C 
ATOM      7  O   UNL     1     -27.777  94.283 -26.803  1.00  0.00    -0.550 OA
ATOM      8  O   UNL     1     -26.325  95.501 -25.516  1.00  0.00    -0.550 OA
ENDBRANCH   5   6
ENDBRANCH   1   5
TORSDOF 3
ENDMDL
MODEL 3
REMARK VINA RESULT:    -3.288      1.136      1.729
REMARK INTER + INTRA:          -3.943
REMARK INTER:                  -3.821
REMARK INTRA:                  -0.122
REMARK UNBOUND:                -0.078
REMARK SMILES O=C([O-])CCC(=O)[O-]
REMARK SMILES IDX 4 1 2 2 1 3 3 4 5 5 6 6 7 7 8 8
REMARK H PARENT
REMARK Flexibility Score: inf
ROOT
ATOM      1  C   UNL     1     -36.518  84.150 -17.891  1.00  0.00     0.059 C 
ENDROOT
BRANCH   1   2
ATOM      2  C   UNL     1     -35.289  84.710 -18.533  1.00  0.00     0.042 C 
ATOM      3  O   UNL     1     -34.415  85.286 -17.833  1.00  0.00    -0.550 OA
ATOM      4  O   UNL     1     -35.131  84.639 -19.912  1.00  0.00    -0.550 OA
ENDBRANCH   1   2
BRANCH   1   5
ATOM      5  C   UNL     1     -36.286  82.698 -17.465  1.00  0.00     0.059 C 
BRANCH   5   6
ATOM      6  C   UNL     1     -36.480  81.775 -18.626  1.00  0.00     0.042 C 
ATOM      7  O   UNL     1     -37.602  81.699 -19.194  1.00  0.00    -0.550 OA
ATOM      8  O   UNL     1     -35.410  81.035 -19.113  1.00  0.00    -0.550 OA
ENDBRANCH   5   6
ENDBRANCH   1   5
TORSDOF 3
ENDMDL
MODEL 4
REMARK VINA RESULT:    -3.276      0.924      3.444
REMARK INTER + INTRA:          -3.930
REMARK INTER:                  -3.739
REMARK INTRA:                  -0.191
REMARK UNBOUND:                -0.078
REMARK SMILES O=C([O-])CCC(=O)[O-]
REMARK SMILES IDX 4 1 2 2 1 3 3 4 5 5 6 6 7 7 8 8
REMARK H PARENT
REMARK Flexibility Score: inf
ROOT
ATOM      1  C   UNL     1     -36.821  84.047 -17.963  1.00  0.00     0.059 C 
ENDROOT
BRANCH   1   2
ATOM      2  C   UNL     1     -36.593  82.575 -17.831  1.00  0.00     0.042 C 
ATOM      3  O   UNL     1     -36.033  82.111 -16.803  1.00  0.00    -0.550 OA
ATOM      4  O   UNL     1     -36.957  81.720 -18.864  1.00  0.00    -0.550 OA
ENDBRANCH   1   2
BRANCH   1   5
ATOM      5  C   UNL     1     -35.489  84.800 -17.924  1.00  0.00     0.059 C 
BRANCH   5   6
ATOM      6  C   UNL     1     -34.675  84.488 -19.140  1.00  0.00     0.042 C 
ATOM      7  O   UNL     1     -33.514  84.016 -19.021  1.00  0.00    -0.550 OA
ATOM      8  O   UNL     1     -35.218  84.672 -20.406  1.00  0.00    -0.550 OA
ENDBRANCH   5   6
ENDBRANCH   1   5
TORSDOF 3
ENDMDL
MODEL 5
REMARK VINA RESULT:    -3.269      1.104      3.533
REMARK INTER + INTRA:          -3.921
REMARK INTER:                  -3.802
REMARK INTRA:                  -0.120
REMARK UNBOUND:                -0.078
REMARK SMILES O=C([O-])CCC(=O)[O-]
REMARK SMILES IDX 4 1 2 2 1 3 3 4 5 5 6 6 7 7 8 8
REMARK H PARENT
REMARK Flexibility Score: inf
ROOT
ATOM      1  C   UNL     1     -36.266  82.680 -17.509  1.00  0.00     0.059 C 
ENDROOT
BRANCH   1   2
ATOM      2  C   UNL     1     -36.534  81.777 -18.671  1.00  0.00     0.042 C 
ATOM      3  O   UNL     1     -35.622  81.032 -19.118  1.00  0.00    -0.550 OA
ATOM      4  O   UNL     1     -37.776  81.794 -19.294  1.00  0.00    -0.550 OA
ENDBRANCH   1   2
BRANCH   1   5
ATOM      5  C   UNL     1     -36.519  84.139 -17.895  1.00  0.00     0.059 C 
BRANCH   5   6
ATOM      6  C   UNL     1     -35.309  84.724 -18.551  1.00  0.00     0.042 C 
ATOM      7  O   UNL     1     -34.394  85.234 -17.852  1.00  0.00    -0.550 OA
ATOM      8  O   UNL     1     -35.168  84.661 -19.932  1.00  0.00    -0.550 OA
ENDBRANCH   5   6
ENDBRANCH   1   5
TORSDOF 3
ENDMDL
MODEL 6
REMARK VINA RESULT:    -3.266     16.493     18.369
REMARK INTER + INTRA:          -3.917
REMARK INTER:                  -3.798
REMARK INTRA:                  -0.118
REMARK UNBOUND:                -0.078
REMARK SMILES O=C([O-])CCC(=O)[O-]
REMARK SMILES IDX 4 1 2 2 1 3 3 4 5 5 6 6 7 7 8 8
REMARK H PARENT
REMARK Flexibility Score: inf
ROOT
ATOM      1  C   UNL     1     -26.145  93.956 -28.146  1.00  0.00     0.059 C 
ENDROOT
BRANCH   1   2
ATOM      2  C   UNL     1     -26.953  94.371 -26.957  1.00  0.00     0.042 C 
ATOM      3  O   UNL     1     -28.193  94.151 -26.927  1.00  0.00    -0.550 OA
ATOM      4  O   UNL     1     -26.347  95.045 -25.905  1.00  0.00    -0.550 OA
ENDBRANCH   1   2
BRANCH   1   5
ATOM      5  C   UNL     1     -24.780  94.650 -28.133  1.00  0.00     0.059 C 
BRANCH   5   6
ATOM      6  C   UNL     1     -24.808  95.873 -28.994  1.00  0.00     0.042 C 
ATOM      7  O   UNL     1     -25.165  96.980 -28.510  1.00  0.00    -0.550 OA
ATOM      8  O   UNL     1     -24.393  95.802 -30.318  1.00  0.00    -0.550 OA
ENDBRANCH   5   6
ENDBRANCH   1   5
TORSDOF 3
ENDMDL
MODEL 7
REMARK VINA RESULT:    -3.028     18.257     20.000
REMARK INTER + INTRA:          -3.638
REMARK INTER:                  -3.516
REMARK INTRA:                  -0.122
REMARK UNBOUND:                -0.078
REMARK SMILES O=C([O-])CCC(=O)[O-]
REMARK SMILES IDX 4 1 2 2 1 3 3 4 5 5 6 6 7 7 8 8
REMARK H PARENT
REMARK Flexibility Score: inf
ROOT
ATOM      1  C   UNL     1     -24.589  94.471 -28.895  1.00  0.00     0.059 C 
ENDROOT
BRANCH   1   2
ATOM      2  C   UNL     1     -25.274  95.562 -28.134  1.00  0.00     0.042 C 
ATOM      3  O   UNL     1     -25.154  96.760 -28.500  1.00  0.00    -0.550 OA
ATOM      4  O   UNL     1     -26.004  95.259 -26.992  1.00  0.00    -0.550 OA
ENDBRANCH   1   2
BRANCH   1   5
ATOM      5  C   UNL     1     -24.930  94.562 -30.384  1.00  0.00     0.059 C 
BRANCH   5   6
ATOM      6  C   UNL     1     -23.704  94.874 -31.184  1.00  0.00     0.042 C 
ATOM      7  O   UNL     1     -23.247  96.047 -31.209  1.00  0.00    -0.550 OA
ATOM      8  O   UNL     1     -23.038  93.859 -31.860  1.00  0.00    -0.550 OA
ENDBRANCH   5   6
ENDBRANCH   1   5
TORSDOF 3
ENDMDL
MODEL 8
REMARK VINA RESULT:    -2.999     13.106     14.295
REMARK INTER + INTRA:          -3.603
REMARK INTER:                  -3.427
REMARK INTRA:                  -0.177
REMARK UNBOUND:                -0.078
REMARK SMILES O=C([O-])CCC(=O)[O-]
REMARK SMILES IDX 4 1 2 2 1 3 3 4 5 5 6 6 7 7 8 8
REMARK H PARENT
REMARK Flexibility Score: inf
ROOT
ATOM      1  C   UNL     1     -22.380  84.253 -21.171  1.00  0.00     0.059 C 
ENDROOT
BRANCH   1   2
ATOM      2  C   UNL     1     -22.510  83.223 -20.094  1.00  0.00     0.042 C 
ATOM      3  O   UNL     1     -21.544  82.991 -19.320  1.00  0.00    -0.550 OA
ATOM      4  O   UNL     1     -23.681  82.484 -19.975  1.00  0.00    -0.550 OA
ENDBRANCH   1   2
BRANCH   1   5
ATOM      5  C   UNL     1     -21.343  83.816 -22.207  1.00  0.00     0.059 C 
BRANCH   5   6
ATOM      6  C   UNL     1     -21.847  82.645 -22.990  1.00  0.00     0.042 C 
ATOM      7  O   UNL     1     -22.888  82.753 -23.691  1.00  0.00    -0.550 OA
ATOM      8  O   UNL     1     -21.140  81.449 -22.986  1.00  0.00    -0.550 OA
ENDBRANCH   5   6
ENDBRANCH   1   5
TORSDOF 3
ENDMDL
MODEL 9
REMARK VINA RESULT:    -2.998     13.258     13.995
REMARK INTER + INTRA:          -3.602
REMARK INTER:                  -3.434
REMARK INTRA:                  -0.168
REMARK UNBOUND:                -0.078
REMARK SMILES O=C([O-])CCC(=O)[O-]
REMARK SMILES IDX 4 1 2 2 1 3 3 4 5 5 6 6 7 7 8 8
REMARK H PARENT
REMARK Flexibility Score: inf
ROOT
ATOM      1  C   UNL     1     -23.441  82.517 -20.343  1.00  0.00     0.059 C 
ENDROOT
BRANCH   1   2
ATOM      2  C   UNL     1     -22.305  83.390 -19.913  1.00  0.00     0.042 C 
ATOM      3  O   UNL     1     -21.400  82.930 -19.167  1.00  0.00    -0.550 OA
ATOM      4  O   UNL     1     -22.270  84.725 -20.295  1.00  0.00    -0.550 OA
ENDBRANCH   1   2
BRANCH   1   5
ATOM      5  C   UNL     1     -23.465  82.383 -21.868  1.00  0.00     0.059 C 
BRANCH   5   6
ATOM      6  C   UNL     1     -22.175  81.810 -22.362  1.00  0.00     0.042 C 
ATOM      7  O   UNL     1     -21.467  82.455 -23.180  1.00  0.00    -0.550 OA
ATOM      8  O   UNL     1     -21.729  80.584 -21.883  1.00  0.00    -0.550 OA
ENDBRANCH   5   6
ENDBRANCH   1   5
TORSDOF 3
ENDMDL
