MODEL 1
REMARK VINA RESULT:    -4.534      0.000      0.000
REMARK INTER + INTRA:          -4.815
REMARK INTER:                  -4.799
REMARK INTRA:                  -0.016
REMARK UNBOUND:                -0.016
REMARK SMILES O=C([O-])c1cccnc1
REMARK SMILES IDX 4 1 5 2 9 3 6 4 8 5 7 6 2 7 1 8 3 9
REMARK H PARENT
REMARK Flexibility Score: inf
ROOT
ATOM      1  C   UNL     1      -4.121  -6.282   6.363  1.00  0.00     0.016 A 
ATOM      2  C   UNL     1      -4.185  -5.655   7.618  1.00  0.00     0.013 A 
ATOM      3  C   UNL     1      -4.842  -5.719   5.296  1.00  0.00     0.120 A 
ATOM      4  C   UNL     1      -4.952  -4.501   7.785  1.00  0.00     0.021 A 
ATOM      5  N   UNL     1      -5.583  -4.594   5.486  1.00  0.00    -0.264 NA
ATOM      6  C   UNL     1      -5.651  -3.979   6.696  1.00  0.00     0.111 A 
ENDROOT
BRANCH   1   7
ATOM      7  C   UNL     1      -3.312  -7.506   6.173  1.00  0.00     0.073 C 
ATOM      8  O   UNL     1      -2.215  -7.460   5.555  1.00  0.00    -0.545 OA
ATOM      9  O   UNL     1      -3.753  -8.726   6.674  1.00  0.00    -0.545 OA
ENDBRANCH   1   7
TORSDOF 1
ENDMDL
MODEL 2
REMARK VINA RESULT:    -4.460      0.549      1.203
REMARK INTER + INTRA:          -4.737
REMARK INTER:                  -4.720
REMARK INTRA:                  -0.017
REMARK UNBOUND:                -0.016
REMARK SMILES O=C([O-])c1cccnc1
REMARK SMILES IDX 4 1 5 2 9 3 6 4 8 5 7 6 2 7 1 8 3 9
REMARK H PARENT
REMARK Flexibility Score: inf
ROOT
ATOM      1  C   UNL     1      -4.392  -5.838   6.504  1.00  0.00     0.016 A 
ATOM      2  C   UNL     1      -4.387  -5.176   7.743  1.00  0.00     0.013 A 
ATOM      3  C   UNL     1      -5.140  -5.281   5.452  1.00  0.00     0.120 A 
ATOM      4  C   UNL     1      -5.112  -3.995   7.909  1.00  0.00     0.021 A 
ATOM      5  N   UNL     1      -5.838  -4.129   5.640  1.00  0.00    -0.264 NA
ATOM      6  C   UNL     1      -5.839  -3.480   6.834  1.00  0.00     0.111 A 
ENDROOT
BRANCH   1   7
ATOM      7  C   UNL     1      -3.629  -7.090   6.315  1.00  0.00     0.073 C 
ATOM      8  O   UNL     1      -3.988  -8.153   6.890  1.00  0.00    -0.545 OA
ATOM      9  O   UNL     1      -2.503  -7.112   5.498  1.00  0.00    -0.545 OA
ENDBRANCH   1   7
TORSDOF 1
ENDMDL
MODEL 3
REMARK VINA RESULT:    -4.357      0.842      1.609
REMARK INTER + INTRA:          -4.628
REMARK INTER:                  -4.612
REMARK INTRA:                  -0.016
REMARK UNBOUND:                -0.016
REMARK SMILES O=C([O-])c1cccnc1
REMARK SMILES IDX 4 1 5 2 9 3 6 4 8 5 7 6 2 7 1 8 3 9
REMARK H PARENT
REMARK Flexibility Score: inf
ROOT
ATOM      1  C   UNL     1      -4.157  -6.375   6.239  1.00  0.00     0.016 A 
ATOM      2  C   UNL     1      -5.056  -6.113   5.192  1.00  0.00     0.013 A 
ATOM      3  C   UNL     1      -4.128  -5.492   7.331  1.00  0.00     0.120 A 
ATOM      4  C   UNL     1      -5.894  -4.998   5.251  1.00  0.00     0.021 A 
ATOM      5  N   UNL     1      -4.954  -4.412   7.364  1.00  0.00    -0.264 NA
ATOM      6  C   UNL     1      -5.829  -4.150   6.357  1.00  0.00     0.111 A 
ENDROOT
BRANCH   1   7
ATOM      7  C   UNL     1      -3.264  -7.553   6.188  1.00  0.00     0.073 C 
ATOM      8  O   UNL     1      -2.154  -7.491   5.596  1.00  0.00    -0.545 OA
ATOM      9  O   UNL     1      -3.639  -8.747   6.796  1.00  0.00    -0.545 OA
ENDBRANCH   1   7
TORSDOF 1
ENDMDL
MODEL 4
REMARK VINA RESULT:    -4.329      2.851      4.257
REMARK INTER + INTRA:          -4.598
REMARK INTER:                  -4.580
REMARK INTRA:                  -0.019
REMARK UNBOUND:                -0.016
REMARK SMILES O=C([O-])c1cccnc1
REMARK SMILES IDX 4 1 5 2 9 3 6 4 8 5 7 6 2 7 1 8 3 9
REMARK H PARENT
REMARK Flexibility Score: inf
ROOT
ATOM      1  C   UNL     1      -4.479  -6.888   5.343  1.00  0.00     0.016 A 
ATOM      2  C   UNL     1      -4.824  -7.996   4.552  1.00  0.00     0.013 A 
ATOM      3  C   UNL     1      -3.162  -6.794   5.825  1.00  0.00     0.120 A 
ATOM      4  C   UNL     1      -3.870  -8.972   4.261  1.00  0.00     0.021 A 
ATOM      5  N   UNL     1      -2.251  -7.759   5.527  1.00  0.00    -0.264 NA
ATOM      6  C   UNL     1      -2.575  -8.835   4.761  1.00  0.00     0.111 A 
ENDROOT
BRANCH   1   7
ATOM      7  C   UNL     1      -5.480  -5.846   5.660  1.00  0.00     0.073 C 
ATOM      8  O   UNL     1      -6.578  -6.154   6.197  1.00  0.00    -0.545 OA
ATOM      9  O   UNL     1      -5.223  -4.511   5.369  1.00  0.00    -0.545 OA
ENDBRANCH   1   7
TORSDOF 1
ENDMDL
MODEL 5
REMARK VINA RESULT:    -4.291     11.388     11.840
REMARK INTER + INTRA:          -4.559
REMARK INTER:                  -4.538
REMARK INTRA:                  -0.021
REMARK UNBOUND:                -0.016
REMARK SMILES O=C([O-])c1cccnc1
REMARK SMILES IDX 4 1 5 2 9 3 6 4 8 5 7 6 2 7 1 8 3 9
REMARK H PARENT
REMARK Flexibility Score: inf
ROOT
ATOM      1  C   UNL     1      -6.001  -3.717  -4.516  1.00  0.00     0.016 A 
ATOM      2  C   UNL     1      -6.916  -4.712  -4.135  1.00  0.00     0.013 A 
ATOM      3  C   UNL     1      -4.727  -4.114  -4.958  1.00  0.00     0.120 A 
ATOM      4  C   UNL     1      -6.554  -6.058  -4.201  1.00  0.00     0.021 A 
ATOM      5  N   UNL     1      -4.399  -5.433  -5.013  1.00  0.00    -0.264 NA
ATOM      6  C   UNL     1      -5.278  -6.404  -4.647  1.00  0.00     0.111 A 
ENDROOT
BRANCH   1   7
ATOM      7  C   UNL     1      -6.372  -2.287  -4.450  1.00  0.00     0.073 C 
ATOM      8  O   UNL     1      -5.528  -1.421  -4.093  1.00  0.00    -0.545 OA
ATOM      9  O   UNL     1      -7.659  -1.877  -4.783  1.00  0.00    -0.545 OA
ENDBRANCH   1   7
TORSDOF 1
ENDMDL
MODEL 6
REMARK VINA RESULT:    -4.277      1.913      2.488
REMARK INTER + INTRA:          -4.544
REMARK INTER:                  -4.525
REMARK INTRA:                  -0.019
REMARK UNBOUND:                -0.016
REMARK SMILES O=C([O-])c1cccnc1
REMARK SMILES IDX 4 1 5 2 9 3 6 4 8 5 7 6 2 7 1 8 3 9
REMARK H PARENT
REMARK Flexibility Score: inf
ROOT
ATOM      1  C   UNL     1      -5.280  -4.340   7.261  1.00  0.00     0.016 A 
ATOM      2  C   UNL     1      -5.370  -3.385   8.287  1.00  0.00     0.013 A 
ATOM      3  C   UNL     1      -6.002  -4.118   6.076  1.00  0.00     0.120 A 
ATOM      4  C   UNL     1      -6.163  -2.248   8.118  1.00  0.00     0.021 A 
ATOM      5  N   UNL     1      -6.768  -3.002   5.937  1.00  0.00    -0.264 NA
ATOM      6  C   UNL     1      -6.861  -2.072   6.923  1.00  0.00     0.111 A 
ENDROOT
BRANCH   1   7
ATOM      7  C   UNL     1      -4.444  -5.548   7.428  1.00  0.00     0.073 C 
ATOM      8  O   UNL     1      -3.673  -5.927   6.506  1.00  0.00    -0.545 OA
ATOM      9  O   UNL     1      -4.499  -6.285   8.607  1.00  0.00    -0.545 OA
ENDBRANCH   1   7
TORSDOF 1
ENDMDL
MODEL 7
REMARK VINA RESULT:    -4.149      2.695      3.973
REMARK INTER + INTRA:          -4.408
REMARK INTER:                  -4.391
REMARK INTRA:                  -0.016
REMARK UNBOUND:                -0.016
REMARK SMILES O=C([O-])c1cccnc1
REMARK SMILES IDX 4 1 5 2 9 3 6 4 8 5 7 6 2 7 1 8 3 9
REMARK H PARENT
REMARK Flexibility Score: inf
ROOT
ATOM      1  C   UNL     1      -4.470  -6.848   5.514  1.00  0.00     0.016 A 
ATOM      2  C   UNL     1      -3.144  -7.166   5.850  1.00  0.00     0.013 A 
ATOM      3  C   UNL     1      -5.134  -7.658   4.577  1.00  0.00     0.120 A 
ATOM      4  C   UNL     1      -2.516  -8.264   5.260  1.00  0.00     0.021 A 
ATOM      5  N   UNL     1      -4.499  -8.723   4.016  1.00  0.00    -0.264 NA
ATOM      6  C   UNL     1      -3.216  -9.039   4.336  1.00  0.00     0.111 A 
ENDROOT
BRANCH   1   7
ATOM      7  C   UNL     1      -5.147  -5.688   6.131  1.00  0.00     0.073 C 
ATOM      8  O   UNL     1      -5.668  -5.783   7.274  1.00  0.00    -0.545 OA
ATOM      9  O   UNL     1      -5.217  -4.473   5.457  1.00  0.00    -0.545 OA
ENDBRANCH   1   7
TORSDOF 1
ENDMDL
MODEL 8
REMARK VINA RESULT:    -4.122      3.462      4.177
REMARK INTER + INTRA:          -4.379
REMARK INTER:                  -4.357
REMARK INTRA:                  -0.022
REMARK UNBOUND:                -0.016
REMARK SMILES O=C([O-])c1cccnc1
REMARK SMILES IDX 4 1 5 2 9 3 6 4 8 5 7 6 2 7 1 8 3 9
REMARK H PARENT
REMARK Flexibility Score: inf
ROOT
ATOM      1  C   UNL     1      -5.527  -4.124   7.347  1.00  0.00     0.016 A 
ATOM      2  C   UNL     1      -4.938  -4.784   8.439  1.00  0.00     0.013 A 
ATOM      3  C   UNL     1      -5.689  -4.835   6.145  1.00  0.00     0.120 A 
ATOM      4  C   UNL     1      -4.531  -6.113   8.317  1.00  0.00     0.021 A 
ATOM      5  N   UNL     1      -5.283  -6.130   6.053  1.00  0.00    -0.264 NA
ATOM      6  C   UNL     1      -4.713  -6.777   7.104  1.00  0.00     0.111 A 
ENDROOT
BRANCH   1   7
ATOM      7  C   UNL     1      -5.963  -2.716   7.463  1.00  0.00     0.073 C 
ATOM      8  O   UNL     1      -6.043  -1.983   6.441  1.00  0.00    -0.545 OA
ATOM      9  O   UNL     1      -6.291  -2.180   8.704  1.00  0.00    -0.545 OA
ENDBRANCH   1   7
TORSDOF 1
ENDMDL
