MODEL 1
REMARK VINA RESULT:    12.117      0.000      0.000
REMARK INTER + INTRA:          13.910
REMARK INTER:                  13.888
REMARK INTRA:                   0.022
REMARK UNBOUND:                 0.022
REMARK SMILES C=C(C)[C@@H]1CC[C@]2(C(=O)[O-])CC[C@]3(C)[C@H](CC[C@@H]4[C@]5(C)CC[C@H](O)C(C)(C)[C@H]5CC[C@@]43C)[C@H]12
REMARK SMILES IDX 7 1 6 2 33 3 11 4 5 5 15 6 4 7 12 8 16 9 13 10 17 11 31 12
REMARK SMILES IDX 14 13 18 14 30 15 32 16 19 17 29 18 21 19 20 20 28 21 22 22
REMARK SMILES IDX 25 23 23 24 26 25 27 26 8 27 9 28 10 29 2 30 3 31 1 32 24 33
REMARK H PARENT 24 34
REMARK Flexibility Score: inf
ROOT
ATOM      1  C   UNL     1     -11.628  14.519 -32.755  1.00  0.00     0.014 C 
ATOM      2  C   UNL     1     -10.236  14.470 -33.443  1.00  0.00     0.014 C 
ATOM      3  C   UNL     1     -12.329  13.203 -33.193  1.00  0.00     0.012 C 
ATOM      4  C   UNL     1     -11.480  14.593 -31.215  1.00  0.00     0.014 C 
ATOM      5  C   UNL     1     -10.175  13.201 -34.297  1.00  0.00     0.009 C 
ATOM      6  C   UNL     1     -13.527  12.749 -32.275  1.00  0.00     0.000 C 
ATOM      7  C   UNL     1     -11.246  12.242 -33.766  1.00  0.00     0.018 C 
ATOM      8  C   UNL     1     -12.816  14.364 -30.482  1.00  0.00     0.008 C 
ATOM      9  C   UNL     1     -14.117  11.394 -32.636  1.00  0.00     0.005 C 
ATOM     10  C   UNL     1     -13.426  12.937 -30.719  1.00  0.00    -0.024 C 
ATOM     11  C   UNL     1     -15.538  11.307 -32.101  1.00  0.00     0.005 C 
ATOM     12  C   UNL     1     -14.893  12.757 -30.019  1.00  0.00    -0.024 C 
ATOM     13  C   UNL     1     -12.444  11.892 -30.105  1.00  0.00     0.012 C 
ATOM     14  C   UNL     1     -15.624  11.413 -30.530  1.00  0.00     0.002 C 
ATOM     15  C   UNL     1     -15.842  13.971 -30.319  1.00  0.00     0.008 C 
ATOM     16  C   UNL     1     -14.666  12.717 -28.466  1.00  0.00     0.012 C 
ATOM     17  C   UNL     1     -17.132  11.215 -30.000  1.00  0.00    -0.026 C 
ATOM     18  C   UNL     1     -17.303  13.799 -29.857  1.00  0.00     0.005 C 
ATOM     19  C   UNL     1     -17.791   9.901 -30.603  1.00  0.00     0.010 C 
ATOM     20  C   UNL     1     -17.160  10.984 -28.452  1.00  0.00     0.012 C 
ATOM     21  C   UNL     1     -17.963  12.501 -30.390  1.00  0.00     0.003 C 
ATOM     22  C   UNL     1     -19.157  10.129 -31.257  1.00  0.00     0.033 C 
ATOM     23  C   UNL     1     -19.536  12.420 -30.161  1.00  0.00    -0.006 C 
ATOM     24  C   UNL     1     -20.053  10.943 -30.314  1.00  0.00     0.120 C 
ATOM     25  C   UNL     1     -20.236  13.324 -31.220  1.00  0.00     0.014 C 
ATOM     26  C   UNL     1     -19.962  12.947 -28.768  1.00  0.00     0.014 C 
ENDROOT
BRANCH   1  27
ATOM     27  C   UNL     1     -12.375  15.770 -33.219  1.00  0.00     0.048 C 
ATOM     28  O   UNL     1     -13.444  16.141 -32.664  1.00  0.00    -0.550 OA
ATOM     29  O   UNL     1     -11.829  16.569 -34.217  1.00  0.00    -0.550 OA
ENDBRANCH   1  27
BRANCH   7  30
ATOM     30  C   UNL     1     -10.655  11.138 -32.880  1.00  0.00    -0.077 C 
ATOM     31  C   UNL     1      -9.875  11.432 -31.617  1.00  0.00     0.039 C 
ATOM     32  C   UNL     1     -10.620   9.875 -33.339  1.00  0.00     0.008 C 
ENDBRANCH   7  30
BRANCH  24  33
ATOM     33  O   UNL     1     -21.382  10.910 -30.776  1.00  0.00    -0.393 OA
ATOM     34  H   UNL     1     -21.526  10.019 -31.192  1.00  0.00     0.210 HD
ENDBRANCH  24  33
TORSDOF 3
ENDMDL
MODEL 2
REMARK VINA RESULT:    14.099      1.730      2.452
REMARK INTER + INTRA:          16.181
REMARK INTER:                  15.849
REMARK INTRA:                   0.332
REMARK UNBOUND:                 0.022
REMARK SMILES C=C(C)[C@@H]1CC[C@]2(C(=O)[O-])CC[C@]3(C)[C@H](CC[C@@H]4[C@]5(C)CC[C@H](O)C(C)(C)[C@H]5CC[C@@]43C)[C@H]12
REMARK SMILES IDX 7 1 6 2 33 3 11 4 5 5 15 6 4 7 12 8 16 9 13 10 17 11 31 12
REMARK SMILES IDX 14 13 18 14 30 15 32 16 19 17 29 18 21 19 20 20 28 21 22 22
REMARK SMILES IDX 25 23 23 24 26 25 27 26 8 27 9 28 10 29 2 30 3 31 1 32 24 33
REMARK H PARENT 24 34
REMARK Flexibility Score: inf
ROOT
ATOM      1  C   UNL     1     -11.953  12.574 -34.099  1.00  0.00     0.014 C 
ATOM      2  C   UNL     1     -10.480  12.404 -34.562  1.00  0.00     0.014 C 
ATOM      3  C   UNL     1     -12.144  11.497 -32.993  1.00  0.00     0.012 C 
ATOM      4  C   UNL     1     -12.196  13.999 -33.544  1.00  0.00     0.014 C 
ATOM      5  C   UNL     1      -9.876  11.226 -33.794  1.00  0.00     0.009 C 
ATOM      6  C   UNL     1     -13.352  11.755 -32.014  1.00  0.00     0.000 C 
ATOM      7  C   UNL     1     -10.736  11.006 -32.544  1.00  0.00     0.018 C 
ATOM      8  C   UNL     1     -13.551  14.129 -32.822  1.00  0.00     0.008 C 
ATOM      9  C   UNL     1     -13.445  10.768 -30.860  1.00  0.00     0.005 C 
ATOM     10  C   UNL     1     -13.672  13.219 -31.548  1.00  0.00    -0.024 C 
ATOM     11  C   UNL     1     -14.873  10.747 -30.333  1.00  0.00     0.005 C 
ATOM     12  C   UNL     1     -15.155  13.295 -30.862  1.00  0.00    -0.024 C 
ATOM     13  C   UNL     1     -12.614  13.708 -30.511  1.00  0.00     0.012 C 
ATOM     14  C   UNL     1     -15.349  12.136 -29.758  1.00  0.00     0.002 C 
ATOM     15  C   UNL     1     -16.304  13.152 -31.924  1.00  0.00     0.008 C 
ATOM     16  C   UNL     1     -15.297  14.717 -30.212  1.00  0.00     0.012 C 
ATOM     17  C   UNL     1     -16.826  12.042 -29.121  1.00  0.00    -0.026 C 
ATOM     18  C   UNL     1     -17.728  13.024 -31.346  1.00  0.00     0.005 C 
ATOM     19  C   UNL     1     -16.939  10.834 -28.093  1.00  0.00     0.010 C 
ATOM     20  C   UNL     1     -17.150  13.309 -28.262  1.00  0.00     0.012 C 
ATOM     21  C   UNL     1     -17.862  11.884 -30.303  1.00  0.00     0.003 C 
ATOM     22  C   UNL     1     -18.122   9.899 -28.355  1.00  0.00     0.033 C 
ATOM     23  C   UNL     1     -19.361  11.547 -29.886  1.00  0.00    -0.006 C 
ATOM     24  C   UNL     1     -19.403  10.723 -28.547  1.00  0.00     0.120 C 
ATOM     25  C   UNL     1     -20.014  10.709 -31.026  1.00  0.00     0.014 C 
ATOM     26  C   UNL     1     -20.229  12.817 -29.707  1.00  0.00     0.014 C 
ENDROOT
BRANCH   1  27
ATOM     27  C   UNL     1     -12.885  12.365 -35.293  1.00  0.00     0.048 C 
ATOM     28  O   UNL     1     -12.547  11.653 -36.276  1.00  0.00    -0.550 OA
ATOM     29  O   UNL     1     -14.169  12.899 -35.267  1.00  0.00    -0.550 OA
ENDBRANCH   1  27
BRANCH   7  30
ATOM     30  C   UNL     1     -10.089  11.586 -31.280  1.00  0.00    -0.077 C 
ATOM     31  C   UNL     1      -9.909  10.782 -30.011  1.00  0.00     0.039 C 
ATOM     32  C   UNL     1      -9.875  12.910 -31.199  1.00  0.00     0.008 C 
ENDBRANCH   7  30
BRANCH  24  33
ATOM     33  O   UNL     1     -20.524   9.875 -28.500  1.00  0.00    -0.393 OA
ATOM     34  H   UNL     1     -20.187   8.941 -28.513  1.00  0.00     0.210 HD
ENDBRANCH  24  33
TORSDOF 3
ENDMDL
MODEL 3
REMARK VINA RESULT:    14.626      9.358     13.245
REMARK INTER + INTRA:          16.785
REMARK INTER:                  17.246
REMARK INTRA:                  -0.461
REMARK UNBOUND:                 0.022
REMARK SMILES C=C(C)[C@@H]1CC[C@]2(C(=O)[O-])CC[C@]3(C)[C@H](CC[C@@H]4[C@]5(C)CC[C@H](O)C(C)(C)[C@H]5CC[C@@]43C)[C@H]12
REMARK SMILES IDX 7 1 6 2 33 3 11 4 5 5 15 6 4 7 12 8 16 9 13 10 17 11 31 12
REMARK SMILES IDX 14 13 18 14 30 15 32 16 19 17 29 18 21 19 20 20 28 21 22 22
REMARK SMILES IDX 25 23 23 24 26 25 27 26 8 27 9 28 10 29 2 30 3 31 1 32 24 33
REMARK H PARENT 24 34
REMARK Flexibility Score: inf
ROOT
ATOM      1  C   UNL     1     -24.523  12.058 -30.189  1.00  0.00     0.014 C 
ATOM      2  C   UNL     1     -24.632  10.580 -29.723  1.00  0.00     0.014 C 
ATOM      3  C   UNL     1     -25.739  12.262 -31.137  1.00  0.00     0.012 C 
ATOM      4  C   UNL     1     -24.585  13.024 -28.980  1.00  0.00     0.014 C 
ATOM      5  C   UNL     1     -25.830   9.947 -30.435  1.00  0.00     0.009 C 
ATOM      6  C   UNL     1     -26.164  13.763 -31.362  1.00  0.00     0.000 C 
ATOM      7  C   UNL     1     -26.738  11.089 -30.906  1.00  0.00     0.018 C 
ATOM      8  C   UNL     1     -24.759  14.494 -29.407  1.00  0.00     0.008 C 
ATOM      9  C   UNL     1     -27.433  13.940 -32.182  1.00  0.00     0.005 C 
ATOM     10  C   UNL     1     -26.108  14.772 -30.160  1.00  0.00    -0.024 C 
ATOM     11  C   UNL     1     -27.444  15.334 -32.792  1.00  0.00     0.005 C 
ATOM     12  C   UNL     1     -26.222  16.313 -30.696  1.00  0.00    -0.024 C 
ATOM     13  C   UNL     1     -27.277  14.499 -29.163  1.00  0.00     0.012 C 
ATOM     14  C   UNL     1     -27.457  16.488 -31.718  1.00  0.00     0.002 C 
ATOM     15  C   UNL     1     -24.914  16.781 -31.427  1.00  0.00     0.008 C 
ATOM     16  C   UNL     1     -26.404  17.232 -29.436  1.00  0.00     0.012 C 
ATOM     17  C   UNL     1     -27.571  17.941 -32.406  1.00  0.00    -0.026 C 
ATOM     18  C   UNL     1     -25.001  18.153 -32.127  1.00  0.00     0.005 C 
ATOM     19  C   UNL     1     -28.775  17.999 -33.442  1.00  0.00     0.010 C 
ATOM     20  C   UNL     1     -27.921  19.039 -31.347  1.00  0.00     0.012 C 
ATOM     21  C   UNL     1     -26.194  18.260 -33.112  1.00  0.00     0.003 C 
ATOM     22  C   UNL     1     -28.384  18.523 -34.826  1.00  0.00     0.033 C 
ATOM     23  C   UNL     1     -26.163  19.549 -34.045  1.00  0.00    -0.006 C 
ATOM     24  C   UNL     1     -27.576  19.820 -34.681  1.00  0.00     0.120 C 
ATOM     25  C   UNL     1     -25.124  19.311 -35.182  1.00  0.00     0.014 C 
ATOM     26  C   UNL     1     -25.715  20.823 -33.285  1.00  0.00     0.014 C 
ENDROOT
BRANCH   1  27
ATOM     27  C   UNL     1     -23.183  12.267 -30.895  1.00  0.00     0.048 C 
ATOM     28  O   UNL     1     -22.942  13.313 -31.554  1.00  0.00    -0.550 OA
ATOM     29  O   UNL     1     -22.169  11.327 -30.741  1.00  0.00    -0.550 OA
ENDBRANCH   1  27
BRANCH   7  30
ATOM     30  C   UNL     1     -27.953  11.286 -29.992  1.00  0.00    -0.077 C 
ATOM     31  C   UNL     1     -27.896  11.063 -28.496  1.00  0.00     0.039 C 
ATOM     32  C   UNL     1     -29.170  11.440 -30.540  1.00  0.00     0.008 C 
ENDBRANCH   7  30
BRANCH  24  33
ATOM     33  O   UNL     1     -27.464  20.452 -35.933  1.00  0.00    -0.393 OA
ATOM     34  H   UNL     1     -26.590  20.924 -35.946  1.00  0.00     0.210 HD
ENDBRANCH  24  33
TORSDOF 3
ENDMDL
MODEL 4
REMARK VINA RESULT:    14.792      3.868      6.536
REMARK INTER + INTRA:          16.975
REMARK INTER:                  17.248
REMARK INTRA:                  -0.272
REMARK UNBOUND:                 0.022
REMARK SMILES C=C(C)[C@@H]1CC[C@]2(C(=O)[O-])CC[C@]3(C)[C@H](CC[C@@H]4[C@]5(C)CC[C@H](O)C(C)(C)[C@H]5CC[C@@]43C)[C@H]12
REMARK SMILES IDX 7 1 6 2 33 3 11 4 5 5 15 6 4 7 12 8 16 9 13 10 17 11 31 12
REMARK SMILES IDX 14 13 18 14 30 15 32 16 19 17 29 18 21 19 20 20 28 21 22 22
REMARK SMILES IDX 25 23 23 24 26 25 27 26 8 27 9 28 10 29 2 30 3 31 1 32 24 33
REMARK H PARENT 24 34
REMARK Flexibility Score: inf
ROOT
ATOM      1  C   UNL     1     -15.814  11.194 -28.244  1.00  0.00     0.014 C 
ATOM      2  C   UNL     1     -14.336  11.669 -28.183  1.00  0.00     0.014 C 
ATOM      3  C   UNL     1     -16.634  12.490 -28.502  1.00  0.00     0.012 C 
ATOM      4  C   UNL     1     -16.016  10.165 -29.384  1.00  0.00     0.014 C 
ATOM      5  C   UNL     1     -14.324  13.193 -28.333  1.00  0.00     0.009 C 
ATOM      6  C   UNL     1     -18.076  12.259 -29.095  1.00  0.00     0.000 C 
ATOM      7  C   UNL     1     -15.652  13.599 -28.982  1.00  0.00     0.018 C 
ATOM      8  C   UNL     1     -17.503   9.876 -29.662  1.00  0.00     0.008 C 
ATOM      9  C   UNL     1     -18.814  13.536 -29.465  1.00  0.00     0.005 C 
ATOM     10  C   UNL     1     -18.303  11.131 -30.162  1.00  0.00    -0.024 C 
ATOM     11  C   UNL     1     -20.310  13.262 -29.487  1.00  0.00     0.005 C 
ATOM     12  C   UNL     1     -19.899  10.825 -30.348  1.00  0.00    -0.024 C 
ATOM     13  C   UNL     1     -17.709  11.555 -31.541  1.00  0.00     0.012 C 
ATOM     14  C   UNL     1     -20.735  12.187 -30.560  1.00  0.00     0.002 C 
ATOM     15  C   UNL     1     -20.502  10.070 -29.110  1.00  0.00     0.008 C 
ATOM     16  C   UNL     1     -20.050   9.875 -31.590  1.00  0.00     0.012 C 
ATOM     17  C   UNL     1     -22.335  12.002 -30.618  1.00  0.00    -0.026 C 
ATOM     18  C   UNL     1     -22.036   9.908 -29.116  1.00  0.00     0.005 C 
ATOM     19  C   UNL     1     -23.075  13.401 -30.764  1.00  0.00     0.010 C 
ATOM     20  C   UNL     1     -22.763  11.204 -31.894  1.00  0.00     0.012 C 
ATOM     21  C   UNL     1     -22.790  11.250 -29.305  1.00  0.00     0.003 C 
ATOM     22  C   UNL     1     -24.183  13.634 -29.733  1.00  0.00     0.033 C 
ATOM     23  C   UNL     1     -24.359  11.164 -29.051  1.00  0.00    -0.006 C 
ATOM     24  C   UNL     1     -25.100  12.405 -29.671  1.00  0.00     0.120 C 
ATOM     25  C   UNL     1     -24.609  11.131 -27.513  1.00  0.00     0.014 C 
ATOM     26  C   UNL     1     -24.988   9.875 -29.636  1.00  0.00     0.014 C 
ENDROOT
BRANCH   1  27
ATOM     27  C   UNL     1     -16.180  10.516 -26.924  1.00  0.00     0.048 C 
ATOM     28  O   UNL     1     -17.380  10.303 -26.603  1.00  0.00    -0.550 OA
ATOM     29  O   UNL     1     -15.173  10.042 -26.089  1.00  0.00    -0.550 OA
ENDBRANCH   1  27
BRANCH   7  30
ATOM     30  C   UNL     1     -15.504  13.896 -30.479  1.00  0.00    -0.077 C 
ATOM     31  C   UNL     1     -14.862  12.926 -31.447  1.00  0.00     0.039 C 
ATOM     32  C   UNL     1     -15.739  15.141 -30.928  1.00  0.00     0.008 C 
ENDBRANCH   7  30
BRANCH  24  33
ATOM     33  O   UNL     1     -26.267  12.720 -28.950  1.00  0.00    -0.393 OA
ATOM     34  H   UNL     1     -26.634  13.558 -29.337  1.00  0.00     0.210 HD
ENDBRANCH  24  33
TORSDOF 3
ENDMDL
