MODEL 1
REMARK VINA RESULT:    -3.680      0.000      0.000
REMARK INTER + INTRA:          -9.690
REMARK INTER:                  -7.123
REMARK INTRA:                  -2.567
REMARK UNBOUND:                -2.567
REMARK SMILES CCCCCCCCCCCCCCCCCC(=O)[O-]
REMARK SMILES IDX 10 1 11 2 12 3 13 4 14 5 15 6 16 7 17 8 18 9 19 10 20 11
REMARK SMILES IDX 9 12 8 13 7 14 6 15 5 16 4 17 3 18 2 19 1 20
REMARK H PARENT
REMARK Flexibility Score: inf
ROOT
ATOM      1  C   UNL     1      28.941 160.252 117.446  1.00  0.00     0.000 C 
ENDROOT
BRANCH   1   2
ATOM      2  C   UNL     1      29.007 160.520 118.960  1.00  0.00     0.000 C 
BRANCH   2   3
ATOM      3  C   UNL     1      28.736 159.259 119.802  1.00  0.00     0.000 C 
BRANCH   3   4
ATOM      4  C   UNL     1      29.109 159.369 121.295  1.00  0.00     0.000 C 
BRANCH   4   5
ATOM      5  C   UNL     1      29.227 158.029 122.045  1.00  0.00     0.000 C 
BRANCH   5   6
ATOM      6  C   UNL     1      30.529 157.276 121.720  1.00  0.00     0.000 C 
BRANCH   6   7
ATOM      7  C   UNL     1      31.740 158.215 121.599  1.00  0.00     0.006 C 
BRANCH   7   8
ATOM      8  C   UNL     1      32.424 158.128 120.227  1.00  0.00     0.053 C 
BRANCH   8   9
ATOM      9  C   UNL     1      32.465 159.473 119.572  1.00  0.00     0.041 C 
ATOM     10  O   UNL     1      32.611 159.564 118.323  1.00  0.00    -0.550 OA
ATOM     11  O   UNL     1      32.325 160.627 120.334  1.00  0.00    -0.550 OA
ENDBRANCH   8   9
ENDBRANCH   7   8
ENDBRANCH   6   7
ENDBRANCH   5   6
ENDBRANCH   4   5
ENDBRANCH   3   4
ENDBRANCH   2   3
ENDBRANCH   1   2
BRANCH   1  12
ATOM     12  C   UNL     1      27.636 160.762 116.810  1.00  0.00     0.000 C 
BRANCH  12  13
ATOM     13  C   UNL     1      26.759 159.620 116.266  1.00  0.00    -0.000 C 
BRANCH  13  14
ATOM     14  C   UNL     1      25.886 158.975 117.355  1.00  0.00    -0.000 C 
BRANCH  14  15
ATOM     15  C   UNL     1      25.362 159.997 118.378  1.00  0.00    -0.000 C 
BRANCH  15  16
ATOM     16  C   UNL     1      25.133 159.335 119.742  1.00  0.00    -0.000 C 
BRANCH  16  17
ATOM     17  C   UNL     1      25.326 157.814 119.657  1.00  0.00    -0.000 C 
BRANCH  17  18
ATOM     18  C   UNL     1      25.787 157.194 120.990  1.00  0.00    -0.000 C 
BRANCH  18  19
ATOM     19  C   UNL     1      26.462 155.816 120.861  1.00  0.00    -0.003 C 
ATOM     20  C   UNL     1      26.129 155.109 119.547  1.00  0.00     0.004 C 
ENDBRANCH  18  19
ENDBRANCH  17  18
ENDBRANCH  16  17
ENDBRANCH  15  16
ENDBRANCH  14  15
ENDBRANCH  13  14
ENDBRANCH  12  13
ENDBRANCH   1  12
TORSDOF 16
ENDMDL
MODEL 2
REMARK VINA RESULT:    -3.639      2.588      5.866
REMARK INTER + INTRA:          -9.609
REMARK INTER:                  -6.871
REMARK INTRA:                  -2.738
REMARK UNBOUND:                -2.567
REMARK SMILES CCCCCCCCCCCCCCCCCC(=O)[O-]
REMARK SMILES IDX 10 1 11 2 12 3 13 4 14 5 15 6 16 7 17 8 18 9 19 10 20 11
REMARK SMILES IDX 9 12 8 13 7 14 6 15 5 16 4 17 3 18 2 19 1 20
REMARK H PARENT
REMARK Flexibility Score: inf
ROOT
ATOM      1  C   UNL     1      29.268 160.238 117.761  1.00  0.00     0.000 C 
ENDROOT
BRANCH   1   2
ATOM      2  C   UNL     1      28.169 160.274 116.685  1.00  0.00     0.000 C 
BRANCH   2   3
ATOM      3  C   UNL     1      27.086 161.331 116.972  1.00  0.00     0.000 C 
BRANCH   3   4
ATOM      4  C   UNL     1      25.697 160.768 117.338  1.00  0.00     0.000 C 
BRANCH   4   5
ATOM      5  C   UNL     1      25.701 159.366 117.975  1.00  0.00     0.000 C 
BRANCH   5   6
ATOM      6  C   UNL     1      25.388 159.394 119.482  1.00  0.00     0.000 C 
BRANCH   6   7
ATOM      7  C   UNL     1      25.131 157.992 120.058  1.00  0.00     0.006 C 
BRANCH   7   8
ATOM      8  C   UNL     1      25.647 156.870 119.144  1.00  0.00     0.053 C 
BRANCH   8   9
ATOM      9  C   UNL     1      26.177 155.730 119.956  1.00  0.00     0.041 C 
ATOM     10  O   UNL     1      26.285 154.584 119.443  1.00  0.00    -0.550 OA
ATOM     11  O   UNL     1      26.569 155.933 121.275  1.00  0.00    -0.550 OA
ENDBRANCH   8   9
ENDBRANCH   7   8
ENDBRANCH   6   7
ENDBRANCH   5   6
ENDBRANCH   4   5
ENDBRANCH   3   4
ENDBRANCH   2   3
ENDBRANCH   1   2
BRANCH   1  12
ATOM     12  C   UNL     1      29.075 161.317 118.842  1.00  0.00     0.000 C 
BRANCH  12  13
ATOM     13  C   UNL     1      28.845 160.717 120.240  1.00  0.00    -0.000 C 
BRANCH  13  14
ATOM     14  C   UNL     1      28.723 159.184 120.212  1.00  0.00    -0.000 C 
BRANCH  14  15
ATOM     15  C   UNL     1      28.889 158.551 121.603  1.00  0.00    -0.000 C 
BRANCH  15  16
ATOM     16  C   UNL     1      29.938 157.433 121.572  1.00  0.00    -0.000 C 
BRANCH  16  17
ATOM     17  C   UNL     1      31.346 157.992 121.825  1.00  0.00    -0.000 C 
BRANCH  17  18
ATOM     18  C   UNL     1      32.268 157.868 120.596  1.00  0.00    -0.000 C 
BRANCH  18  19
ATOM     19  C   UNL     1      32.343 159.130 119.717  1.00  0.00    -0.003 C 
ATOM     20  C   UNL     1      32.598 160.404 120.522  1.00  0.00     0.004 C 
ENDBRANCH  18  19
ENDBRANCH  17  18
ENDBRANCH  16  17
ENDBRANCH  15  16
ENDBRANCH  14  15
ENDBRANCH  13  14
ENDBRANCH  12  13
ENDBRANCH   1  12
TORSDOF 16
ENDMDL
MODEL 3
REMARK VINA RESULT:    -3.564      2.768      5.653
REMARK INTER + INTRA:          -9.465
REMARK INTER:                  -7.097
REMARK INTRA:                  -2.368
REMARK UNBOUND:                -2.567
REMARK SMILES CCCCCCCCCCCCCCCCCC(=O)[O-]
REMARK SMILES IDX 10 1 11 2 12 3 13 4 14 5 15 6 16 7 17 8 18 9 19 10 20 11
REMARK SMILES IDX 9 12 8 13 7 14 6 15 5 16 4 17 3 18 2 19 1 20
REMARK H PARENT
REMARK Flexibility Score: inf
ROOT
ATOM      1  C   UNL     1      32.458 158.097 120.478  1.00  0.00     0.000 C 
ENDROOT
BRANCH   1   2
ATOM      2  C   UNL     1      31.364 157.650 121.464  1.00  0.00     0.000 C 
BRANCH   2   3
ATOM      3  C   UNL     1      30.411 158.794 121.856  1.00  0.00     0.000 C 
BRANCH   3   4
ATOM      4  C   UNL     1      29.089 158.852 121.063  1.00  0.00     0.000 C 
BRANCH   4   5
ATOM      5  C   UNL     1      27.841 158.367 121.826  1.00  0.00     0.000 C 
BRANCH   5   6
ATOM      6  C   UNL     1      27.775 156.835 121.949  1.00  0.00     0.000 C 
BRANCH   6   7
ATOM      7  C   UNL     1      26.393 156.272 121.580  1.00  0.00     0.006 C 
BRANCH   7   8
ATOM      8  C   UNL     1      25.772 156.971 120.361  1.00  0.00     0.053 C 
BRANCH   8   9
ATOM      9  C   UNL     1      25.814 156.077 119.162  1.00  0.00     0.041 C 
ATOM     10  O   UNL     1      26.193 154.881 119.277  1.00  0.00    -0.550 OA
ATOM     11  O   UNL     1      25.418 156.557 117.918  1.00  0.00    -0.550 OA
ENDBRANCH   8   9
ENDBRANCH   7   8
ENDBRANCH   6   7
ENDBRANCH   5   6
ENDBRANCH   4   5
ENDBRANCH   3   4
ENDBRANCH   2   3
ENDBRANCH   1   2
BRANCH   1  12
ATOM     12  C   UNL     1      33.006 159.499 120.795  1.00  0.00     0.000 C 
BRANCH  12  13
ATOM     13  C   UNL     1      32.742 160.507 119.663  1.00  0.00    -0.000 C 
BRANCH  13  14
ATOM     14  C   UNL     1      32.352 159.822 118.342  1.00  0.00    -0.000 C 
BRANCH  14  15
ATOM     15  C   UNL     1      30.910 160.139 117.912  1.00  0.00    -0.000 C 
BRANCH  15  16
ATOM     16  C   UNL     1      30.345 161.313 118.720  1.00  0.00    -0.000 C 
BRANCH  16  17
ATOM     17  C   UNL     1      28.845 161.500 118.444  1.00  0.00    -0.000 C 
BRANCH  17  18
ATOM     18  C   UNL     1      28.292 160.485 117.427  1.00  0.00    -0.000 C 
BRANCH  18  19
ATOM     19  C   UNL     1      27.270 159.487 118.002  1.00  0.00    -0.003 C 
ATOM     20  C   UNL     1      25.959 160.152 118.424  1.00  0.00     0.004 C 
ENDBRANCH  18  19
ENDBRANCH  17  18
ENDBRANCH  16  17
ENDBRANCH  15  16
ENDBRANCH  14  15
ENDBRANCH  13  14
ENDBRANCH  12  13
ENDBRANCH   1  12
TORSDOF 16
ENDMDL
MODEL 4
REMARK VINA RESULT:    -3.475      2.434      5.029
REMARK INTER + INTRA:          -9.293
REMARK INTER:                  -7.127
REMARK INTRA:                  -2.167
REMARK UNBOUND:                -2.567
REMARK SMILES CCCCCCCCCCCCCCCCCC(=O)[O-]
REMARK SMILES IDX 10 1 11 2 12 3 13 4 14 5 15 6 16 7 17 8 18 9 19 10 20 11
REMARK SMILES IDX 9 12 8 13 7 14 6 15 5 16 4 17 3 18 2 19 1 20
REMARK H PARENT
REMARK Flexibility Score: inf
ROOT
ATOM      1  C   UNL     1      32.453 157.931 120.273  1.00  0.00     0.000 C 
ENDROOT
BRANCH   1   2
ATOM      2  C   UNL     1      32.615 159.437 119.999  1.00  0.00     0.000 C 
BRANCH   2   3
ATOM      3  C   UNL     1      32.474 159.791 118.507  1.00  0.00     0.000 C 
BRANCH   3   4
ATOM      4  C   UNL     1      31.453 160.902 118.186  1.00  0.00     0.000 C 
BRANCH   4   5
ATOM      5  C   UNL     1      29.977 160.459 118.180  1.00  0.00     0.000 C 
BRANCH   5   6
ATOM      6  C   UNL     1      29.033 161.521 118.771  1.00  0.00     0.000 C 
BRANCH   6   7
ATOM      7  C   UNL     1      27.552 161.206 118.508  1.00  0.00     0.006 C 
BRANCH   7   8
ATOM      8  C   UNL     1      27.279 159.702 118.366  1.00  0.00     0.053 C 
BRANCH   8   9
ATOM      9  C   UNL     1      26.443 159.428 117.156  1.00  0.00     0.041 C 
ATOM     10  O   UNL     1      25.260 159.014 117.285  1.00  0.00    -0.550 OA
ATOM     11  O   UNL     1      26.961 159.646 115.884  1.00  0.00    -0.550 OA
ENDBRANCH   8   9
ENDBRANCH   7   8
ENDBRANCH   6   7
ENDBRANCH   5   6
ENDBRANCH   4   5
ENDBRANCH   3   4
ENDBRANCH   2   3
ENDBRANCH   1   2
BRANCH   1  12
ATOM     12  C   UNL     1      31.390 157.634 121.344  1.00  0.00     0.000 C 
BRANCH  12  13
ATOM     13  C   UNL     1      30.758 158.913 121.920  1.00  0.00    -0.000 C 
BRANCH  13  14
ATOM     14  C   UNL     1      29.303 159.111 121.464  1.00  0.00    -0.000 C 
BRANCH  14  15
ATOM     15  C   UNL     1      28.490 157.806 121.491  1.00  0.00    -0.000 C 
BRANCH  15  16
ATOM     16  C   UNL     1      27.043 158.073 121.926  1.00  0.00    -0.000 C 
BRANCH  16  17
ATOM     17  C   UNL     1      26.129 156.899 121.546  1.00  0.00    -0.000 C 
BRANCH  17  18
ATOM     18  C   UNL     1      25.337 157.152 120.249  1.00  0.00    -0.000 C 
BRANCH  18  19
ATOM     19  C   UNL     1      25.651 156.175 119.101  1.00  0.00    -0.003 C 
ATOM     20  C   UNL     1      26.279 154.867 119.585  1.00  0.00     0.004 C 
ENDBRANCH  18  19
ENDBRANCH  17  18
ENDBRANCH  16  17
ENDBRANCH  15  16
ENDBRANCH  14  15
ENDBRANCH  13  14
ENDBRANCH  12  13
ENDBRANCH   1  12
TORSDOF 16
ENDMDL
MODEL 5
REMARK VINA RESULT:    -3.441      1.655      2.972
REMARK INTER + INTRA:          -9.227
REMARK INTER:                  -6.873
REMARK INTRA:                  -2.354
REMARK UNBOUND:                -2.567
REMARK SMILES CCCCCCCCCCCCCCCCCC(=O)[O-]
REMARK SMILES IDX 10 1 11 2 12 3 13 4 14 5 15 6 16 7 17 8 18 9 19 10 20 11
REMARK SMILES IDX 9 12 8 13 7 14 6 15 5 16 4 17 3 18 2 19 1 20
REMARK H PARENT
REMARK Flexibility Score: inf
ROOT
ATOM      1  C   UNL     1      26.390 159.498 116.872  1.00  0.00     0.000 C 
ENDROOT
BRANCH   1   2
ATOM      2  C   UNL     1      27.614 160.335 116.458  1.00  0.00     0.000 C 
BRANCH   2   3
ATOM      3  C   UNL     1      28.770 160.243 117.471  1.00  0.00     0.000 C 
BRANCH   3   4
ATOM      4  C   UNL     1      28.938 161.468 118.394  1.00  0.00     0.000 C 
BRANCH   4   5
ATOM      5  C   UNL     1      30.376 161.739 118.875  1.00  0.00     0.000 C 
BRANCH   5   6
ATOM      6  C   UNL     1      31.296 160.514 118.725  1.00  0.00     0.000 C 
BRANCH   6   7
ATOM      7  C   UNL     1      32.025 160.160 120.031  1.00  0.00     0.006 C 
BRANCH   7   8
ATOM      8  C   UNL     1      31.191 159.256 120.951  1.00  0.00     0.053 C 
BRANCH   8   9
ATOM      9  C   UNL     1      31.651 157.835 120.853  1.00  0.00     0.041 C 
ATOM     10  O   UNL     1      32.767 157.566 120.333  1.00  0.00    -0.550 OA
ATOM     11  O   UNL     1      30.857 156.808 121.350  1.00  0.00    -0.550 OA
ENDBRANCH   8   9
ENDBRANCH   7   8
ENDBRANCH   6   7
ENDBRANCH   5   6
ENDBRANCH   4   5
ENDBRANCH   3   4
ENDBRANCH   2   3
ENDBRANCH   1   2
BRANCH   1  12
ATOM     12  C   UNL     1      25.384 160.298 117.718  1.00  0.00     0.000 C 
BRANCH  12  13
ATOM     13  C   UNL     1      25.288 159.782 119.164  1.00  0.00    -0.000 C 
BRANCH  13  14
ATOM     14  C   UNL     1      25.839 160.789 120.188  1.00  0.00    -0.000 C 
BRANCH  14  15
ATOM     15  C   UNL     1      26.912 160.178 121.103  1.00  0.00    -0.000 C 
BRANCH  15  16
ATOM     16  C   UNL     1      27.368 158.812 120.575  1.00  0.00    -0.000 C 
BRANCH  16  17
ATOM     17  C   UNL     1      27.554 157.810 121.724  1.00  0.00    -0.000 C 
BRANCH  17  18
ATOM     18  C   UNL     1      26.940 156.430 121.421  1.00  0.00    -0.000 C 
BRANCH  18  19
ATOM     19  C   UNL     1      26.088 156.371 120.140  1.00  0.00    -0.003 C 
ATOM     20  C   UNL     1      26.126 155.002 119.460  1.00  0.00     0.004 C 
ENDBRANCH  18  19
ENDBRANCH  17  18
ENDBRANCH  16  17
ENDBRANCH  15  16
ENDBRANCH  14  15
ENDBRANCH  13  14
ENDBRANCH  12  13
ENDBRANCH   1  12
TORSDOF 16
ENDMDL
MODEL 6
REMARK VINA RESULT:    -3.428      2.407      5.864
REMARK INTER + INTRA:          -9.202
REMARK INTER:                  -6.454
REMARK INTRA:                  -2.748
REMARK UNBOUND:                -2.567
REMARK SMILES CCCCCCCCCCCCCCCCCC(=O)[O-]
REMARK SMILES IDX 10 1 11 2 12 3 13 4 14 5 15 6 16 7 17 8 18 9 19 10 20 11
REMARK SMILES IDX 9 12 8 13 7 14 6 15 5 16 4 17 3 18 2 19 1 20
REMARK H PARENT
REMARK Flexibility Score: inf
ROOT
ATOM      1  C   UNL     1      28.838 158.062 121.250  1.00  0.00     0.000 C 
ENDROOT
BRANCH   1   2
ATOM      2  C   UNL     1      28.281 156.882 122.066  1.00  0.00     0.000 C 
BRANCH   2   3
ATOM      3  C   UNL     1      26.770 156.670 121.853  1.00  0.00     0.000 C 
BRANCH   3   4
ATOM      4  C   UNL     1      26.386 155.897 120.574  1.00  0.00     0.000 C 
BRANCH   4   5
ATOM      5  C   UNL     1      25.636 156.718 119.508  1.00  0.00     0.000 C 
BRANCH   5   6
ATOM      6  C   UNL     1      25.144 158.076 120.038  1.00  0.00     0.000 C 
BRANCH   6   7
ATOM      7  C   UNL     1      25.452 159.234 119.075  1.00  0.00     0.006 C 
BRANCH   7   8
ATOM      8  C   UNL     1      26.214 158.777 117.822  1.00  0.00     0.053 C 
BRANCH   8   9
ATOM      9  C   UNL     1      26.276 159.879 116.811  1.00  0.00     0.041 C 
ATOM     10  O   UNL     1      26.864 159.696 115.712  1.00  0.00    -0.550 OA
ATOM     11  O   UNL     1      25.669 161.103 117.072  1.00  0.00    -0.550 OA
ENDBRANCH   8   9
ENDBRANCH   7   8
ENDBRANCH   6   7
ENDBRANCH   5   6
ENDBRANCH   4   5
ENDBRANCH   3   4
ENDBRANCH   2   3
ENDBRANCH   1   2
BRANCH   1  12
ATOM     12  C   UNL     1      28.233 159.412 121.672  1.00  0.00     0.000 C 
BRANCH  12  13
ATOM     13  C   UNL     1      28.989 160.611 121.074  1.00  0.00    -0.000 C 
BRANCH  13  14
ATOM     14  C   UNL     1      28.261 161.227 119.867  1.00  0.00    -0.000 C 
BRANCH  14  15
ATOM     15  C   UNL     1      29.194 161.465 118.669  1.00  0.00    -0.000 C 
BRANCH  15  16
ATOM     16  C   UNL     1      29.700 160.135 118.098  1.00  0.00    -0.000 C 
BRANCH  16  17
ATOM     17  C   UNL     1      31.225 160.159 117.912  1.00  0.00    -0.000 C 
BRANCH  17  18
ATOM     18  C   UNL     1      31.948 160.969 119.005  1.00  0.00    -0.000 C 
BRANCH  18  19
ATOM     19  C   UNL     1      32.828 160.131 119.952  1.00  0.00    -0.003 C 
ATOM     20  C   UNL     1      32.295 158.714 120.164  1.00  0.00     0.004 C 
ENDBRANCH  18  19
ENDBRANCH  17  18
ENDBRANCH  16  17
ENDBRANCH  15  16
ENDBRANCH  14  15
ENDBRANCH  13  14
ENDBRANCH  12  13
ENDBRANCH   1  12
TORSDOF 16
ENDMDL
MODEL 7
REMARK VINA RESULT:    -3.408      2.887      6.103
REMARK INTER + INTRA:          -9.162
REMARK INTER:                  -7.023
REMARK INTRA:                  -2.139
REMARK UNBOUND:                -2.567
REMARK SMILES CCCCCCCCCCCCCCCCCC(=O)[O-]
REMARK SMILES IDX 10 1 11 2 12 3 13 4 14 5 15 6 16 7 17 8 18 9 19 10 20 11
REMARK SMILES IDX 9 12 8 13 7 14 6 15 5 16 4 17 3 18 2 19 1 20
REMARK H PARENT
REMARK Flexibility Score: inf
ROOT
ATOM      1  C   UNL     1      31.104 160.243 117.681  1.00  0.00     0.000 C 
ENDROOT
BRANCH   1   2
ATOM      2  C   UNL     1      29.666 160.163 118.225  1.00  0.00     0.000 C 
BRANCH   2   3
ATOM      3  C   UNL     1      28.603 160.279 117.117  1.00  0.00     0.000 C 
BRANCH   3   4
ATOM      4  C   UNL     1      27.168 159.898 117.538  1.00  0.00     0.000 C 
BRANCH   4   5
ATOM      5  C   UNL     1      26.982 159.584 119.035  1.00  0.00     0.000 C 
BRANCH   5   6
ATOM      6  C   UNL     1      25.507 159.374 119.421  1.00  0.00     0.000 C 
BRANCH   6   7
ATOM      7  C   UNL     1      25.252 157.993 120.048  1.00  0.00     0.006 C 
BRANCH   7   8
ATOM      8  C   UNL     1      25.708 156.837 119.145  1.00  0.00     0.053 C 
BRANCH   8   9
ATOM      9  C   UNL     1      26.196 155.686 119.967  1.00  0.00     0.041 C 
ATOM     10  O   UNL     1      26.425 155.839 121.197  1.00  0.00    -0.550 OA
ATOM     11  O   UNL     1      26.382 154.439 119.382  1.00  0.00    -0.550 OA
ENDBRANCH   8   9
ENDBRANCH   7   8
ENDBRANCH   6   7
ENDBRANCH   5   6
ENDBRANCH   4   5
ENDBRANCH   3   4
ENDBRANCH   2   3
ENDBRANCH   1   2
BRANCH   1  12
ATOM     12  C   UNL     1      31.913 161.390 118.311  1.00  0.00     0.000 C 
BRANCH  12  13
ATOM     13  C   UNL     1      31.214 162.002 119.537  1.00  0.00    -0.000 C 
BRANCH  13  14
ATOM     14  C   UNL     1      31.863 161.572 120.863  1.00  0.00    -0.000 C 
BRANCH  14  15
ATOM     15  C   UNL     1      33.198 160.837 120.659  1.00  0.00    -0.000 C 
BRANCH  15  16
ATOM     16  C   UNL     1      33.174 159.461 121.336  1.00  0.00    -0.000 C 
BRANCH  16  17
ATOM     17  C   UNL     1      32.649 158.384 120.376  1.00  0.00    -0.000 C 
BRANCH  17  18
ATOM     18  C   UNL     1      31.581 157.478 121.019  1.00  0.00    -0.000 C 
BRANCH  18  19
ATOM     19  C   UNL     1      30.573 158.212 121.923  1.00  0.00    -0.003 C 
ATOM     20  C   UNL     1      29.142 158.159 121.387  1.00  0.00     0.004 C 
ENDBRANCH  18  19
ENDBRANCH  17  18
ENDBRANCH  16  17
ENDBRANCH  15  16
ENDBRANCH  14  15
ENDBRANCH  13  14
ENDBRANCH  12  13
ENDBRANCH   1  12
TORSDOF 16
ENDMDL
MODEL 8
REMARK VINA RESULT:    -3.383      2.779      5.032
REMARK INTER + INTRA:          -9.115
REMARK INTER:                  -6.711
REMARK INTRA:                  -2.403
REMARK UNBOUND:                -2.567
REMARK SMILES CCCCCCCCCCCCCCCCCC(=O)[O-]
REMARK SMILES IDX 10 1 11 2 12 3 13 4 14 5 15 6 16 7 17 8 18 9 19 10 20 11
REMARK SMILES IDX 9 12 8 13 7 14 6 15 5 16 4 17 3 18 2 19 1 20
REMARK H PARENT
REMARK Flexibility Score: inf
ROOT
ATOM      1  C   UNL     1      32.494 159.247 118.742  1.00  0.00     0.000 C 
ENDROOT
BRANCH   1   2
ATOM      2  C   UNL     1      32.146 159.338 120.238  1.00  0.00     0.000 C 
BRANCH   2   3
ATOM      3  C   UNL     1      31.742 157.980 120.841  1.00  0.00     0.000 C 
BRANCH   3   4
ATOM      4  C   UNL     1      30.407 157.972 121.614  1.00  0.00     0.000 C 
BRANCH   4   5
ATOM      5  C   UNL     1      29.344 158.963 121.103  1.00  0.00     0.000 C 
BRANCH   5   6
ATOM      6  C   UNL     1      27.923 158.610 121.576  1.00  0.00     0.000 C 
BRANCH   6   7
ATOM      7  C   UNL     1      27.084 157.938 120.477  1.00  0.00     0.006 C 
BRANCH   7   8
ATOM      8  C   UNL     1      26.748 156.474 120.797  1.00  0.00     0.053 C 
BRANCH   8   9
ATOM      9  C   UNL     1      26.119 155.806 119.614  1.00  0.00     0.041 C 
ATOM     10  O   UNL     1      25.606 156.498 118.695  1.00  0.00    -0.550 OA
ATOM     11  O   UNL     1      26.114 154.419 119.516  1.00  0.00    -0.550 OA
ENDBRANCH   8   9
ENDBRANCH   7   8
ENDBRANCH   6   7
ENDBRANCH   5   6
ENDBRANCH   4   5
ENDBRANCH   3   4
ENDBRANCH   2   3
ENDBRANCH   1   2
BRANCH   1  12
ATOM     12  C   UNL     1      31.771 160.311 117.899  1.00  0.00     0.000 C 
BRANCH  12  13
ATOM     13  C   UNL     1      31.014 161.335 118.763  1.00  0.00    -0.000 C 
BRANCH  13  14
ATOM     14  C   UNL     1      29.496 161.305 118.521  1.00  0.00    -0.000 C 
BRANCH  14  15
ATOM     15  C   UNL     1      29.068 160.173 117.573  1.00  0.00    -0.000 C 
BRANCH  15  16
ATOM     16  C   UNL     1      27.774 160.537 116.836  1.00  0.00    -0.000 C 
BRANCH  16  17
ATOM     17  C   UNL     1      26.695 159.465 117.053  1.00  0.00    -0.000 C 
BRANCH  17  18
ATOM     18  C   UNL     1      25.458 160.003 117.797  1.00  0.00    -0.000 C 
BRANCH  18  19
ATOM     19  C   UNL     1      25.632 161.406 118.408  1.00  0.00    -0.003 C 
ATOM     20  C   UNL     1      25.829 161.376 119.924  1.00  0.00     0.004 C 
ENDBRANCH  18  19
ENDBRANCH  17  18
ENDBRANCH  16  17
ENDBRANCH  15  16
ENDBRANCH  14  15
ENDBRANCH  13  14
ENDBRANCH  12  13
ENDBRANCH   1  12
TORSDOF 16
ENDMDL
MODEL 9
REMARK VINA RESULT:    -3.299      1.558      3.945
REMARK INTER + INTRA:          -8.952
REMARK INTER:                  -6.181
REMARK INTRA:                  -2.771
REMARK UNBOUND:                -2.567
REMARK SMILES CCCCCCCCCCCCCCCCCC(=O)[O-]
REMARK SMILES IDX 10 1 11 2 12 3 13 4 14 5 15 6 16 7 17 8 18 9 19 10 20 11
REMARK SMILES IDX 9 12 8 13 7 14 6 15 5 16 4 17 3 18 2 19 1 20
REMARK H PARENT
REMARK Flexibility Score: inf
ROOT
ATOM      1  C   UNL     1      28.877 159.123 120.762  1.00  0.00     0.000 C 
ENDROOT
BRANCH   1   2
ATOM      2  C   UNL     1      28.654 160.645 120.708  1.00  0.00     0.000 C 
BRANCH   2   3
ATOM      3  C   UNL     1      28.699 161.204 119.274  1.00  0.00     0.000 C 
BRANCH   3   4
ATOM      4  C   UNL     1      29.042 160.176 118.175  1.00  0.00     0.000 C 
BRANCH   4   5
ATOM      5  C   UNL     1      30.510 160.176 117.707  1.00  0.00     0.000 C 
BRANCH   5   6
ATOM      6  C   UNL     1      31.352 161.271 118.385  1.00  0.00     0.000 C 
BRANCH   6   7
ATOM      7  C   UNL     1      32.361 160.699 119.395  1.00  0.00     0.006 C 
BRANCH   7   8
ATOM      8  C   UNL     1      32.464 159.168 119.330  1.00  0.00     0.053 C 
BRANCH   8   9
ATOM      9  C   UNL     1      32.314 158.571 120.694  1.00  0.00     0.041 C 
ATOM     10  O   UNL     1      32.617 159.243 121.716  1.00  0.00    -0.550 OA
ATOM     11  O   UNL     1      31.823 157.278 120.841  1.00  0.00    -0.550 OA
ENDBRANCH   8   9
ENDBRANCH   7   8
ENDBRANCH   6   7
ENDBRANCH   5   6
ENDBRANCH   4   5
ENDBRANCH   3   4
ENDBRANCH   2   3
ENDBRANCH   1   2
BRANCH   1  12
ATOM     12  C   UNL     1      28.155 158.459 121.947  1.00  0.00     0.000 C 
BRANCH  12  13
ATOM     13  C   UNL     1      28.015 156.937 121.776  1.00  0.00    -0.000 C 
BRANCH  13  14
ATOM     14  C   UNL     1      26.563 156.503 121.512  1.00  0.00    -0.000 C 
BRANCH  14  15
ATOM     15  C   UNL     1      26.361 155.934 120.098  1.00  0.00    -0.000 C 
BRANCH  15  16
ATOM     16  C   UNL     1      25.434 156.836 119.274  1.00  0.00    -0.000 C 
BRANCH  16  17
ATOM     17  C   UNL     1      26.185 158.072 118.757  1.00  0.00    -0.000 C 
BRANCH  17  18
ATOM     18  C   UNL     1      25.381 159.376 118.929  1.00  0.00    -0.000 C 
BRANCH  18  19
ATOM     19  C   UNL     1      24.978 159.698 120.380  1.00  0.00    -0.003 C 
ATOM     20  C   UNL     1      25.015 161.194 120.692  1.00  0.00     0.004 C 
ENDBRANCH  18  19
ENDBRANCH  17  18
ENDBRANCH  16  17
ENDBRANCH  15  16
ENDBRANCH  14  15
ENDBRANCH  13  14
ENDBRANCH  12  13
ENDBRANCH   1  12
TORSDOF 16
ENDMDL
