MODEL 1
REMARK VINA RESULT:    -4.217      0.000      0.000
REMARK INTER + INTRA:          -5.176
REMARK INTER:                  -5.079
REMARK INTRA:                  -0.097
REMARK UNBOUND:                -0.097
REMARK SMILES CC[C@@H](C)[C@@H]([NH3+])C(=O)[O-]
REMARK SMILES IDX 3 1 4 2 5 3 6 4 7 8 8 9 9 10 2 11 1 12
REMARK H PARENT 6 5 6 6 6 7
REMARK Flexibility Score: inf
ROOT
ATOM      1  C   UNL     1     -38.117  19.008 -29.531  1.00  0.00     0.050 C 
ATOM      2  C   UNL     1     -38.179  18.049 -30.732  1.00  0.00     0.014 C 
ENDROOT
BRANCH   1   3
ATOM      3  C   UNL     1     -39.501  19.708 -29.311  1.00  0.00     0.230 C 
BRANCH   3   4
ATOM      4  N   UNL     1     -40.125  19.348 -28.027  1.00  0.00    -0.350 N 
ATOM      5  H   UNL     1     -39.406  19.203 -27.282  1.00  0.00     0.345 HD
ATOM      6  H   UNL     1     -40.697  18.479 -28.128  1.00  0.00     0.345 HD
ATOM      7  H   UNL     1     -40.767  20.116 -27.724  1.00  0.00     0.345 HD
ENDBRANCH   3   4
BRANCH   3   8
ATOM      8  C   UNL     1     -39.404  21.207 -29.481  1.00  0.00     0.099 C 
ATOM      9  O   UNL     1     -38.398  21.846 -29.070  1.00  0.00    -0.544 OA
ATOM     10  O   UNL     1     -40.453  21.903 -30.069  1.00  0.00    -0.544 OA
ENDBRANCH   3   8
ENDBRANCH   1   3
BRANCH   1  11
ATOM     11  C   UNL     1     -37.555  18.252 -28.300  1.00  0.00     0.006 C 
ATOM     12  C   UNL     1     -36.112  18.622 -27.958  1.00  0.00     0.004 C 
ENDBRANCH   1  11
TORSDOF 4
ENDMDL
MODEL 2
REMARK VINA RESULT:    -4.143      3.507      4.352
REMARK INTER + INTRA:          -5.088
REMARK INTER:                  -4.964
REMARK INTRA:                  -0.123
REMARK UNBOUND:                -0.097
REMARK SMILES CC[C@@H](C)[C@@H]([NH3+])C(=O)[O-]
REMARK SMILES IDX 3 1 4 2 5 3 6 4 7 8 8 9 9 10 2 11 1 12
REMARK H PARENT 6 5 6 6 6 7
REMARK Flexibility Score: inf
ROOT
ATOM      1  C   UNL     1     -38.216  18.448 -29.884  1.00  0.00     0.050 C 
ATOM      2  C   UNL     1     -38.052  18.900 -31.345  1.00  0.00     0.014 C 
ENDROOT
BRANCH   1   3
ATOM      3  C   UNL     1     -36.844  17.977 -29.295  1.00  0.00     0.230 C 
BRANCH   3   4
ATOM      4  N   UNL     1     -36.932  17.596 -27.875  1.00  0.00    -0.350 N 
ATOM      5  H   UNL     1     -36.668  18.391 -27.250  1.00  0.00     0.345 HD
ATOM      6  H   UNL     1     -36.311  16.780 -27.675  1.00  0.00     0.345 HD
ATOM      7  H   UNL     1     -37.914  17.310 -27.652  1.00  0.00     0.345 HD
ENDBRANCH   3   4
BRANCH   3   8
ATOM      8  C   UNL     1     -36.223  16.878 -30.128  1.00  0.00     0.099 C 
ATOM      9  O   UNL     1     -36.782  15.755 -30.244  1.00  0.00    -0.544 OA
ATOM     10  O   UNL     1     -35.000  17.093 -30.750  1.00  0.00    -0.544 OA
ENDBRANCH   3   8
ENDBRANCH   1   3
BRANCH   1  11
ATOM     11  C   UNL     1     -38.935  19.562 -29.079  1.00  0.00     0.006 C 
ATOM     12  C   UNL     1     -40.252  19.111 -28.448  1.00  0.00     0.004 C 
ENDBRANCH   1  11
TORSDOF 4
ENDMDL
MODEL 3
REMARK VINA RESULT:    -4.110      2.183      2.473
REMARK INTER + INTRA:          -5.047
REMARK INTER:                  -4.927
REMARK INTRA:                  -0.120
REMARK UNBOUND:                -0.097
REMARK SMILES CC[C@@H](C)[C@@H]([NH3+])C(=O)[O-]
REMARK SMILES IDX 3 1 4 2 5 3 6 4 7 8 8 9 9 10 2 11 1 12
REMARK H PARENT 6 5 6 6 6 7
REMARK Flexibility Score: inf
ROOT
ATOM      1  C   UNL     1     -37.272  18.033 -30.289  1.00  0.00     0.050 C 
ATOM      2  C   UNL     1     -38.330  17.783 -31.378  1.00  0.00     0.014 C 
ENDROOT
BRANCH   1   3
ATOM      3  C   UNL     1     -37.946  18.144 -28.880  1.00  0.00     0.230 C 
BRANCH   3   4
ATOM      4  N   UNL     1     -36.967  18.264 -27.787  1.00  0.00    -0.350 N 
ATOM      5  H   UNL     1     -37.053  17.471 -27.111  1.00  0.00     0.345 HD
ATOM      6  H   UNL     1     -37.095  19.167 -27.277  1.00  0.00     0.345 HD
ATOM      7  H   UNL     1     -35.999  18.258 -28.184  1.00  0.00     0.345 HD
ENDBRANCH   3   4
BRANCH   3   8
ATOM      8  C   UNL     1     -38.970  19.256 -28.834  1.00  0.00     0.099 C 
ATOM      9  O   UNL     1     -38.645  20.450 -29.071  1.00  0.00    -0.544 OA
ATOM     10  O   UNL     1     -40.285  18.968 -28.492  1.00  0.00    -0.544 OA
ENDBRANCH   3   8
ENDBRANCH   1   3
BRANCH   1  11
ATOM     11  C   UNL     1     -36.154  16.966 -30.406  1.00  0.00     0.006 C 
ATOM     12  C   UNL     1     -34.773  17.552 -30.696  1.00  0.00     0.004 C 
ENDBRANCH   1  11
TORSDOF 4
ENDMDL
MODEL 4
REMARK VINA RESULT:    -4.099      2.050      2.558
REMARK INTER + INTRA:          -5.034
REMARK INTER:                  -4.910
REMARK INTRA:                  -0.124
REMARK UNBOUND:                -0.097
REMARK SMILES CC[C@@H](C)[C@@H]([NH3+])C(=O)[O-]
REMARK SMILES IDX 3 1 4 2 5 3 6 4 7 8 8 9 9 10 2 11 1 12
REMARK H PARENT 6 5 6 6 6 7
REMARK Flexibility Score: inf
ROOT
ATOM      1  C   UNL     1     -37.389  18.252 -30.296  1.00  0.00     0.050 C 
ATOM      2  C   UNL     1     -38.421  17.884 -31.376  1.00  0.00     0.014 C 
ENDROOT
BRANCH   1   3
ATOM      3  C   UNL     1     -38.058  18.277 -28.880  1.00  0.00     0.230 C 
BRANCH   3   4
ATOM      4  N   UNL     1     -37.078  18.399 -27.788  1.00  0.00    -0.350 N 
ATOM      5  H   UNL     1     -36.500  19.264 -27.891  1.00  0.00     0.345 HD
ATOM      6  H   UNL     1     -36.449  17.565 -27.765  1.00  0.00     0.345 HD
ATOM      7  H   UNL     1     -37.580  18.443 -26.872  1.00  0.00     0.345 HD
ENDBRANCH   3   4
BRANCH   3   8
ATOM      8  C   UNL     1     -39.132  19.337 -28.785  1.00  0.00     0.099 C 
ATOM      9  O   UNL     1     -40.304  19.046 -28.425  1.00  0.00    -0.544 OA
ATOM     10  O   UNL     1     -38.836  20.649 -29.132  1.00  0.00    -0.544 OA
ENDBRANCH   3   8
ENDBRANCH   1   3
BRANCH   1  11
ATOM     11  C   UNL     1     -36.155  17.323 -30.429  1.00  0.00     0.006 C 
ATOM     12  C   UNL     1     -36.498  15.834 -30.381  1.00  0.00     0.004 C 
ENDBRANCH   1  11
TORSDOF 4
ENDMDL
MODEL 5
REMARK VINA RESULT:    -4.085      1.010      2.123
REMARK INTER + INTRA:          -5.017
REMARK INTER:                  -4.968
REMARK INTRA:                  -0.048
REMARK UNBOUND:                -0.097
REMARK SMILES CC[C@@H](C)[C@@H]([NH3+])C(=O)[O-]
REMARK SMILES IDX 3 1 4 2 5 3 6 4 7 8 8 9 9 10 2 11 1 12
REMARK H PARENT 6 5 6 6 6 7
REMARK Flexibility Score: inf
ROOT
ATOM      1  C   UNL     1     -38.007  18.359 -29.152  1.00  0.00     0.050 C 
ATOM      2  C   UNL     1     -36.899  19.057 -28.344  1.00  0.00     0.014 C 
ENDROOT
BRANCH   1   3
ATOM      3  C   UNL     1     -39.259  19.291 -29.290  1.00  0.00     0.230 C 
BRANCH   3   4
ATOM      4  N   UNL     1     -40.095  19.307 -28.078  1.00  0.00    -0.350 N 
ATOM      5  H   UNL     1     -39.662  18.747 -27.309  1.00  0.00     0.345 HD
ATOM      6  H   UNL     1     -41.047  18.931 -28.284  1.00  0.00     0.345 HD
ATOM      7  H   UNL     1     -40.208  20.293 -27.746  1.00  0.00     0.345 HD
ENDBRANCH   3   4
BRANCH   3   8
ATOM      8  C   UNL     1     -38.873  20.689 -29.718  1.00  0.00     0.099 C 
ATOM      9  O   UNL     1     -38.943  21.658 -28.916  1.00  0.00    -0.544 OA
ATOM     10  O   UNL     1     -38.468  20.921 -31.026  1.00  0.00    -0.544 OA
ENDBRANCH   3   8
ENDBRANCH   1   3
BRANCH   1  11
ATOM     11  C   UNL     1     -37.418  17.840 -30.488  1.00  0.00     0.006 C 
ATOM     12  C   UNL     1     -38.479  17.423 -31.506  1.00  0.00     0.004 C 
ENDBRANCH   1  11
TORSDOF 4
ENDMDL
MODEL 6
REMARK VINA RESULT:    -4.002      1.934      2.309
REMARK INTER + INTRA:          -4.917
REMARK INTER:                  -4.770
REMARK INTRA:                  -0.148
REMARK UNBOUND:                -0.097
REMARK SMILES CC[C@@H](C)[C@@H]([NH3+])C(=O)[O-]
REMARK SMILES IDX 3 1 4 2 5 3 6 4 7 8 8 9 9 10 2 11 1 12
REMARK H PARENT 6 5 6 6 6 7
REMARK Flexibility Score: inf
ROOT
ATOM      1  C   UNL     1     -39.028  19.278 -29.346  1.00  0.00     0.050 C 
ATOM      2  C   UNL     1     -40.215  19.092 -28.386  1.00  0.00     0.014 C 
ENDROOT
BRANCH   1   3
ATOM      3  C   UNL     1     -39.052  20.708 -29.984  1.00  0.00     0.230 C 
BRANCH   3   4
ATOM      4  N   UNL     1     -39.183  21.778 -28.981  1.00  0.00    -0.350 N 
ATOM      5  H   UNL     1     -40.146  22.185 -28.982  1.00  0.00     0.345 HD
ATOM      6  H   UNL     1     -38.488  22.537 -29.162  1.00  0.00     0.345 HD
ATOM      7  H   UNL     1     -38.988  21.389 -28.029  1.00  0.00     0.345 HD
ENDBRANCH   3   4
BRANCH   3   8
ATOM      8  C   UNL     1     -37.865  20.938 -30.891  1.00  0.00     0.099 C 
ATOM      9  O   UNL     1     -37.017  21.836 -30.639  1.00  0.00    -0.544 OA
ATOM     10  O   UNL     1     -37.718  20.174 -32.042  1.00  0.00    -0.544 OA
ENDBRANCH   3   8
ENDBRANCH   1   3
BRANCH   1  11
ATOM     11  C   UNL     1     -37.713  18.901 -28.616  1.00  0.00     0.006 C 
ATOM     12  C   UNL     1     -37.019  17.669 -29.195  1.00  0.00     0.004 C 
ENDBRANCH   1  11
TORSDOF 4
ENDMDL
MODEL 7
REMARK VINA RESULT:    -3.987      3.032      3.972
REMARK INTER + INTRA:          -4.900
REMARK INTER:                  -4.799
REMARK INTRA:                  -0.101
REMARK UNBOUND:                -0.097
REMARK SMILES CC[C@@H](C)[C@@H]([NH3+])C(=O)[O-]
REMARK SMILES IDX 3 1 4 2 5 3 6 4 7 8 8 9 9 10 2 11 1 12
REMARK H PARENT 6 5 6 6 6 7
REMARK Flexibility Score: inf
ROOT
ATOM      1  C   UNL     1     -38.791  19.475 -29.226  1.00  0.00     0.050 C 
ATOM      2  C   UNL     1     -40.089  19.048 -28.520  1.00  0.00     0.014 C 
ENDROOT
BRANCH   1   3
ATOM      3  C   UNL     1     -38.364  18.407 -30.289  1.00  0.00     0.230 C 
BRANCH   3   4
ATOM      4  N   UNL     1     -38.043  19.001 -31.598  1.00  0.00    -0.350 N 
ATOM      5  H   UNL     1     -38.809  18.834 -32.289  1.00  0.00     0.345 HD
ATOM      6  H   UNL     1     -37.150  18.606 -31.970  1.00  0.00     0.345 HD
ATOM      7  H   UNL     1     -37.913  20.033 -31.489  1.00  0.00     0.345 HD
ENDBRANCH   3   4
BRANCH   3   8
ATOM      8  C   UNL     1     -37.240  17.532 -29.785  1.00  0.00     0.099 C 
ATOM      9  O   UNL     1     -36.654  16.719 -30.549  1.00  0.00    -0.544 OA
ATOM     10  O   UNL     1     -36.864  17.595 -28.449  1.00  0.00    -0.544 OA
ENDBRANCH   3   8
ENDBRANCH   1   3
BRANCH   1  11
ATOM     11  C   UNL     1     -38.952  20.919 -29.766  1.00  0.00     0.006 C 
ATOM     12  C   UNL     1     -37.868  21.881 -29.280  1.00  0.00     0.004 C 
ENDBRANCH   1  11
TORSDOF 4
ENDMDL
MODEL 8
REMARK VINA RESULT:    -3.974      2.414      3.239
REMARK INTER + INTRA:          -4.884
REMARK INTER:                  -4.758
REMARK INTRA:                  -0.126
REMARK UNBOUND:                -0.097
REMARK SMILES CC[C@@H](C)[C@@H]([NH3+])C(=O)[O-]
REMARK SMILES IDX 3 1 4 2 5 3 6 4 7 8 8 9 9 10 2 11 1 12
REMARK H PARENT 6 5 6 6 6 7
REMARK Flexibility Score: inf
ROOT
ATOM      1  C   UNL     1     -37.730  20.906 -29.748  1.00  0.00     0.050 C 
ATOM      2  C   UNL     1     -36.964  22.186 -29.374  1.00  0.00     0.014 C 
ENDROOT
BRANCH   1   3
ATOM      3  C   UNL     1     -39.064  20.803 -28.933  1.00  0.00     0.230 C 
BRANCH   3   4
ATOM      4  N   UNL     1     -40.205  21.426 -29.625  1.00  0.00    -0.350 N 
ATOM      5  H   UNL     1     -39.891  21.979 -30.454  1.00  0.00     0.345 HD
ATOM      6  H   UNL     1     -40.732  22.050 -28.974  1.00  0.00     0.345 HD
ATOM      7  H   UNL     1     -40.862  20.681 -29.953  1.00  0.00     0.345 HD
ENDBRANCH   3   4
BRANCH   3   8
ATOM      8  C   UNL     1     -39.367  19.378 -28.532  1.00  0.00     0.099 C 
ATOM      9  O   UNL     1     -38.441  18.558 -28.291  1.00  0.00    -0.544 OA
ATOM     10  O   UNL     1     -40.686  18.949 -28.457  1.00  0.00    -0.544 OA
ENDBRANCH   3   8
ENDBRANCH   1   3
BRANCH   1  11
ATOM     11  C   UNL     1     -37.889  20.835 -31.289  1.00  0.00     0.006 C 
ATOM     12  C   UNL     1     -37.940  19.409 -31.836  1.00  0.00     0.004 C 
ENDBRANCH   1  11
TORSDOF 4
ENDMDL
MODEL 9
REMARK VINA RESULT:    -3.906      1.970      2.423
REMARK INTER + INTRA:          -4.801
REMARK INTER:                  -4.698
REMARK INTRA:                  -0.104
REMARK UNBOUND:                -0.097
REMARK SMILES CC[C@@H](C)[C@@H]([NH3+])C(=O)[O-]
REMARK SMILES IDX 3 1 4 2 5 3 6 4 7 8 8 9 9 10 2 11 1 12
REMARK H PARENT 6 5 6 6 6 7
REMARK Flexibility Score: inf
ROOT
ATOM      1  C   UNL     1     -38.546  18.848 -30.321  1.00  0.00     0.050 C 
ATOM      2  C   UNL     1     -38.280  18.625 -28.822  1.00  0.00     0.014 C 
ENDROOT
BRANCH   1   3
ATOM      3  C   UNL     1     -37.970  20.228 -30.785  1.00  0.00     0.230 C 
BRANCH   3   4
ATOM      4  N   UNL     1     -38.099  20.443 -32.236  1.00  0.00    -0.350 N 
ATOM      5  H   UNL     1     -37.475  19.799 -32.773  1.00  0.00     0.345 HD
ATOM      6  H   UNL     1     -37.868  21.431 -32.482  1.00  0.00     0.345 HD
ATOM      7  H   UNL     1     -39.088  20.266 -32.527  1.00  0.00     0.345 HD
ENDBRANCH   3   4
BRANCH   3   8
ATOM      8  C   UNL     1     -38.561  21.376 -29.998  1.00  0.00     0.099 C 
ATOM      9  O   UNL     1     -37.833  22.129 -29.297  1.00  0.00    -0.544 OA
ATOM     10  O   UNL     1     -39.934  21.589 -30.017  1.00  0.00    -0.544 OA
ENDBRANCH   3   8
ENDBRANCH   1   3
BRANCH   1  11
ATOM     11  C   UNL     1     -38.042  17.618 -31.120  1.00  0.00     0.006 C 
ATOM     12  C   UNL     1     -36.861  16.902 -30.465  1.00  0.00     0.004 C 
ENDBRANCH   1  11
TORSDOF 4
ENDMDL
