MODEL 1
REMARK VINA RESULT:    -4.406      0.000      0.000
REMARK INTER + INTRA:         -11.782
REMARK INTER:                  -9.557
REMARK INTRA:                  -2.225
REMARK UNBOUND:                -2.225
REMARK SMILES CCCCCCCCCCCCCCCCCCCCCC(=O)[O-]
REMARK SMILES IDX 12 1 11 2 10 3 9 4 8 5 7 6 6 7 5 8 4 9 3 10 2 11 1 12 13 13
REMARK SMILES IDX 14 14 15 15 16 16 17 17 18 18 19 19 20 20 21 21 22 22 23 23
REMARK SMILES IDX 24 24
REMARK H PARENT
REMARK Flexibility Score: inf
ROOT
ATOM      1  C   UNL     1      45.096  29.503   2.517  1.00  0.00     0.000 C 
ENDROOT
BRANCH   1   2
ATOM      2  C   UNL     1      43.991  28.573   3.030  1.00  0.00     0.000 C 
BRANCH   2   3
ATOM      3  C   UNL     1      44.265  27.117   2.624  1.00  0.00     0.000 C 
BRANCH   3   4
ATOM      4  C   UNL     1      44.760  26.257   3.798  1.00  0.00    -0.000 C 
BRANCH   4   5
ATOM      5  C   UNL     1      46.288  26.303   3.960  1.00  0.00    -0.000 C 
BRANCH   5   6
ATOM      6  C   UNL     1      46.726  26.669   5.389  1.00  0.00    -0.000 C 
BRANCH   6   7
ATOM      7  C   UNL     1      46.364  28.113   5.794  1.00  0.00    -0.000 C 
BRANCH   7   8
ATOM      8  C   UNL     1      45.817  28.193   7.231  1.00  0.00    -0.000 C 
BRANCH   8   9
ATOM      9  C   UNL     1      45.725  26.818   7.911  1.00  0.00    -0.000 C 
BRANCH   9  10
ATOM     10  C   UNL     1      45.521  26.922   9.432  1.00  0.00    -0.000 C 
BRANCH  10  11
ATOM     11  C   UNL     1      44.758  28.193   9.837  1.00  0.00    -0.003 C 
ATOM     12  C   UNL     1      45.565  29.098  10.768  1.00  0.00     0.004 C 
ENDBRANCH  10  11
ENDBRANCH   9  10
ENDBRANCH   8   9
ENDBRANCH   7   8
ENDBRANCH   6   7
ENDBRANCH   5   6
ENDBRANCH   4   5
ENDBRANCH   3   4
ENDBRANCH   2   3
ENDBRANCH   1   2
BRANCH   1  13
ATOM     13  C   UNL     1      45.657  29.006   1.175  1.00  0.00     0.000 C 
BRANCH  13  14
ATOM     14  C   UNL     1      45.460  30.020   0.037  1.00  0.00     0.000 C 
BRANCH  14  15
ATOM     15  C   UNL     1      45.196  29.343  -1.320  1.00  0.00     0.000 C 
BRANCH  15  16
ATOM     16  C   UNL     1      45.582  27.854  -1.319  1.00  0.00     0.000 C 
BRANCH  16  17
ATOM     17  C   UNL     1      46.395  27.452  -2.562  1.00  0.00     0.000 C 
BRANCH  17  18
ATOM     18  C   UNL     1      46.608  28.623  -3.538  1.00  0.00     0.000 C 
BRANCH  18  19
ATOM     19  C   UNL     1      46.524  28.254  -5.033  1.00  0.00     0.000 C 
BRANCH  19  20
ATOM     20  C   UNL     1      45.157  27.716  -5.499  1.00  0.00     0.006 C 
BRANCH  20  21
ATOM     21  C   UNL     1      43.958  28.581  -5.076  1.00  0.00     0.053 C 
BRANCH  21  22
ATOM     22  C   UNL     1      42.925  27.782  -4.342  1.00  0.00     0.041 C 
ATOM     23  O   UNL     1      41.737  28.191  -4.273  1.00  0.00    -0.550 OA
ATOM     24  O   UNL     1      43.271  26.569  -3.760  1.00  0.00    -0.550 OA
ENDBRANCH  21  22
ENDBRANCH  20  21
ENDBRANCH  19  20
ENDBRANCH  18  19
ENDBRANCH  17  18
ENDBRANCH  16  17
ENDBRANCH  15  16
ENDBRANCH  14  15
ENDBRANCH  13  14
ENDBRANCH   1  13
TORSDOF 20
ENDMDL
MODEL 2
REMARK VINA RESULT:    -4.002      4.332     10.961
REMARK INTER + INTRA:         -10.906
REMARK INTER:                  -8.972
REMARK INTRA:                  -1.934
REMARK UNBOUND:                -2.225
REMARK SMILES CCCCCCCCCCCCCCCCCCCCCC(=O)[O-]
REMARK SMILES IDX 12 1 11 2 10 3 9 4 8 5 7 6 6 7 5 8 4 9 3 10 2 11 1 12 13 13
REMARK SMILES IDX 14 14 15 15 16 16 17 17 18 18 19 19 20 20 21 21 22 22 23 23
REMARK SMILES IDX 24 24
REMARK H PARENT
REMARK Flexibility Score: inf
ROOT
ATOM      1  C   UNL     1      45.498  27.661   1.661  1.00  0.00     0.000 C 
ENDROOT
BRANCH   1   2
ATOM      2  C   UNL     1      45.368  29.085   1.107  1.00  0.00     0.000 C 
BRANCH   2   3
ATOM      3  C   UNL     1      45.729  29.129  -0.385  1.00  0.00     0.000 C 
BRANCH   3   4
ATOM      4  C   UNL     1      45.421  27.809  -1.109  1.00  0.00    -0.000 C 
BRANCH   4   5
ATOM      5  C   UNL     1      45.099  28.014  -2.599  1.00  0.00    -0.000 C 
BRANCH   5   6
ATOM      6  C   UNL     1      44.680  29.458  -2.927  1.00  0.00    -0.000 C 
BRANCH   6   7
ATOM      7  C   UNL     1      43.191  29.597  -3.305  1.00  0.00    -0.000 C 
BRANCH   7   8
ATOM      8  C   UNL     1      42.655  28.345  -4.024  1.00  0.00    -0.000 C 
BRANCH   8   9
ATOM      9  C   UNL     1      42.281  28.615  -5.490  1.00  0.00    -0.000 C 
BRANCH   9  10
ATOM     10  C   UNL     1      43.499  28.988  -6.352  1.00  0.00    -0.000 C 
BRANCH  10  11
ATOM     11  C   UNL     1      44.284  27.754  -6.825  1.00  0.00    -0.003 C 
ATOM     12  C   UNL     1      45.715  27.721  -6.287  1.00  0.00     0.004 C 
ENDBRANCH  10  11
ENDBRANCH   9  10
ENDBRANCH   8   9
ENDBRANCH   7   8
ENDBRANCH   6   7
ENDBRANCH   5   6
ENDBRANCH   4   5
ENDBRANCH   3   4
ENDBRANCH   2   3
ENDBRANCH   1   2
BRANCH   1  13
ATOM     13  C   UNL     1      44.262  27.276   2.490  1.00  0.00     0.000 C 
BRANCH  13  14
ATOM     14  C   UNL     1      44.590  26.286   3.620  1.00  0.00     0.000 C 
BRANCH  14  15
ATOM     15  C   UNL     1      46.104  26.134   3.853  1.00  0.00     0.000 C 
BRANCH  15  16
ATOM     16  C   UNL     1      46.555  26.730   5.197  1.00  0.00     0.000 C 
BRANCH  16  17
ATOM     17  C   UNL     1      46.844  28.239   5.109  1.00  0.00     0.000 C 
BRANCH  17  18
ATOM     18  C   UNL     1      45.629  29.101   5.496  1.00  0.00     0.000 C 
BRANCH  18  19
ATOM     19  C   UNL     1      45.722  29.781   6.877  1.00  0.00     0.000 C 
BRANCH  19  20
ATOM     20  C   UNL     1      46.226  28.877   8.020  1.00  0.00     0.006 C 
BRANCH  20  21
ATOM     21  C   UNL     1      45.113  28.308   8.915  1.00  0.00     0.053 C 
BRANCH  21  22
ATOM     22  C   UNL     1      45.658  27.392   9.968  1.00  0.00     0.041 C 
ATOM     23  O   UNL     1      45.600  26.143   9.814  1.00  0.00    -0.550 OA
ATOM     24  O   UNL     1      46.259  27.919  11.104  1.00  0.00    -0.550 OA
ENDBRANCH  21  22
ENDBRANCH  20  21
ENDBRANCH  19  20
ENDBRANCH  18  19
ENDBRANCH  17  18
ENDBRANCH  16  17
ENDBRANCH  15  16
ENDBRANCH  14  15
ENDBRANCH  13  14
ENDBRANCH   1  13
TORSDOF 20
ENDMDL
MODEL 3
REMARK VINA RESULT:    -3.916      4.477     11.130
REMARK INTER + INTRA:         -10.719
REMARK INTER:                  -8.888
REMARK INTRA:                  -1.831
REMARK UNBOUND:                -2.225
REMARK SMILES CCCCCCCCCCCCCCCCCCCCCC(=O)[O-]
REMARK SMILES IDX 12 1 11 2 10 3 9 4 8 5 7 6 6 7 5 8 4 9 3 10 2 11 1 12 13 13
REMARK SMILES IDX 14 14 15 15 16 16 17 17 18 18 19 19 20 20 21 21 22 22 23 23
REMARK SMILES IDX 24 24
REMARK H PARENT
REMARK Flexibility Score: inf
ROOT
ATOM      1  C   UNL     1      45.390  28.934   2.000  1.00  0.00     0.000 C 
ENDROOT
BRANCH   1   2
ATOM      2  C   UNL     1      46.114  27.875   1.160  1.00  0.00     0.000 C 
BRANCH   2   3
ATOM      3  C   UNL     1      46.404  28.399  -0.254  1.00  0.00     0.000 C 
BRANCH   3   4
ATOM      4  C   UNL     1      45.313  28.011  -1.265  1.00  0.00    -0.000 C 
BRANCH   4   5
ATOM      5  C   UNL     1      45.380  28.846  -2.555  1.00  0.00    -0.000 C 
BRANCH   5   6
ATOM      6  C   UNL     1      46.433  28.327  -3.549  1.00  0.00    -0.000 C 
BRANCH   6   7
ATOM      7  C   UNL     1      46.715  29.299  -4.713  1.00  0.00    -0.000 C 
BRANCH   7   8
ATOM      8  C   UNL     1      46.444  28.656  -6.086  1.00  0.00    -0.000 C 
BRANCH   8   9
ATOM      9  C   UNL     1      45.431  27.502  -6.013  1.00  0.00    -0.000 C 
BRANCH   9  10
ATOM     10  C   UNL     1      44.155  27.784  -6.823  1.00  0.00    -0.000 C 
BRANCH  10  11
ATOM     11  C   UNL     1      43.214  28.771  -6.114  1.00  0.00    -0.003 C 
ATOM     12  C   UNL     1      42.582  28.184  -4.852  1.00  0.00     0.004 C 
ENDBRANCH  10  11
ENDBRANCH   9  10
ENDBRANCH   8   9
ENDBRANCH   7   8
ENDBRANCH   6   7
ENDBRANCH   5   6
ENDBRANCH   4   5
ENDBRANCH   3   4
ENDBRANCH   2   3
ENDBRANCH   1   2
BRANCH   1  13
ATOM     13  C   UNL     1      44.442  28.280   3.017  1.00  0.00     0.000 C 
BRANCH  13  14
ATOM     14  C   UNL     1      44.368  26.752   2.862  1.00  0.00     0.000 C 
BRANCH  14  15
ATOM     15  C   UNL     1      44.889  26.005   4.102  1.00  0.00     0.000 C 
BRANCH  15  16
ATOM     16  C   UNL     1      46.424  25.923   4.138  1.00  0.00     0.000 C 
BRANCH  16  17
ATOM     17  C   UNL     1      47.015  26.457   5.455  1.00  0.00     0.000 C 
BRANCH  17  18
ATOM     18  C   UNL     1      45.933  26.827   6.486  1.00  0.00     0.000 C 
BRANCH  18  19
ATOM     19  C   UNL     1      45.947  28.296   6.953  1.00  0.00     0.000 C 
BRANCH  19  20
ATOM     20  C   UNL     1      45.779  28.504   8.471  1.00  0.00     0.006 C 
BRANCH  20  21
ATOM     21  C   UNL     1      45.159  27.306   9.209  1.00  0.00     0.053 C 
BRANCH  21  22
ATOM     22  C   UNL     1      46.017  26.848  10.349  1.00  0.00     0.041 C 
ATOM     23  O   UNL     1      46.350  25.638  10.445  1.00  0.00    -0.550 OA
ATOM     24  O   UNL     1      46.474  27.765  11.286  1.00  0.00    -0.550 OA
ENDBRANCH  21  22
ENDBRANCH  20  21
ENDBRANCH  19  20
ENDBRANCH  18  19
ENDBRANCH  17  18
ENDBRANCH  16  17
ENDBRANCH  15  16
ENDBRANCH  14  15
ENDBRANCH  13  14
ENDBRANCH   1  13
TORSDOF 20
ENDMDL
MODEL 4
REMARK VINA RESULT:    -3.818      1.195      2.194
REMARK INTER + INTRA:         -10.506
REMARK INTER:                  -8.776
REMARK INTRA:                  -1.730
REMARK UNBOUND:                -2.225
REMARK SMILES CCCCCCCCCCCCCCCCCCCCCC(=O)[O-]
REMARK SMILES IDX 12 1 11 2 10 3 9 4 8 5 7 6 6 7 5 8 4 9 3 10 2 11 1 12 13 13
REMARK SMILES IDX 14 14 15 15 16 16 17 17 18 18 19 19 20 20 21 21 22 22 23 23
REMARK SMILES IDX 24 24
REMARK H PARENT
REMARK Flexibility Score: inf
ROOT
ATOM      1  C   UNL     1      44.347  27.732   2.671  1.00  0.00     0.000 C 
ENDROOT
BRANCH   1   2
ATOM      2  C   UNL     1      45.407  27.815   3.776  1.00  0.00     0.000 C 
BRANCH   2   3
ATOM      3  C   UNL     1      45.503  26.489   4.545  1.00  0.00     0.000 C 
BRANCH   3   4
ATOM      4  C   UNL     1      46.724  26.431   5.476  1.00  0.00    -0.000 C 
BRANCH   4   5
ATOM      5  C   UNL     1      46.840  27.673   6.375  1.00  0.00    -0.000 C 
BRANCH   5   6
ATOM      6  C   UNL     1      45.676  27.800   7.372  1.00  0.00    -0.000 C 
BRANCH   6   7
ATOM      7  C   UNL     1      45.643  26.677   8.430  1.00  0.00    -0.000 C 
BRANCH   7   8
ATOM      8  C   UNL     1      46.809  26.787   9.430  1.00  0.00    -0.000 C 
BRANCH   8   9
ATOM      9  C   UNL     1      46.363  27.300  10.809  1.00  0.00    -0.000 C 
BRANCH   9  10
ATOM     10  C   UNL     1      46.749  28.770  11.045  1.00  0.00    -0.000 C 
BRANCH  10  11
ATOM     11  C   UNL     1      45.539  29.642  11.416  1.00  0.00    -0.003 C 
ATOM     12  C   UNL     1      44.438  29.611  10.355  1.00  0.00     0.004 C 
ENDBRANCH  10  11
ENDBRANCH   9  10
ENDBRANCH   8   9
ENDBRANCH   7   8
ENDBRANCH   6   7
ENDBRANCH   5   6
ENDBRANCH   4   5
ENDBRANCH   3   4
ENDBRANCH   2   3
ENDBRANCH   1   2
BRANCH   1  13
ATOM     13  C   UNL     1      44.995  27.472   1.302  1.00  0.00     0.000 C 
BRANCH  13  14
ATOM     14  C   UNL     1      46.335  28.206   1.130  1.00  0.00     0.000 C 
BRANCH  14  15
ATOM     15  C   UNL     1      46.529  28.756  -0.294  1.00  0.00     0.000 C 
BRANCH  15  16
ATOM     16  C   UNL     1      45.314  29.561  -0.785  1.00  0.00     0.000 C 
BRANCH  16  17
ATOM     17  C   UNL     1      44.937  29.234  -2.241  1.00  0.00     0.000 C 
BRANCH  17  18
ATOM     18  C   UNL     1      45.008  27.728  -2.550  1.00  0.00     0.000 C 
BRANCH  18  19
ATOM     19  C   UNL     1      45.358  27.374  -4.010  1.00  0.00     0.000 C 
BRANCH  19  20
ATOM     20  C   UNL     1      44.774  28.325  -5.073  1.00  0.00     0.006 C 
BRANCH  20  21
ATOM     21  C   UNL     1      43.509  27.797  -5.769  1.00  0.00     0.053 C 
BRANCH  21  22
ATOM     22  C   UNL     1      42.278  28.516  -5.310  1.00  0.00     0.041 C 
ATOM     23  O   UNL     1      41.589  29.180  -6.128  1.00  0.00    -0.550 OA
ATOM     24  O   UNL     1      41.874  28.425  -3.984  1.00  0.00    -0.550 OA
ENDBRANCH  21  22
ENDBRANCH  20  21
ENDBRANCH  19  20
ENDBRANCH  18  19
ENDBRANCH  17  18
ENDBRANCH  16  17
ENDBRANCH  15  16
ENDBRANCH  14  15
ENDBRANCH  13  14
ENDBRANCH   1  13
TORSDOF 20
ENDMDL
MODEL 5
REMARK VINA RESULT:    -3.750      1.241      1.991
REMARK INTER + INTRA:         -10.360
REMARK INTER:                  -8.724
REMARK INTRA:                  -1.635
REMARK UNBOUND:                -2.225
REMARK SMILES CCCCCCCCCCCCCCCCCCCCCC(=O)[O-]
REMARK SMILES IDX 12 1 11 2 10 3 9 4 8 5 7 6 6 7 5 8 4 9 3 10 2 11 1 12 13 13
REMARK SMILES IDX 14 14 15 15 16 16 17 17 18 18 19 19 20 20 21 21 22 22 23 23
REMARK SMILES IDX 24 24
REMARK H PARENT
REMARK Flexibility Score: inf
ROOT
ATOM      1  C   UNL     1      44.582  27.513   2.002  1.00  0.00     0.000 C 
ENDROOT
BRANCH   1   2
ATOM      2  C   UNL     1      44.844  28.266   3.312  1.00  0.00     0.000 C 
BRANCH   2   3
ATOM      3  C   UNL     1      46.170  27.820   3.946  1.00  0.00     0.000 C 
BRANCH   3   4
ATOM      4  C   UNL     1      45.967  26.947   5.194  1.00  0.00    -0.000 C 
BRANCH   4   5
ATOM      5  C   UNL     1      46.380  27.664   6.490  1.00  0.00    -0.000 C 
BRANCH   5   6
ATOM      6  C   UNL     1      45.643  29.000   6.694  1.00  0.00    -0.000 C 
BRANCH   6   7
ATOM      7  C   UNL     1      46.012  29.713   8.011  1.00  0.00    -0.000 C 
BRANCH   7   8
ATOM      8  C   UNL     1      44.857  29.689   9.028  1.00  0.00    -0.000 C 
BRANCH   8   9
ATOM      9  C   UNL     1      44.863  28.427   9.906  1.00  0.00    -0.000 C 
BRANCH   9  10
ATOM     10  C   UNL     1      46.054  28.390  10.879  1.00  0.00    -0.000 C 
BRANCH  10  11
ATOM     11  C   UNL     1      46.729  27.010  10.928  1.00  0.00    -0.003 C 
ATOM     12  C   UNL     1      46.356  26.125   9.738  1.00  0.00     0.004 C 
ENDBRANCH  10  11
ENDBRANCH   9  10
ENDBRANCH   8   9
ENDBRANCH   7   8
ENDBRANCH   6   7
ENDBRANCH   5   6
ENDBRANCH   4   5
ENDBRANCH   3   4
ENDBRANCH   2   3
ENDBRANCH   1   2
BRANCH   1  13
ATOM     13  C   UNL     1      45.626  27.881   0.936  1.00  0.00     0.000 C 
BRANCH  13  14
ATOM     14  C   UNL     1      45.409  29.286   0.353  1.00  0.00     0.000 C 
BRANCH  14  15
ATOM     15  C   UNL     1      45.499  29.310  -1.183  1.00  0.00     0.000 C 
BRANCH  15  16
ATOM     16  C   UNL     1      45.310  27.917  -1.806  1.00  0.00     0.000 C 
BRANCH  16  17
ATOM     17  C   UNL     1      46.498  27.496  -2.688  1.00  0.00     0.000 C 
BRANCH  17  18
ATOM     18  C   UNL     1      46.481  28.172  -4.071  1.00  0.00     0.000 C 
BRANCH  18  19
ATOM     19  C   UNL     1      45.798  27.359  -5.190  1.00  0.00     0.000 C 
BRANCH  19  20
ATOM     20  C   UNL     1      44.299  27.655  -5.393  1.00  0.00     0.006 C 
BRANCH  20  21
ATOM     21  C   UNL     1      43.912  29.131  -5.206  1.00  0.00     0.053 C 
BRANCH  21  22
ATOM     22  C   UNL     1      42.509  29.281  -4.703  1.00  0.00     0.041 C 
ATOM     23  O   UNL     1      41.534  29.076  -5.473  1.00  0.00    -0.550 OA
ATOM     24  O   UNL     1      42.280  29.616  -3.375  1.00  0.00    -0.550 OA
ENDBRANCH  21  22
ENDBRANCH  20  21
ENDBRANCH  19  20
ENDBRANCH  18  19
ENDBRANCH  17  18
ENDBRANCH  16  17
ENDBRANCH  15  16
ENDBRANCH  14  15
ENDBRANCH  13  14
ENDBRANCH   1  13
TORSDOF 20
ENDMDL
MODEL 6
REMARK VINA RESULT:    -3.679      1.616      2.912
REMARK INTER + INTRA:         -10.206
REMARK INTER:                  -8.538
REMARK INTRA:                  -1.668
REMARK UNBOUND:                -2.225
REMARK SMILES CCCCCCCCCCCCCCCCCCCCCC(=O)[O-]
REMARK SMILES IDX 12 1 11 2 10 3 9 4 8 5 7 6 6 7 5 8 4 9 3 10 2 11 1 12 13 13
REMARK SMILES IDX 14 14 15 15 16 16 17 17 18 18 19 19 20 20 21 21 22 22 23 23
REMARK SMILES IDX 24 24
REMARK H PARENT
REMARK Flexibility Score: inf
ROOT
ATOM      1  C   UNL     1      44.798  26.787   3.555  1.00  0.00     0.000 C 
ENDROOT
BRANCH   1   2
ATOM      2  C   UNL     1      46.306  26.571   3.727  1.00  0.00     0.000 C 
BRANCH   2   3
ATOM      3  C   UNL     1      46.872  27.492   4.819  1.00  0.00     0.000 C 
BRANCH   3   4
ATOM      4  C   UNL     1      47.059  26.772   6.164  1.00  0.00    -0.000 C 
BRANCH   4   5
ATOM      5  C   UNL     1      45.757  26.694   6.978  1.00  0.00    -0.000 C 
BRANCH   5   6
ATOM      6  C   UNL     1      45.769  27.612   8.213  1.00  0.00    -0.000 C 
BRANCH   6   7
ATOM      7  C   UNL     1      45.481  29.092   7.884  1.00  0.00    -0.000 C 
BRANCH   7   8
ATOM      8  C   UNL     1      44.723  29.803   9.020  1.00  0.00    -0.000 C 
BRANCH   8   9
ATOM      9  C   UNL     1      44.879  29.093  10.374  1.00  0.00    -0.000 C 
BRANCH   9  10
ATOM     10  C   UNL     1      45.578  29.972  11.425  1.00  0.00    -0.000 C 
BRANCH  10  11
ATOM     11  C   UNL     1      46.667  29.211  12.197  1.00  0.00    -0.003 C 
ATOM     12  C   UNL     1      46.961  27.833  11.603  1.00  0.00     0.004 C 
ENDBRANCH  10  11
ENDBRANCH   9  10
ENDBRANCH   8   9
ENDBRANCH   7   8
ENDBRANCH   6   7
ENDBRANCH   5   6
ENDBRANCH   4   5
ENDBRANCH   3   4
ENDBRANCH   2   3
ENDBRANCH   1   2
BRANCH   1  13
ATOM     13  C   UNL     1      44.497  27.580   2.274  1.00  0.00     0.000 C 
BRANCH  13  14
ATOM     14  C   UNL     1      45.760  27.881   1.451  1.00  0.00     0.000 C 
BRANCH  14  15
ATOM     15  C   UNL     1      45.497  27.865  -0.065  1.00  0.00     0.000 C 
BRANCH  15  16
ATOM     16  C   UNL     1      46.604  28.575  -0.863  1.00  0.00     0.000 C 
BRANCH  16  17
ATOM     17  C   UNL     1      46.116  29.872  -1.529  1.00  0.00     0.000 C 
BRANCH  17  18
ATOM     18  C   UNL     1      44.610  29.846  -1.851  1.00  0.00     0.000 C 
BRANCH  18  19
ATOM     19  C   UNL     1      44.262  29.777  -3.351  1.00  0.00     0.000 C 
BRANCH  19  20
ATOM     20  C   UNL     1      43.522  28.498  -3.794  1.00  0.00     0.006 C 
BRANCH  20  21
ATOM     21  C   UNL     1      44.365  27.215  -3.705  1.00  0.00     0.053 C 
BRANCH  21  22
ATOM     22  C   UNL     1      45.587  27.289  -4.569  1.00  0.00     0.041 C 
ATOM     23  O   UNL     1      45.475  27.445  -5.813  1.00  0.00    -0.550 OA
ATOM     24  O   UNL     1      46.849  27.218  -3.994  1.00  0.00    -0.550 OA
ENDBRANCH  21  22
ENDBRANCH  20  21
ENDBRANCH  19  20
ENDBRANCH  18  19
ENDBRANCH  17  18
ENDBRANCH  16  17
ENDBRANCH  15  16
ENDBRANCH  14  15
ENDBRANCH  13  14
ENDBRANCH   1  13
TORSDOF 20
ENDMDL
MODEL 7
REMARK VINA RESULT:    -3.457      4.492     11.071
REMARK INTER + INTRA:          -9.724
REMARK INTER:                  -7.820
REMARK INTRA:                  -1.904
REMARK UNBOUND:                -2.225
REMARK SMILES CCCCCCCCCCCCCCCCCCCCCC(=O)[O-]
REMARK SMILES IDX 12 1 11 2 10 3 9 4 8 5 7 6 6 7 5 8 4 9 3 10 2 11 1 12 13 13
REMARK SMILES IDX 14 14 15 15 16 16 17 17 18 18 19 19 20 20 21 21 22 22 23 23
REMARK SMILES IDX 24 24
REMARK H PARENT
REMARK Flexibility Score: inf
ROOT
ATOM      1  C   UNL     1      46.050  29.508  -1.239  1.00  0.00     0.000 C 
ENDROOT
BRANCH   1   2
ATOM      2  C   UNL     1      46.674  28.825  -2.462  1.00  0.00     0.000 C 
BRANCH   2   3
ATOM      3  C   UNL     1      45.951  27.509  -2.785  1.00  0.00     0.000 C 
BRANCH   3   4
ATOM      4  C   UNL     1      45.941  27.191  -4.289  1.00  0.00    -0.000 C 
BRANCH   4   5
ATOM      5  C   UNL     1      46.638  28.277  -5.126  1.00  0.00    -0.000 C 
BRANCH   5   6
ATOM      6  C   UNL     1      46.307  28.179  -6.625  1.00  0.00    -0.000 C 
BRANCH   6   7
ATOM      7  C   UNL     1      45.239  29.191  -7.089  1.00  0.00    -0.000 C 
BRANCH   7   8
ATOM      8  C   UNL     1      43.829  28.574  -7.121  1.00  0.00    -0.000 C 
BRANCH   8   9
ATOM      9  C   UNL     1      42.768  29.479  -6.477  1.00  0.00    -0.000 C 
BRANCH   9  10
ATOM     10  C   UNL     1      41.890  28.731  -5.459  1.00  0.00    -0.000 C 
BRANCH  10  11
ATOM     11  C   UNL     1      42.616  28.483  -4.127  1.00  0.00    -0.003 C 
ATOM     12  C   UNL     1      43.012  29.779  -3.418  1.00  0.00     0.004 C 
ENDBRANCH  10  11
ENDBRANCH   9  10
ENDBRANCH   8   9
ENDBRANCH   7   8
ENDBRANCH   6   7
ENDBRANCH   5   6
ENDBRANCH   4   5
ENDBRANCH   3   4
ENDBRANCH   2   3
ENDBRANCH   1   2
BRANCH   1  13
ATOM     13  C   UNL     1      45.618  28.472  -0.189  1.00  0.00     0.000 C 
BRANCH  13  14
ATOM     14  C   UNL     1      46.233  28.736   1.195  1.00  0.00     0.000 C 
BRANCH  14  15
ATOM     15  C   UNL     1      46.175  27.503   2.113  1.00  0.00     0.000 C 
BRANCH  15  16
ATOM     16  C   UNL     1      45.171  27.675   3.266  1.00  0.00     0.000 C 
BRANCH  16  17
ATOM     17  C   UNL     1      45.488  28.894   4.150  1.00  0.00     0.000 C 
BRANCH  17  18
ATOM     18  C   UNL     1      46.195  28.510   5.463  1.00  0.00     0.000 C 
BRANCH  18  19
ATOM     19  C   UNL     1      45.941  27.068   5.947  1.00  0.00     0.000 C 
BRANCH  19  20
ATOM     20  C   UNL     1      46.405  26.768   7.386  1.00  0.00     0.006 C 
BRANCH  20  21
ATOM     21  C   UNL     1      45.340  27.032   8.464  1.00  0.00     0.053 C 
BRANCH  21  22
ATOM     22  C   UNL     1      45.885  26.838   9.845  1.00  0.00     0.041 C 
ATOM     23  O   UNL     1      45.902  27.797  10.661  1.00  0.00    -0.550 OA
ATOM     24  O   UNL     1      46.345  25.589  10.242  1.00  0.00    -0.550 OA
ENDBRANCH  21  22
ENDBRANCH  20  21
ENDBRANCH  19  20
ENDBRANCH  18  19
ENDBRANCH  17  18
ENDBRANCH  16  17
ENDBRANCH  15  16
ENDBRANCH  14  15
ENDBRANCH  13  14
ENDBRANCH   1  13
TORSDOF 20
ENDMDL
MODEL 8
REMARK VINA RESULT:    -3.453      1.340      2.026
REMARK INTER + INTRA:          -9.714
REMARK INTER:                  -7.917
REMARK INTRA:                  -1.797
REMARK UNBOUND:                -2.225
REMARK SMILES CCCCCCCCCCCCCCCCCCCCCC(=O)[O-]
REMARK SMILES IDX 12 1 11 2 10 3 9 4 8 5 7 6 6 7 5 8 4 9 3 10 2 11 1 12 13 13
REMARK SMILES IDX 14 14 15 15 16 16 17 17 18 18 19 19 20 20 21 21 22 22 23 23
REMARK SMILES IDX 24 24
REMARK H PARENT
REMARK Flexibility Score: inf
ROOT
ATOM      1  C   UNL     1      45.575  28.348   1.072  1.00  0.00     0.000 C 
ENDROOT
BRANCH   1   2
ATOM      2  C   UNL     1      45.391  27.198   2.069  1.00  0.00     0.000 C 
BRANCH   2   3
ATOM      3  C   UNL     1      44.649  27.676   3.327  1.00  0.00     0.000 C 
BRANCH   3   4
ATOM      4  C   UNL     1      44.795  29.188   3.563  1.00  0.00    -0.000 C 
BRANCH   4   5
ATOM      5  C   UNL     1      45.641  29.512   4.806  1.00  0.00    -0.000 C 
BRANCH   5   6
ATOM      6  C   UNL     1      46.766  28.491   5.046  1.00  0.00    -0.000 C 
BRANCH   6   7
ATOM      7  C   UNL     1      46.963  28.128   6.533  1.00  0.00    -0.000 C 
BRANCH   7   8
ATOM      8  C   UNL     1      45.821  28.663   7.417  1.00  0.00    -0.000 C 
BRANCH   8   9
ATOM      9  C   UNL     1      45.310  27.620   8.424  1.00  0.00    -0.000 C 
BRANCH   9  10
ATOM     10  C   UNL     1      45.556  28.038   9.884  1.00  0.00    -0.000 C 
BRANCH  10  11
ATOM     11  C   UNL     1      46.386  27.003  10.659  1.00  0.00    -0.003 C 
ATOM     12  C   UNL     1      46.802  25.810   9.797  1.00  0.00     0.004 C 
ENDBRANCH  10  11
ENDBRANCH   9  10
ENDBRANCH   8   9
ENDBRANCH   7   8
ENDBRANCH   6   7
ENDBRANCH   5   6
ENDBRANCH   4   5
ENDBRANCH   3   4
ENDBRANCH   2   3
ENDBRANCH   1   2
BRANCH   1  13
ATOM     13  C   UNL     1      46.997  28.350   0.489  1.00  0.00     0.000 C 
BRANCH  13  14
ATOM     14  C   UNL     1      47.011  28.471  -1.044  1.00  0.00     0.000 C 
BRANCH  14  15
ATOM     15  C   UNL     1      46.107  29.606  -1.556  1.00  0.00     0.000 C 
BRANCH  15  16
ATOM     16  C   UNL     1      44.937  29.087  -2.409  1.00  0.00     0.000 C 
BRANCH  16  17
ATOM     17  C   UNL     1      45.051  27.584  -2.719  1.00  0.00     0.000 C 
BRANCH  17  18
ATOM     18  C   UNL     1      45.284  27.301  -4.215  1.00  0.00     0.000 C 
BRANCH  18  19
ATOM     19  C   UNL     1      45.633  28.535  -5.069  1.00  0.00     0.000 C 
BRANCH  19  20
ATOM     20  C   UNL     1      44.459  29.129  -5.874  1.00  0.00     0.006 C 
BRANCH  20  21
ATOM     21  C   UNL     1      43.273  28.170  -6.064  1.00  0.00     0.053 C 
BRANCH  21  22
ATOM     22  C   UNL     1      42.057  28.632  -5.321  1.00  0.00     0.041 C 
ATOM     23  O   UNL     1      41.884  28.300  -4.119  1.00  0.00    -0.550 OA
ATOM     24  O   UNL     1      41.132  29.457  -5.948  1.00  0.00    -0.550 OA
ENDBRANCH  21  22
ENDBRANCH  20  21
ENDBRANCH  19  20
ENDBRANCH  18  19
ENDBRANCH  17  18
ENDBRANCH  16  17
ENDBRANCH  15  16
ENDBRANCH  14  15
ENDBRANCH  13  14
ENDBRANCH   1  13
TORSDOF 20
ENDMDL
MODEL 9
REMARK VINA RESULT:    -3.303      4.098     10.798
REMARK INTER + INTRA:          -9.390
REMARK INTER:                  -7.578
REMARK INTRA:                  -1.811
REMARK UNBOUND:                -2.225
REMARK SMILES CCCCCCCCCCCCCCCCCCCCCC(=O)[O-]
REMARK SMILES IDX 12 1 11 2 10 3 9 4 8 5 7 6 6 7 5 8 4 9 3 10 2 11 1 12 13 13
REMARK SMILES IDX 14 14 15 15 16 16 17 17 18 18 19 19 20 20 21 21 22 22 23 23
REMARK SMILES IDX 24 24
REMARK H PARENT
REMARK Flexibility Score: inf
ROOT
ATOM      1  C   UNL     1      46.547  29.472   0.728  1.00  0.00     0.000 C 
ENDROOT
BRANCH   1   2
ATOM      2  C   UNL     1      46.647  29.289  -0.791  1.00  0.00     0.000 C 
BRANCH   2   3
ATOM      3  C   UNL     1      45.255  29.102  -1.414  1.00  0.00     0.000 C 
BRANCH   3   4
ATOM      4  C   UNL     1      45.132  27.791  -2.207  1.00  0.00    -0.000 C 
BRANCH   4   5
ATOM      5  C   UNL     1      46.367  27.510  -3.079  1.00  0.00    -0.000 C 
BRANCH   5   6
ATOM      6  C   UNL     1      46.011  27.253  -4.554  1.00  0.00    -0.000 C 
BRANCH   6   7
ATOM      7  C   UNL     1      46.540  28.338  -5.515  1.00  0.00    -0.000 C 
BRANCH   7   8
ATOM      8  C   UNL     1      46.135  29.755  -5.070  1.00  0.00    -0.000 C 
BRANCH   8   9
ATOM      9  C   UNL     1      44.622  30.005  -5.182  1.00  0.00    -0.000 C 
BRANCH   9  10
ATOM     10  C   UNL     1      43.977  29.216  -6.334  1.00  0.00    -0.000 C 
BRANCH  10  11
ATOM     11  C   UNL     1      42.577  28.693  -5.976  1.00  0.00    -0.003 C 
ATOM     12  C   UNL     1      42.435  28.345  -4.494  1.00  0.00     0.004 C 
ENDBRANCH  10  11
ENDBRANCH   9  10
ENDBRANCH   8   9
ENDBRANCH   7   8
ENDBRANCH   6   7
ENDBRANCH   5   6
ENDBRANCH   4   5
ENDBRANCH   3   4
ENDBRANCH   2   3
ENDBRANCH   1   2
BRANCH   1  13
ATOM     13  C   UNL     1      46.612  28.118   1.452  1.00  0.00     0.000 C 
BRANCH  13  14
ATOM     14  C   UNL     1      45.223  27.505   1.693  1.00  0.00     0.000 C 
BRANCH  14  15
ATOM     15  C   UNL     1      44.878  27.387   3.188  1.00  0.00     0.000 C 
BRANCH  15  16
ATOM     16  C   UNL     1      45.510  28.510   4.027  1.00  0.00     0.000 C 
BRANCH  16  17
ATOM     17  C   UNL     1      46.476  27.976   5.099  1.00  0.00     0.000 C 
BRANCH  17  18
ATOM     18  C   UNL     1      45.925  26.741   5.836  1.00  0.00     0.000 C 
BRANCH  18  19
ATOM     19  C   UNL     1      46.489  26.517   7.253  1.00  0.00     0.000 C 
BRANCH  19  20
ATOM     20  C   UNL     1      46.464  27.755   8.172  1.00  0.00     0.006 C 
BRANCH  20  21
ATOM     21  C   UNL     1      45.284  27.789   9.156  1.00  0.00     0.053 C 
BRANCH  21  22
ATOM     22  C   UNL     1      44.757  29.178   9.347  1.00  0.00     0.041 C 
ATOM     23  O   UNL     1      44.232  29.513  10.441  1.00  0.00    -0.550 OA
ATOM     24  O   UNL     1      44.874  30.112   8.325  1.00  0.00    -0.550 OA
ENDBRANCH  21  22
ENDBRANCH  20  21
ENDBRANCH  19  20
ENDBRANCH  18  19
ENDBRANCH  17  18
ENDBRANCH  16  17
ENDBRANCH  15  16
ENDBRANCH  14  15
ENDBRANCH  13  14
ENDBRANCH   1  13
TORSDOF 20
ENDMDL
