MODEL 1
REMARK VINA RESULT:    -3.560      0.000      0.000
REMARK INTER + INTRA:          -3.664
REMARK INTER:                  -3.664
REMARK INTRA:                   0.000
REMARK UNBOUND:                 0.000
REMARK SMILES CC1(C)[C@@H]2CC[C@@]1(C)[C@@H](O)C2
REMARK SMILES IDX 1 1 2 2 4 3 5 4 6 5 7 6 9 7 11 8 8 9 3 10 10 11
REMARK H PARENT 10 12
REMARK Flexibility Score: inf
ROOT
ATOM      1  C   UNL     1     118.832 117.786 117.398  1.00  0.00     0.012 C 
ATOM      2  C   UNL     1     117.705 116.925 118.049  1.00  0.00    -0.025 C 
ATOM      3  C   UNL     1     117.491 115.563 117.366  1.00  0.00    -0.002 C 
ATOM      4  C   UNL     1     117.016 115.948 115.944  1.00  0.00     0.005 C 
ATOM      5  C   UNL     1     116.169 117.211 116.197  1.00  0.00     0.010 C 
ATOM      6  C   UNL     1     116.258 117.375 117.740  1.00  0.00    -0.001 C 
ATOM      7  C   UNL     1     115.400 116.245 118.384  1.00  0.00     0.121 C 
ATOM      8  C   UNL     1     116.249 114.985 118.093  1.00  0.00     0.036 C 
ATOM      9  C   UNL     1     115.878 118.780 118.225  1.00  0.00     0.015 C 
ATOM     10  C   UNL     1     118.073 116.816 119.562  1.00  0.00     0.012 C 
ENDROOT
BRANCH   7  11
ATOM     11  O   UNL     1     114.122 116.154 117.806  1.00  0.00    -0.393 OA
ATOM     12  H   UNL     1     113.476 116.428 118.509  1.00  0.00     0.210 HD
ENDBRANCH   7  11
TORSDOF 1
ENDMDL
MODEL 2
REMARK VINA RESULT:    -3.560      1.432      2.319
REMARK INTER + INTRA:          -3.664
REMARK INTER:                  -3.664
REMARK INTRA:                   0.000
REMARK UNBOUND:                 0.000
REMARK SMILES CC1(C)[C@@H]2CC[C@@]1(C)[C@@H](O)C2
REMARK SMILES IDX 1 1 2 2 4 3 5 4 6 5 7 6 9 7 11 8 8 9 3 10 10 11
REMARK H PARENT 10 12
REMARK Flexibility Score: inf
ROOT
ATOM      1  C   UNL     1     115.328 118.861 117.395  1.00  0.00     0.012 C 
ATOM      2  C   UNL     1     116.186 117.751 118.079  1.00  0.00    -0.025 C 
ATOM      3  C   UNL     1     117.540 117.502 117.393  1.00  0.00    -0.002 C 
ATOM      4  C   UNL     1     117.140 116.981 115.992  1.00  0.00     0.005 C 
ATOM      5  C   UNL     1     115.872 116.154 116.284  1.00  0.00     0.010 C 
ATOM      6  C   UNL     1     115.721 116.298 117.824  1.00  0.00    -0.001 C 
ATOM      7  C   UNL     1     116.850 115.455 118.489  1.00  0.00     0.121 C 
ATOM      8  C   UNL     1     118.115 116.283 118.159  1.00  0.00     0.036 C 
ATOM      9  C   UNL     1     114.317 115.947 118.334  1.00  0.00     0.015 C 
ATOM     10  C   UNL     1     116.309 118.172 119.576  1.00  0.00     0.012 C 
ENDROOT
BRANCH   7  11
ATOM     11  O   UNL     1     116.926 114.157 117.957  1.00  0.00    -0.393 OA
ATOM     12  H   UNL     1     116.993 113.538 118.731  1.00  0.00     0.210 HD
ENDBRANCH   7  11
TORSDOF 1
ENDMDL
MODEL 3
REMARK VINA RESULT:    -3.549      1.782      3.279
REMARK INTER + INTRA:          -3.653
REMARK INTER:                  -3.653
REMARK INTRA:                   0.000
REMARK UNBOUND:                 0.000
REMARK SMILES CC1(C)[C@@H]2CC[C@@]1(C)[C@@H](O)C2
REMARK SMILES IDX 1 1 2 2 4 3 5 4 6 5 7 6 9 7 11 8 8 9 3 10 10 11
REMARK H PARENT 10 12
REMARK Flexibility Score: inf
ROOT
ATOM      1  C   UNL     1     114.424 115.439 117.451  1.00  0.00     0.012 C 
ATOM      2  C   UNL     1     115.560 116.297 118.090  1.00  0.00    -0.025 C 
ATOM      3  C   UNL     1     115.867 117.593 117.322  1.00  0.00    -0.002 C 
ATOM      4  C   UNL     1     116.386 117.083 115.955  1.00  0.00     0.005 C 
ATOM      5  C   UNL     1     117.161 115.807 116.339  1.00  0.00     0.010 C 
ATOM      6  C   UNL     1     116.997 115.762 117.884  1.00  0.00    -0.001 C 
ATOM      7  C   UNL     1     117.876 116.899 118.484  1.00  0.00     0.121 C 
ATOM      8  C   UNL     1     117.101 118.170 118.063  1.00  0.00     0.036 C 
ATOM      9  C   UNL     1     117.288 114.382 118.487  1.00  0.00     0.015 C 
ATOM     10  C   UNL     1     115.130 116.534 119.572  1.00  0.00     0.012 C 
ENDROOT
BRANCH   7  11
ATOM     11  O   UNL     1     119.181 116.891 117.964  1.00  0.00    -0.393 OA
ATOM     12  H   UNL     1     119.403 115.942 117.774  1.00  0.00     0.210 HD
ENDBRANCH   7  11
TORSDOF 1
ENDMDL
MODEL 4
REMARK VINA RESULT:    -3.547      1.348      2.520
REMARK INTER + INTRA:          -3.651
REMARK INTER:                  -3.651
REMARK INTRA:                   0.000
REMARK UNBOUND:                 0.000
REMARK SMILES CC1(C)[C@@H]2CC[C@@]1(C)[C@@H](O)C2
REMARK SMILES IDX 1 1 2 2 4 3 5 4 6 5 7 6 9 7 11 8 8 9 3 10 10 11
REMARK H PARENT 10 12
REMARK Flexibility Score: inf
ROOT
ATOM      1  C   UNL     1     117.750 114.468 117.651  1.00  0.00     0.012 C 
ATOM      2  C   UNL     1     117.478 115.971 117.969  1.00  0.00    -0.025 C 
ATOM      3  C   UNL     1     116.527 116.193 119.157  1.00  0.00    -0.002 C 
ATOM      4  C   UNL     1     115.195 115.575 118.667  1.00  0.00     0.005 C 
ATOM      5  C   UNL     1     115.194 115.914 117.163  1.00  0.00     0.010 C 
ATOM      6  C   UNL     1     116.525 116.698 116.992  1.00  0.00    -0.001 C 
ATOM      7  C   UNL     1     116.340 118.092 117.664  1.00  0.00     0.121 C 
ATOM      8  C   UNL     1     116.312 117.728 119.168  1.00  0.00     0.036 C 
ATOM      9  C   UNL     1     116.998 116.782 115.535  1.00  0.00     0.015 C 
ATOM     10  C   UNL     1     118.882 116.625 118.160  1.00  0.00     0.012 C 
ENDROOT
BRANCH   7  11
ATOM     11  O   UNL     1     115.151 118.722 117.261  1.00  0.00    -0.393 OA
ATOM     12  H   UNL     1     115.171 119.635 117.650  1.00  0.00     0.210 HD
ENDBRANCH   7  11
TORSDOF 1
ENDMDL
MODEL 5
REMARK VINA RESULT:    -3.547      1.642      2.902
REMARK INTER + INTRA:          -3.650
REMARK INTER:                  -3.650
REMARK INTRA:                   0.000
REMARK UNBOUND:                 0.000
REMARK SMILES CC1(C)[C@@H]2CC[C@@]1(C)[C@@H](O)C2
REMARK SMILES IDX 1 1 2 2 4 3 5 4 6 5 7 6 9 7 11 8 8 9 3 10 10 11
REMARK H PARENT 10 12
REMARK Flexibility Score: inf
ROOT
ATOM      1  C   UNL     1     115.471 118.752 117.649  1.00  0.00     0.012 C 
ATOM      2  C   UNL     1     115.741 117.250 117.975  1.00  0.00    -0.025 C 
ATOM      3  C   UNL     1     116.694 117.034 119.164  1.00  0.00    -0.002 C 
ATOM      4  C   UNL     1     118.026 117.648 118.668  1.00  0.00     0.005 C 
ATOM      5  C   UNL     1     118.025 117.301 117.166  1.00  0.00     0.010 C 
ATOM      6  C   UNL     1     116.693 116.517 117.001  1.00  0.00    -0.001 C 
ATOM      7  C   UNL     1     116.877 115.127 117.680  1.00  0.00     0.121 C 
ATOM      8  C   UNL     1     116.907 115.499 119.182  1.00  0.00     0.036 C 
ATOM      9  C   UNL     1     116.217 116.426 115.545  1.00  0.00     0.015 C 
ATOM     10  C   UNL     1     114.337 116.599 118.172  1.00  0.00     0.012 C 
ENDROOT
BRANCH   7  11
ATOM     11  O   UNL     1     118.065 114.493 117.278  1.00  0.00    -0.393 OA
ATOM     12  H   UNL     1     118.772 114.798 117.905  1.00  0.00     0.210 HD
ENDBRANCH   7  11
TORSDOF 1
ENDMDL
MODEL 6
REMARK VINA RESULT:    -3.542      0.929      2.063
REMARK INTER + INTRA:          -3.646
REMARK INTER:                  -3.646
REMARK INTRA:                   0.000
REMARK UNBOUND:                 0.000
REMARK SMILES CC1(C)[C@@H]2CC[C@@]1(C)[C@@H](O)C2
REMARK SMILES IDX 1 1 2 2 4 3 5 4 6 5 7 6 9 7 11 8 8 9 3 10 10 11
REMARK H PARENT 10 12
REMARK Flexibility Score: inf
ROOT
ATOM      1  C   UNL     1     118.738 117.752 117.622  1.00  0.00     0.012 C 
ATOM      2  C   UNL     1     117.235 117.497 117.957  1.00  0.00    -0.025 C 
ATOM      3  C   UNL     1     117.017 116.588 119.179  1.00  0.00    -0.002 C 
ATOM      4  C   UNL     1     117.628 115.237 118.731  1.00  0.00     0.005 C 
ATOM      5  C   UNL     1     117.281 115.186 117.230  1.00  0.00     0.010 C 
ATOM      6  C   UNL     1     116.500 116.513 117.017  1.00  0.00    -0.001 C 
ATOM      7  C   UNL     1     115.110 116.356 117.702  1.00  0.00     0.121 C 
ATOM      8  C   UNL     1     115.481 116.379 119.204  1.00  0.00     0.036 C 
ATOM      9  C   UNL     1     116.410 116.937 115.545  1.00  0.00     0.015 C 
ATOM     10  C   UNL     1     116.587 118.909 118.103  1.00  0.00     0.012 C 
ENDROOT
BRANCH   7  11
ATOM     11  O   UNL     1     114.473 115.157 117.343  1.00  0.00    -0.393 OA
ATOM     12  H   UNL     1     113.511 115.273 117.558  1.00  0.00     0.210 HD
ENDBRANCH   7  11
TORSDOF 1
ENDMDL
MODEL 7
REMARK VINA RESULT:    -3.538      1.464      2.303
REMARK INTER + INTRA:          -3.641
REMARK INTER:                  -3.641
REMARK INTRA:                   0.000
REMARK UNBOUND:                 0.000
REMARK SMILES CC1(C)[C@@H]2CC[C@@]1(C)[C@@H](O)C2
REMARK SMILES IDX 1 1 2 2 4 3 5 4 6 5 7 6 9 7 11 8 8 9 3 10 10 11
REMARK H PARENT 10 12
REMARK Flexibility Score: inf
ROOT
ATOM      1  C   UNL     1     117.792 114.463 117.415  1.00  0.00     0.012 C 
ATOM      2  C   UNL     1     116.929 115.585 118.072  1.00  0.00    -0.025 C 
ATOM      3  C   UNL     1     115.555 115.781 117.409  1.00  0.00    -0.002 C 
ATOM      4  C   UNL     1     115.914 116.251 115.978  1.00  0.00     0.005 C 
ATOM      5  C   UNL     1     117.172 117.112 116.207  1.00  0.00     0.010 C 
ATOM      6  C   UNL     1     117.361 117.035 117.748  1.00  0.00    -0.001 C 
ATOM      7  C   UNL     1     116.232 117.885 118.404  1.00  0.00     0.121 C 
ATOM      8  C   UNL     1     114.976 117.021 118.137  1.00  0.00     0.036 C 
ATOM      9  C   UNL     1     118.769 117.431 118.209  1.00  0.00     0.015 C 
ATOM     10  C   UNL     1     116.848 115.225 119.589  1.00  0.00     0.012 C 
ENDROOT
BRANCH   7  11
ATOM     11  O   UNL     1     116.119 119.158 117.821  1.00  0.00    -0.393 OA
ATOM     12  H   UNL     1     115.821 119.772 118.541  1.00  0.00     0.210 HD
ENDBRANCH   7  11
TORSDOF 1
ENDMDL
MODEL 8
REMARK VINA RESULT:    -3.524      1.755      3.263
REMARK INTER + INTRA:          -3.627
REMARK INTER:                  -3.627
REMARK INTRA:                   0.000
REMARK UNBOUND:                 0.000
REMARK SMILES CC1(C)[C@@H]2CC[C@@]1(C)[C@@H](O)C2
REMARK SMILES IDX 1 1 2 2 4 3 5 4 6 5 7 6 9 7 11 8 8 9 3 10 10 11
REMARK H PARENT 10 12
REMARK Flexibility Score: inf
ROOT
ATOM      1  C   UNL     1     114.478 115.483 117.685  1.00  0.00     0.012 C 
ATOM      2  C   UNL     1     115.987 115.730 117.996  1.00  0.00    -0.025 C 
ATOM      3  C   UNL     1     116.230 116.683 119.179  1.00  0.00    -0.002 C 
ATOM      4  C   UNL     1     115.633 118.024 118.684  1.00  0.00     0.005 C 
ATOM      5  C   UNL     1     115.966 118.011 117.179  1.00  0.00     0.010 C 
ATOM      6  C   UNL     1     116.727 116.665 117.011  1.00  0.00    -0.001 C 
ATOM      7  C   UNL     1     118.126 116.829 117.677  1.00  0.00     0.121 C 
ATOM      8  C   UNL     1     117.768 116.872 119.182  1.00  0.00     0.036 C 
ATOM      9  C   UNL     1     116.797 116.183 115.557  1.00  0.00     0.015 C 
ATOM     10  C   UNL     1     116.618 114.316 118.192  1.00  0.00     0.012 C 
ENDROOT
BRANCH   7  11
ATOM     11  O   UNL     1     118.776 118.005 117.265  1.00  0.00    -0.393 OA
ATOM     12  H   UNL     1     118.207 118.761 117.566  1.00  0.00     0.210 HD
ENDBRANCH   7  11
TORSDOF 1
ENDMDL
MODEL 9
REMARK VINA RESULT:    -3.455      1.357      2.719
REMARK INTER + INTRA:          -3.556
REMARK INTER:                  -3.556
REMARK INTRA:                   0.000
REMARK UNBOUND:                 0.000
REMARK SMILES CC1(C)[C@@H]2CC[C@@]1(C)[C@@H](O)C2
REMARK SMILES IDX 1 1 2 2 4 3 5 4 6 5 7 6 9 7 11 8 8 9 3 10 10 11
REMARK H PARENT 10 12
REMARK Flexibility Score: inf
ROOT
ATOM      1  C   UNL     1     116.512 116.261 115.599  1.00  0.00     0.012 C 
ATOM      2  C   UNL     1     116.384 116.696 117.092  1.00  0.00    -0.025 C 
ATOM      3  C   UNL     1     117.705 116.623 117.876  1.00  0.00    -0.002 C 
ATOM      4  C   UNL     1     118.045 115.112 117.861  1.00  0.00     0.005 C 
ATOM      5  C   UNL     1     116.657 114.449 117.957  1.00  0.00     0.010 C 
ATOM      6  C   UNL     1     115.701 115.672 118.029  1.00  0.00    -0.001 C 
ATOM      7  C   UNL     1     115.874 116.323 119.434  1.00  0.00     0.121 C 
ATOM      8  C   UNL     1     117.283 116.955 119.330  1.00  0.00     0.036 C 
ATOM      9  C   UNL     1     114.244 115.327 117.693  1.00  0.00     0.015 C 
ATOM     10  C   UNL     1     115.749 118.121 117.066  1.00  0.00     0.012 C 
ENDROOT
BRANCH   7  11
ATOM     11  O   UNL     1     115.806 115.376 120.470  1.00  0.00    -0.393 OA
ATOM     12  H   UNL     1     114.903 114.966 120.418  1.00  0.00     0.210 HD
ENDBRANCH   7  11
TORSDOF 1
ENDMDL
