MODEL 1
REMARK VINA RESULT:    -6.241      0.000      0.000
REMARK INTER + INTRA:          -6.423
REMARK INTER:                  -6.423
REMARK INTRA:                   0.000
REMARK UNBOUND:                 0.000
REMARK SMILES O=c1ccc2ccc(O)cc2o1
REMARK SMILES IDX 6 1 7 2 8 3 10 4 11 5 5 6 4 7 3 8 2 9 1 10 12 11 9 12
REMARK H PARENT 9 13
REMARK Flexibility Score: inf
ROOT
ATOM      1  C   UNL     1     -30.124  -3.093 -18.724  1.00  0.00     0.016 A 
ATOM      2  C   UNL     1     -30.029  -2.532 -20.001  1.00  0.00     0.047 A 
ATOM      3  C   UNL     1     -31.186  -2.231 -20.730  1.00  0.00     0.119 A 
ATOM      4  C   UNL     1     -32.448  -2.494 -20.179  1.00  0.00     0.094 A 
ATOM      5  C   UNL     1     -32.554  -3.056 -18.902  1.00  0.00     0.142 A 
ATOM      6  C   UNL     1     -31.385  -3.358 -18.169  1.00  0.00     0.018 A 
ATOM      7  C   UNL     1     -31.522  -3.918 -16.895  1.00  0.00     0.019 A 
ATOM      8  C   UNL     1     -32.799  -4.163 -16.390  1.00  0.00     0.094 A 
ATOM      9  C   UNL     1     -33.912  -3.837 -17.172  1.00  0.00     0.336 A 
ATOM     10  O   UNL     1     -35.073  -4.050 -16.733  1.00  0.00    -0.246 OA
ATOM     11  O   UNL     1     -33.753  -3.305 -18.381  1.00  0.00    -0.423 OA
ENDROOT
BRANCH   3  12
ATOM     12  O   UNL     1     -31.070  -1.672 -22.001  1.00  0.00    -0.508 OA
ATOM     13  H   UNL     1     -31.858  -1.633 -22.637  1.00  0.00     0.293 HD
ENDBRANCH   3  12
TORSDOF 1
ENDMDL
MODEL 2
REMARK VINA RESULT:    -6.031      7.618      9.927
REMARK INTER + INTRA:          -6.207
REMARK INTER:                  -6.207
REMARK INTRA:                   0.000
REMARK UNBOUND:                 0.000
REMARK SMILES O=c1ccc2ccc(O)cc2o1
REMARK SMILES IDX 6 1 7 2 8 3 10 4 11 5 5 6 4 7 3 8 2 9 1 10 12 11 9 12
REMARK H PARENT 9 13
REMARK Flexibility Score: inf
ROOT
ATOM      1  C   UNL     1     -38.950  -8.849 -13.775  1.00  0.00     0.016 A 
ATOM      2  C   UNL     1     -40.347  -8.787 -13.767  1.00  0.00     0.047 A 
ATOM      3  C   UNL     1     -41.000  -7.559 -13.605  1.00  0.00     0.119 A 
ATOM      4  C   UNL     1     -40.251  -6.384 -13.451  1.00  0.00     0.094 A 
ATOM      5  C   UNL     1     -38.854  -6.435 -13.457  1.00  0.00     0.142 A 
ATOM      6  C   UNL     1     -38.198  -7.675 -13.620  1.00  0.00     0.018 A 
ATOM      7  C   UNL     1     -36.799  -7.695 -13.623  1.00  0.00     0.019 A 
ATOM      8  C   UNL     1     -36.098  -6.500 -13.465  1.00  0.00     0.094 A 
ATOM      9  C   UNL     1     -36.815  -5.309 -13.309  1.00  0.00     0.336 A 
ATOM     10  O   UNL     1     -36.199  -4.220 -13.165  1.00  0.00    -0.246 OA
ATOM     11  O   UNL     1     -38.145  -5.318 -13.310  1.00  0.00    -0.423 OA
ENDROOT
BRANCH   3  12
ATOM     12  O   UNL     1     -42.393  -7.519 -13.600  1.00  0.00    -0.508 OA
ATOM     13  H   UNL     1     -42.903  -6.785 -14.077  1.00  0.00     0.293 HD
ENDBRANCH   3  12
TORSDOF 1
ENDMDL
MODEL 3
REMARK VINA RESULT:    -5.754      1.721      2.551
REMARK INTER + INTRA:          -5.922
REMARK INTER:                  -5.922
REMARK INTRA:                   0.000
REMARK UNBOUND:                 0.000
REMARK SMILES O=c1ccc2ccc(O)cc2o1
REMARK SMILES IDX 6 1 7 2 8 3 10 4 11 5 5 6 4 7 3 8 2 9 1 10 12 11 9 12
REMARK H PARENT 9 13
REMARK Flexibility Score: inf
ROOT
ATOM      1  C   UNL     1     -31.720  -1.965 -21.085  1.00  0.00     0.016 A 
ATOM      2  C   UNL     1     -30.455  -1.678 -21.608  1.00  0.00     0.047 A 
ATOM      3  C   UNL     1     -29.300  -2.000 -20.885  1.00  0.00     0.119 A 
ATOM      4  C   UNL     1     -29.409  -2.612 -19.629  1.00  0.00     0.094 A 
ATOM      5  C   UNL     1     -30.669  -2.903 -19.096  1.00  0.00     0.142 A 
ATOM      6  C   UNL     1     -31.833  -2.578 -19.828  1.00  0.00     0.018 A 
ATOM      7  C   UNL     1     -33.079  -2.881 -19.270  1.00  0.00     0.019 A 
ATOM      8  C   UNL     1     -33.137  -3.490 -18.017  1.00  0.00     0.094 A 
ATOM      9  C   UNL     1     -31.943  -3.784 -17.350  1.00  0.00     0.336 A 
ATOM     10  O   UNL     1     -31.975  -4.334 -16.217  1.00  0.00    -0.246 OA
ATOM     11  O   UNL     1     -30.771  -3.485 -17.903  1.00  0.00    -0.423 OA
ENDROOT
BRANCH   3  12
ATOM     12  O   UNL     1     -28.049  -1.705 -21.424  1.00  0.00    -0.508 OA
ATOM     13  H   UNL     1     -27.556  -2.369 -22.010  1.00  0.00     0.293 HD
ENDBRANCH   3  12
TORSDOF 1
ENDMDL
MODEL 4
REMARK VINA RESULT:    -5.618      7.173      8.885
REMARK INTER + INTRA:          -5.782
REMARK INTER:                  -5.782
REMARK INTRA:                   0.000
REMARK UNBOUND:                 0.000
REMARK SMILES O=c1ccc2ccc(O)cc2o1
REMARK SMILES IDX 6 1 7 2 8 3 10 4 11 5 5 6 4 7 3 8 2 9 1 10 12 11 9 12
REMARK H PARENT 9 13
REMARK Flexibility Score: inf
ROOT
ATOM      1  C   UNL     1     -36.189  -6.440 -13.820  1.00  0.00     0.016 A 
ATOM      2  C   UNL     1     -36.134  -5.046 -13.721  1.00  0.00     0.047 A 
ATOM      3  C   UNL     1     -37.303  -4.306 -13.501  1.00  0.00     0.119 A 
ATOM      4  C   UNL     1     -38.535  -4.964 -13.380  1.00  0.00     0.094 A 
ATOM      5  C   UNL     1     -38.600  -6.358 -13.479  1.00  0.00     0.142 A 
ATOM      6  C   UNL     1     -37.420  -7.101 -13.701  1.00  0.00     0.018 A 
ATOM      7  C   UNL     1     -37.516  -8.493 -13.794  1.00  0.00     0.019 A 
ATOM      8  C   UNL     1     -38.764  -9.103 -13.668  1.00  0.00     0.094 A 
ATOM      9  C   UNL     1     -39.890  -8.302 -13.449  1.00  0.00     0.336 A 
ATOM     10  O   UNL     1     -41.026  -8.834 -13.332  1.00  0.00    -0.246 OA
ATOM     11  O   UNL     1     -39.771  -6.980 -13.363  1.00  0.00    -0.423 OA
ENDROOT
BRANCH   3  12
ATOM     12  O   UNL     1     -37.227  -2.918 -13.404  1.00  0.00    -0.508 OA
ATOM     13  H   UNL     1     -37.487  -2.431 -12.554  1.00  0.00     0.293 HD
ENDBRANCH   3  12
TORSDOF 1
ENDMDL
MODEL 5
REMARK VINA RESULT:    -5.524      2.587      3.565
REMARK INTER + INTRA:          -5.685
REMARK INTER:                  -5.685
REMARK INTRA:                   0.000
REMARK UNBOUND:                 0.000
REMARK SMILES O=c1ccc2ccc(O)cc2o1
REMARK SMILES IDX 6 1 7 2 8 3 10 4 11 5 5 6 4 7 3 8 2 9 1 10 12 11 9 12
REMARK H PARENT 9 13
REMARK Flexibility Score: inf
ROOT
ATOM      1  C   UNL     1     -31.806  -2.995 -18.094  1.00  0.00     0.016 A 
ATOM      2  C   UNL     1     -30.794  -3.736 -17.475  1.00  0.00     0.047 A 
ATOM      3  C   UNL     1     -31.074  -4.990 -16.919  1.00  0.00     0.119 A 
ATOM      4  C   UNL     1     -32.375  -5.508 -16.981  1.00  0.00     0.094 A 
ATOM      5  C   UNL     1     -33.395  -4.774 -17.596  1.00  0.00     0.142 A 
ATOM      6  C   UNL     1     -33.110  -3.510 -18.156  1.00  0.00     0.018 A 
ATOM      7  C   UNL     1     -34.149  -2.800 -18.766  1.00  0.00     0.019 A 
ATOM      8  C   UNL     1     -35.428  -3.355 -18.802  1.00  0.00     0.094 A 
ATOM      9  C   UNL     1     -35.636  -4.614 -18.227  1.00  0.00     0.336 A 
ATOM     10  O   UNL     1     -36.784  -5.132 -18.249  1.00  0.00    -0.246 OA
ATOM     11  O   UNL     1     -34.630  -5.268 -17.653  1.00  0.00    -0.423 OA
ENDROOT
BRANCH   3  12
ATOM     12  O   UNL     1     -30.051  -5.713 -16.308  1.00  0.00    -0.508 OA
ATOM     13  H   UNL     1     -29.821  -5.581 -15.330  1.00  0.00     0.293 HD
ENDBRANCH   3  12
TORSDOF 1
ENDMDL
MODEL 6
REMARK VINA RESULT:    -5.459      8.187      9.559
REMARK INTER + INTRA:          -5.618
REMARK INTER:                  -5.618
REMARK INTRA:                   0.000
REMARK UNBOUND:                 0.000
REMARK SMILES O=c1ccc2ccc(O)cc2o1
REMARK SMILES IDX 6 1 7 2 8 3 10 4 11 5 5 6 4 7 3 8 2 9 1 10 12 11 9 12
REMARK H PARENT 9 13
REMARK Flexibility Score: inf
ROOT
ATOM      1  C   UNL     1     -39.673  -8.355 -13.668  1.00  0.00     0.016 A 
ATOM      2  C   UNL     1     -38.656  -9.019 -14.361  1.00  0.00     0.047 A 
ATOM      3  C   UNL     1     -37.465  -8.355 -14.678  1.00  0.00     0.119 A 
ATOM      4  C   UNL     1     -37.288  -7.016 -14.301  1.00  0.00     0.094 A 
ATOM      5  C   UNL     1     -38.300  -6.343 -13.608  1.00  0.00     0.142 A 
ATOM      6  C   UNL     1     -39.500  -7.015 -13.289  1.00  0.00     0.018 A 
ATOM      7  C   UNL     1     -40.493  -6.317 -12.594  1.00  0.00     0.019 A 
ATOM      8  C   UNL     1     -40.272  -4.986 -12.241  1.00  0.00     0.094 A 
ATOM      9  C   UNL     1     -39.058  -4.384 -12.589  1.00  0.00     0.336 A 
ATOM     10  O   UNL     1     -38.840  -3.184 -12.278  1.00  0.00    -0.246 OA
ATOM     11  O   UNL     1     -38.130  -5.072 -13.249  1.00  0.00    -0.423 OA
ENDROOT
BRANCH   3  12
ATOM     12  O   UNL     1     -36.464  -9.035 -15.370  1.00  0.00    -0.508 OA
ATOM     13  H   UNL     1     -35.496  -8.997 -15.072  1.00  0.00     0.293 HD
ENDBRANCH   3  12
TORSDOF 1
ENDMDL
MODEL 7
REMARK VINA RESULT:    -5.401      6.414      8.722
REMARK INTER + INTRA:          -5.559
REMARK INTER:                  -5.559
REMARK INTRA:                   0.000
REMARK UNBOUND:                 0.000
REMARK SMILES O=c1ccc2ccc(O)cc2o1
REMARK SMILES IDX 6 1 7 2 8 3 10 4 11 5 5 6 4 7 3 8 2 9 1 10 12 11 9 12
REMARK H PARENT 9 13
REMARK Flexibility Score: inf
ROOT
ATOM      1  C   UNL     1     -37.657  -8.343 -15.364  1.00  0.00     0.016 A 
ATOM      2  C   UNL     1     -36.502  -7.671 -15.777  1.00  0.00     0.047 A 
ATOM      3  C   UNL     1     -36.216  -6.389 -15.289  1.00  0.00     0.119 A 
ATOM      4  C   UNL     1     -37.092  -5.774 -14.384  1.00  0.00     0.094 A 
ATOM      5  C   UNL     1     -38.251  -6.437 -13.966  1.00  0.00     0.142 A 
ATOM      6  C   UNL     1     -38.536  -7.730 -14.459  1.00  0.00     0.018 A 
ATOM      7  C   UNL     1     -39.701  -8.369 -14.023  1.00  0.00     0.019 A 
ATOM      8  C   UNL     1     -40.542  -7.716 -13.122  1.00  0.00     0.094 A 
ATOM      9  C   UNL     1     -40.196  -6.436 -12.676  1.00  0.00     0.336 A 
ATOM     10  O   UNL     1     -40.942  -5.831 -11.862  1.00  0.00    -0.246 OA
ATOM     11  O   UNL     1     -39.081  -5.851 -13.106  1.00  0.00    -0.423 OA
ENDROOT
BRANCH   3  12
ATOM     12  O   UNL     1     -35.060  -5.737 -15.712  1.00  0.00    -0.508 OA
ATOM     13  H   UNL     1     -35.008  -4.726 -15.754  1.00  0.00     0.293 HD
ENDBRANCH   3  12
TORSDOF 1
ENDMDL
MODEL 8
REMARK VINA RESULT:    -5.368      1.036      4.241
REMARK INTER + INTRA:          -5.525
REMARK INTER:                  -5.525
REMARK INTRA:                   0.000
REMARK UNBOUND:                 0.000
REMARK SMILES O=c1ccc2ccc(O)cc2o1
REMARK SMILES IDX 6 1 7 2 8 3 10 4 11 5 5 6 4 7 3 8 2 9 1 10 12 11 9 12
REMARK H PARENT 9 13
REMARK Flexibility Score: inf
ROOT
ATOM      1  C   UNL     1     -32.488  -4.154 -16.558  1.00  0.00     0.016 A 
ATOM      2  C   UNL     1     -33.851  -4.427 -16.405  1.00  0.00     0.047 A 
ATOM      3  C   UNL     1     -34.754  -4.118 -17.430  1.00  0.00     0.119 A 
ATOM      4  C   UNL     1     -34.291  -3.532 -18.617  1.00  0.00     0.094 A 
ATOM      5  C   UNL     1     -32.929  -3.254 -18.779  1.00  0.00     0.142 A 
ATOM      6  C   UNL     1     -32.021  -3.567 -17.743  1.00  0.00     0.018 A 
ATOM      7  C   UNL     1     -30.666  -3.279 -17.934  1.00  0.00     0.019 A 
ATOM      8  C   UNL     1     -30.253  -2.695 -19.131  1.00  0.00     0.094 A 
ATOM      9  C   UNL     1     -31.209  -2.413 -20.113  1.00  0.00     0.336 A 
ATOM     10  O   UNL     1     -30.856  -1.886 -21.201  1.00  0.00    -0.246 OA
ATOM     11  O   UNL     1     -32.492  -2.698 -19.906  1.00  0.00    -0.423 OA
ENDROOT
BRANCH   3  12
ATOM     12  O   UNL     1     -36.108  -4.398 -17.259  1.00  0.00    -0.508 OA
ATOM     13  H   UNL     1     -36.496  -4.593 -16.343  1.00  0.00     0.293 HD
ENDBRANCH   3  12
TORSDOF 1
ENDMDL
