MODEL 1
REMARK VINA RESULT:    -1.119      0.000      0.000
REMARK INTER + INTRA:          -7.166
REMARK INTER:                  -2.428
REMARK INTRA:                  -4.739
REMARK UNBOUND:                -4.739
REMARK SMILES CCCCCCCCCCCCCCCCCCCCCC(=O)[O-]
REMARK SMILES IDX 12 1 11 2 10 3 9 4 8 5 7 6 6 7 5 8 4 9 3 10 2 11 1 12 13 13
REMARK SMILES IDX 14 14 15 15 16 16 17 17 18 18 19 19 20 20 21 21 22 22 23 23
REMARK SMILES IDX 24 24
REMARK H PARENT
REMARK Flexibility Score: inf
ROOT
ATOM      1  C   UNL     1      21.109  24.176  16.215  1.00  0.00     0.000 C 
ENDROOT
BRANCH   1   2
ATOM      2  C   UNL     1      21.197  22.707  15.770  1.00  0.00     0.000 C 
BRANCH   2   3
ATOM      3  C   UNL     1      22.021  22.532  14.484  1.00  0.00     0.000 C 
BRANCH   3   4
ATOM      4  C   UNL     1      22.356  23.879  13.816  1.00  0.00    -0.000 C 
BRANCH   4   5
ATOM      5  C   UNL     1      23.850  24.025  13.490  1.00  0.00    -0.000 C 
BRANCH   5   6
ATOM      6  C   UNL     1      24.676  22.810  13.947  1.00  0.00    -0.000 C 
BRANCH   6   7
ATOM      7  C   UNL     1      25.999  23.219  14.616  1.00  0.00    -0.000 C 
BRANCH   7   8
ATOM      8  C   UNL     1      25.970  23.024  16.143  1.00  0.00    -0.000 C 
BRANCH   8   9
ATOM      9  C   UNL     1      24.981  21.933  16.580  1.00  0.00    -0.000 C 
BRANCH   9  10
ATOM     10  C   UNL     1      24.451  22.145  18.006  1.00  0.00    -0.000 C 
BRANCH  10  11
ATOM     11  C   UNL     1      25.441  22.967  18.841  1.00  0.00    -0.003 C 
ATOM     12  C   UNL     1      24.750  23.619  20.034  1.00  0.00     0.004 C 
ENDBRANCH  10  11
ENDBRANCH   9  10
ENDBRANCH   8   9
ENDBRANCH   7   8
ENDBRANCH   6   7
ENDBRANCH   5   6
ENDBRANCH   4   5
ENDBRANCH   3   4
ENDBRANCH   2   3
ENDBRANCH   1   2
BRANCH   1  13
ATOM     13  C   UNL     1      21.501  24.376  17.687  1.00  0.00     0.000 C 
BRANCH  13  14
ATOM     14  C   UNL     1      22.439  25.578  17.899  1.00  0.00     0.000 C 
BRANCH  14  15
ATOM     15  C   UNL     1      23.610  25.573  16.902  1.00  0.00     0.000 C 
BRANCH  15  16
ATOM     16  C   UNL     1      24.763  26.484  17.357  1.00  0.00     0.000 C 
BRANCH  16  17
ATOM     17  C   UNL     1      25.713  26.845  16.202  1.00  0.00     0.000 C 
BRANCH  17  18
ATOM     18  C   UNL     1      24.962  27.019  14.870  1.00  0.00     0.000 C 
BRANCH  18  19
ATOM     19  C   UNL     1      24.836  28.492  14.455  1.00  0.00     0.000 C 
BRANCH  19  20
ATOM     20  C   UNL     1      23.398  28.877  14.066  1.00  0.00     0.006 C 
BRANCH  20  21
ATOM     21  C   UNL     1      22.440  27.680  14.125  1.00  0.00     0.053 C 
BRANCH  21  22
ATOM     22  C   UNL     1      21.355  27.882  15.139  1.00  0.00     0.041 C 
ATOM     23  O   UNL     1      21.576  28.551  16.182  1.00  0.00    -0.550 OA
ATOM     24  O   UNL     1      20.089  27.358  14.914  1.00  0.00    -0.550 OA
ENDBRANCH  21  22
ENDBRANCH  20  21
ENDBRANCH  19  20
ENDBRANCH  18  19
ENDBRANCH  17  18
ENDBRANCH  16  17
ENDBRANCH  15  16
ENDBRANCH  14  15
ENDBRANCH  13  14
ENDBRANCH   1  13
TORSDOF 20
ENDMDL
MODEL 2
REMARK VINA RESULT:    -1.084      2.053      5.173
REMARK INTER + INTRA:          -7.089
REMARK INTER:                  -2.567
REMARK INTRA:                  -4.522
REMARK UNBOUND:                -4.739
REMARK SMILES CCCCCCCCCCCCCCCCCCCCCC(=O)[O-]
REMARK SMILES IDX 12 1 11 2 10 3 9 4 8 5 7 6 6 7 5 8 4 9 3 10 2 11 1 12 13 13
REMARK SMILES IDX 14 14 15 15 16 16 17 17 18 18 19 19 20 20 21 21 22 22 23 23
REMARK SMILES IDX 24 24
REMARK H PARENT
REMARK Flexibility Score: inf
ROOT
ATOM      1  C   UNL     1      22.173  25.976  15.339  1.00  0.00     0.000 C 
ENDROOT
BRANCH   1   2
ATOM      2  C   UNL     1      21.228  27.097  15.804  1.00  0.00     0.000 C 
BRANCH   2   3
ATOM      3  C   UNL     1      21.714  28.490  15.372  1.00  0.00     0.000 C 
BRANCH   3   4
ATOM      4  C   UNL     1      22.577  29.168  16.452  1.00  0.00    -0.000 C 
BRANCH   4   5
ATOM      5  C   UNL     1      23.986  29.522  15.950  1.00  0.00    -0.000 C 
BRANCH   5   6
ATOM      6  C   UNL     1      24.219  29.091  14.492  1.00  0.00    -0.000 C 
BRANCH   6   7
ATOM      7  C   UNL     1      25.310  28.013  14.368  1.00  0.00    -0.000 C 
BRANCH   7   8
ATOM      8  C   UNL     1      25.840  27.554  15.739  1.00  0.00    -0.000 C 
BRANCH   8   9
ATOM      9  C   UNL     1      26.012  26.030  15.825  1.00  0.00    -0.000 C 
BRANCH   9  10
ATOM     10  C   UNL     1      25.477  25.443  17.139  1.00  0.00    -0.000 C 
BRANCH  10  11
ATOM     11  C   UNL     1      24.906  26.545  18.039  1.00  0.00    -0.003 C 
ATOM     12  C   UNL     1      23.555  26.141  18.619  1.00  0.00     0.004 C 
ENDBRANCH  10  11
ENDBRANCH   9  10
ENDBRANCH   8   9
ENDBRANCH   7   8
ENDBRANCH   6   7
ENDBRANCH   5   6
ENDBRANCH   4   5
ENDBRANCH   3   4
ENDBRANCH   2   3
ENDBRANCH   1   2
BRANCH   1  13
ATOM     13  C   UNL     1      22.245  25.855  13.808  1.00  0.00     0.000 C 
BRANCH  13  14
ATOM     14  C   UNL     1      23.463  25.048  13.329  1.00  0.00     0.000 C 
BRANCH  14  15
ATOM     15  C   UNL     1      23.059  23.662  12.796  1.00  0.00     0.000 C 
BRANCH  15  16
ATOM     16  C   UNL     1      24.161  22.612  13.017  1.00  0.00     0.000 C 
BRANCH  16  17
ATOM     17  C   UNL     1      24.916  22.826  14.341  1.00  0.00     0.000 C 
BRANCH  17  18
ATOM     18  C   UNL     1      24.373  21.926  15.466  1.00  0.00     0.000 C 
BRANCH  18  19
ATOM     19  C   UNL     1      23.399  22.668  16.393  1.00  0.00     0.000 C 
BRANCH  19  20
ATOM     20  C   UNL     1      21.932  22.275  16.145  1.00  0.00     0.006 C 
BRANCH  20  21
ATOM     21  C   UNL     1      21.193  21.936  17.447  1.00  0.00     0.053 C 
BRANCH  21  22
ATOM     22  C   UNL     1      21.154  23.103  18.387  1.00  0.00     0.041 C 
ATOM     23  O   UNL     1      21.737  23.043  19.501  1.00  0.00    -0.550 OA
ATOM     24  O   UNL     1      20.499  24.270  18.016  1.00  0.00    -0.550 OA
ENDBRANCH  21  22
ENDBRANCH  20  21
ENDBRANCH  19  20
ENDBRANCH  18  19
ENDBRANCH  17  18
ENDBRANCH  16  17
ENDBRANCH  15  16
ENDBRANCH  14  15
ENDBRANCH  13  14
ENDBRANCH   1  13
TORSDOF 20
ENDMDL
MODEL 3
REMARK VINA RESULT:    -1.082      2.590      5.487
REMARK INTER + INTRA:          -7.085
REMARK INTER:                  -2.329
REMARK INTRA:                  -4.756
REMARK UNBOUND:                -4.739
REMARK SMILES CCCCCCCCCCCCCCCCCCCCCC(=O)[O-]
REMARK SMILES IDX 12 1 11 2 10 3 9 4 8 5 7 6 6 7 5 8 4 9 3 10 2 11 1 12 13 13
REMARK SMILES IDX 14 14 15 15 16 16 17 17 18 18 19 19 20 20 21 21 22 22 23 23
REMARK SMILES IDX 24 24
REMARK H PARENT
REMARK Flexibility Score: inf
ROOT
ATOM      1  C   UNL     1      24.048  29.510  15.120  1.00  0.00     0.000 C 
ENDROOT
BRANCH   1   2
ATOM      2  C   UNL     1      22.532  29.507  14.863  1.00  0.00     0.000 C 
BRANCH   2   3
ATOM      3  C   UNL     1      22.136  28.585  13.698  1.00  0.00     0.000 C 
BRANCH   3   4
ATOM      4  C   UNL     1      23.360  27.941  13.021  1.00  0.00    -0.000 C 
BRANCH   4   5
ATOM      5  C   UNL     1      22.978  26.795  12.070  1.00  0.00    -0.000 C 
BRANCH   5   6
ATOM      6  C   UNL     1      23.169  25.409  12.709  1.00  0.00    -0.000 C 
BRANCH   6   7
ATOM      7  C   UNL     1      21.853  24.616  12.791  1.00  0.00    -0.000 C 
BRANCH   7   8
ATOM      8  C   UNL     1      20.655  25.410  12.241  1.00  0.00    -0.000 C 
BRANCH   8   9
ATOM      9  C   UNL     1      19.515  25.542  13.261  1.00  0.00    -0.000 C 
BRANCH   9  10
ATOM     10  C   UNL     1      18.865  26.934  13.253  1.00  0.00    -0.000 C 
BRANCH  10  11
ATOM     11  C   UNL     1      18.714  27.476  14.680  1.00  0.00    -0.003 C 
ATOM     12  C   UNL     1      18.545  28.992  14.680  1.00  0.00     0.004 C 
ENDBRANCH  10  11
ENDBRANCH   9  10
ENDBRANCH   8   9
ENDBRANCH   7   8
ENDBRANCH   6   7
ENDBRANCH   5   6
ENDBRANCH   4   5
ENDBRANCH   3   4
ENDBRANCH   2   3
ENDBRANCH   1   2
BRANCH   1  13
ATOM     13  C   UNL     1      24.398  29.430  16.614  1.00  0.00     0.000 C 
BRANCH  13  14
ATOM     14  C   UNL     1      25.311  28.239  16.952  1.00  0.00     0.000 C 
BRANCH  14  15
ATOM     15  C   UNL     1      25.717  27.453  15.694  1.00  0.00     0.000 C 
BRANCH  15  16
ATOM     16  C   UNL     1      25.248  25.989  15.749  1.00  0.00     0.000 C 
BRANCH  16  17
ATOM     17  C   UNL     1      24.188  25.755  16.839  1.00  0.00     0.000 C 
BRANCH  17  18
ATOM     18  C   UNL     1      22.878  25.192  16.259  1.00  0.00     0.000 C 
BRANCH  18  19
ATOM     19  C   UNL     1      21.701  26.167  16.413  1.00  0.00     0.000 C 
BRANCH  19  20
ATOM     20  C   UNL     1      21.808  27.027  17.685  1.00  0.00     0.006 C 
BRANCH  20  21
ATOM     21  C   UNL     1      20.738  28.127  17.734  1.00  0.00     0.053 C 
BRANCH  21  22
ATOM     22  C   UNL     1      19.533  27.698  18.514  1.00  0.00     0.041 C 
ATOM     23  O   UNL     1      19.662  26.984  19.543  1.00  0.00    -0.550 OA
ATOM     24  O   UNL     1      18.268  28.116  18.122  1.00  0.00    -0.550 OA
ENDBRANCH  21  22
ENDBRANCH  20  21
ENDBRANCH  19  20
ENDBRANCH  18  19
ENDBRANCH  17  18
ENDBRANCH  16  17
ENDBRANCH  15  16
ENDBRANCH  14  15
ENDBRANCH  13  14
ENDBRANCH   1  13
TORSDOF 20
ENDMDL
MODEL 4
REMARK VINA RESULT:    -1.053      2.564      5.505
REMARK INTER + INTRA:          -7.023
REMARK INTER:                  -2.855
REMARK INTRA:                  -4.168
REMARK UNBOUND:                -4.739
REMARK SMILES CCCCCCCCCCCCCCCCCCCCCC(=O)[O-]
REMARK SMILES IDX 12 1 11 2 10 3 9 4 8 5 7 6 6 7 5 8 4 9 3 10 2 11 1 12 13 13
REMARK SMILES IDX 14 14 15 15 16 16 17 17 18 18 19 19 20 20 21 21 22 22 23 23
REMARK SMILES IDX 24 24
REMARK H PARENT
REMARK Flexibility Score: inf
ROOT
ATOM      1  C   UNL     1      26.079  27.680  17.415  1.00  0.00     0.000 C 
ENDROOT
BRANCH   1   2
ATOM      2  C   UNL     1      25.674  28.954  18.176  1.00  0.00     0.000 C 
BRANCH   2   3
ATOM      3  C   UNL     1      25.190  28.655  19.604  1.00  0.00     0.000 C 
BRANCH   3   4
ATOM      4  C   UNL     1      23.678  28.895  19.770  1.00  0.00    -0.000 C 
BRANCH   4   5
ATOM      5  C   UNL     1      23.025  29.470  18.503  1.00  0.00    -0.000 C 
BRANCH   5   6
ATOM      6  C   UNL     1      21.871  28.596  17.985  1.00  0.00    -0.000 C 
BRANCH   6   7
ATOM      7  C   UNL     1      21.720  27.290  18.783  1.00  0.00    -0.000 C 
BRANCH   7   8
ATOM      8  C   UNL     1      22.022  26.043  17.931  1.00  0.00    -0.000 C 
BRANCH   8   9
ATOM      9  C   UNL     1      23.273  25.291  18.407  1.00  0.00    -0.000 C 
BRANCH   9  10
ATOM     10  C   UNL     1      23.703  24.177  17.442  1.00  0.00    -0.000 C 
BRANCH  10  11
ATOM     11  C   UNL     1      25.190  23.846  17.614  1.00  0.00    -0.003 C 
ATOM     12  C   UNL     1      25.588  23.840  19.086  1.00  0.00     0.004 C 
ENDBRANCH  10  11
ENDBRANCH   9  10
ENDBRANCH   8   9
ENDBRANCH   7   8
ENDBRANCH   6   7
ENDBRANCH   5   6
ENDBRANCH   4   5
ENDBRANCH   3   4
ENDBRANCH   2   3
ENDBRANCH   1   2
BRANCH   1  13
ATOM     13  C   UNL     1      25.136  27.362  16.244  1.00  0.00     0.000 C 
BRANCH  13  14
ATOM     14  C   UNL     1      25.774  27.638  14.871  1.00  0.00     0.000 C 
BRANCH  14  15
ATOM     15  C   UNL     1      24.955  28.651  14.052  1.00  0.00     0.000 C 
BRANCH  15  16
ATOM     16  C   UNL     1      23.714  29.146  14.815  1.00  0.00     0.000 C 
BRANCH  16  17
ATOM     17  C   UNL     1      22.402  28.751  14.115  1.00  0.00     0.000 C 
BRANCH  17  18
ATOM     18  C   UNL     1      22.016  27.288  14.397  1.00  0.00     0.000 C 
BRANCH  18  19
ATOM     19  C   UNL     1      21.864  26.462  13.111  1.00  0.00     0.000 C 
BRANCH  19  20
ATOM     20  C   UNL     1      23.157  25.720  12.729  1.00  0.00     0.006 C 
BRANCH  20  21
ATOM     21  C   UNL     1      23.692  24.854  13.877  1.00  0.00     0.053 C 
BRANCH  21  22
ATOM     22  C   UNL     1      23.865  23.424  13.465  1.00  0.00     0.041 C 
ATOM     23  O   UNL     1      23.353  23.004  12.393  1.00  0.00    -0.550 OA
ATOM     24  O   UNL     1      24.618  22.561  14.250  1.00  0.00    -0.550 OA
ENDBRANCH  21  22
ENDBRANCH  20  21
ENDBRANCH  19  20
ENDBRANCH  18  19
ENDBRANCH  17  18
ENDBRANCH  16  17
ENDBRANCH  15  16
ENDBRANCH  14  15
ENDBRANCH  13  14
ENDBRANCH   1  13
TORSDOF 20
ENDMDL
MODEL 5
REMARK VINA RESULT:    -1.024      2.671      5.323
REMARK INTER + INTRA:          -6.960
REMARK INTER:                  -2.819
REMARK INTRA:                  -4.141
REMARK UNBOUND:                -4.739
REMARK SMILES CCCCCCCCCCCCCCCCCCCCCC(=O)[O-]
REMARK SMILES IDX 12 1 11 2 10 3 9 4 8 5 7 6 6 7 5 8 4 9 3 10 2 11 1 12 13 13
REMARK SMILES IDX 14 14 15 15 16 16 17 17 18 18 19 19 20 20 21 21 22 22 23 23
REMARK SMILES IDX 24 24
REMARK H PARENT
REMARK Flexibility Score: inf
ROOT
ATOM      1  C   UNL     1      20.334  25.753  14.873  1.00  0.00     0.000 C 
ENDROOT
BRANCH   1   2
ATOM      2  C   UNL     1      19.824  26.723  13.794  1.00  0.00     0.000 C 
BRANCH   2   3
ATOM      3  C   UNL     1      20.921  27.113  12.790  1.00  0.00     0.000 C 
BRANCH   3   4
ATOM      4  C   UNL     1      22.240  26.360  13.043  1.00  0.00    -0.000 C 
BRANCH   4   5
ATOM      5  C   UNL     1      23.345  26.749  12.049  1.00  0.00    -0.000 C 
BRANCH   5   6
ATOM      6  C   UNL     1      23.474  28.272  11.875  1.00  0.00    -0.000 C 
BRANCH   6   7
ATOM      7  C   UNL     1      24.773  28.824  12.486  1.00  0.00    -0.000 C 
BRANCH   7   8
ATOM      8  C   UNL     1      24.660  29.044  14.006  1.00  0.00    -0.000 C 
BRANCH   8   9
ATOM      9  C   UNL     1      23.447  29.905  14.389  1.00  0.00    -0.000 C 
BRANCH   9  10
ATOM     10  C   UNL     1      22.558  29.244  15.453  1.00  0.00    -0.000 C 
BRANCH  10  11
ATOM     11  C   UNL     1      21.133  29.808  15.403  1.00  0.00    -0.003 C 
ATOM     12  C   UNL     1      20.372  29.502  16.689  1.00  0.00     0.004 C 
ENDBRANCH  10  11
ENDBRANCH   9  10
ENDBRANCH   8   9
ENDBRANCH   7   8
ENDBRANCH   6   7
ENDBRANCH   5   6
ENDBRANCH   4   5
ENDBRANCH   3   4
ENDBRANCH   2   3
ENDBRANCH   1   2
BRANCH   1  13
ATOM     13  C   UNL     1      19.624  25.937  16.223  1.00  0.00     0.000 C 
BRANCH  13  14
ATOM     14  C   UNL     1      20.421  25.355  17.403  1.00  0.00     0.000 C 
BRANCH  14  15
ATOM     15  C   UNL     1      21.931  25.314  17.111  1.00  0.00     0.000 C 
BRANCH  15  16
ATOM     16  C   UNL     1      22.705  26.377  17.909  1.00  0.00     0.000 C 
BRANCH  16  17
ATOM     17  C   UNL     1      24.136  26.577  17.380  1.00  0.00     0.000 C 
BRANCH  17  18
ATOM     18  C   UNL     1      24.316  25.992  15.967  1.00  0.00     0.000 C 
BRANCH  18  19
ATOM     19  C   UNL     1      25.755  25.523  15.704  1.00  0.00     0.000 C 
BRANCH  19  20
ATOM     20  C   UNL     1      25.825  24.051  15.258  1.00  0.00     0.006 C 
BRANCH  20  21
ATOM     21  C   UNL     1      24.601  23.636  14.431  1.00  0.00     0.053 C 
BRANCH  21  22
ATOM     22  C   UNL     1      23.897  22.456  15.028  1.00  0.00     0.041 C 
ATOM     23  O   UNL     1      23.396  21.571  14.286  1.00  0.00    -0.550 OA
ATOM     24  O   UNL     1      23.823  22.318  16.408  1.00  0.00    -0.550 OA
ENDBRANCH  21  22
ENDBRANCH  20  21
ENDBRANCH  19  20
ENDBRANCH  18  19
ENDBRANCH  17  18
ENDBRANCH  16  17
ENDBRANCH  15  16
ENDBRANCH  14  15
ENDBRANCH  13  14
ENDBRANCH   1  13
TORSDOF 20
ENDMDL
MODEL 6
REMARK VINA RESULT:    -0.989      2.617      6.305
REMARK INTER + INTRA:          -6.884
REMARK INTER:                  -2.994
REMARK INTRA:                  -3.889
REMARK UNBOUND:                -4.739
REMARK SMILES CCCCCCCCCCCCCCCCCCCCCC(=O)[O-]
REMARK SMILES IDX 12 1 11 2 10 3 9 4 8 5 7 6 6 7 5 8 4 9 3 10 2 11 1 12 13 13
REMARK SMILES IDX 14 14 15 15 16 16 17 17 18 18 19 19 20 20 21 21 22 22 23 23
REMARK SMILES IDX 24 24
REMARK H PARENT
REMARK Flexibility Score: inf
ROOT
ATOM      1  C   UNL     1      22.319  28.375  16.564  1.00  0.00     0.000 C 
ENDROOT
BRANCH   1   2
ATOM      2  C   UNL     1      23.134  29.209  15.561  1.00  0.00     0.000 C 
BRANCH   2   3
ATOM      3  C   UNL     1      24.618  28.808  15.532  1.00  0.00     0.000 C 
BRANCH   3   4
ATOM      4  C   UNL     1      25.068  28.333  14.138  1.00  0.00    -0.000 C 
BRANCH   4   5
ATOM      5  C   UNL     1      24.661  29.306  13.020  1.00  0.00    -0.000 C 
BRANCH   5   6
ATOM      6  C   UNL     1      23.907  28.608  11.876  1.00  0.00    -0.000 C 
BRANCH   6   7
ATOM      7  C   UNL     1      23.553  27.149  12.211  1.00  0.00    -0.000 C 
BRANCH   7   8
ATOM      8  C   UNL     1      22.048  26.860  12.058  1.00  0.00    -0.000 C 
BRANCH   8   9
ATOM      9  C   UNL     1      21.170  27.976  12.644  1.00  0.00    -0.000 C 
BRANCH   9  10
ATOM     10  C   UNL     1      19.733  27.516  12.930  1.00  0.00    -0.000 C 
BRANCH  10  11
ATOM     11  C   UNL     1      19.240  28.065  14.275  1.00  0.00    -0.003 C 
ATOM     12  C   UNL     1      19.498  29.563  14.388  1.00  0.00     0.004 C 
ENDBRANCH  10  11
ENDBRANCH   9  10
ENDBRANCH   8   9
ENDBRANCH   7   8
ENDBRANCH   6   7
ENDBRANCH   5   6
ENDBRANCH   4   5
ENDBRANCH   3   4
ENDBRANCH   2   3
ENDBRANCH   1   2
BRANCH   1  13
ATOM     13  C   UNL     1      22.789  26.914  16.641  1.00  0.00     0.000 C 
BRANCH  13  14
ATOM     14  C   UNL     1      22.075  26.001  15.629  1.00  0.00     0.000 C 
BRANCH  14  15
ATOM     15  C   UNL     1      21.720  24.635  16.240  1.00  0.00     0.000 C 
BRANCH  15  16
ATOM     16  C   UNL     1      20.627  23.907  15.439  1.00  0.00     0.000 C 
BRANCH  16  17
ATOM     17  C   UNL     1      20.805  24.078  13.920  1.00  0.00     0.000 C 
BRANCH  17  18
ATOM     18  C   UNL     1      20.900  22.725  13.193  1.00  0.00     0.000 C 
BRANCH  18  19
ATOM     19  C   UNL     1      22.281  22.493  12.562  1.00  0.00     0.000 C 
BRANCH  19  20
ATOM     20  C   UNL     1      23.342  23.479  13.082  1.00  0.00     0.006 C 
BRANCH  20  21
ATOM     21  C   UNL     1      24.638  22.770  13.500  1.00  0.00     0.053 C 
BRANCH  21  22
ATOM     22  C   UNL     1      25.263  23.413  14.700  1.00  0.00     0.041 C 
ATOM     23  O   UNL     1      25.097  24.640  14.924  1.00  0.00    -0.550 OA
ATOM     24  O   UNL     1      26.003  22.646  15.591  1.00  0.00    -0.550 OA
ENDBRANCH  21  22
ENDBRANCH  20  21
ENDBRANCH  19  20
ENDBRANCH  18  19
ENDBRANCH  17  18
ENDBRANCH  16  17
ENDBRANCH  15  16
ENDBRANCH  14  15
ENDBRANCH  13  14
ENDBRANCH   1  13
TORSDOF 20
ENDMDL
MODEL 7
REMARK VINA RESULT:    -0.974      1.780      4.197
REMARK INTER + INTRA:          -6.851
REMARK INTER:                  -2.842
REMARK INTRA:                  -4.009
REMARK UNBOUND:                -4.739
REMARK SMILES CCCCCCCCCCCCCCCCCCCCCC(=O)[O-]
REMARK SMILES IDX 12 1 11 2 10 3 9 4 8 5 7 6 6 7 5 8 4 9 3 10 2 11 1 12 13 13
REMARK SMILES IDX 14 14 15 15 16 16 17 17 18 18 19 19 20 20 21 21 22 22 23 23
REMARK SMILES IDX 24 24
REMARK H PARENT
REMARK Flexibility Score: inf
ROOT
ATOM      1  C   UNL     1      24.081  25.238  14.532  1.00  0.00     0.000 C 
ENDROOT
BRANCH   1   2
ATOM      2  C   UNL     1      25.160  26.036  15.284  1.00  0.00     0.000 C 
BRANCH   2   3
ATOM      3  C   UNL     1      26.125  25.127  16.062  1.00  0.00     0.000 C 
BRANCH   3   4
ATOM      4  C   UNL     1      25.538  23.724  16.306  1.00  0.00    -0.000 C 
BRANCH   4   5
ATOM      5  C   UNL     1      25.760  23.231  17.745  1.00  0.00    -0.000 C 
BRANCH   5   6
ATOM      6  C   UNL     1      24.644  23.682  18.703  1.00  0.00    -0.000 C 
BRANCH   6   7
ATOM      7  C   UNL     1      25.170  24.588  19.829  1.00  0.00    -0.000 C 
BRANCH   7   8
ATOM      8  C   UNL     1      25.024  26.084  19.494  1.00  0.00    -0.000 C 
BRANCH   8   9
ATOM      9  C   UNL     1      23.769  26.383  18.661  1.00  0.00    -0.000 C 
BRANCH   9  10
ATOM     10  C   UNL     1      22.534  26.676  19.525  1.00  0.00    -0.000 C 
BRANCH  10  11
ATOM     11  C   UNL     1      21.422  25.654  19.257  1.00  0.00    -0.003 C 
ATOM     12  C   UNL     1      21.406  25.227  17.793  1.00  0.00     0.004 C 
ENDBRANCH  10  11
ENDBRANCH   9  10
ENDBRANCH   8   9
ENDBRANCH   7   8
ENDBRANCH   6   7
ENDBRANCH   5   6
ENDBRANCH   4   5
ENDBRANCH   3   4
ENDBRANCH   2   3
ENDBRANCH   1   2
BRANCH   1  13
ATOM     13  C   UNL     1      22.751  25.999  14.415  1.00  0.00     0.000 C 
BRANCH  13  14
ATOM     14  C   UNL     1      22.378  26.332  12.960  1.00  0.00     0.000 C 
BRANCH  14  15
ATOM     15  C   UNL     1      22.621  27.815  12.630  1.00  0.00     0.000 C 
BRANCH  15  16
ATOM     16  C   UNL     1      24.069  28.080  12.185  1.00  0.00     0.000 C 
BRANCH  16  17
ATOM     17  C   UNL     1      24.798  29.059  13.122  1.00  0.00     0.000 C 
BRANCH  17  18
ATOM     18  C   UNL     1      23.820  29.826  14.030  1.00  0.00     0.000 C 
BRANCH  18  19
ATOM     19  C   UNL     1      24.022  29.503  15.517  1.00  0.00     0.000 C 
BRANCH  19  20
ATOM     20  C   UNL     1      22.807  29.891  16.378  1.00  0.00     0.006 C 
BRANCH  20  21
ATOM     21  C   UNL     1      21.814  28.732  16.537  1.00  0.00     0.053 C 
BRANCH  21  22
ATOM     22  C   UNL     1      20.632  28.881  15.627  1.00  0.00     0.041 C 
ATOM     23  O   UNL     1      19.843  27.918  15.446  1.00  0.00    -0.550 OA
ATOM     24  O   UNL     1      20.386  30.098  15.004  1.00  0.00    -0.550 OA
ENDBRANCH  21  22
ENDBRANCH  20  21
ENDBRANCH  19  20
ENDBRANCH  18  19
ENDBRANCH  17  18
ENDBRANCH  16  17
ENDBRANCH  15  16
ENDBRANCH  14  15
ENDBRANCH  13  14
ENDBRANCH   1  13
TORSDOF 20
ENDMDL
MODEL 8
REMARK VINA RESULT:    -0.932      2.613      5.387
REMARK INTER + INTRA:          -6.760
REMARK INTER:                  -2.648
REMARK INTRA:                  -4.112
REMARK UNBOUND:                -4.739
REMARK SMILES CCCCCCCCCCCCCCCCCCCCCC(=O)[O-]
REMARK SMILES IDX 12 1 11 2 10 3 9 4 8 5 7 6 6 7 5 8 4 9 3 10 2 11 1 12 13 13
REMARK SMILES IDX 14 14 15 15 16 16 17 17 18 18 19 19 20 20 21 21 22 22 23 23
REMARK SMILES IDX 24 24
REMARK H PARENT
REMARK Flexibility Score: inf
ROOT
ATOM      1  C   UNL     1      21.945  25.637  14.706  1.00  0.00     0.000 C 
ENDROOT
BRANCH   1   2
ATOM      2  C   UNL     1      21.222  26.401  13.585  1.00  0.00     0.000 C 
BRANCH   2   3
ATOM      3  C   UNL     1      22.102  26.585  12.338  1.00  0.00     0.000 C 
BRANCH   3   4
ATOM      4  C   UNL     1      22.572  28.041  12.164  1.00  0.00    -0.000 C 
BRANCH   4   5
ATOM      5  C   UNL     1      24.078  28.148  11.876  1.00  0.00    -0.000 C 
BRANCH   5   6
ATOM      6  C   UNL     1      24.842  28.884  12.990  1.00  0.00    -0.000 C 
BRANCH   6   7
ATOM      7  C   UNL     1      23.914  29.737  13.872  1.00  0.00    -0.000 C 
BRANCH   7   8
ATOM      8  C   UNL     1      24.047  29.394  15.367  1.00  0.00    -0.000 C 
BRANCH   8   9
ATOM      9  C   UNL     1      22.722  28.923  15.985  1.00  0.00    -0.000 C 
BRANCH   9  10
ATOM     10  C   UNL     1      22.921  28.105  17.270  1.00  0.00    -0.000 C 
BRANCH  10  11
ATOM     11  C   UNL     1      21.726  28.272  18.216  1.00  0.00    -0.003 C 
ATOM     12  C   UNL     1      20.569  27.364  17.811  1.00  0.00     0.004 C 
ENDBRANCH  10  11
ENDBRANCH   9  10
ENDBRANCH   8   9
ENDBRANCH   7   8
ENDBRANCH   6   7
ENDBRANCH   5   6
ENDBRANCH   4   5
ENDBRANCH   3   4
ENDBRANCH   2   3
ENDBRANCH   1   2
BRANCH   1  13
ATOM     13  C   UNL     1      22.692  24.396  14.195  1.00  0.00     0.000 C 
BRANCH  13  14
ATOM     14  C   UNL     1      24.211  24.472  14.432  1.00  0.00     0.000 C 
BRANCH  14  15
ATOM     15  C   UNL     1      24.641  25.854  14.953  1.00  0.00     0.000 C 
BRANCH  15  16
ATOM     16  C   UNL     1      25.881  25.773  15.859  1.00  0.00     0.000 C 
BRANCH  16  17
ATOM     17  C   UNL     1      26.125  24.349  16.388  1.00  0.00     0.000 C 
BRANCH  17  18
ATOM     18  C   UNL     1      25.721  24.207  17.867  1.00  0.00     0.000 C 
BRANCH  18  19
ATOM     19  C   UNL     1      24.365  23.507  18.041  1.00  0.00     0.000 C 
BRANCH  19  20
ATOM     20  C   UNL     1      23.222  24.496  18.329  1.00  0.00     0.006 C 
BRANCH  20  21
ATOM     21  C   UNL     1      21.850  23.924  17.949  1.00  0.00     0.053 C 
BRANCH  21  22
ATOM     22  C   UNL     1      21.592  22.604  18.609  1.00  0.00     0.041 C 
ATOM     23  O   UNL     1      21.371  21.578  17.915  1.00  0.00    -0.550 OA
ATOM     24  O   UNL     1      21.628  22.502  19.994  1.00  0.00    -0.550 OA
ENDBRANCH  21  22
ENDBRANCH  20  21
ENDBRANCH  19  20
ENDBRANCH  18  19
ENDBRANCH  17  18
ENDBRANCH  16  17
ENDBRANCH  15  16
ENDBRANCH  14  15
ENDBRANCH  13  14
ENDBRANCH   1  13
TORSDOF 20
ENDMDL
MODEL 9
REMARK VINA RESULT:    -0.925     19.265     22.184
REMARK INTER + INTRA:          -6.746
REMARK INTER:                  -2.495
REMARK INTRA:                  -4.251
REMARK UNBOUND:                -4.739
REMARK SMILES CCCCCCCCCCCCCCCCCCCCCC(=O)[O-]
REMARK SMILES IDX 12 1 11 2 10 3 9 4 8 5 7 6 6 7 5 8 4 9 3 10 2 11 1 12 13 13
REMARK SMILES IDX 14 14 15 15 16 16 17 17 18 18 19 19 20 20 21 21 22 22 23 23
REMARK SMILES IDX 24 24
REMARK H PARENT
REMARK Flexibility Score: inf
ROOT
ATOM      1  C   UNL     1      10.949  11.438  25.140  1.00  0.00     0.000 C 
ENDROOT
BRANCH   1   2
ATOM      2  C   UNL     1      10.596  10.233  24.253  1.00  0.00     0.000 C 
BRANCH   2   3
ATOM      3  C   UNL     1       9.124  10.243  23.810  1.00  0.00     0.000 C 
BRANCH   3   4
ATOM      4  C   UNL     1       8.959   9.877  22.323  1.00  0.00    -0.000 C 
BRANCH   4   5
ATOM      5  C   UNL     1       7.652  10.417  21.721  1.00  0.00    -0.000 C 
BRANCH   5   6
ATOM      6  C   UNL     1       6.531  10.552  22.765  1.00  0.00    -0.000 C 
BRANCH   6   7
ATOM      7  C   UNL     1       6.069  12.009  22.943  1.00  0.00    -0.000 C 
BRANCH   7   8
ATOM      8  C   UNL     1       6.417  12.887  21.728  1.00  0.00    -0.000 C 
BRANCH   8   9
ATOM      9  C   UNL     1       7.282  14.100  22.104  1.00  0.00    -0.000 C 
BRANCH   9  10
ATOM     10  C   UNL     1       8.259  13.803  23.251  1.00  0.00    -0.000 C 
BRANCH  10  11
ATOM     11  C   UNL     1       9.708  14.040  22.811  1.00  0.00    -0.003 C 
ATOM     12  C   UNL     1       9.990  13.388  21.462  1.00  0.00     0.004 C 
ENDBRANCH  10  11
ENDBRANCH   9  10
ENDBRANCH   8   9
ENDBRANCH   7   8
ENDBRANCH   6   7
ENDBRANCH   5   6
ENDBRANCH   4   5
ENDBRANCH   3   4
ENDBRANCH   2   3
ENDBRANCH   1   2
BRANCH   1  13
ATOM     13  C   UNL     1       9.779  11.885  26.030  1.00  0.00     0.000 C 
BRANCH  13  14
ATOM     14  C   UNL     1       9.777  11.198  27.407  1.00  0.00     0.000 C 
BRANCH  14  15
ATOM     15  C   UNL     1       8.360  10.780  27.836  1.00  0.00     0.000 C 
BRANCH  15  16
ATOM     16  C   UNL     1       7.500  10.331  26.643  1.00  0.00     0.000 C 
BRANCH  16  17
ATOM     17  C   UNL     1       6.167  11.094  26.564  1.00  0.00     0.000 C 
BRANCH  17  18
ATOM     18  C   UNL     1       6.230  12.444  27.300  1.00  0.00     0.000 C 
BRANCH  18  19
ATOM     19  C   UNL     1       6.472  13.623  26.346  1.00  0.00     0.000 C 
BRANCH  19  20
ATOM     20  C   UNL     1       6.911  14.900  27.083  1.00  0.00     0.006 C 
BRANCH  20  21
ATOM     21  C   UNL     1       8.164  14.675  27.940  1.00  0.00     0.053 C 
BRANCH  21  22
ATOM     22  C   UNL     1       9.358  15.386  27.382  1.00  0.00     0.041 C 
ATOM     23  O   UNL     1       9.516  15.485  26.137  1.00  0.00    -0.550 OA
ATOM     24  O   UNL     1      10.283  15.968  28.240  1.00  0.00    -0.550 OA
ENDBRANCH  21  22
ENDBRANCH  20  21
ENDBRANCH  19  20
ENDBRANCH  18  19
ENDBRANCH  17  18
ENDBRANCH  16  17
ENDBRANCH  15  16
ENDBRANCH  14  15
ENDBRANCH  13  14
ENDBRANCH   1  13
TORSDOF 20
ENDMDL
