MODEL 1
REMARK VINA RESULT:     7.473      0.000      0.000
REMARK INTER + INTRA:          10.327
REMARK INTER:                  10.531
REMARK INTRA:                  -0.203
REMARK UNBOUND:                -0.203
REMARK SMILES CCCCCCCCC(=O)[O-]
REMARK SMILES IDX 6 1 7 2 8 3 9 4 10 5 11 6 5 7 4 8 3 9 2 10 1 11
REMARK H PARENT
REMARK Flexibility Score: inf
ROOT
ATOM      1  C   UNL     1      -8.969 -17.475  29.479  1.00  0.00     0.000 C 
ENDROOT
BRANCH   1   2
ATOM      2  C   UNL     1      -9.914 -17.892  30.616  1.00  0.00     0.006 C 
BRANCH   2   3
ATOM      3  C   UNL     1      -9.374 -17.431  31.974  1.00  0.00     0.053 C 
BRANCH   3   4
ATOM      4  C   UNL     1      -7.915 -17.739  32.089  1.00  0.00     0.041 C 
ATOM      5  O   UNL     1      -7.072 -16.805  32.122  1.00  0.00    -0.550 OA
ATOM      6  O   UNL     1      -7.483 -19.060  32.112  1.00  0.00    -0.550 OA
ENDBRANCH   3   4
ENDBRANCH   2   3
ENDBRANCH   1   2
BRANCH   1   7
ATOM      7  C   UNL     1      -9.600 -17.651  28.089  1.00  0.00     0.000 C 
BRANCH   7   8
ATOM      8  C   UNL     1      -8.570 -18.039  27.014  1.00  0.00    -0.000 C 
BRANCH   8   9
ATOM      9  C   UNL     1      -7.334 -17.113  27.032  1.00  0.00    -0.000 C 
BRANCH   9  10
ATOM     10  C   UNL     1      -5.998 -17.870  26.949  1.00  0.00    -0.003 C 
ATOM     11  C   UNL     1      -5.862 -18.706  25.678  1.00  0.00     0.004 C 
ENDBRANCH   9  10
ENDBRANCH   8   9
ENDBRANCH   7   8
ENDBRANCH   1   7
TORSDOF 7
ENDMDL
MODEL 2
REMARK VINA RESULT:     7.699      3.350      5.380
REMARK INTER + INTRA:          10.646
REMARK INTER:                  10.796
REMARK INTRA:                  -0.150
REMARK UNBOUND:                -0.203
REMARK SMILES CCCCCCCCC(=O)[O-]
REMARK SMILES IDX 6 1 7 2 8 3 9 4 10 5 11 6 5 7 4 8 3 9 2 10 1 11
REMARK H PARENT
REMARK Flexibility Score: inf
ROOT
ATOM      1  C   UNL     1      -5.824 -18.444  25.735  1.00  0.00     0.000 C 
ENDROOT
BRANCH   1   2
ATOM      2  C   UNL     1      -7.290 -18.261  26.152  1.00  0.00     0.006 C 
BRANCH   2   3
ATOM      3  C   UNL     1      -7.427 -17.153  27.202  1.00  0.00     0.053 C 
BRANCH   3   4
ATOM      4  C   UNL     1      -8.822 -17.110  27.739  1.00  0.00     0.041 C 
ATOM      5  O   UNL     1      -9.228 -18.009  28.521  1.00  0.00    -0.550 OA
ATOM      6  O   UNL     1      -9.691 -16.102  27.337  1.00  0.00    -0.550 OA
ENDBRANCH   3   4
ENDBRANCH   2   3
ENDBRANCH   1   2
BRANCH   1   7
ATOM      7  C   UNL     1      -5.644 -18.502  24.209  1.00  0.00     0.000 C 
BRANCH   7   8
ATOM      8  C   UNL     1      -4.348 -19.218  23.791  1.00  0.00    -0.000 C 
BRANCH   8   9
ATOM      9  C   UNL     1      -4.604 -20.314  22.735  1.00  0.00    -0.000 C 
BRANCH   9  10
ATOM     10  C   UNL     1      -3.360 -21.161  22.414  1.00  0.00    -0.003 C 
ATOM     11  C   UNL     1      -2.100 -20.322  22.216  1.00  0.00     0.004 C 
ENDBRANCH   9  10
ENDBRANCH   8   9
ENDBRANCH   7   8
ENDBRANCH   1   7
TORSDOF 7
ENDMDL
MODEL 3
REMARK VINA RESULT:     8.410      5.165      7.642
REMARK INTER + INTRA:          11.649
REMARK INTER:                  11.895
REMARK INTRA:                  -0.246
REMARK UNBOUND:                -0.203
REMARK SMILES CCCCCCCCC(=O)[O-]
REMARK SMILES IDX 6 1 7 2 8 3 9 4 10 5 11 6 5 7 4 8 3 9 2 10 1 11
REMARK H PARENT
REMARK Flexibility Score: inf
ROOT
ATOM      1  C   UNL     1      -5.997 -18.002  24.394  1.00  0.00     0.000 C 
ENDROOT
BRANCH   1   2
ATOM      2  C   UNL     1      -5.366 -18.747  23.210  1.00  0.00     0.006 C 
BRANCH   2   3
ATOM      3  C   UNL     1      -4.254 -19.689  23.685  1.00  0.00     0.053 C 
BRANCH   3   4
ATOM      4  C   UNL     1      -3.772 -20.543  22.555  1.00  0.00     0.041 C 
ATOM      5  O   UNL     1      -4.497 -21.471  22.109  1.00  0.00    -0.550 OA
ATOM      6  O   UNL     1      -2.502 -20.345  22.027  1.00  0.00    -0.550 OA
ENDBRANCH   3   4
ENDBRANCH   2   3
ENDBRANCH   1   2
BRANCH   1   7
ATOM      7  C   UNL     1      -5.867 -18.774  25.718  1.00  0.00     0.000 C 
BRANCH   7   8
ATOM      8  C   UNL     1      -6.178 -17.901  26.947  1.00  0.00    -0.000 C 
BRANCH   8   9
ATOM      9  C   UNL     1      -7.504 -17.127  26.790  1.00  0.00    -0.000 C 
BRANCH   9  10
ATOM     10  C   UNL     1      -8.526 -17.430  27.898  1.00  0.00    -0.003 C 
ATOM     11  C   UNL     1      -9.832 -16.656  27.737  1.00  0.00     0.004 C 
ENDBRANCH   9  10
ENDBRANCH   8   9
ENDBRANCH   7   8
ENDBRANCH   1   7
TORSDOF 7
ENDMDL
MODEL 4
REMARK VINA RESULT:     8.518      3.774      5.457
REMARK INTER + INTRA:          11.800
REMARK INTER:                  11.991
REMARK INTRA:                  -0.191
REMARK UNBOUND:                -0.203
REMARK SMILES CCCCCCCCC(=O)[O-]
REMARK SMILES IDX 6 1 7 2 8 3 9 4 10 5 11 6 5 7 4 8 3 9 2 10 1 11
REMARK H PARENT
REMARK Flexibility Score: inf
ROOT
ATOM      1  C   UNL     1      -8.724 -17.626  28.126  1.00  0.00     0.000 C 
ENDROOT
BRANCH   1   2
ATOM      2  C   UNL     1      -7.592 -17.031  27.276  1.00  0.00     0.006 C 
BRANCH   2   3
ATOM      3  C   UNL     1      -7.283 -17.927  26.072  1.00  0.00     0.053 C 
BRANCH   3   4
ATOM      4  C   UNL     1      -5.822 -18.249  26.019  1.00  0.00     0.041 C 
ATOM      5  O   UNL     1      -5.337 -18.826  25.012  1.00  0.00    -0.550 OA
ATOM      6  O   UNL     1      -5.007 -17.954  27.105  1.00  0.00    -0.550 OA
ENDBRANCH   3   4
ENDBRANCH   2   3
ENDBRANCH   1   2
BRANCH   1   7
ATOM      7  C   UNL     1      -9.956 -16.710  28.197  1.00  0.00     0.000 C 
BRANCH   7   8
ATOM      8  C   UNL     1     -10.268 -16.030  26.853  1.00  0.00    -0.000 C 
BRANCH   8   9
ATOM      9  C   UNL     1      -9.911 -14.528  26.864  1.00  0.00    -0.000 C 
BRANCH   9  10
ATOM     10  C   UNL     1     -11.059 -13.620  26.391  1.00  0.00    -0.003 C 
ATOM     11  C   UNL     1     -11.448 -12.562  27.420  1.00  0.00     0.004 C 
ENDBRANCH   9  10
ENDBRANCH   8   9
ENDBRANCH   7   8
ENDBRANCH   1   7
TORSDOF 7
ENDMDL
MODEL 5
REMARK VINA RESULT:     8.926      2.731      4.983
REMARK INTER + INTRA:          12.375
REMARK INTER:                  12.553
REMARK INTRA:                  -0.178
REMARK UNBOUND:                -0.203
REMARK SMILES CCCCCCCCC(=O)[O-]
REMARK SMILES IDX 6 1 7 2 8 3 9 4 10 5 11 6 5 7 4 8 3 9 2 10 1 11
REMARK H PARENT
REMARK Flexibility Score: inf
ROOT
ATOM      1  C   UNL     1      -9.130 -17.741  27.242  1.00  0.00     0.000 C 
ENDROOT
BRANCH   1   2
ATOM      2  C   UNL     1      -7.867 -17.119  26.627  1.00  0.00     0.006 C 
BRANCH   2   3
ATOM      3  C   UNL     1      -6.652 -17.337  27.535  1.00  0.00     0.053 C 
BRANCH   3   4
ATOM      4  C   UNL     1      -5.544 -17.999  26.777  1.00  0.00     0.041 C 
ATOM      5  O   UNL     1      -5.799 -18.679  25.749  1.00  0.00    -0.550 OA
ATOM      6  O   UNL     1      -4.236 -17.905  27.235  1.00  0.00    -0.550 OA
ENDBRANCH   3   4
ENDBRANCH   2   3
ENDBRANCH   1   2
BRANCH   1   7
ATOM      7  C   UNL     1      -9.526 -17.083  28.574  1.00  0.00     0.000 C 
BRANCH   7   8
ATOM      8  C   UNL     1      -9.093 -17.910  29.797  1.00  0.00    -0.000 C 
BRANCH   8   9
ATOM      9  C   UNL     1      -9.128 -17.084  31.100  1.00  0.00    -0.000 C 
BRANCH   9  10
ATOM     10  C   UNL     1      -8.062 -17.507  32.125  1.00  0.00    -0.003 C 
ATOM     11  C   UNL     1      -7.794 -19.010  32.125  1.00  0.00     0.004 C 
ENDBRANCH   9  10
ENDBRANCH   8   9
ENDBRANCH   7   8
ENDBRANCH   1   7
TORSDOF 7
ENDMDL
MODEL 6
REMARK VINA RESULT:    10.295     17.243     18.088
REMARK INTER + INTRA:          14.305
REMARK INTER:                  14.496
REMARK INTRA:                  -0.190
REMARK UNBOUND:                -0.203
REMARK SMILES CCCCCCCCC(=O)[O-]
REMARK SMILES IDX 6 1 7 2 8 3 9 4 10 5 11 6 5 7 4 8 3 9 2 10 1 11
REMARK H PARENT
REMARK Flexibility Score: inf
ROOT
ATOM      1  C   UNL     1      -2.453 -12.486  12.345  1.00  0.00     0.000 C 
ENDROOT
BRANCH   1   2
ATOM      2  C   UNL     1      -3.798 -12.150  13.006  1.00  0.00     0.006 C 
BRANCH   2   3
ATOM      3  C   UNL     1      -4.291 -10.766  12.572  1.00  0.00     0.053 C 
BRANCH   3   4
ATOM      4  C   UNL     1      -4.255  -9.812  13.724  1.00  0.00     0.041 C 
ATOM      5  O   UNL     1      -4.261 -10.245  14.906  1.00  0.00    -0.550 OA
ATOM      6  O   UNL     1      -4.263  -8.441  13.492  1.00  0.00    -0.550 OA
ENDBRANCH   3   4
ENDBRANCH   2   3
ENDBRANCH   1   2
BRANCH   1   7
ATOM      7  C   UNL     1      -1.399 -12.964  13.356  1.00  0.00     0.000 C 
BRANCH   7   8
ATOM      8  C   UNL     1      -1.314 -14.498  13.444  1.00  0.00    -0.000 C 
BRANCH   8   9
ATOM      9  C   UNL     1      -0.258 -14.965  14.468  1.00  0.00    -0.000 C 
BRANCH   9  10
ATOM     10  C   UNL     1       0.890 -15.775  13.843  1.00  0.00    -0.003 C 
ATOM     11  C   UNL     1       2.056 -16.000  14.802  1.00  0.00     0.004 C 
ENDBRANCH   9  10
ENDBRANCH   8   9
ENDBRANCH   7   8
ENDBRANCH   1   7
TORSDOF 7
ENDMDL
MODEL 7
REMARK VINA RESULT:    10.383     17.075     17.728
REMARK INTER + INTRA:          14.428
REMARK INTER:                  14.739
REMARK INTRA:                  -0.311
REMARK UNBOUND:                -0.203
REMARK SMILES CCCCCCCCC(=O)[O-]
REMARK SMILES IDX 6 1 7 2 8 3 9 4 10 5 11 6 5 7 4 8 3 9 2 10 1 11
REMARK H PARENT
REMARK Flexibility Score: inf
ROOT
ATOM      1  C   UNL     1      -4.182  -8.900  14.150  1.00  0.00     0.000 C 
ENDROOT
BRANCH   1   2
ATOM      2  C   UNL     1      -3.569  -9.393  15.469  1.00  0.00     0.006 C 
BRANCH   2   3
ATOM      3  C   UNL     1      -2.853  -8.253  16.200  1.00  0.00     0.053 C 
BRANCH   3   4
ATOM      4  C   UNL     1      -1.409  -8.586  16.403  1.00  0.00     0.041 C 
ATOM      5  O   UNL     1      -0.611  -7.711  16.831  1.00  0.00    -0.550 OA
ATOM      6  O   UNL     1      -0.934  -9.849  16.072  1.00  0.00    -0.550 OA
ENDBRANCH   3   4
ENDBRANCH   2   3
ENDBRANCH   1   2
BRANCH   1   7
ATOM      7  C   UNL     1      -4.317 -10.018  13.104  1.00  0.00     0.000 C 
BRANCH   7   8
ATOM      8  C   UNL     1      -3.909 -11.397  13.653  1.00  0.00    -0.000 C 
BRANCH   8   9
ATOM      9  C   UNL     1      -3.364 -12.325  12.547  1.00  0.00    -0.000 C 
BRANCH   9  10
ATOM     10  C   UNL     1      -2.010 -12.966  12.895  1.00  0.00    -0.003 C 
ATOM     11  C   UNL     1      -0.918 -12.652  11.875  1.00  0.00     0.004 C 
ENDBRANCH   9  10
ENDBRANCH   8   9
ENDBRANCH   7   8
ENDBRANCH   1   7
TORSDOF 7
ENDMDL
