MODEL 1
REMARK VINA RESULT:    -4.305      0.000      0.000
REMARK INTER + INTRA:          -4.592
REMARK INTER:                  -4.557
REMARK INTRA:                  -0.035
REMARK UNBOUND:                -0.035
REMARK SMILES COc1ccc2ccc(=O)oc2c1
REMARK SMILES IDX 3 1 13 2 12 3 6 4 5 5 4 6 7 7 8 8 9 9 10 10 11 11 2 12 1 13
REMARK H PARENT
REMARK Flexibility Score: inf
ROOT
ATOM      1  C   UNL     1      75.194  39.527  18.577  1.00  0.00     0.122 A 
ATOM      2  C   UNL     1      74.526  38.483  17.924  1.00  0.00     0.094 A 
ATOM      3  C   UNL     1      73.524  37.760  18.580  1.00  0.00     0.142 A 
ATOM      4  C   UNL     1      73.183  38.082  19.911  1.00  0.00     0.018 A 
ATOM      5  C   UNL     1      73.849  39.125  20.568  1.00  0.00     0.016 A 
ATOM      6  C   UNL     1      74.848  39.844  19.906  1.00  0.00     0.047 A 
ATOM      7  C   UNL     1      72.178  37.342  20.540  1.00  0.00     0.019 A 
ATOM      8  C   UNL     1      71.546  36.313  19.842  1.00  0.00     0.094 A 
ATOM      9  C   UNL     1      71.937  36.049  18.524  1.00  0.00     0.336 A 
ATOM     10  O   UNL     1      71.380  35.125  17.877  1.00  0.00    -0.246 OA
ATOM     11  O   UNL     1      72.897  36.770  17.949  1.00  0.00    -0.423 OA
ENDROOT
BRANCH   1  12
ATOM     12  O   UNL     1      76.191  40.220  17.875  1.00  0.00    -0.497 OA
ATOM     13  C   UNL     1      76.612  41.547  18.176  1.00  0.00     0.278 C 
ENDBRANCH   1  12
TORSDOF 1
ENDMDL
MODEL 2
REMARK VINA RESULT:    -4.296      3.117      4.221
REMARK INTER + INTRA:          -4.582
REMARK INTER:                  -4.549
REMARK INTRA:                  -0.033
REMARK UNBOUND:                -0.035
REMARK SMILES COc1ccc2ccc(=O)oc2c1
REMARK SMILES IDX 3 1 13 2 12 3 6 4 5 5 4 6 7 7 8 8 9 9 10 10 11 11 2 12 1 13
REMARK H PARENT
REMARK Flexibility Score: inf
ROOT
ATOM      1  C   UNL     1      72.145  38.001  20.769  1.00  0.00     0.122 A 
ATOM      2  C   UNL     1      71.239  37.123  20.159  1.00  0.00     0.094 A 
ATOM      3  C   UNL     1      69.875  37.429  20.111  1.00  0.00     0.142 A 
ATOM      4  C   UNL     1      69.405  38.631  20.682  1.00  0.00     0.018 A 
ATOM      5  C   UNL     1      70.307  39.512  21.294  1.00  0.00     0.016 A 
ATOM      6  C   UNL     1      71.669  39.200  21.337  1.00  0.00     0.047 A 
ATOM      7  C   UNL     1      68.037  38.910  20.618  1.00  0.00     0.019 A 
ATOM      8  C   UNL     1      67.181  38.000  19.998  1.00  0.00     0.094 A 
ATOM      9  C   UNL     1      67.718  36.827  19.454  1.00  0.00     0.336 A 
ATOM     10  O   UNL     1      66.963  35.993  18.890  1.00  0.00    -0.246 OA
ATOM     11  O   UNL     1      69.025  36.588  19.528  1.00  0.00    -0.423 OA
ENDROOT
BRANCH   1  12
ATOM     12  O   UNL     1      73.502  37.647  20.791  1.00  0.00    -0.497 OA
ATOM     13  C   UNL     1      74.575  38.559  20.580  1.00  0.00     0.278 C 
ENDBRANCH   1  12
TORSDOF 1
ENDMDL
MODEL 3
REMARK VINA RESULT:    -4.179      2.370      2.977
REMARK INTER + INTRA:          -4.458
REMARK INTER:                  -4.427
REMARK INTRA:                  -0.031
REMARK UNBOUND:                -0.035
REMARK SMILES COc1ccc2ccc(=O)oc2c1
REMARK SMILES IDX 3 1 13 2 12 3 6 4 5 5 4 6 7 7 8 8 9 9 10 10 11 11 2 12 1 13
REMARK H PARENT
REMARK Flexibility Score: inf
ROOT
ATOM      1  C   UNL     1      74.047  39.129  21.390  1.00  0.00     0.122 A 
ATOM      2  C   UNL     1      72.724  38.680  21.501  1.00  0.00     0.094 A 
ATOM      3  C   UNL     1      72.116  37.994  20.444  1.00  0.00     0.142 A 
ATOM      4  C   UNL     1      72.838  37.753  19.256  1.00  0.00     0.018 A 
ATOM      5  C   UNL     1      74.160  38.201  19.140  1.00  0.00     0.016 A 
ATOM      6  C   UNL     1      74.762  38.885  20.200  1.00  0.00     0.047 A 
ATOM      7  C   UNL     1      72.203  37.066  18.217  1.00  0.00     0.019 A 
ATOM      8  C   UNL     1      70.885  36.641  18.383  1.00  0.00     0.094 A 
ATOM      9  C   UNL     1      70.231  36.916  19.589  1.00  0.00     0.336 A 
ATOM     10  O   UNL     1      69.041  36.542  19.758  1.00  0.00    -0.246 OA
ATOM     11  O   UNL     1      70.859  37.572  20.561  1.00  0.00    -0.423 OA
ENDROOT
BRANCH   1  12
ATOM     12  O   UNL     1      74.610  39.811  22.478  1.00  0.00    -0.497 OA
ATOM     13  C   UNL     1      75.174  41.117  22.405  1.00  0.00     0.278 C 
ENDBRANCH   1  12
TORSDOF 1
ENDMDL
MODEL 4
REMARK VINA RESULT:    -4.173      3.062      5.796
REMARK INTER + INTRA:          -4.452
REMARK INTER:                  -4.416
REMARK INTRA:                  -0.036
REMARK UNBOUND:                -0.035
REMARK SMILES COc1ccc2ccc(=O)oc2c1
REMARK SMILES IDX 3 1 13 2 12 3 6 4 5 5 4 6 7 7 8 8 9 9 10 10 11 11 2 12 1 13
REMARK H PARENT
REMARK Flexibility Score: inf
ROOT
ATOM      1  C   UNL     1      69.531  37.653  20.062  1.00  0.00     0.122 A 
ATOM      2  C   UNL     1      70.087  38.823  20.597  1.00  0.00     0.094 A 
ATOM      3  C   UNL     1      71.461  38.907  20.846  1.00  0.00     0.142 A 
ATOM      4  C   UNL     1      72.296  37.806  20.559  1.00  0.00     0.018 A 
ATOM      5  C   UNL     1      71.744  36.634  20.025  1.00  0.00     0.016 A 
ATOM      6  C   UNL     1      70.371  36.557  19.777  1.00  0.00     0.047 A 
ATOM      7  C   UNL     1      73.664  37.920  20.819  1.00  0.00     0.019 A 
ATOM      8  C   UNL     1      74.163  39.109  21.351  1.00  0.00     0.094 A 
ATOM      9  C   UNL     1      73.276  40.160  21.611  1.00  0.00     0.336 A 
ATOM     10  O   UNL     1      73.706  41.240  22.092  1.00  0.00    -0.246 OA
ATOM     11  O   UNL     1      71.977  40.024  21.354  1.00  0.00    -0.423 OA
ENDROOT
BRANCH   1  12
ATOM     12  O   UNL     1      68.149  37.620  19.831  1.00  0.00    -0.497 OA
ATOM     13  C   UNL     1      67.433  36.469  19.391  1.00  0.00     0.278 C 
ENDBRANCH   1  12
TORSDOF 1
ENDMDL
MODEL 5
REMARK VINA RESULT:    -4.041      3.257      4.939
REMARK INTER + INTRA:          -4.312
REMARK INTER:                  -4.271
REMARK INTRA:                  -0.041
REMARK UNBOUND:                -0.035
REMARK SMILES COc1ccc2ccc(=O)oc2c1
REMARK SMILES IDX 3 1 13 2 12 3 6 4 5 5 4 6 7 7 8 8 9 9 10 10 11 11 2 12 1 13
REMARK H PARENT
REMARK Flexibility Score: inf
ROOT
ATOM      1  C   UNL     1      71.928  37.072  19.378  1.00  0.00     0.122 A 
ATOM      2  C   UNL     1      70.727  37.616  19.851  1.00  0.00     0.094 A 
ATOM      3  C   UNL     1      69.498  37.156  19.366  1.00  0.00     0.142 A 
ATOM      4  C   UNL     1      69.466  36.137  18.391  1.00  0.00     0.018 A 
ATOM      5  C   UNL     1      70.664  35.589  17.914  1.00  0.00     0.016 A 
ATOM      6  C   UNL     1      71.888  36.053  18.404  1.00  0.00     0.047 A 
ATOM      7  C   UNL     1      68.223  35.698  17.926  1.00  0.00     0.019 A 
ATOM      8  C   UNL     1      67.059  36.276  18.433  1.00  0.00     0.094 A 
ATOM      9  C   UNL     1      67.168  37.283  19.398  1.00  0.00     0.336 A 
ATOM     10  O   UNL     1      66.130  37.818  19.868  1.00  0.00    -0.246 OA
ATOM     11  O   UNL     1      68.364  37.682  19.824  1.00  0.00    -0.423 OA
ENDROOT
BRANCH   1  12
ATOM     12  O   UNL     1      73.133  37.568  19.896  1.00  0.00    -0.497 OA
ATOM     13  C   UNL     1      73.290  38.084  21.214  1.00  0.00     0.278 C 
ENDBRANCH   1  12
TORSDOF 1
ENDMDL
MODEL 6
REMARK VINA RESULT:    -4.040      3.076      4.228
REMARK INTER + INTRA:          -4.311
REMARK INTER:                  -4.271
REMARK INTRA:                  -0.041
REMARK UNBOUND:                -0.035
REMARK SMILES COc1ccc2ccc(=O)oc2c1
REMARK SMILES IDX 3 1 13 2 12 3 6 4 5 5 4 6 7 7 8 8 9 9 10 10 11 11 2 12 1 13
REMARK H PARENT
REMARK Flexibility Score: inf
ROOT
ATOM      1  C   UNL     1      72.694  37.547  18.922  1.00  0.00     0.122 A 
ATOM      2  C   UNL     1      71.953  38.504  19.628  1.00  0.00     0.094 A 
ATOM      3  C   UNL     1      70.622  38.254  19.980  1.00  0.00     0.142 A 
ATOM      4  C   UNL     1      70.019  37.030  19.621  1.00  0.00     0.018 A 
ATOM      5  C   UNL     1      70.756  36.070  18.914  1.00  0.00     0.016 A 
ATOM      6  C   UNL     1      72.086  36.326  18.567  1.00  0.00     0.047 A 
ATOM      7  C   UNL     1      68.688  36.809  19.986  1.00  0.00     0.019 A 
ATOM      8  C   UNL     1      67.998  37.796  20.688  1.00  0.00     0.094 A 
ATOM      9  C   UNL     1      68.660  38.987  21.010  1.00  0.00     0.336 A 
ATOM     10  O   UNL     1      68.055  39.891  21.643  1.00  0.00    -0.246 OA
ATOM     11  O   UNL     1      69.928  39.171  20.650  1.00  0.00    -0.423 OA
ENDROOT
BRANCH   1  12
ATOM     12  O   UNL     1      74.024  37.847  18.594  1.00  0.00    -0.497 OA
ATOM     13  C   UNL     1      74.886  38.656  19.387  1.00  0.00     0.278 C 
ENDBRANCH   1  12
TORSDOF 1
ENDMDL
MODEL 7
REMARK VINA RESULT:    -4.029      3.071      3.553
REMARK INTER + INTRA:          -4.299
REMARK INTER:                  -4.264
REMARK INTRA:                  -0.036
REMARK UNBOUND:                -0.035
REMARK SMILES COc1ccc2ccc(=O)oc2c1
REMARK SMILES IDX 3 1 13 2 12 3 6 4 5 5 4 6 7 7 8 8 9 9 10 10 11 11 2 12 1 13
REMARK H PARENT
REMARK Flexibility Score: inf
ROOT
ATOM      1  C   UNL     1      73.241  39.990  21.611  1.00  0.00     0.122 A 
ATOM      2  C   UNL     1      71.852  40.004  21.428  1.00  0.00     0.094 A 
ATOM      3  C   UNL     1      71.195  38.893  20.889  1.00  0.00     0.142 A 
ATOM      4  C   UNL     1      71.936  37.749  20.524  1.00  0.00     0.018 A 
ATOM      5  C   UNL     1      73.325  37.730  20.705  1.00  0.00     0.016 A 
ATOM      6  C   UNL     1      73.974  38.844  21.246  1.00  0.00     0.047 A 
ATOM      7  C   UNL     1      71.252  36.654  19.987  1.00  0.00     0.019 A 
ATOM      8  C   UNL     1      69.868  36.723  19.828  1.00  0.00     0.094 A 
ATOM      9  C   UNL     1      69.199  37.891  20.211  1.00  0.00     0.336 A 
ATOM     10  O   UNL     1      67.951  37.974  20.074  1.00  0.00    -0.246 OA
ATOM     11  O   UNL     1      69.875  38.919  20.719  1.00  0.00    -0.423 OA
ENDROOT
BRANCH   1  12
ATOM     12  O   UNL     1      73.851  41.129  22.157  1.00  0.00    -0.497 OA
ATOM     13  C   UNL     1      75.242  41.240  22.441  1.00  0.00     0.278 C 
ENDBRANCH   1  12
TORSDOF 1
ENDMDL
MODEL 8
REMARK VINA RESULT:    -4.029      3.387      6.077
REMARK INTER + INTRA:          -4.299
REMARK INTER:                  -4.256
REMARK INTRA:                  -0.043
REMARK UNBOUND:                -0.035
REMARK SMILES COc1ccc2ccc(=O)oc2c1
REMARK SMILES IDX 3 1 13 2 12 3 6 4 5 5 4 6 7 7 8 8 9 9 10 10 11 11 2 12 1 13
REMARK H PARENT
REMARK Flexibility Score: inf
ROOT
ATOM      1  C   UNL     1      68.012  37.546  19.877  1.00  0.00     0.122 A 
ATOM      2  C   UNL     1      69.361  37.167  19.848  1.00  0.00     0.094 A 
ATOM      3  C   UNL     1      70.325  37.916  20.531  1.00  0.00     0.142 A 
ATOM      4  C   UNL     1      69.938  39.064  21.255  1.00  0.00     0.018 A 
ATOM      5  C   UNL     1      68.591  39.447  21.287  1.00  0.00     0.016 A 
ATOM      6  C   UNL     1      67.633  38.693  20.603  1.00  0.00     0.047 A 
ATOM      7  C   UNL     1      70.924  39.792  21.927  1.00  0.00     0.019 A 
ATOM      8  C   UNL     1      72.251  39.368  21.863  1.00  0.00     0.094 A 
ATOM      9  C   UNL     1      72.561  38.220  21.125  1.00  0.00     0.336 A 
ATOM     10  O   UNL     1      73.753  37.821  21.055  1.00  0.00    -0.246 OA
ATOM     11  O   UNL     1      71.603  37.546  20.495  1.00  0.00    -0.423 OA
ENDROOT
BRANCH   1  12
ATOM     12  O   UNL     1      67.086  36.761  19.176  1.00  0.00    -0.497 OA
ATOM     13  C   UNL     1      67.435  35.761  18.224  1.00  0.00     0.278 C 
ENDBRANCH   1  12
TORSDOF 1
ENDMDL
MODEL 9
REMARK VINA RESULT:    -3.933      1.772      2.516
REMARK INTER + INTRA:          -4.197
REMARK INTER:                  -4.155
REMARK INTRA:                  -0.043
REMARK UNBOUND:                -0.035
REMARK SMILES COc1ccc2ccc(=O)oc2c1
REMARK SMILES IDX 3 1 13 2 12 3 6 4 5 5 4 6 7 7 8 8 9 9 10 10 11 11 2 12 1 13
REMARK H PARENT
REMARK Flexibility Score: inf
ROOT
ATOM      1  C   UNL     1      74.569  39.692  20.013  1.00  0.00     0.122 A 
ATOM      2  C   UNL     1      73.327  39.245  20.484  1.00  0.00     0.094 A 
ATOM      3  C   UNL     1      72.640  38.225  19.818  1.00  0.00     0.142 A 
ATOM      4  C   UNL     1      73.199  37.641  18.662  1.00  0.00     0.018 A 
ATOM      5  C   UNL     1      74.440  38.084  18.186  1.00  0.00     0.016 A 
ATOM      6  C   UNL     1      75.122  39.103  18.857  1.00  0.00     0.047 A 
ATOM      7  C   UNL     1      72.488  36.624  18.018  1.00  0.00     0.019 A 
ATOM      8  C   UNL     1      71.256  36.218  18.531  1.00  0.00     0.094 A 
ATOM      9  C   UNL     1      70.763  36.844  19.682  1.00  0.00     0.336 A 
ATOM     10  O   UNL     1      69.653  36.493  20.161  1.00  0.00    -0.246 OA
ATOM     11  O   UNL     1      71.461  37.810  20.275  1.00  0.00    -0.423 OA
ENDROOT
BRANCH   1  12
ATOM     12  O   UNL     1      75.217  40.717  20.717  1.00  0.00    -0.497 OA
ATOM     13  C   UNL     1      74.888  41.115  22.044  1.00  0.00     0.278 C 
ENDBRANCH   1  12
TORSDOF 1
ENDMDL
