MODEL 1
REMARK VINA RESULT:    -4.139      0.000      0.000
REMARK INTER + INTRA:          -5.371
REMARK INTER:                  -5.107
REMARK INTRA:                  -0.264
REMARK UNBOUND:                -0.264
REMARK SMILES C=CC[C@@H](C)C(=O)CC
REMARK SMILES IDX 4 1 5 2 6 3 7 4 8 5 9 6 3 7 2 8 1 9
REMARK H PARENT
REMARK Flexibility Score: inf
ROOT
ATOM      1  C   UNL     1      19.253 -11.157  68.479  1.00  0.00     0.057 C 
ATOM      2  C   UNL     1      19.212  -9.836  69.258  1.00  0.00     0.016 C 
ENDROOT
BRANCH   1   3
ATOM      3  C   UNL     1      19.607 -12.294  69.413  1.00  0.00     0.135 C 
ATOM      4  O   UNL     1      20.604 -12.212  70.117  1.00  0.00    -0.299 OA
BRANCH   3   5
ATOM      5  C   UNL     1      18.747 -13.528  69.500  1.00  0.00     0.072 C 
ATOM      6  C   UNL     1      17.987 -13.566  70.822  1.00  0.00     0.012 C 
ENDBRANCH   3   5
ENDBRANCH   1   3
BRANCH   1   7
ATOM      7  C   UNL     1      17.909 -11.449  67.779  1.00  0.00     0.038 C 
BRANCH   7   8
ATOM      8  C   UNL     1      17.270 -10.205  67.220  1.00  0.00    -0.034 C 
ATOM      9  C   UNL     1      17.096 -10.032  65.907  1.00  0.00     0.004 C 
ENDBRANCH   7   8
ENDBRANCH   1   7
TORSDOF 4
ENDMDL
MODEL 2
REMARK VINA RESULT:    -4.094      1.973      2.558
REMARK INTER + INTRA:          -5.315
REMARK INTER:                  -5.078
REMARK INTRA:                  -0.237
REMARK UNBOUND:                -0.264
REMARK SMILES C=CC[C@@H](C)C(=O)CC
REMARK SMILES IDX 4 1 5 2 6 3 7 4 8 5 9 6 3 7 2 8 1 9
REMARK H PARENT
REMARK Flexibility Score: inf
ROOT
ATOM      1  C   UNL     1      18.917  -9.440  67.887  1.00  0.00     0.057 C 
ATOM      2  C   UNL     1      17.492  -9.895  67.546  1.00  0.00     0.016 C 
ENDROOT
BRANCH   1   3
ATOM      3  C   UNL     1      19.394 -10.136  69.143  1.00  0.00     0.135 C 
ATOM      4  O   UNL     1      19.354  -9.547  70.214  1.00  0.00    -0.299 OA
BRANCH   3   5
ATOM      5  C   UNL     1      19.910 -11.551  69.104  1.00  0.00     0.072 C 
ATOM      6  C   UNL     1      18.903 -12.512  69.726  1.00  0.00     0.012 C 
ENDBRANCH   3   5
ENDBRANCH   1   3
BRANCH   1   7
ATOM      7  C   UNL     1      19.898  -9.718  66.728  1.00  0.00     0.038 C 
BRANCH   7   8
ATOM      8  C   UNL     1      19.291  -9.427  65.380  1.00  0.00    -0.034 C 
ATOM      9  C   UNL     1      20.001  -9.520  64.253  1.00  0.00     0.004 C 
ENDBRANCH   7   8
ENDBRANCH   1   7
TORSDOF 4
ENDMDL
MODEL 3
REMARK VINA RESULT:    -4.022      1.320      3.776
REMARK INTER + INTRA:          -5.226
REMARK INTER:                  -4.860
REMARK INTRA:                  -0.366
REMARK UNBOUND:                -0.264
REMARK SMILES C=CC[C@@H](C)C(=O)CC
REMARK SMILES IDX 4 1 5 2 6 3 7 4 8 5 9 6 3 7 2 8 1 9
REMARK H PARENT
REMARK Flexibility Score: inf
ROOT
ATOM      1  C   UNL     1      20.450 -11.655  68.665  1.00  0.00     0.057 C 
ATOM      2  C   UNL     1      20.154 -12.257  67.285  1.00  0.00     0.016 C 
ENDROOT
BRANCH   1   3
ATOM      3  C   UNL     1      19.610 -10.414  68.876  1.00  0.00     0.135 C 
ATOM      4  O   UNL     1      19.421  -9.996  70.010  1.00  0.00    -0.299 OA
BRANCH   3   5
ATOM      5  C   UNL     1      19.006  -9.674  67.711  1.00  0.00     0.072 C 
ATOM      6  C   UNL     1      17.496  -9.882  67.663  1.00  0.00     0.012 C 
ENDBRANCH   3   5
ENDBRANCH   1   3
BRANCH   1   7
ATOM      7  C   UNL     1      20.187 -12.668  69.799  1.00  0.00     0.038 C 
BRANCH   7   8
ATOM      8  C   UNL     1      18.935 -13.474  69.570  1.00  0.00    -0.034 C 
ATOM      9  C   UNL     1      17.969 -13.550  70.489  1.00  0.00     0.004 C 
ENDBRANCH   7   8
ENDBRANCH   1   7
TORSDOF 4
ENDMDL
MODEL 4
REMARK VINA RESULT:    -3.872     16.016     17.856
REMARK INTER + INTRA:          -5.041
REMARK INTER:                  -4.839
REMARK INTRA:                  -0.202
REMARK UNBOUND:                -0.264
REMARK SMILES C=CC[C@@H](C)C(=O)CC
REMARK SMILES IDX 4 1 5 2 6 3 7 4 8 5 9 6 3 7 2 8 1 9
REMARK H PARENT
REMARK Flexibility Score: inf
ROOT
ATOM      1  C   UNL     1      18.267   4.421  62.886  1.00  0.00     0.057 C 
ATOM      2  C   UNL     1      18.026   3.028  63.481  1.00  0.00     0.016 C 
ENDROOT
BRANCH   1   3
ATOM      3  C   UNL     1      16.983   5.222  62.912  1.00  0.00     0.135 C 
ATOM      4  O   UNL     1      16.556   5.648  63.976  1.00  0.00    -0.299 OA
BRANCH   3   5
ATOM      5  C   UNL     1      16.219   5.513  61.647  1.00  0.00     0.072 C 
ATOM      6  C   UNL     1      16.753   4.677  60.488  1.00  0.00     0.012 C 
ENDBRANCH   3   5
ENDBRANCH   1   3
BRANCH   1   7
ATOM      7  C   UNL     1      19.377   5.182  63.642  1.00  0.00     0.038 C 
BRANCH   7   8
ATOM      8  C   UNL     1      20.706   4.476  63.574  1.00  0.00    -0.034 C 
ATOM      9  C   UNL     1      21.765   5.025  62.974  1.00  0.00     0.004 C 
ENDBRANCH   7   8
ENDBRANCH   1   7
TORSDOF 4
ENDMDL
MODEL 5
REMARK VINA RESULT:    -3.736      1.680      3.201
REMARK INTER + INTRA:          -4.874
REMARK INTER:                  -4.375
REMARK INTRA:                  -0.499
REMARK UNBOUND:                -0.264
REMARK SMILES C=CC[C@@H](C)C(=O)CC
REMARK SMILES IDX 4 1 5 2 6 3 7 4 8 5 9 6 3 7 2 8 1 9
REMARK H PARENT
REMARK Flexibility Score: inf
ROOT
ATOM      1  C   UNL     1      18.638 -12.368  68.554  1.00  0.00     0.057 C 
ATOM      2  C   UNL     1      18.342 -13.150  69.840  1.00  0.00     0.016 C 
ENDROOT
BRANCH   1   3
ATOM      3  C   UNL     1      19.070 -10.959  68.896  1.00  0.00     0.135 C 
ATOM      4  O   UNL     1      19.704 -10.751  69.921  1.00  0.00    -0.299 OA
BRANCH   3   5
ATOM      5  C   UNL     1      18.741  -9.801  67.991  1.00  0.00     0.072 C 
ATOM      6  C   UNL     1      17.359  -9.976  67.369  1.00  0.00     0.012 C 
ENDBRANCH   3   5
ENDBRANCH   1   3
BRANCH   1   7
ATOM      7  C   UNL     1      19.725 -13.060  67.703  1.00  0.00     0.038 C 
BRANCH   7   8
ATOM      8  C   UNL     1      19.365 -13.107  66.240  1.00  0.00    -0.034 C 
ATOM      9  C   UNL     1      18.114 -13.332  65.830  1.00  0.00     0.004 C 
ENDBRANCH   7   8
ENDBRANCH   1   7
TORSDOF 4
ENDMDL
MODEL 6
REMARK VINA RESULT:    -3.708     16.561     17.850
REMARK INTER + INTRA:          -4.840
REMARK INTER:                  -4.321
REMARK INTRA:                  -0.518
REMARK UNBOUND:                -0.264
REMARK SMILES C=CC[C@@H](C)C(=O)CC
REMARK SMILES IDX 4 1 5 2 6 3 7 4 8 5 9 6 3 7 2 8 1 9
REMARK H PARENT
REMARK Flexibility Score: inf
ROOT
ATOM      1  C   UNL     1       6.218  -8.097  55.163  1.00  0.00     0.057 C 
ATOM      2  C   UNL     1       7.445  -7.177  55.216  1.00  0.00     0.016 C 
ENDROOT
BRANCH   1   3
ATOM      3  C   UNL     1       6.662  -9.543  55.099  1.00  0.00     0.135 C 
ATOM      4  O   UNL     1       5.874 -10.402  54.730  1.00  0.00    -0.299 OA
BRANCH   3   5
ATOM      5  C   UNL     1       8.064  -9.946  55.473  1.00  0.00     0.072 C 
ATOM      6  C   UNL     1       8.062 -10.803  56.735  1.00  0.00     0.012 C 
ENDBRANCH   3   5
ENDBRANCH   1   3
BRANCH   1   7
ATOM      7  C   UNL     1       5.292  -7.884  56.379  1.00  0.00     0.038 C 
BRANCH   7   8
ATOM      8  C   UNL     1       6.047  -7.441  57.606  1.00  0.00    -0.034 C 
ATOM      9  C   UNL     1       6.163  -8.223  58.682  1.00  0.00     0.004 C 
ENDBRANCH   7   8
ENDBRANCH   1   7
TORSDOF 4
ENDMDL
MODEL 7
REMARK VINA RESULT:    -3.672      3.637      5.199
REMARK INTER + INTRA:          -4.795
REMARK INTER:                  -4.311
REMARK INTRA:                  -0.484
REMARK UNBOUND:                -0.264
REMARK SMILES C=CC[C@@H](C)C(=O)CC
REMARK SMILES IDX 4 1 5 2 6 3 7 4 8 5 9 6 3 7 2 8 1 9
REMARK H PARENT
REMARK Flexibility Score: inf
ROOT
ATOM      1  C   UNL     1      18.105 -11.368  65.538  1.00  0.00     0.057 C 
ATOM      2  C   UNL     1      18.078 -12.902  65.549  1.00  0.00     0.016 C 
ENDROOT
BRANCH   1   3
ATOM      3  C   UNL     1      18.187 -10.865  64.112  1.00  0.00     0.135 C 
ATOM      4  O   UNL     1      17.627 -11.484  63.218  1.00  0.00    -0.299 OA
BRANCH   3   5
ATOM      5  C   UNL     1      18.941  -9.606  63.772  1.00  0.00     0.072 C 
ATOM      6  C   UNL     1      20.311  -9.598  64.443  1.00  0.00     0.012 C 
ENDBRANCH   3   5
ENDBRANCH   1   3
BRANCH   1   7
ATOM      7  C   UNL     1      16.865 -10.770  66.236  1.00  0.00     0.038 C 
BRANCH   7   8
ATOM      8  C   UNL     1      17.232  -9.890  67.402  1.00  0.00    -0.034 C 
ATOM      9  C   UNL     1      18.504  -9.675  67.750  1.00  0.00     0.004 C 
ENDBRANCH   7   8
ENDBRANCH   1   7
TORSDOF 4
ENDMDL
MODEL 8
REMARK VINA RESULT:    -3.632     16.660     17.894
REMARK INTER + INTRA:          -4.745
REMARK INTER:                  -4.466
REMARK INTRA:                  -0.279
REMARK UNBOUND:                -0.264
REMARK SMILES C=CC[C@@H](C)C(=O)CC
REMARK SMILES IDX 4 1 5 2 6 3 7 4 8 5 9 6 3 7 2 8 1 9
REMARK H PARENT
REMARK Flexibility Score: inf
ROOT
ATOM      1  C   UNL     1       8.391  -9.912  54.754  1.00  0.00     0.057 C 
ATOM      2  C   UNL     1       8.526 -10.861  55.953  1.00  0.00     0.016 C 
ENDROOT
BRANCH   1   3
ATOM      3  C   UNL     1       6.981  -9.367  54.685  1.00  0.00     0.135 C 
ATOM      4  O   UNL     1       6.032 -10.139  54.708  1.00  0.00    -0.299 OA
BRANCH   3   5
ATOM      5  C   UNL     1       6.720  -7.886  54.596  1.00  0.00     0.072 C 
ATOM      6  C   UNL     1       5.975  -7.393  55.833  1.00  0.00     0.012 C 
ENDBRANCH   3   5
ENDBRANCH   1   3
BRANCH   1   7
ATOM      7  C   UNL     1       9.402  -8.748  54.831  1.00  0.00     0.038 C 
BRANCH   7   8
ATOM      8  C   UNL     1      10.553  -8.924  53.875  1.00  0.00    -0.034 C 
ATOM      9  C   UNL     1      11.723  -9.436  54.268  1.00  0.00     0.004 C 
ENDBRANCH   7   8
ENDBRANCH   1   7
TORSDOF 4
ENDMDL
MODEL 9
REMARK VINA RESULT:    -3.605     16.185     17.551
REMARK INTER + INTRA:          -4.713
REMARK INTER:                  -4.255
REMARK INTRA:                  -0.458
REMARK UNBOUND:                -0.264
REMARK SMILES C=CC[C@@H](C)C(=O)CC
REMARK SMILES IDX 4 1 5 2 6 3 7 4 8 5 9 6 3 7 2 8 1 9
REMARK H PARENT
REMARK Flexibility Score: inf
ROOT
ATOM      1  C   UNL     1       7.739  -8.761  54.867  1.00  0.00     0.057 C 
ATOM      2  C   UNL     1       6.750  -7.743  54.285  1.00  0.00     0.016 C 
ENDROOT
BRANCH   1   3
ATOM      3  C   UNL     1       7.007 -10.030  55.246  1.00  0.00     0.135 C 
ATOM      4  O   UNL     1       6.020 -10.373  54.611  1.00  0.00    -0.299 OA
BRANCH   3   5
ATOM      5  C   UNL     1       7.478 -10.890  56.390  1.00  0.00     0.072 C 
ATOM      6  C   UNL     1       7.864 -10.031  57.590  1.00  0.00     0.012 C 
ENDBRANCH   3   5
ENDBRANCH   1   3
BRANCH   1   7
ATOM      7  C   UNL     1       8.876  -9.085  53.875  1.00  0.00     0.038 C 
BRANCH   7   8
ATOM      8  C   UNL     1      10.241  -8.881  54.480  1.00  0.00    -0.034 C 
ATOM      9  C   UNL     1      10.841  -9.832  55.200  1.00  0.00     0.004 C 
ENDBRANCH   7   8
ENDBRANCH   1   7
TORSDOF 4
ENDMDL
