MODEL 1
REMARK VINA RESULT:    -3.746      0.000      0.000
REMARK INTER + INTRA:          -7.812
REMARK INTER:                  -6.813
REMARK INTRA:                  -0.999
REMARK UNBOUND:                -0.999
REMARK SMILES CCCCCCCCCCCCCCCC(=O)[O-]
REMARK SMILES IDX 9 1 10 2 11 3 12 4 13 5 14 6 15 7 16 8 17 9 18 10 8 11 7 12
REMARK SMILES IDX 6 13 5 14 4 15 3 16 2 17 1 18
REMARK H PARENT
REMARK Flexibility Score: inf
ROOT
ATOM      1  C   UNL     1      13.041   4.599  -0.938  1.00  0.00     0.000 C 
ENDROOT
BRANCH   1   2
ATOM      2  C   UNL     1      12.895   3.851  -2.275  1.00  0.00     0.000 C 
BRANCH   2   3
ATOM      3  C   UNL     1      14.180   3.115  -2.696  1.00  0.00     0.000 C 
BRANCH   3   4
ATOM      4  C   UNL     1      15.206   2.880  -1.572  1.00  0.00     0.000 C 
BRANCH   4   5
ATOM      5  C   UNL     1      16.029   1.596  -1.768  1.00  0.00     0.000 C 
BRANCH   5   6
ATOM      6  C   UNL     1      17.333   1.845  -2.545  1.00  0.00     0.006 C 
BRANCH   6   7
ATOM      7  C   UNL     1      18.100   0.549  -2.843  1.00  0.00     0.053 C 
BRANCH   7   8
ATOM      8  C   UNL     1      19.572   0.771  -2.698  1.00  0.00     0.041 C 
ATOM      9  O   UNL     1      20.020   1.928  -2.480  1.00  0.00    -0.550 OA
ATOM     10  O   UNL     1      20.454  -0.291  -2.850  1.00  0.00    -0.550 OA
ENDBRANCH   7   8
ENDBRANCH   6   7
ENDBRANCH   5   6
ENDBRANCH   4   5
ENDBRANCH   3   4
ENDBRANCH   2   3
ENDBRANCH   1   2
BRANCH   1  11
ATOM     11  C   UNL     1      11.726   5.246  -0.464  1.00  0.00     0.000 C 
BRANCH  11  12
ATOM     12  C   UNL     1      10.504   4.997  -1.367  1.00  0.00    -0.000 C 
BRANCH  12  13
ATOM     13  C   UNL     1       9.949   6.286  -1.997  1.00  0.00    -0.000 C 
BRANCH  13  14
ATOM     14  C   UNL     1      10.917   6.908  -3.017  1.00  0.00    -0.000 C 
BRANCH  14  15
ATOM     15  C   UNL     1      11.515   8.237  -2.533  1.00  0.00    -0.000 C 
BRANCH  15  16
ATOM     16  C   UNL     1      13.045   8.222  -2.644  1.00  0.00    -0.000 C 
BRANCH  16  17
ATOM     17  C   UNL     1      13.639   9.577  -2.239  1.00  0.00    -0.003 C 
ATOM     18  C   UNL     1      15.164   9.530  -2.233  1.00  0.00     0.004 C 
ENDBRANCH  16  17
ENDBRANCH  15  16
ENDBRANCH  14  15
ENDBRANCH  13  14
ENDBRANCH  12  13
ENDBRANCH  11  12
ENDBRANCH   1  11
TORSDOF 14
ENDMDL
MODEL 2
REMARK VINA RESULT:    -3.614      1.735      3.270
REMARK INTER + INTRA:          -7.571
REMARK INTER:                  -6.211
REMARK INTRA:                  -1.360
REMARK UNBOUND:                -0.999
REMARK SMILES CCCCCCCCCCCCCCCC(=O)[O-]
REMARK SMILES IDX 9 1 10 2 11 3 12 4 13 5 14 6 15 7 16 8 17 9 18 10 8 11 7 12
REMARK SMILES IDX 6 13 5 14 4 15 3 16 2 17 1 18
REMARK H PARENT
REMARK Flexibility Score: inf
ROOT
ATOM      1  C   UNL     1      10.657   6.866  -0.700  1.00  0.00     0.000 C 
ENDROOT
BRANCH   1   2
ATOM      2  C   UNL     1      11.037   5.376  -0.659  1.00  0.00     0.000 C 
BRANCH   2   3
ATOM      3  C   UNL     1      10.709   4.635  -1.969  1.00  0.00     0.000 C 
BRANCH   3   4
ATOM      4  C   UNL     1      11.846   3.768  -2.541  1.00  0.00     0.000 C 
BRANCH   4   5
ATOM      5  C   UNL     1      13.192   3.999  -1.833  1.00  0.00     0.000 C 
BRANCH   5   6
ATOM      6  C   UNL     1      14.345   3.226  -2.493  1.00  0.00     0.006 C 
BRANCH   6   7
ATOM      7  C   UNL     1      15.458   2.865  -1.501  1.00  0.00     0.053 C 
BRANCH   7   8
ATOM      8  C   UNL     1      16.336   1.795  -2.070  1.00  0.00     0.041 C 
ATOM      9  O   UNL     1      17.589   1.884  -1.970  1.00  0.00    -0.550 OA
ATOM     10  O   UNL     1      15.775   0.725  -2.754  1.00  0.00    -0.550 OA
ENDBRANCH   7   8
ENDBRANCH   6   7
ENDBRANCH   5   6
ENDBRANCH   4   5
ENDBRANCH   3   4
ENDBRANCH   2   3
ENDBRANCH   1   2
BRANCH   1  11
ATOM     11  C   UNL     1       9.238   7.110  -1.246  1.00  0.00     0.000 C 
BRANCH  11  12
ATOM     12  C   UNL     1       8.923   8.565  -1.640  1.00  0.00    -0.000 C 
BRANCH  12  13
ATOM     13  C   UNL     1       9.999   9.189  -2.546  1.00  0.00    -0.000 C 
BRANCH  13  14
ATOM     14  C   UNL     1      10.627  10.451  -1.932  1.00  0.00    -0.000 C 
BRANCH  14  15
ATOM     15  C   UNL     1      12.046  10.208  -1.397  1.00  0.00    -0.000 C 
BRANCH  15  16
ATOM     16  C   UNL     1      13.074  10.246  -2.534  1.00  0.00    -0.000 C 
BRANCH  16  17
ATOM     17  C   UNL     1      13.990   9.017  -2.490  1.00  0.00    -0.003 C 
ATOM     18  C   UNL     1      13.263   7.771  -2.987  1.00  0.00     0.004 C 
ENDBRANCH  16  17
ENDBRANCH  15  16
ENDBRANCH  14  15
ENDBRANCH  13  14
ENDBRANCH  12  13
ENDBRANCH  11  12
ENDBRANCH   1  11
TORSDOF 14
ENDMDL
MODEL 3
REMARK VINA RESULT:    -3.602      3.656      8.256
REMARK INTER + INTRA:          -7.549
REMARK INTER:                  -6.486
REMARK INTRA:                  -1.063
REMARK UNBOUND:                -0.999
REMARK SMILES CCCCCCCCCCCCCCCC(=O)[O-]
REMARK SMILES IDX 9 1 10 2 11 3 12 4 13 5 14 6 15 7 16 8 17 9 18 10 8 11 7 12
REMARK SMILES IDX 6 13 5 14 4 15 3 16 2 17 1 18
REMARK H PARENT
REMARK Flexibility Score: inf
ROOT
ATOM      1  C   UNL     1      12.815   3.892  -2.448  1.00  0.00     0.000 C 
ENDROOT
BRANCH   1   2
ATOM      2  C   UNL     1      12.999   4.687  -1.144  1.00  0.00     0.000 C 
BRANCH   2   3
ATOM      3  C   UNL     1      11.678   5.257  -0.595  1.00  0.00     0.000 C 
BRANCH   3   4
ATOM      4  C   UNL     1      10.434   4.995  -1.464  1.00  0.00     0.000 C 
BRANCH   4   5
ATOM      5  C   UNL     1       9.645   6.276  -1.784  1.00  0.00     0.000 C 
BRANCH   5   6
ATOM      6  C   UNL     1      10.058   6.904  -3.125  1.00  0.00     0.006 C 
BRANCH   6   7
ATOM      7  C   UNL     1      10.377   8.400  -3.003  1.00  0.00     0.053 C 
BRANCH   7   8
ATOM      8  C   UNL     1      11.708   8.597  -2.347  1.00  0.00     0.041 C 
ATOM      9  O   UNL     1      12.708   7.937  -2.734  1.00  0.00    -0.550 OA
ATOM     10  O   UNL     1      11.833   9.474  -1.278  1.00  0.00    -0.550 OA
ENDBRANCH   7   8
ENDBRANCH   6   7
ENDBRANCH   5   6
ENDBRANCH   4   5
ENDBRANCH   3   4
ENDBRANCH   2   3
ENDBRANCH   1   2
BRANCH   1  11
ATOM     11  C   UNL     1      13.998   2.953  -2.752  1.00  0.00     0.000 C 
BRANCH  11  12
ATOM     12  C   UNL     1      15.027   2.798  -1.617  1.00  0.00    -0.000 C 
BRANCH  12  13
ATOM     13  C   UNL     1      15.695   1.412  -1.596  1.00  0.00    -0.000 C 
BRANCH  13  14
ATOM     14  C   UNL     1      16.040   0.903  -3.005  1.00  0.00    -0.000 C 
BRANCH  14  15
ATOM     15  C   UNL     1      17.487   0.398  -3.115  1.00  0.00    -0.000 C 
BRANCH  15  16
ATOM     16  C   UNL     1      18.481   1.486  -2.690  1.00  0.00    -0.000 C 
BRANCH  16  17
ATOM     17  C   UNL     1      19.925   1.054  -2.974  1.00  0.00    -0.003 C 
ATOM     18  C   UNL     1      20.886   2.232  -2.855  1.00  0.00     0.004 C 
ENDBRANCH  16  17
ENDBRANCH  15  16
ENDBRANCH  14  15
ENDBRANCH  13  14
ENDBRANCH  12  13
ENDBRANCH  11  12
ENDBRANCH   1  11
TORSDOF 14
ENDMDL
MODEL 4
REMARK VINA RESULT:    -3.569      4.727      8.811
REMARK INTER + INTRA:          -7.489
REMARK INTER:                  -6.705
REMARK INTRA:                  -0.783
REMARK UNBOUND:                -0.999
REMARK SMILES CCCCCCCCCCCCCCCC(=O)[O-]
REMARK SMILES IDX 9 1 10 2 11 3 12 4 13 5 14 6 15 7 16 8 17 9 18 10 8 11 7 12
REMARK SMILES IDX 6 13 5 14 4 15 3 16 2 17 1 18
REMARK H PARENT
REMARK Flexibility Score: inf
ROOT
ATOM      1  C   UNL     1      14.554   3.298  -2.665  1.00  0.00     0.000 C 
ENDROOT
BRANCH   1   2
ATOM      2  C   UNL     1      13.190   2.590  -2.743  1.00  0.00     0.000 C 
BRANCH   2   3
ATOM      3  C   UNL     1      12.007   3.572  -2.826  1.00  0.00     0.000 C 
BRANCH   3   4
ATOM      4  C   UNL     1      12.261   4.967  -2.224  1.00  0.00     0.000 C 
BRANCH   4   5
ATOM      5  C   UNL     1      11.677   5.127  -0.811  1.00  0.00     0.000 C 
BRANCH   5   6
ATOM      6  C   UNL     1      10.658   6.274  -0.720  1.00  0.00     0.006 C 
BRANCH   6   7
ATOM      7  C   UNL     1      10.559   7.082  -2.022  1.00  0.00     0.053 C 
BRANCH   7   8
ATOM      8  C   UNL     1       9.914   8.407  -1.764  1.00  0.00     0.041 C 
ATOM      9  O   UNL     1      10.603   9.461  -1.777  1.00  0.00    -0.550 OA
ATOM     10  O   UNL     1       8.560   8.474  -1.462  1.00  0.00    -0.550 OA
ENDBRANCH   7   8
ENDBRANCH   6   7
ENDBRANCH   5   6
ENDBRANCH   4   5
ENDBRANCH   3   4
ENDBRANCH   2   3
ENDBRANCH   1   2
BRANCH   1  11
ATOM     11  C   UNL     1      15.513   2.647  -1.650  1.00  0.00     0.000 C 
BRANCH  11  12
ATOM     12  C   UNL     1      15.598   1.111  -1.714  1.00  0.00    -0.000 C 
BRANCH  12  13
ATOM     13  C   UNL     1      16.583   0.607  -2.783  1.00  0.00    -0.000 C 
BRANCH  13  14
ATOM     14  C   UNL     1      17.738   1.590  -3.031  1.00  0.00    -0.000 C 
BRANCH  14  15
ATOM     15  C   UNL     1      19.117   0.959  -2.784  1.00  0.00    -0.000 C 
BRANCH  15  16
ATOM     16  C   UNL     1      20.240   1.949  -3.115  1.00  0.00    -0.000 C 
BRANCH  16  17
ATOM     17  C   UNL     1      21.263   2.023  -1.975  1.00  0.00    -0.003 C 
ATOM     18  C   UNL     1      21.432   0.666  -1.298  1.00  0.00     0.004 C 
ENDBRANCH  16  17
ENDBRANCH  15  16
ENDBRANCH  14  15
ENDBRANCH  13  14
ENDBRANCH  12  13
ENDBRANCH  11  12
ENDBRANCH   1  11
TORSDOF 14
ENDMDL
MODEL 5
REMARK VINA RESULT:    -3.542      2.874      4.379
REMARK INTER + INTRA:          -7.441
REMARK INTER:                  -6.507
REMARK INTRA:                  -0.934
REMARK UNBOUND:                -0.999
REMARK SMILES CCCCCCCCCCCCCCCC(=O)[O-]
REMARK SMILES IDX 9 1 10 2 11 3 12 4 13 5 14 6 15 7 16 8 17 9 18 10 8 11 7 12
REMARK SMILES IDX 6 13 5 14 4 15 3 16 2 17 1 18
REMARK H PARENT
REMARK Flexibility Score: inf
ROOT
ATOM      1  C   UNL     1       9.922   7.108  -1.016  1.00  0.00     0.000 C 
ENDROOT
BRANCH   1   2
ATOM      2  C   UNL     1      10.409   5.680  -1.319  1.00  0.00     0.000 C 
BRANCH   2   3
ATOM      3  C   UNL     1      11.535   5.215  -0.376  1.00  0.00     0.000 C 
BRANCH   3   4
ATOM      4  C   UNL     1      12.857   4.832  -1.066  1.00  0.00     0.000 C 
BRANCH   4   5
ATOM      5  C   UNL     1      12.656   3.918  -2.286  1.00  0.00     0.000 C 
BRANCH   5   6
ATOM      6  C   UNL     1      13.983   3.540  -2.965  1.00  0.00     0.006 C 
BRANCH   6   7
ATOM      7  C   UNL     1      14.303   2.044  -2.847  1.00  0.00     0.053 C 
BRANCH   7   8
ATOM      8  C   UNL     1      15.587   1.844  -2.106  1.00  0.00     0.041 C 
ATOM      9  O   UNL     1      16.237   0.774  -2.241  1.00  0.00    -0.550 OA
ATOM     10  O   UNL     1      16.044   2.820  -1.229  1.00  0.00    -0.550 OA
ENDBRANCH   7   8
ENDBRANCH   6   7
ENDBRANCH   5   6
ENDBRANCH   4   5
ENDBRANCH   3   4
ENDBRANCH   2   3
ENDBRANCH   1   2
BRANCH   1  11
ATOM     11  C   UNL     1      10.376   8.135  -2.071  1.00  0.00     0.000 C 
BRANCH  11  12
ATOM     12  C   UNL     1      11.888   8.421  -2.106  1.00  0.00    -0.000 C 
BRANCH  12  13
ATOM     13  C   UNL     1      12.238   9.857  -1.678  1.00  0.00    -0.000 C 
BRANCH  13  14
ATOM     14  C   UNL     1      11.000  10.764  -1.587  1.00  0.00    -0.000 C 
BRANCH  14  15
ATOM     15  C   UNL     1      11.167  11.894  -0.560  1.00  0.00    -0.000 C 
BRANCH  15  16
ATOM     16  C   UNL     1      10.070  12.952  -0.726  1.00  0.00    -0.000 C 
BRANCH  16  17
ATOM     17  C   UNL     1      10.661  14.292  -1.181  1.00  0.00    -0.003 C 
ATOM     18  C   UNL     1      12.180  14.301  -1.038  1.00  0.00     0.004 C 
ENDBRANCH  16  17
ENDBRANCH  15  16
ENDBRANCH  14  15
ENDBRANCH  13  14
ENDBRANCH  12  13
ENDBRANCH  11  12
ENDBRANCH   1  11
TORSDOF 14
ENDMDL
MODEL 6
REMARK VINA RESULT:    -3.518      5.891      9.649
REMARK INTER + INTRA:          -7.397
REMARK INTER:                  -6.486
REMARK INTRA:                  -0.911
REMARK UNBOUND:                -0.999
REMARK SMILES CCCCCCCCCCCCCCCC(=O)[O-]
REMARK SMILES IDX 9 1 10 2 11 3 12 4 13 5 14 6 15 7 16 8 17 9 18 10 8 11 7 12
REMARK SMILES IDX 6 13 5 14 4 15 3 16 2 17 1 18
REMARK H PARENT
REMARK Flexibility Score: inf
ROOT
ATOM      1  C   UNL     1       9.726   7.124  -1.557  1.00  0.00     0.000 C 
ENDROOT
BRANCH   1   2
ATOM      2  C   UNL     1      10.217   8.500  -2.039  1.00  0.00     0.000 C 
BRANCH   2   3
ATOM      3  C   UNL     1      11.728   8.708  -1.827  1.00  0.00     0.000 C 
BRANCH   3   4
ATOM      4  C   UNL     1      12.134  10.082  -1.264  1.00  0.00     0.000 C 
BRANCH   4   5
ATOM      5  C   UNL     1      12.019  11.214  -2.298  1.00  0.00     0.000 C 
BRANCH   5   6
ATOM      6  C   UNL     1      11.697  12.572  -1.654  1.00  0.00     0.006 C 
BRANCH   6   7
ATOM      7  C   UNL     1      10.704  12.454  -0.490  1.00  0.00     0.053 C 
BRANCH   7   8
ATOM      8  C   UNL     1       9.491  13.289  -0.754  1.00  0.00     0.041 C 
ATOM      9  O   UNL     1       8.362  12.744  -0.875  1.00  0.00    -0.550 OA
ATOM     10  O   UNL     1       9.613  14.663  -0.914  1.00  0.00    -0.550 OA
ENDBRANCH   7   8
ENDBRANCH   6   7
ENDBRANCH   5   6
ENDBRANCH   4   5
ENDBRANCH   3   4
ENDBRANCH   2   3
ENDBRANCH   1   2
BRANCH   1  11
ATOM     11  C   UNL     1      10.654   6.489  -0.505  1.00  0.00     0.000 C 
BRANCH  11  12
ATOM     12  C   UNL     1      11.050   5.025  -0.772  1.00  0.00    -0.000 C 
BRANCH  12  13
ATOM     13  C   UNL     1      12.472   4.881  -1.342  1.00  0.00    -0.000 C 
BRANCH  13  14
ATOM     14  C   UNL     1      12.543   3.877  -2.504  1.00  0.00    -0.000 C 
BRANCH  14  15
ATOM     15  C   UNL     1      13.930   3.232  -2.646  1.00  0.00    -0.000 C 
BRANCH  15  16
ATOM     16  C   UNL     1      14.734   3.370  -1.348  1.00  0.00    -0.000 C 
BRANCH  16  17
ATOM     17  C   UNL     1      16.012   2.522  -1.400  1.00  0.00    -0.003 C 
ATOM     18  C   UNL     1      15.770   1.205  -2.130  1.00  0.00     0.004 C 
ENDBRANCH  16  17
ENDBRANCH  15  16
ENDBRANCH  14  15
ENDBRANCH  13  14
ENDBRANCH  12  13
ENDBRANCH  11  12
ENDBRANCH   1  11
TORSDOF 14
ENDMDL
MODEL 7
REMARK VINA RESULT:    -3.449      3.495      5.502
REMARK INTER + INTRA:          -7.270
REMARK INTER:                  -6.406
REMARK INTRA:                  -0.864
REMARK UNBOUND:                -0.999
REMARK SMILES CCCCCCCCCCCCCCCC(=O)[O-]
REMARK SMILES IDX 9 1 10 2 11 3 12 4 13 5 14 6 15 7 16 8 17 9 18 10 8 11 7 12
REMARK SMILES IDX 6 13 5 14 4 15 3 16 2 17 1 18
REMARK H PARENT
REMARK Flexibility Score: inf
ROOT
ATOM      1  C   UNL     1      12.143   8.067  -2.057  1.00  0.00     0.000 C 
ENDROOT
BRANCH   1   2
ATOM      2  C   UNL     1      10.803   7.363  -1.783  1.00  0.00     0.000 C 
BRANCH   2   3
ATOM      3  C   UNL     1      10.810   6.539  -0.482  1.00  0.00     0.000 C 
BRANCH   3   4
ATOM      4  C   UNL     1      11.212   5.060  -0.639  1.00  0.00     0.000 C 
BRANCH   4   5
ATOM      5  C   UNL     1      11.189   4.583  -2.101  1.00  0.00     0.000 C 
BRANCH   5   6
ATOM      6  C   UNL     1      12.479   3.850  -2.502  1.00  0.00     0.006 C 
BRANCH   6   7
ATOM      7  C   UNL     1      13.615   4.055  -1.491  1.00  0.00     0.053 C 
BRANCH   7   8
ATOM      8  C   UNL     1      14.697   3.045  -1.712  1.00  0.00     0.041 C 
ATOM      9  O   UNL     1      15.792   3.147  -1.100  1.00  0.00    -0.550 OA
ATOM     10  O   UNL     1      14.514   2.019  -2.630  1.00  0.00    -0.550 OA
ENDBRANCH   7   8
ENDBRANCH   6   7
ENDBRANCH   5   6
ENDBRANCH   4   5
ENDBRANCH   3   4
ENDBRANCH   2   3
ENDBRANCH   1   2
BRANCH   1  11
ATOM     11  C   UNL     1      11.994   9.327  -2.930  1.00  0.00     0.000 C 
BRANCH  11  12
ATOM     12  C   UNL     1      12.311  10.659  -2.226  1.00  0.00    -0.000 C 
BRANCH  12  13
ATOM     13  C   UNL     1      11.392  10.938  -1.024  1.00  0.00    -0.000 C 
BRANCH  13  14
ATOM     14  C   UNL     1      11.141  12.439  -0.809  1.00  0.00    -0.000 C 
BRANCH  14  15
ATOM     15  C   UNL     1      12.146  13.322  -1.564  1.00  0.00    -0.000 C 
BRANCH  15  16
ATOM     16  C   UNL     1      12.324  14.673  -0.861  1.00  0.00    -0.000 C 
BRANCH  16  17
ATOM     17  C   UNL     1      13.750  15.208  -1.049  1.00  0.00    -0.003 C 
ATOM     18  C   UNL     1      13.986  16.456  -0.204  1.00  0.00     0.004 C 
ENDBRANCH  16  17
ENDBRANCH  15  16
ENDBRANCH  14  15
ENDBRANCH  13  14
ENDBRANCH  12  13
ENDBRANCH  11  12
ENDBRANCH   1  11
TORSDOF 14
ENDMDL
MODEL 8
REMARK VINA RESULT:    -3.401      5.544      9.590
REMARK INTER + INTRA:          -7.183
REMARK INTER:                  -6.548
REMARK INTRA:                  -0.635
REMARK UNBOUND:                -0.999
REMARK SMILES CCCCCCCCCCCCCCCC(=O)[O-]
REMARK SMILES IDX 9 1 10 2 11 3 12 4 13 5 14 6 15 7 16 8 17 9 18 10 8 11 7 12
REMARK SMILES IDX 6 13 5 14 4 15 3 16 2 17 1 18
REMARK H PARENT
REMARK Flexibility Score: inf
ROOT
ATOM      1  C   UNL     1      10.023   7.469  -1.987  1.00  0.00     0.000 C 
ENDROOT
BRANCH   1   2
ATOM      2  C   UNL     1      10.387   8.944  -2.228  1.00  0.00     0.000 C 
BRANCH   2   3
ATOM      3  C   UNL     1      11.787   9.312  -1.703  1.00  0.00     0.000 C 
BRANCH   3   4
ATOM      4  C   UNL     1      12.078  10.821  -1.600  1.00  0.00     0.000 C 
BRANCH   4   5
ATOM      5  C   UNL     1      10.892  11.625  -1.042  1.00  0.00     0.000 C 
BRANCH   5   6
ATOM      6  C   UNL     1      11.266  13.081  -0.719  1.00  0.00     0.006 C 
BRANCH   6   7
ATOM      7  C   UNL     1      12.277  13.667  -1.714  1.00  0.00     0.053 C 
BRANCH   7   8
ATOM      8  C   UNL     1      13.011  14.814  -1.095  1.00  0.00     0.041 C 
ATOM      9  O   UNL     1      12.419  15.589  -0.298  1.00  0.00    -0.550 OA
ATOM     10  O   UNL     1      14.335  15.057  -1.434  1.00  0.00    -0.550 OA
ENDBRANCH   7   8
ENDBRANCH   6   7
ENDBRANCH   5   6
ENDBRANCH   4   5
ENDBRANCH   3   4
ENDBRANCH   2   3
ENDBRANCH   1   2
BRANCH   1  11
ATOM     11  C   UNL     1      10.830   6.830  -0.841  1.00  0.00     0.000 C 
BRANCH  11  12
ATOM     12  C   UNL     1      10.795   5.292  -0.786  1.00  0.00    -0.000 C 
BRANCH  12  13
ATOM     13  C   UNL     1      11.691   4.632  -1.849  1.00  0.00    -0.000 C 
BRANCH  13  14
ATOM     14  C   UNL     1      13.168   4.583  -1.428  1.00  0.00    -0.000 C 
BRANCH  14  15
ATOM     15  C   UNL     1      13.924   3.400  -2.052  1.00  0.00    -0.000 C 
BRANCH  15  16
ATOM     16  C   UNL     1      15.140   3.016  -1.200  1.00  0.00    -0.000 C 
BRANCH  16  17
ATOM     17  C   UNL     1      16.245   2.398  -2.066  1.00  0.00    -0.003 C 
ATOM     18  C   UNL     1      15.932   0.943  -2.403  1.00  0.00     0.004 C 
ENDBRANCH  16  17
ENDBRANCH  15  16
ENDBRANCH  14  15
ENDBRANCH  13  14
ENDBRANCH  12  13
ENDBRANCH  11  12
ENDBRANCH   1  11
TORSDOF 14
ENDMDL
MODEL 9
REMARK VINA RESULT:    -3.303      7.104     10.802
REMARK INTER + INTRA:          -7.006
REMARK INTER:                  -5.985
REMARK INTRA:                  -1.021
REMARK UNBOUND:                -0.999
REMARK SMILES CCCCCCCCCCCCCCCC(=O)[O-]
REMARK SMILES IDX 9 1 10 2 11 3 12 4 13 5 14 6 15 7 16 8 17 9 18 10 8 11 7 12
REMARK SMILES IDX 6 13 5 14 4 15 3 16 2 17 1 18
REMARK H PARENT
REMARK Flexibility Score: inf
ROOT
ATOM      1  C   UNL     1      11.433  10.556  -2.132  1.00  0.00     0.000 C 
ENDROOT
BRANCH   1   2
ATOM      2  C   UNL     1      10.547  11.452  -1.249  1.00  0.00     0.000 C 
BRANCH   2   3
ATOM      3  C   UNL     1      11.350  12.502  -0.460  1.00  0.00     0.000 C 
BRANCH   3   4
ATOM      4  C   UNL     1      11.481  13.879  -1.138  1.00  0.00     0.000 C 
BRANCH   4   5
ATOM      5  C   UNL     1      12.896  14.153  -1.674  1.00  0.00     0.000 C 
BRANCH   5   6
ATOM      6  C   UNL     1      13.560  15.363  -0.995  1.00  0.00     0.006 C 
BRANCH   6   7
ATOM      7  C   UNL     1      12.582  16.163  -0.124  1.00  0.00     0.053 C 
BRANCH   7   8
ATOM      8  C   UNL     1      13.330  17.075   0.795  1.00  0.00     0.041 C 
ATOM      9  O   UNL     1      14.399  17.621   0.414  1.00  0.00    -0.550 OA
ATOM     10  O   UNL     1      12.874  17.286   2.090  1.00  0.00    -0.550 OA
ENDBRANCH   7   8
ENDBRANCH   6   7
ENDBRANCH   5   6
ENDBRANCH   4   5
ENDBRANCH   3   4
ENDBRANCH   2   3
ENDBRANCH   1   2
BRANCH   1  11
ATOM     11  C   UNL     1      10.834   9.155  -2.360  1.00  0.00     0.000 C 
BRANCH  11  12
ATOM     12  C   UNL     1       9.386   8.968  -1.871  1.00  0.00    -0.000 C 
BRANCH  12  13
ATOM     13  C   UNL     1       9.132   7.580  -1.260  1.00  0.00    -0.000 C 
BRANCH  13  14
ATOM     14  C   UNL     1       9.030   6.476  -2.325  1.00  0.00    -0.000 C 
BRANCH  14  15
ATOM     15  C   UNL     1       9.866   5.235  -1.975  1.00  0.00    -0.000 C 
BRANCH  15  16
ATOM     16  C   UNL     1      10.673   5.462  -0.692  1.00  0.00    -0.000 C 
BRANCH  16  17
ATOM     17  C   UNL     1      12.125   5.001  -0.866  1.00  0.00    -0.003 C 
ATOM     18  C   UNL     1      12.824   5.786  -1.972  1.00  0.00     0.004 C 
ENDBRANCH  16  17
ENDBRANCH  15  16
ENDBRANCH  14  15
ENDBRANCH  13  14
ENDBRANCH  12  13
ENDBRANCH  11  12
ENDBRANCH   1  11
TORSDOF 14
ENDMDL
