MODEL 1
REMARK VINA RESULT:    -5.474      0.000      0.000
REMARK INTER + INTRA:          -6.054
REMARK INTER:                  -5.794
REMARK INTRA:                  -0.260
REMARK UNBOUND:                -0.260
REMARK SMILES CC(C)[C@H]1CC[C@H](C)[C@H]2C=C[C@H](C)C[C@@H]21
REMARK SMILES IDX 8 1 7 2 6 3 5 4 4 5 15 6 9 7 10 8 11 9 12 10 14 11 13 12
REMARK SMILES IDX 2 13 1 14 3 15
REMARK H PARENT
REMARK Flexibility Score: inf
ROOT
ATOM      1  C   UNL     1      -3.841   4.773  10.275  1.00  0.00     0.008 C 
ATOM      2  C   UNL     1      -2.370   4.984  10.682  1.00  0.00    -0.007 C 
ATOM      3  C   UNL     1      -2.264   6.284  11.490  1.00  0.00     0.004 C 
ATOM      4  C   UNL     1      -0.824   6.545  11.919  1.00  0.00     0.004 C 
ATOM      5  C   UNL     1      -0.283   5.406  12.812  1.00  0.00    -0.005 C 
ATOM      6  C   UNL     1      -0.387   4.039  12.052  1.00  0.00    -0.000 C 
ATOM      7  C   UNL     1      -1.823   3.788  11.505  1.00  0.00     0.018 C 
ATOM      8  C   UNL     1      -1.782   2.524  10.676  1.00  0.00    -0.027 C 
ATOM      9  C   UNL     1      -1.136   1.447  11.134  1.00  0.00    -0.028 C 
ATOM     10  C   UNL     1      -0.506   1.438  12.505  1.00  0.00     0.008 C 
ATOM     11  C   UNL     1       0.044   2.832  12.941  1.00  0.00     0.012 C 
ATOM     12  C   UNL     1      -1.509   0.880  13.524  1.00  0.00     0.012 C 
ENDROOT
BRANCH   5  13
ATOM     13  C   UNL     1       1.147   5.799  13.334  1.00  0.00    -0.014 C 
ATOM     14  C   UNL     1       1.265   5.866  14.865  1.00  0.00     0.007 C 
ATOM     15  C   UNL     1       1.712   7.075  12.686  1.00  0.00     0.007 C 
ENDBRANCH   5  13
TORSDOF 1
ENDMDL
MODEL 2
REMARK VINA RESULT:    -5.168      1.493      4.620
REMARK INTER + INTRA:          -5.730
REMARK INTER:                  -5.552
REMARK INTRA:                  -0.178
REMARK UNBOUND:                -0.260
REMARK SMILES CC(C)[C@H]1CC[C@H](C)[C@H]2C=C[C@H](C)C[C@@H]21
REMARK SMILES IDX 8 1 7 2 6 3 5 4 4 5 15 6 9 7 10 8 11 9 12 10 14 11 13 12
REMARK SMILES IDX 2 13 1 14 3 15
REMARK H PARENT
REMARK Flexibility Score: inf
ROOT
ATOM      1  C   UNL     1      -0.998   5.130  10.009  1.00  0.00     0.008 C 
ATOM      2  C   UNL     1      -1.524   4.126  11.053  1.00  0.00    -0.007 C 
ATOM      3  C   UNL     1      -1.073   2.715  10.653  1.00  0.00     0.004 C 
ATOM      4  C   UNL     1      -1.569   1.678  11.655  1.00  0.00     0.004 C 
ATOM      5  C   UNL     1      -1.018   1.950  13.073  1.00  0.00    -0.005 C 
ATOM      6  C   UNL     1      -1.424   3.391  13.534  1.00  0.00    -0.000 C 
ATOM      7  C   UNL     1      -1.027   4.469  12.483  1.00  0.00     0.018 C 
ATOM      8  C   UNL     1      -1.584   5.794  12.955  1.00  0.00    -0.027 C 
ATOM      9  C   UNL     1      -1.454   6.154  14.236  1.00  0.00    -0.028 C 
ATOM     10  C   UNL     1      -0.691   5.295  15.215  1.00  0.00     0.008 C 
ATOM     11  C   UNL     1      -0.806   3.767  14.916  1.00  0.00     0.012 C 
ATOM     12  C   UNL     1       0.771   5.755  15.265  1.00  0.00     0.012 C 
ENDROOT
BRANCH   5  13
ATOM     13  C   UNL     1      -1.447   0.773  14.023  1.00  0.00    -0.014 C 
ATOM     14  C   UNL     1      -1.327  -0.624  13.394  1.00  0.00     0.007 C 
ATOM     15  C   UNL     1      -2.833   0.968  14.661  1.00  0.00     0.007 C 
ENDBRANCH   5  13
TORSDOF 1
ENDMDL
MODEL 3
REMARK VINA RESULT:    -5.161      1.525      4.956
REMARK INTER + INTRA:          -5.723
REMARK INTER:                  -5.798
REMARK INTRA:                   0.075
REMARK UNBOUND:                -0.260
REMARK SMILES CC(C)[C@H]1CC[C@H](C)[C@H]2C=C[C@H](C)C[C@@H]21
REMARK SMILES IDX 8 1 7 2 6 3 5 4 4 5 15 6 9 7 10 8 11 9 12 10 14 11 13 12
REMARK SMILES IDX 2 13 1 14 3 15
REMARK H PARENT
REMARK Flexibility Score: inf
ROOT
ATOM      1  C   UNL     1      -0.348   5.526  15.244  1.00  0.00     0.008 C 
ATOM      2  C   UNL     1      -0.347   4.134  14.585  1.00  0.00    -0.007 C 
ATOM      3  C   UNL     1      -1.011   3.135  15.541  1.00  0.00     0.004 C 
ATOM      4  C   UNL     1      -1.036   1.734  14.938  1.00  0.00     0.004 C 
ATOM      5  C   UNL     1      -1.835   1.701  13.616  1.00  0.00    -0.005 C 
ATOM      6  C   UNL     1      -1.222   2.722  12.598  1.00  0.00    -0.000 C 
ATOM      7  C   UNL     1      -1.081   4.144  13.217  1.00  0.00     0.018 C 
ATOM      8  C   UNL     1      -0.357   5.011  12.212  1.00  0.00    -0.027 C 
ATOM      9  C   UNL     1      -0.705   4.969  10.922  1.00  0.00    -0.028 C 
ATOM     10  C   UNL     1      -1.866   4.126  10.453  1.00  0.00     0.008 C 
ATOM     11  C   UNL     1      -2.050   2.814  11.279  1.00  0.00     0.012 C 
ATOM     12  C   UNL     1      -3.143   4.976  10.445  1.00  0.00     0.012 C 
ENDROOT
BRANCH   5  13
ATOM     13  C   UNL     1      -1.945   0.212  13.121  1.00  0.00    -0.014 C 
ATOM     14  C   UNL     1      -1.756  -0.837  14.227  1.00  0.00     0.007 C 
ATOM     15  C   UNL     1      -1.050  -0.103  11.910  1.00  0.00     0.007 C 
ENDBRANCH   5  13
TORSDOF 1
ENDMDL
MODEL 4
REMARK VINA RESULT:    -4.925      1.077      4.698
REMARK INTER + INTRA:          -5.473
REMARK INTER:                  -5.225
REMARK INTRA:                  -0.248
REMARK UNBOUND:                -0.260
REMARK SMILES CC(C)[C@H]1CC[C@H](C)[C@H]2C=C[C@H](C)C[C@@H]21
REMARK SMILES IDX 8 1 7 2 6 3 5 4 4 5 15 6 9 7 10 8 11 9 12 10 14 11 13 12
REMARK SMILES IDX 2 13 1 14 3 15
REMARK H PARENT
REMARK Flexibility Score: inf
ROOT
ATOM      1  C   UNL     1       1.332   6.542  13.664  1.00  0.00     0.008 C 
ATOM      2  C   UNL     1       0.852   5.147  13.222  1.00  0.00    -0.007 C 
ATOM      3  C   UNL     1       0.659   4.273  14.469  1.00  0.00     0.004 C 
ATOM      4  C   UNL     1       0.185   2.875  14.089  1.00  0.00     0.004 C 
ATOM      5  C   UNL     1      -1.170   2.918  13.347  1.00  0.00    -0.005 C 
ATOM      6  C   UNL     1      -1.049   3.818  12.070  1.00  0.00    -0.000 C 
ATOM      7  C   UNL     1      -0.466   5.223  12.405  1.00  0.00     0.018 C 
ATOM      8  C   UNL     1      -0.259   5.955  11.098  1.00  0.00    -0.027 C 
ATOM      9  C   UNL     1      -1.213   5.929  10.162  1.00  0.00    -0.028 C 
ATOM     10  C   UNL     1      -2.534   5.242  10.410  1.00  0.00     0.008 C 
ATOM     11  C   UNL     1      -2.415   3.990  11.335  1.00  0.00     0.012 C 
ATOM     12  C   UNL     1      -3.542   6.259  10.960  1.00  0.00     0.012 C 
ENDROOT
BRANCH   5  13
ATOM     13  C   UNL     1      -1.672   1.447  13.111  1.00  0.00    -0.014 C 
ATOM     14  C   UNL     1      -1.683   0.572  14.374  1.00  0.00     0.007 C 
ATOM     15  C   UNL     1      -0.955   0.728  11.955  1.00  0.00     0.007 C 
ENDBRANCH   5  13
TORSDOF 1
ENDMDL
MODEL 5
REMARK VINA RESULT:    -4.886      1.901      4.381
REMARK INTER + INTRA:          -5.432
REMARK INTER:                  -5.161
REMARK INTRA:                  -0.271
REMARK UNBOUND:                -0.260
REMARK SMILES CC(C)[C@H]1CC[C@H](C)[C@H]2C=C[C@H](C)C[C@@H]21
REMARK SMILES IDX 8 1 7 2 6 3 5 4 4 5 15 6 9 7 10 8 11 9 12 10 14 11 13 12
REMARK SMILES IDX 2 13 1 14 3 15
REMARK H PARENT
REMARK Flexibility Score: inf
ROOT
ATOM      1  C   UNL     1       1.147   6.157  13.002  1.00  0.00     0.008 C 
ATOM      2  C   UNL     1      -0.392   6.146  13.059  1.00  0.00    -0.007 C 
ATOM      3  C   UNL     1      -0.939   6.443  11.656  1.00  0.00     0.004 C 
ATOM      4  C   UNL     1      -2.464   6.447  11.654  1.00  0.00     0.004 C 
ATOM      5  C   UNL     1      -3.035   5.078  12.086  1.00  0.00    -0.005 C 
ATOM      6  C   UNL     1      -2.493   4.700  13.507  1.00  0.00    -0.000 C 
ATOM      7  C   UNL     1      -0.940   4.789  13.577  1.00  0.00     0.018 C 
ATOM      8  C   UNL     1      -0.533   4.546  15.013  1.00  0.00    -0.027 C 
ATOM      9  C   UNL     1      -1.091   3.546  15.704  1.00  0.00    -0.028 C 
ATOM     10  C   UNL     1      -2.070   2.599  15.055  1.00  0.00     0.008 C 
ATOM     11  C   UNL     1      -2.948   3.277  13.955  1.00  0.00     0.012 C 
ATOM     12  C   UNL     1      -1.317   1.381  14.508  1.00  0.00     0.012 C 
ENDROOT
BRANCH   5  13
ATOM     13  C   UNL     1      -4.599   5.101  11.927  1.00  0.00    -0.014 C 
ATOM     14  C   UNL     1      -5.087   5.067  10.469  1.00  0.00     0.007 C 
ATOM     15  C   UNL     1      -5.282   6.239  12.705  1.00  0.00     0.007 C 
ENDBRANCH   5  13
TORSDOF 1
ENDMDL
MODEL 6
REMARK VINA RESULT:    -4.872      1.922      4.128
REMARK INTER + INTRA:          -5.416
REMARK INTER:                  -5.146
REMARK INTRA:                  -0.270
REMARK UNBOUND:                -0.260
REMARK SMILES CC(C)[C@H]1CC[C@H](C)[C@H]2C=C[C@H](C)C[C@@H]21
REMARK SMILES IDX 8 1 7 2 6 3 5 4 4 5 15 6 9 7 10 8 11 9 12 10 14 11 13 12
REMARK SMILES IDX 2 13 1 14 3 15
REMARK H PARENT
REMARK Flexibility Score: inf
ROOT
ATOM      1  C   UNL     1      -0.901   6.774   9.502  1.00  0.00     0.008 C 
ATOM      2  C   UNL     1      -1.151   5.594  10.461  1.00  0.00    -0.007 C 
ATOM      3  C   UNL     1      -0.095   5.631  11.574  1.00  0.00     0.004 C 
ATOM      4  C   UNL     1      -0.294   4.481  12.555  1.00  0.00     0.004 C 
ATOM      5  C   UNL     1      -1.680   4.550  13.236  1.00  0.00    -0.005 C 
ATOM      6  C   UNL     1      -2.808   4.542  12.149  1.00  0.00    -0.000 C 
ATOM      7  C   UNL     1      -2.579   5.638  11.068  1.00  0.00     0.018 C 
ATOM      8  C   UNL     1      -3.634   5.454  10.000  1.00  0.00    -0.027 C 
ATOM      9  C   UNL     1      -4.906   5.239  10.350  1.00  0.00    -0.028 C 
ATOM     10  C   UNL     1      -5.331   5.250  11.798  1.00  0.00     0.008 C 
ATOM     11  C   UNL     1      -4.229   4.719  12.769  1.00  0.00     0.012 C 
ATOM     12  C   UNL     1      -5.794   6.661  12.184  1.00  0.00     0.012 C 
ENDROOT
BRANCH   5  13
ATOM     13  C   UNL     1      -1.768   3.427  14.333  1.00  0.00    -0.014 C 
ATOM     14  C   UNL     1      -1.004   3.746  15.628  1.00  0.00     0.007 C 
ATOM     15  C   UNL     1      -1.402   2.026  13.814  1.00  0.00     0.007 C 
ENDBRANCH   5  13
TORSDOF 1
ENDMDL
MODEL 7
REMARK VINA RESULT:    -4.800     12.460     14.485
REMARK INTER + INTRA:          -5.340
REMARK INTER:                  -5.083
REMARK INTRA:                  -0.257
REMARK UNBOUND:                -0.260
REMARK SMILES CC(C)[C@H]1CC[C@H](C)[C@H]2C=C[C@H](C)C[C@@H]21
REMARK SMILES IDX 8 1 7 2 6 3 5 4 4 5 15 6 9 7 10 8 11 9 12 10 14 11 13 12
REMARK SMILES IDX 2 13 1 14 3 15
REMARK H PARENT
REMARK Flexibility Score: inf
ROOT
ATOM      1  C   UNL     1      -3.130 -11.540   9.975  1.00  0.00     0.008 C 
ATOM      2  C   UNL     1      -2.825 -10.540  11.107  1.00  0.00    -0.007 C 
ATOM      3  C   UNL     1      -3.539 -11.007  12.383  1.00  0.00     0.004 C 
ATOM      4  C   UNL     1      -3.272 -10.050  13.540  1.00  0.00     0.004 C 
ATOM      5  C   UNL     1      -1.764  -9.962  13.866  1.00  0.00    -0.005 C 
ATOM      6  C   UNL     1      -0.969  -9.512  12.592  1.00  0.00    -0.000 C 
ATOM      7  C   UNL     1      -1.299 -10.404  11.359  1.00  0.00     0.018 C 
ATOM      8  C   UNL     1      -0.597  -9.806  10.161  1.00  0.00    -0.027 C 
ATOM      9  C   UNL     1       0.674  -9.404  10.266  1.00  0.00    -0.028 C 
ATOM     10  C   UNL     1       1.455  -9.605  11.541  1.00  0.00     0.008 C 
ATOM     11  C   UNL     1       0.573  -9.508  12.827  1.00  0.00     0.012 C 
ATOM     12  C   UNL     1       2.212 -10.937  11.472  1.00  0.00     0.012 C 
ENDROOT
BRANCH   5  13
ATOM     13  C   UNL     1      -1.568  -9.076  15.150  1.00  0.00    -0.014 C 
ATOM     14  C   UNL     1      -2.405  -9.523  16.360  1.00  0.00     0.007 C 
ATOM     15  C   UNL     1      -1.741  -7.569  14.893  1.00  0.00     0.007 C 
ENDBRANCH   5  13
TORSDOF 1
ENDMDL
MODEL 8
REMARK VINA RESULT:    -4.790      1.211      3.744
REMARK INTER + INTRA:          -5.330
REMARK INTER:                  -5.060
REMARK INTRA:                  -0.270
REMARK UNBOUND:                -0.260
REMARK SMILES CC(C)[C@H]1CC[C@H](C)[C@H]2C=C[C@H](C)C[C@@H]21
REMARK SMILES IDX 8 1 7 2 6 3 5 4 4 5 15 6 9 7 10 8 11 9 12 10 14 11 13 12
REMARK SMILES IDX 2 13 1 14 3 15
REMARK H PARENT
REMARK Flexibility Score: inf
ROOT
ATOM      1  C   UNL     1      -1.326   1.375  10.735  1.00  0.00     0.008 C 
ATOM      2  C   UNL     1      -1.285   2.440  11.847  1.00  0.00    -0.007 C 
ATOM      3  C   UNL     1       0.029   2.292  12.625  1.00  0.00     0.004 C 
ATOM      4  C   UNL     1       0.122   3.324  13.743  1.00  0.00     0.004 C 
ATOM      5  C   UNL     1       0.079   4.766  13.189  1.00  0.00    -0.005 C 
ATOM      6  C   UNL     1      -1.233   4.978  12.359  1.00  0.00    -0.000 C 
ATOM      7  C   UNL     1      -1.416   3.877  11.274  1.00  0.00     0.018 C 
ATOM      8  C   UNL     1      -2.768   4.090  10.630  1.00  0.00    -0.027 C 
ATOM      9  C   UNL     1      -3.153   5.321  10.281  1.00  0.00    -0.028 C 
ATOM     10  C   UNL     1      -2.232   6.505  10.446  1.00  0.00     0.008 C 
ATOM     11  C   UNL     1      -1.284   6.382  11.681  1.00  0.00     0.012 C 
ATOM     12  C   UNL     1      -1.445   6.724   9.148  1.00  0.00     0.012 C 
ENDROOT
BRANCH   5  13
ATOM     13  C   UNL     1       0.321   5.776  14.370  1.00  0.00    -0.014 C 
ATOM     14  C   UNL     1       1.783   5.866  14.836  1.00  0.00     0.007 C 
ATOM     15  C   UNL     1      -0.622   5.565  15.566  1.00  0.00     0.007 C 
ENDBRANCH   5  13
TORSDOF 1
ENDMDL
MODEL 9
REMARK VINA RESULT:    -4.653      1.741      4.302
REMARK INTER + INTRA:          -5.185
REMARK INTER:                  -4.916
REMARK INTRA:                  -0.268
REMARK UNBOUND:                -0.260
REMARK SMILES CC(C)[C@H]1CC[C@H](C)[C@H]2C=C[C@H](C)C[C@@H]21
REMARK SMILES IDX 8 1 7 2 6 3 5 4 4 5 15 6 9 7 10 8 11 9 12 10 14 11 13 12
REMARK SMILES IDX 2 13 1 14 3 15
REMARK H PARENT
REMARK Flexibility Score: inf
ROOT
ATOM      1  C   UNL     1       0.324   6.793   9.356  1.00  0.00     0.008 C 
ATOM      2  C   UNL     1      -0.968   6.691  10.188  1.00  0.00    -0.007 C 
ATOM      3  C   UNL     1      -2.167   6.624   9.232  1.00  0.00     0.004 C 
ATOM      4  C   UNL     1      -3.477   6.523  10.005  1.00  0.00     0.004 C 
ATOM      5  C   UNL     1      -3.522   5.252  10.884  1.00  0.00    -0.005 C 
ATOM      6  C   UNL     1      -2.304   5.245  11.871  1.00  0.00    -0.000 C 
ATOM      7  C   UNL     1      -0.953   5.454  11.125  1.00  0.00     0.018 C 
ATOM      8  C   UNL     1       0.132   5.571  12.172  1.00  0.00    -0.027 C 
ATOM      9  C   UNL     1       0.160   4.720  13.202  1.00  0.00    -0.028 C 
ATOM     10  C   UNL     1      -0.830   3.586  13.306  1.00  0.00     0.008 C 
ATOM     11  C   UNL     1      -2.232   3.934  12.712  1.00  0.00     0.012 C 
ATOM     12  C   UNL     1      -0.236   2.329  12.658  1.00  0.00     0.012 C 
ENDROOT
BRANCH   5  13
ATOM     13  C   UNL     1      -4.945   5.133  11.541  1.00  0.00    -0.014 C 
ATOM     14  C   UNL     1      -6.106   5.109  10.534  1.00  0.00     0.007 C 
ATOM     15  C   UNL     1      -5.203   6.169  12.649  1.00  0.00     0.007 C 
ENDBRANCH   5  13
TORSDOF 1
ENDMDL
