MODEL 1
REMARK VINA RESULT:    13.103      0.000      0.000
REMARK INTER + INTRA:          17.602
REMARK INTER:                  18.082
REMARK INTRA:                  -0.480
REMARK UNBOUND:                -0.480
REMARK SMILES CCCCc1cccc(O)c1CCCC
REMARK SMILES IDX 5 1 11 2 9 3 8 4 7 5 6 6 4 7 3 8 2 9 1 10 12 11 13 12 14 13
REMARK SMILES IDX 15 14 10 15
REMARK H PARENT 10 16
REMARK Flexibility Score: inf
ROOT
ATOM      1  C   UNL     1     -16.209  14.988 -24.267  1.00  0.00    -0.041 A 
ATOM      2  C   UNL     1     -17.453  14.422 -23.867  1.00  0.00    -0.003 A 
ATOM      3  C   UNL     1     -18.616  14.724 -24.613  1.00  0.00     0.119 A 
ATOM      4  C   UNL     1     -18.541  15.567 -25.727  1.00  0.00     0.046 A 
ATOM      5  C   UNL     1     -17.323  16.122 -26.109  1.00  0.00     0.004 A 
ATOM      6  C   UNL     1     -16.169  15.842 -25.384  1.00  0.00     0.004 A 
ENDROOT
BRANCH   1   7
ATOM      7  C   UNL     1     -14.924  14.779 -23.494  1.00  0.00     0.036 C 
BRANCH   7   8
ATOM      8  C   UNL     1     -14.273  16.125 -23.152  1.00  0.00     0.004 C 
BRANCH   8   9
ATOM      9  C   UNL     1     -12.775  16.110 -23.476  1.00  0.00    -0.003 C 
ATOM     10  C   UNL     1     -12.121  14.819 -22.995  1.00  0.00     0.004 C 
ENDBRANCH   8   9
ENDBRANCH   7   8
ENDBRANCH   1   7
BRANCH   2  11
ATOM     11  C   UNL     1     -17.558  13.479 -22.681  1.00  0.00     0.040 C 
BRANCH  11  12
ATOM     12  C   UNL     1     -17.929  12.046 -23.104  1.00  0.00     0.005 C 
BRANCH  12  13
ATOM     13  C   UNL     1     -17.196  11.600 -24.377  1.00  0.00    -0.003 C 
ATOM     14  C   UNL     1     -17.368  10.102 -24.613  1.00  0.00     0.004 C 
ENDBRANCH  12  13
ENDBRANCH  11  12
ENDBRANCH   2  11
BRANCH   3  15
ATOM     15  O   UNL     1     -19.850  14.185 -24.245  1.00  0.00    -0.508 OA
ATOM     16  H   UNL     1     -20.190  14.234 -23.292  1.00  0.00     0.293 HD
ENDBRANCH   3  15
TORSDOF 7
ENDMDL
MODEL 2
REMARK VINA RESULT:    13.212      1.387      4.667
REMARK INTER + INTRA:          17.753
REMARK INTER:                  18.104
REMARK INTRA:                  -0.351
REMARK UNBOUND:                -0.480
REMARK SMILES CCCCc1cccc(O)c1CCCC
REMARK SMILES IDX 5 1 11 2 9 3 8 4 7 5 6 6 4 7 3 8 2 9 1 10 12 11 13 12 14 13
REMARK SMILES IDX 15 14 10 15
REMARK H PARENT 10 16
REMARK Flexibility Score: inf
ROOT
ATOM      1  C   UNL     1     -17.851  13.938 -23.740  1.00  0.00    -0.041 A 
ATOM      2  C   UNL     1     -16.947  14.649 -24.582  1.00  0.00    -0.003 A 
ATOM      3  C   UNL     1     -17.465  15.417 -25.650  1.00  0.00     0.119 A 
ATOM      4  C   UNL     1     -18.844  15.476 -25.874  1.00  0.00     0.046 A 
ATOM      5  C   UNL     1     -19.721  14.775 -25.052  1.00  0.00     0.004 A 
ATOM      6  C   UNL     1     -19.230  14.008 -23.999  1.00  0.00     0.004 A 
ENDROOT
BRANCH   1   7
ATOM      7  C   UNL     1     -17.389  13.036 -22.615  1.00  0.00     0.036 C 
BRANCH   7   8
ATOM      8  C   UNL     1     -17.821  11.587 -22.872  1.00  0.00     0.004 C 
BRANCH   8   9
ATOM      9  C   UNL     1     -17.426  11.136 -24.282  1.00  0.00    -0.003 C 
ATOM     10  C   UNL     1     -17.503   9.618 -24.416  1.00  0.00     0.004 C 
ENDBRANCH   8   9
ENDBRANCH   7   8
ENDBRANCH   1   7
BRANCH   2  11
ATOM     11  C   UNL     1     -15.447  14.628 -24.343  1.00  0.00     0.040 C 
BRANCH  11  12
ATOM     12  C   UNL     1     -14.895  16.015 -23.965  1.00  0.00     0.005 C 
BRANCH  12  13
ATOM     13  C   UNL     1     -13.824  15.944 -22.867  1.00  0.00    -0.003 C 
ATOM     14  C   UNL     1     -12.423  16.050 -23.461  1.00  0.00     0.004 C 
ENDBRANCH  12  13
ENDBRANCH  11  12
ENDBRANCH   2  11
BRANCH   3  15
ATOM     15  O   UNL     1     -16.604  16.124 -26.492  1.00  0.00    -0.508 OA
ATOM     16  H   UNL     1     -16.498  17.129 -26.423  1.00  0.00     0.293 HD
ENDBRANCH   3  15
TORSDOF 7
ENDMDL
