MODEL 1
REMARK VINA RESULT:    -4.801      0.000      0.000
REMARK INTER + INTRA:          -6.989
REMARK INTER:                  -6.485
REMARK INTRA:                  -0.505
REMARK UNBOUND:                -0.505
REMARK SMILES CCCCCCC=CC(=O)[O-]
REMARK SMILES IDX 5 1 6 2 7 3 8 4 9 5 10 6 11 7 4 8 3 9 2 10 1 11
REMARK H PARENT
REMARK Flexibility Score: inf
ROOT
ATOM      1  C   UNL     1     -15.092   3.057 -33.161  1.00  0.00     0.004 C 
ENDROOT
BRANCH   1   2
ATOM      2  C   UNL     1     -13.722   2.453 -32.827  1.00  0.00     0.027 C 
BRANCH   2   3
ATOM      3  C   UNL     1     -13.257   1.513 -33.904  1.00  0.00    -0.025 C 
ATOM      4  C   UNL     1     -12.390   1.902 -34.847  1.00  0.00     0.020 C 
BRANCH   4   5
ATOM      5  C   UNL     1     -11.950   1.007 -35.929  1.00  0.00     0.064 C 
ATOM      6  O   UNL     1     -12.335  -0.192 -35.980  1.00  0.00    -0.545 OA
ATOM      7  O   UNL     1     -11.096   1.491 -36.912  1.00  0.00    -0.545 OA
ENDBRANCH   4   5
ENDBRANCH   2   3
ENDBRANCH   1   2
BRANCH   1   8
ATOM      8  C   UNL     1     -16.249   2.227 -32.585  1.00  0.00     0.000 C 
BRANCH   8   9
ATOM      9  C   UNL     1     -17.405   2.127 -33.585  1.00  0.00    -0.000 C 
BRANCH   9  10
ATOM     10  C   UNL     1     -16.884   2.075 -35.025  1.00  0.00    -0.003 C 
ATOM     11  C   UNL     1     -16.445   0.663 -35.403  1.00  0.00     0.004 C 
ENDBRANCH   9  10
ENDBRANCH   8   9
ENDBRANCH   1   8
TORSDOF 6
ENDMDL
MODEL 2
REMARK VINA RESULT:    -4.798      3.053      5.334
REMARK INTER + INTRA:          -6.985
REMARK INTER:                  -6.388
REMARK INTRA:                  -0.597
REMARK UNBOUND:                -0.505
REMARK SMILES CCCCCCC=CC(=O)[O-]
REMARK SMILES IDX 5 1 6 2 7 3 8 4 9 5 10 6 11 7 4 8 3 9 2 10 1 11
REMARK H PARENT
REMARK Flexibility Score: inf
ROOT
ATOM      1  C   UNL     1     -13.603   1.901 -37.557  1.00  0.00     0.004 C 
ENDROOT
BRANCH   1   2
ATOM      2  C   UNL     1     -15.082   1.496 -37.516  1.00  0.00     0.027 C 
BRANCH   2   3
ATOM      3  C   UNL     1     -15.801   2.151 -36.369  1.00  0.00    -0.025 C 
ATOM      4  C   UNL     1     -16.270   1.440 -35.338  1.00  0.00     0.020 C 
BRANCH   4   5
ATOM      5  C   UNL     1     -17.006   2.059 -34.224  1.00  0.00     0.064 C 
ATOM      6  O   UNL     1     -17.275   1.407 -33.179  1.00  0.00    -0.545 OA
ATOM      7  O   UNL     1     -17.409   3.384 -34.324  1.00  0.00    -0.545 OA
ENDBRANCH   4   5
ENDBRANCH   2   3
ENDBRANCH   1   2
BRANCH   1   8
ATOM      8  C   UNL     1     -12.667   0.709 -37.306  1.00  0.00     0.000 C 
BRANCH   8   9
ATOM      9  C   UNL     1     -11.484   1.116 -36.422  1.00  0.00    -0.000 C 
BRANCH   9  10
ATOM     10  C   UNL     1     -11.958   1.914 -35.202  1.00  0.00    -0.003 C 
ATOM     11  C   UNL     1     -12.603   1.002 -34.162  1.00  0.00     0.004 C 
ENDBRANCH   9  10
ENDBRANCH   8   9
ENDBRANCH   1   8
TORSDOF 6
ENDMDL
MODEL 3
REMARK VINA RESULT:    -4.773      2.847      4.688
REMARK INTER + INTRA:          -6.952
REMARK INTER:                  -6.220
REMARK INTRA:                  -0.732
REMARK UNBOUND:                -0.505
REMARK SMILES CCCCCCC=CC(=O)[O-]
REMARK SMILES IDX 5 1 6 2 7 3 8 4 9 5 10 6 11 7 4 8 3 9 2 10 1 11
REMARK H PARENT
REMARK Flexibility Score: inf
ROOT
ATOM      1  C   UNL     1     -11.990   1.652 -35.106  1.00  0.00     0.004 C 
ENDROOT
BRANCH   1   2
ATOM      2  C   UNL     1     -12.868   0.906 -34.093  1.00  0.00     0.027 C 
BRANCH   2   3
ATOM      3  C   UNL     1     -14.246   1.502 -34.015  1.00  0.00    -0.025 C 
ATOM      4  C   UNL     1     -15.315   0.864 -34.508  1.00  0.00     0.020 C 
BRANCH   4   5
ATOM      5  C   UNL     1     -16.666   1.447 -34.471  1.00  0.00     0.064 C 
ATOM      6  O   UNL     1     -17.218   1.877 -35.519  1.00  0.00    -0.545 OA
ATOM      7  O   UNL     1     -17.344   1.523 -33.262  1.00  0.00    -0.545 OA
ENDBRANCH   4   5
ENDBRANCH   2   3
ENDBRANCH   1   2
BRANCH   1   8
ATOM      8  C   UNL     1     -11.626   0.777 -36.315  1.00  0.00     0.000 C 
BRANCH   8   9
ATOM      9  C   UNL     1     -12.772   0.741 -37.331  1.00  0.00    -0.000 C 
BRANCH   9  10
ATOM     10  C   UNL     1     -13.334   2.146 -37.578  1.00  0.00    -0.003 C 
ATOM     11  C   UNL     1     -14.787   2.086 -38.040  1.00  0.00     0.004 C 
ENDBRANCH   9  10
ENDBRANCH   8   9
ENDBRANCH   1   8
TORSDOF 6
ENDMDL
MODEL 4
REMARK VINA RESULT:    -4.704      2.906      4.912
REMARK INTER + INTRA:          -6.859
REMARK INTER:                  -6.202
REMARK INTRA:                  -0.657
REMARK UNBOUND:                -0.505
REMARK SMILES CCCCCCC=CC(=O)[O-]
REMARK SMILES IDX 5 1 6 2 7 3 8 4 9 5 10 6 11 7 4 8 3 9 2 10 1 11
REMARK H PARENT
REMARK Flexibility Score: inf
ROOT
ATOM      1  C   UNL     1     -12.766   1.103 -33.891  1.00  0.00     0.004 C 
ENDROOT
BRANCH   1   2
ATOM      2  C   UNL     1     -13.539   0.062 -34.712  1.00  0.00     0.027 C 
BRANCH   2   3
ATOM      3  C   UNL     1     -14.987   0.440 -34.860  1.00  0.00    -0.025 C 
ATOM      4  C   UNL     1     -15.498   1.512 -34.243  1.00  0.00     0.020 C 
BRANCH   4   5
ATOM      5  C   UNL     1     -16.919   1.879 -34.348  1.00  0.00     0.064 C 
ATOM      6  O   UNL     1     -17.435   2.174 -35.459  1.00  0.00    -0.545 OA
ATOM      7  O   UNL     1     -17.706   1.898 -33.204  1.00  0.00    -0.545 OA
ENDBRANCH   4   5
ENDBRANCH   2   3
ENDBRANCH   1   2
BRANCH   1   8
ATOM      8  C   UNL     1     -11.745   1.872 -34.743  1.00  0.00     0.000 C 
BRANCH   8   9
ATOM      9  C   UNL     1     -11.648   1.279 -36.152  1.00  0.00    -0.000 C 
BRANCH   9  10
ATOM     10  C   UNL     1     -11.852   2.361 -37.219  1.00  0.00    -0.003 C 
ATOM     11  C   UNL     1     -13.325   2.495 -37.594  1.00  0.00     0.004 C 
ENDBRANCH   9  10
ENDBRANCH   8   9
ENDBRANCH   1   8
TORSDOF 6
ENDMDL
MODEL 5
REMARK VINA RESULT:    -4.644      2.550      3.921
REMARK INTER + INTRA:          -6.778
REMARK INTER:                  -6.043
REMARK INTRA:                  -0.735
REMARK UNBOUND:                -0.505
REMARK SMILES CCCCCCC=CC(=O)[O-]
REMARK SMILES IDX 5 1 6 2 7 3 8 4 9 5 10 6 11 7 4 8 3 9 2 10 1 11
REMARK H PARENT
REMARK Flexibility Score: inf
ROOT
ATOM      1  C   UNL     1     -12.684   0.741 -36.981  1.00  0.00     0.004 C 
ENDROOT
BRANCH   1   2
ATOM      2  C   UNL     1     -11.754   1.170 -35.838  1.00  0.00     0.027 C 
BRANCH   2   3
ATOM      3  C   UNL     1     -12.444   2.109 -34.889  1.00  0.00    -0.025 C 
ATOM      4  C   UNL     1     -13.143   1.658 -33.840  1.00  0.00     0.020 C 
BRANCH   4   5
ATOM      5  C   UNL     1     -13.853   2.561 -32.920  1.00  0.00     0.064 C 
ATOM      6  O   UNL     1     -14.970   2.244 -32.430  1.00  0.00    -0.545 OA
ATOM      7  O   UNL     1     -13.283   3.782 -32.586  1.00  0.00    -0.545 OA
ENDBRANCH   4   5
ENDBRANCH   2   3
ENDBRANCH   1   2
BRANCH   1   8
ATOM      8  C   UNL     1     -13.588   1.889 -37.455  1.00  0.00     0.000 C 
BRANCH   8   9
ATOM      9  C   UNL     1     -15.044   1.427 -37.579  1.00  0.00    -0.000 C 
BRANCH   9  10
ATOM     10  C   UNL     1     -15.876   1.904 -36.384  1.00  0.00    -0.003 C 
ATOM     11  C   UNL     1     -16.291   0.733 -35.497  1.00  0.00     0.004 C 
ENDBRANCH   9  10
ENDBRANCH   8   9
ENDBRANCH   1   8
TORSDOF 6
ENDMDL
MODEL 6
REMARK VINA RESULT:    -4.593      1.996      2.937
REMARK INTER + INTRA:          -6.709
REMARK INTER:                  -6.039
REMARK INTRA:                  -0.670
REMARK UNBOUND:                -0.505
REMARK SMILES CCCCCCC=CC(=O)[O-]
REMARK SMILES IDX 5 1 6 2 7 3 8 4 9 5 10 6 11 7 4 8 3 9 2 10 1 11
REMARK H PARENT
REMARK Flexibility Score: inf
ROOT
ATOM      1  C   UNL     1     -17.454   2.514 -33.524  1.00  0.00     0.004 C 
ENDROOT
BRANCH   1   2
ATOM      2  C   UNL     1     -16.381   2.225 -32.466  1.00  0.00     0.027 C 
BRANCH   2   3
ATOM      3  C   UNL     1     -15.000   2.251 -33.060  1.00  0.00    -0.025 C 
ATOM      4  C   UNL     1     -14.292   3.384 -33.139  1.00  0.00     0.020 C 
BRANCH   4   5
ATOM      5  C   UNL     1     -12.954   3.435 -33.748  1.00  0.00     0.064 C 
ATOM      6  O   UNL     1     -12.216   4.448 -33.615  1.00  0.00    -0.545 OA
ATOM      7  O   UNL     1     -12.495   2.349 -34.482  1.00  0.00    -0.545 OA
ENDBRANCH   4   5
ENDBRANCH   2   3
ENDBRANCH   1   2
BRANCH   1   8
ATOM      8  C   UNL     1     -17.116   1.880 -34.882  1.00  0.00     0.000 C 
BRANCH   8   9
ATOM      9  C   UNL     1     -17.039   2.944 -35.981  1.00  0.00    -0.000 C 
BRANCH   9  10
ATOM     10  C   UNL     1     -15.810   2.726 -36.871  1.00  0.00    -0.003 C 
ATOM     11  C   UNL     1     -15.248   1.316 -36.701  1.00  0.00     0.004 C 
ENDBRANCH   9  10
ENDBRANCH   8   9
ENDBRANCH   1   8
TORSDOF 6
ENDMDL
MODEL 7
REMARK VINA RESULT:    -4.535      1.830      3.489
REMARK INTER + INTRA:          -6.630
REMARK INTER:                  -5.920
REMARK INTRA:                  -0.710
REMARK UNBOUND:                -0.505
REMARK SMILES CCCCCCC=CC(=O)[O-]
REMARK SMILES IDX 5 1 6 2 7 3 8 4 9 5 10 6 11 7 4 8 3 9 2 10 1 11
REMARK H PARENT
REMARK Flexibility Score: inf
ROOT
ATOM      1  C   UNL     1     -16.503   2.256 -32.866  1.00  0.00     0.004 C 
ENDROOT
BRANCH   1   2
ATOM      2  C   UNL     1     -17.225   1.882 -34.167  1.00  0.00     0.027 C 
BRANCH   2   3
ATOM      3  C   UNL     1     -16.378   2.180 -35.373  1.00  0.00    -0.025 C 
ATOM      4  C   UNL     1     -15.859   1.202 -36.124  1.00  0.00     0.020 C 
BRANCH   4   5
ATOM      5  C   UNL     1     -15.000   1.473 -37.287  1.00  0.00     0.064 C 
ATOM      6  O   UNL     1     -13.831   1.009 -37.356  1.00  0.00    -0.545 OA
ATOM      7  O   UNL     1     -15.486   2.255 -38.328  1.00  0.00    -0.545 OA
ENDBRANCH   4   5
ENDBRANCH   2   3
ENDBRANCH   1   2
BRANCH   1   8
ATOM      8  C   UNL     1     -15.196   3.020 -33.126  1.00  0.00     0.000 C 
BRANCH   8   9
ATOM      9  C   UNL     1     -13.998   2.282 -32.522  1.00  0.00    -0.000 C 
BRANCH   9  10
ATOM     10  C   UNL     1     -13.077   1.737 -33.619  1.00  0.00    -0.003 C 
ATOM     11  C   UNL     1     -12.625   2.849 -34.563  1.00  0.00     0.004 C 
ENDBRANCH   9  10
ENDBRANCH   8   9
ENDBRANCH   1   8
TORSDOF 6
ENDMDL
MODEL 8
REMARK VINA RESULT:    -4.520      2.953      3.834
REMARK INTER + INTRA:          -6.610
REMARK INTER:                  -5.857
REMARK INTRA:                  -0.753
REMARK UNBOUND:                -0.505
REMARK SMILES CCCCCCC=CC(=O)[O-]
REMARK SMILES IDX 5 1 6 2 7 3 8 4 9 5 10 6 11 7 4 8 3 9 2 10 1 11
REMARK H PARENT
REMARK Flexibility Score: inf
ROOT
ATOM      1  C   UNL     1     -13.923   0.284 -34.725  1.00  0.00     0.004 C 
ENDROOT
BRANCH   1   2
ATOM      2  C   UNL     1     -12.914   1.151 -33.961  1.00  0.00     0.027 C 
BRANCH   2   3
ATOM      3  C   UNL     1     -13.298   2.604 -33.995  1.00  0.00    -0.025 C 
ATOM      4  C   UNL     1     -13.659   3.260 -32.887  1.00  0.00     0.020 C 
BRANCH   4   5
ATOM      5  C   UNL     1     -14.071   4.673 -32.907  1.00  0.00     0.064 C 
ATOM      6  O   UNL     1     -15.029   5.062 -33.627  1.00  0.00    -0.545 OA
ATOM      7  O   UNL     1     -13.393   5.593 -32.117  1.00  0.00    -0.545 OA
ENDBRANCH   4   5
ENDBRANCH   2   3
ENDBRANCH   1   2
BRANCH   1   8
ATOM      8  C   UNL     1     -14.821   1.117 -35.651  1.00  0.00     0.000 C 
BRANCH   8   9
ATOM      9  C   UNL     1     -16.302   0.814 -35.401  1.00  0.00    -0.000 C 
BRANCH   9  10
ATOM     10  C   UNL     1     -17.001   2.003 -34.732  1.00  0.00    -0.003 C 
ATOM     11  C   UNL     1     -17.088   1.812 -33.220  1.00  0.00     0.004 C 
ENDBRANCH   9  10
ENDBRANCH   8   9
ENDBRANCH   1   8
TORSDOF 6
ENDMDL
MODEL 9
REMARK VINA RESULT:    -4.488      3.010      4.640
REMARK INTER + INTRA:          -6.567
REMARK INTER:                  -6.026
REMARK INTRA:                  -0.540
REMARK UNBOUND:                -0.505
REMARK SMILES CCCCCCC=CC(=O)[O-]
REMARK SMILES IDX 5 1 6 2 7 3 8 4 9 5 10 6 11 7 4 8 3 9 2 10 1 11
REMARK H PARENT
REMARK Flexibility Score: inf
ROOT
ATOM      1  C   UNL     1     -12.190   0.375 -36.029  1.00  0.00     0.004 C 
ENDROOT
BRANCH   1   2
ATOM      2  C   UNL     1     -12.703   0.925 -37.367  1.00  0.00     0.027 C 
BRANCH   2   3
ATOM      3  C   UNL     1     -14.137   1.366 -37.268  1.00  0.00    -0.025 C 
ATOM      4  C   UNL     1     -14.547   2.535 -37.773  1.00  0.00     0.020 C 
BRANCH   4   5
ATOM      5  C   UNL     1     -15.939   2.999 -37.656  1.00  0.00     0.064 C 
ATOM      6  O   UNL     1     -16.526   3.023 -36.542  1.00  0.00    -0.545 OA
ATOM      7  O   UNL     1     -16.617   3.418 -38.794  1.00  0.00    -0.545 OA
ENDBRANCH   4   5
ENDBRANCH   2   3
ENDBRANCH   1   2
BRANCH   1   8
ATOM      8  C   UNL     1     -12.064   1.472 -34.961  1.00  0.00     0.000 C 
BRANCH   8   9
ATOM      9  C   UNL     1     -12.871   1.115 -33.708  1.00  0.00    -0.000 C 
BRANCH   9  10
ATOM     10  C   UNL     1     -14.126   1.987 -33.596  1.00  0.00    -0.003 C 
ATOM     11  C   UNL     1     -13.766   3.430 -33.253  1.00  0.00     0.004 C 
ENDBRANCH   9  10
ENDBRANCH   8   9
ENDBRANCH   1   8
TORSDOF 6
ENDMDL
