MODEL 1
REMARK VINA RESULT:    -5.782      0.000      0.000
REMARK INTER + INTRA:         -10.898
REMARK INTER:                  -8.825
REMARK INTRA:                  -2.073
REMARK UNBOUND:                -2.073
REMARK SMILES CC(=O)CCC=C(C)CCC=C(C)CCC=C(C)C
REMARK SMILES IDX 10 1 11 2 12 3 13 4 14 5 15 6 16 7 18 8 17 9 19 10 9 11 7 12
REMARK SMILES IDX 6 13 8 14 5 15 4 16 2 17 3 18 1 19
REMARK H PARENT
REMARK Flexibility Score: inf
ROOT
ATOM      1  C   UNL     1      17.350 -34.566  22.606  1.00  0.00     0.032 C 
ENDROOT
BRANCH   1   2
ATOM      2  C   UNL     1      16.357 -33.984  23.582  1.00  0.00    -0.028 C 
ATOM      3  C   UNL     1      15.185 -33.392  23.256  1.00  0.00    -0.077 C 
ATOM      4  C   UNL     1      14.279 -32.947  24.374  1.00  0.00     0.039 C 
BRANCH   3   5
ATOM      5  C   UNL     1      14.752 -33.145  21.823  1.00  0.00     0.034 C 
BRANCH   5   6
ATOM      6  C   UNL     1      14.532 -31.651  21.540  1.00  0.00     0.032 C 
BRANCH   6   7
ATOM      7  C   UNL     1      13.084 -31.349  21.236  1.00  0.00    -0.028 C 
ATOM      8  C   UNL     1      10.880 -30.265  21.550  1.00  0.00     0.039 C 
ATOM      9  C   UNL     1      12.305 -30.520  21.969  1.00  0.00    -0.080 C 
ATOM     10  C   UNL     1      12.796 -29.873  23.240  1.00  0.00     0.039 C 
ENDBRANCH   6   7
ENDBRANCH   5   6
ENDBRANCH   3   5
ENDBRANCH   1   2
BRANCH   1  11
ATOM     11  C   UNL     1      18.578 -33.658  22.444  1.00  0.00     0.034 C 
BRANCH  11  12
ATOM     12  C   UNL     1      18.285 -32.456  21.564  1.00  0.00    -0.077 C 
ATOM     13  C   UNL     1      18.090 -32.538  20.227  1.00  0.00    -0.028 C 
ATOM     14  C   UNL     1      18.172 -31.101  22.215  1.00  0.00     0.039 C 
BRANCH  13  15
ATOM     15  C   UNL     1      18.227 -33.797  19.404  1.00  0.00     0.035 C 
BRANCH  15  16
ATOM     16  C   UNL     1      16.868 -34.319  18.918  1.00  0.00     0.079 C 
BRANCH  16  17
ATOM     17  C   UNL     1      16.559 -35.681  19.480  1.00  0.00     0.130 C 
ATOM     18  O   UNL     1      15.446 -35.916  19.928  1.00  0.00    -0.300 OA
ATOM     19  C   UNL     1      17.595 -36.764  19.463  1.00  0.00     0.087 C 
ENDBRANCH  16  17
ENDBRANCH  15  16
ENDBRANCH  13  15
ENDBRANCH  11  12
ENDBRANCH   1  11
TORSDOF 9
ENDMDL
MODEL 2
REMARK VINA RESULT:    -5.734      1.389      2.911
REMARK INTER + INTRA:         -10.823
REMARK INTER:                  -8.316
REMARK INTRA:                  -2.506
REMARK UNBOUND:                -2.073
REMARK SMILES CC(=O)CCC=C(C)CCC=C(C)CCC=C(C)C
REMARK SMILES IDX 10 1 11 2 12 3 13 4 14 5 15 6 16 7 18 8 17 9 19 10 9 11 7 12
REMARK SMILES IDX 6 13 8 14 5 15 4 16 2 17 3 18 1 19
REMARK H PARENT
REMARK Flexibility Score: inf
ROOT
ATOM      1  C   UNL     1      17.992 -33.064  23.561  1.00  0.00     0.032 C 
ENDROOT
BRANCH   1   2
ATOM      2  C   UNL     1      18.346 -32.096  22.457  1.00  0.00    -0.028 C 
ATOM      3  C   UNL     1      17.868 -30.837  22.330  1.00  0.00    -0.077 C 
ATOM      4  C   UNL     1      18.404 -29.984  21.209  1.00  0.00     0.039 C 
BRANCH   3   5
ATOM      5  C   UNL     1      16.814 -30.253  23.252  1.00  0.00     0.034 C 
BRANCH   5   6
ATOM      6  C   UNL     1      15.856 -29.313  22.504  1.00  0.00     0.032 C 
BRANCH   6   7
ATOM      7  C   UNL     1      14.708 -30.069  21.878  1.00  0.00    -0.028 C 
ATOM      8  C   UNL     1      12.413 -30.983  21.721  1.00  0.00     0.039 C 
ATOM      9  C   UNL     1      13.497 -30.238  22.456  1.00  0.00    -0.080 C 
ATOM     10  C   UNL     1      13.200 -29.751  23.853  1.00  0.00     0.039 C 
ENDBRANCH   6   7
ENDBRANCH   5   6
ENDBRANCH   3   5
ENDBRANCH   1   2
BRANCH   1  11
ATOM     11  C   UNL     1      17.071 -34.183  23.052  1.00  0.00     0.034 C 
BRANCH  11  12
ATOM     12  C   UNL     1      15.636 -33.712  22.893  1.00  0.00    -0.077 C 
ATOM     13  C   UNL     1      15.008 -33.622  21.698  1.00  0.00    -0.028 C 
ATOM     14  C   UNL     1      14.857 -33.355  24.133  1.00  0.00     0.039 C 
BRANCH  13  15
ATOM     15  C   UNL     1      15.650 -33.876  20.355  1.00  0.00     0.035 C 
BRANCH  15  16
ATOM     16  C   UNL     1      15.717 -35.373  20.023  1.00  0.00     0.079 C 
BRANCH  16  17
ATOM     17  C   UNL     1      17.131 -35.827  19.769  1.00  0.00     0.130 C 
ATOM     18  O   UNL     1      17.949 -35.043  19.309  1.00  0.00    -0.300 OA
ATOM     19  C   UNL     1      17.553 -37.224  20.109  1.00  0.00     0.087 C 
ENDBRANCH  16  17
ENDBRANCH  15  16
ENDBRANCH  13  15
ENDBRANCH  11  12
ENDBRANCH   1  11
TORSDOF 9
ENDMDL
MODEL 3
REMARK VINA RESULT:    -5.674      2.031      4.447
REMARK INTER + INTRA:         -10.732
REMARK INTER:                  -7.978
REMARK INTRA:                  -2.754
REMARK UNBOUND:                -2.073
REMARK SMILES CC(=O)CCC=C(C)CCC=C(C)CCC=C(C)C
REMARK SMILES IDX 10 1 11 2 12 3 13 4 14 5 15 6 16 7 18 8 17 9 19 10 9 11 7 12
REMARK SMILES IDX 6 13 8 14 5 15 4 16 2 17 3 18 1 19
REMARK H PARENT
REMARK Flexibility Score: inf
ROOT
ATOM      1  C   UNL     1      14.699 -33.147  20.001  1.00  0.00     0.032 C 
ENDROOT
BRANCH   1   2
ATOM      2  C   UNL     1      13.531 -32.409  20.609  1.00  0.00    -0.028 C 
ATOM      3  C   UNL     1      13.598 -31.220  21.253  1.00  0.00    -0.077 C 
ATOM      4  C   UNL     1      12.311 -30.591  21.719  1.00  0.00     0.039 C 
BRANCH   3   5
ATOM      5  C   UNL     1      14.906 -30.504  21.536  1.00  0.00     0.034 C 
BRANCH   5   6
ATOM      6  C   UNL     1      15.170 -30.369  23.044  1.00  0.00     0.032 C 
BRANCH   6   7
ATOM      7  C   UNL     1      15.962 -31.539  23.579  1.00  0.00    -0.028 C 
ATOM      8  C   UNL     1      16.304 -33.754  24.629  1.00  0.00     0.039 C 
ATOM      9  C   UNL     1      15.416 -32.629  24.163  1.00  0.00    -0.080 C 
ATOM     10  C   UNL     1      13.934 -32.744  24.421  1.00  0.00     0.039 C 
ENDBRANCH   6   7
ENDBRANCH   5   6
ENDBRANCH   3   5
ENDBRANCH   1   2
BRANCH   1  11
ATOM     11  C   UNL     1      15.297 -34.161  20.987  1.00  0.00     0.034 C 
BRANCH  11  12
ATOM     12  C   UNL     1      16.541 -34.831  20.430  1.00  0.00    -0.077 C 
ATOM     13  C   UNL     1      17.797 -34.384  20.661  1.00  0.00    -0.028 C 
ATOM     14  C   UNL     1      16.373 -36.080  19.604  1.00  0.00     0.039 C 
BRANCH  13  15
ATOM     15  C   UNL     1      18.147 -33.120  21.409  1.00  0.00     0.035 C 
BRANCH  15  16
ATOM     16  C   UNL     1      18.143 -31.888  20.494  1.00  0.00     0.079 C 
BRANCH  16  17
ATOM     17  C   UNL     1      18.680 -30.668  21.195  1.00  0.00     0.130 C 
ATOM     18  O   UNL     1      18.418 -29.554  20.766  1.00  0.00    -0.300 OA
ATOM     19  C   UNL     1      19.506 -30.809  22.438  1.00  0.00     0.087 C 
ENDBRANCH  16  17
ENDBRANCH  15  16
ENDBRANCH  13  15
ENDBRANCH  11  12
ENDBRANCH   1  11
TORSDOF 9
ENDMDL
MODEL 4
REMARK VINA RESULT:    -5.661      2.109      5.413
REMARK INTER + INTRA:         -10.712
REMARK INTER:                  -8.053
REMARK INTRA:                  -2.659
REMARK UNBOUND:                -2.073
REMARK SMILES CC(=O)CCC=C(C)CCC=C(C)CCC=C(C)C
REMARK SMILES IDX 10 1 11 2 12 3 13 4 14 5 15 6 16 7 18 8 17 9 19 10 9 11 7 12
REMARK SMILES IDX 6 13 8 14 5 15 4 16 2 17 3 18 1 19
REMARK H PARENT
REMARK Flexibility Score: inf
ROOT
ATOM      1  C   UNL     1      18.776 -31.429  20.934  1.00  0.00     0.032 C 
ENDROOT
BRANCH   1   2
ATOM      2  C   UNL     1      17.943 -32.356  20.083  1.00  0.00    -0.028 C 
ATOM      3  C   UNL     1      17.851 -33.698  20.237  1.00  0.00    -0.077 C 
ATOM      4  C   UNL     1      16.898 -34.451  19.346  1.00  0.00     0.039 C 
BRANCH   3   5
ATOM      5  C   UNL     1      18.670 -34.473  21.252  1.00  0.00     0.034 C 
BRANCH   5   6
ATOM      6  C   UNL     1      17.802 -35.443  22.068  1.00  0.00     0.032 C 
BRANCH   6   7
ATOM      7  C   UNL     1      17.610 -34.960  23.487  1.00  0.00    -0.028 C 
ATOM      8  C   UNL     1      16.445 -33.841  25.362  1.00  0.00     0.039 C 
ATOM      9  C   UNL     1      16.548 -34.238  23.912  1.00  0.00    -0.080 C 
ATOM     10  C   UNL     1      15.473 -33.759  22.967  1.00  0.00     0.039 C 
ENDBRANCH   6   7
ENDBRANCH   5   6
ENDBRANCH   3   5
ENDBRANCH   1   2
BRANCH   1  11
ATOM     11  C   UNL     1      17.910 -30.353  21.605  1.00  0.00     0.034 C 
BRANCH  11  12
ATOM     12  C   UNL     1      17.671 -30.649  23.075  1.00  0.00    -0.077 C 
ATOM     13  C   UNL     1      16.497 -30.407  23.704  1.00  0.00    -0.028 C 
ATOM     14  C   UNL     1      18.787 -31.276  23.871  1.00  0.00     0.039 C 
BRANCH  13  15
ATOM     15  C   UNL     1      15.300 -29.729  23.083  1.00  0.00     0.035 C 
BRANCH  15  16
ATOM     16  C   UNL     1      13.978 -30.358  23.544  1.00  0.00     0.079 C 
BRANCH  16  17
ATOM     17  C   UNL     1      13.010 -30.525  22.403  1.00  0.00     0.130 C 
ATOM     18  O   UNL     1      11.913 -29.988  22.450  1.00  0.00    -0.300 OA
ATOM     19  C   UNL     1      13.395 -31.319  21.190  1.00  0.00     0.087 C 
ENDBRANCH  16  17
ENDBRANCH  15  16
ENDBRANCH  13  15
ENDBRANCH  11  12
ENDBRANCH   1  11
TORSDOF 9
ENDMDL
MODEL 5
REMARK VINA RESULT:    -5.648      2.150      4.305
REMARK INTER + INTRA:         -10.692
REMARK INTER:                  -7.873
REMARK INTRA:                  -2.819
REMARK UNBOUND:                -2.073
REMARK SMILES CC(=O)CCC=C(C)CCC=C(C)CCC=C(C)C
REMARK SMILES IDX 10 1 11 2 12 3 13 4 14 5 15 6 16 7 18 8 17 9 19 10 9 11 7 12
REMARK SMILES IDX 6 13 8 14 5 15 4 16 2 17 3 18 1 19
REMARK H PARENT
REMARK Flexibility Score: inf
ROOT
ATOM      1  C   UNL     1      17.781 -33.030  19.777  1.00  0.00     0.032 C 
ENDROOT
BRANCH   1   2
ATOM      2  C   UNL     1      18.622 -32.421  20.873  1.00  0.00    -0.028 C 
ATOM      3  C   UNL     1      18.323 -31.296  21.563  1.00  0.00    -0.077 C 
ATOM      4  C   UNL     1      19.241 -30.887  22.685  1.00  0.00     0.039 C 
BRANCH   3   5
ATOM      5  C   UNL     1      17.120 -30.427  21.249  1.00  0.00     0.034 C 
BRANCH   5   6
ATOM      6  C   UNL     1      16.062 -30.489  22.362  1.00  0.00     0.032 C 
BRANCH   6   7
ATOM      7  C   UNL     1      14.660 -30.422  21.804  1.00  0.00    -0.028 C 
ATOM      8  C   UNL     1      12.194 -30.628  21.839  1.00  0.00     0.039 C 
ATOM      9  C   UNL     1      13.547 -30.771  22.488  1.00  0.00    -0.080 C 
ATOM     10  C   UNL     1      13.609 -31.358  23.876  1.00  0.00     0.039 C 
ENDBRANCH   6   7
ENDBRANCH   5   6
ENDBRANCH   3   5
ENDBRANCH   1   2
BRANCH   1  11
ATOM     11  C   UNL     1      17.091 -34.318  20.249  1.00  0.00     0.034 C 
BRANCH  11  12
ATOM     12  C   UNL     1      15.759 -34.038  20.921  1.00  0.00    -0.077 C 
ATOM     13  C   UNL     1      15.589 -34.020  22.264  1.00  0.00    -0.028 C 
ATOM     14  C   UNL     1      14.567 -33.731  20.050  1.00  0.00     0.039 C 
BRANCH  13  15
ATOM     15  C   UNL     1      16.651 -34.365  23.280  1.00  0.00     0.035 C 
BRANCH  15  16
ATOM     16  C   UNL     1      16.485 -33.565  24.580  1.00  0.00     0.079 C 
BRANCH  16  17
ATOM     17  C   UNL     1      17.678 -33.720  25.487  1.00  0.00     0.130 C 
ATOM     18  O   UNL     1      18.050 -34.835  25.819  1.00  0.00    -0.300 OA
ATOM     19  C   UNL     1      18.435 -32.514  25.957  1.00  0.00     0.087 C 
ENDBRANCH  16  17
ENDBRANCH  15  16
ENDBRANCH  13  15
ENDBRANCH  11  12
ENDBRANCH   1  11
TORSDOF 9
ENDMDL
MODEL 6
REMARK VINA RESULT:    -5.608      1.568      4.867
REMARK INTER + INTRA:         -10.632
REMARK INTER:                  -7.699
REMARK INTRA:                  -2.933
REMARK UNBOUND:                -2.073
REMARK SMILES CC(=O)CCC=C(C)CCC=C(C)CCC=C(C)C
REMARK SMILES IDX 10 1 11 2 12 3 13 4 14 5 15 6 16 7 18 8 17 9 19 10 9 11 7 12
REMARK SMILES IDX 6 13 8 14 5 15 4 16 2 17 3 18 1 19
REMARK H PARENT
REMARK Flexibility Score: inf
ROOT
ATOM      1  C   UNL     1      14.280 -30.141  22.455  1.00  0.00     0.032 C 
ENDROOT
BRANCH   1   2
ATOM      2  C   UNL     1      15.587 -29.931  21.728  1.00  0.00    -0.028 C 
ATOM      3  C   UNL     1      16.820 -30.091  22.260  1.00  0.00    -0.077 C 
ATOM      4  C   UNL     1      18.012 -29.921  21.354  1.00  0.00     0.039 C 
BRANCH   3   5
ATOM      5  C   UNL     1      17.055 -30.420  23.723  1.00  0.00     0.034 C 
BRANCH   5   6
ATOM      6  C   UNL     1      18.303 -31.293  23.920  1.00  0.00     0.032 C 
BRANCH   6   7
ATOM      7  C   UNL     1      17.941 -32.741  24.151  1.00  0.00    -0.028 C 
ATOM      8  C   UNL     1      17.864 -35.165  23.658  1.00  0.00     0.039 C 
ATOM      9  C   UNL     1      18.248 -33.751  23.306  1.00  0.00    -0.080 C 
ATOM     10  C   UNL     1      18.920 -33.510  21.978  1.00  0.00     0.039 C 
ENDBRANCH   6   7
ENDBRANCH   5   6
ENDBRANCH   3   5
ENDBRANCH   1   2
BRANCH   1  11
ATOM     11  C   UNL     1      13.623 -31.470  22.055  1.00  0.00     0.034 C 
BRANCH  11  12
ATOM     12  C   UNL     1      14.275 -32.658  22.741  1.00  0.00    -0.077 C 
ATOM     13  C   UNL     1      14.987 -33.603  22.083  1.00  0.00    -0.028 C 
ATOM     14  C   UNL     1      14.151 -32.776  24.239  1.00  0.00     0.039 C 
BRANCH  13  15
ATOM     15  C   UNL     1      15.159 -33.677  20.585  1.00  0.00     0.035 C 
BRANCH  15  16
ATOM     16  C   UNL     1      15.311 -35.123  20.093  1.00  0.00     0.079 C 
BRANCH  16  17
ATOM     17  C   UNL     1      16.729 -35.431  19.691  1.00  0.00     0.130 C 
ATOM     18  O   UNL     1      17.331 -34.669  18.949  1.00  0.00    -0.300 OA
ATOM     19  C   UNL     1      17.421 -36.650  20.223  1.00  0.00     0.087 C 
ENDBRANCH  16  17
ENDBRANCH  15  16
ENDBRANCH  13  15
ENDBRANCH  11  12
ENDBRANCH   1  11
TORSDOF 9
ENDMDL
MODEL 7
REMARK VINA RESULT:    -5.591      1.967      5.371
REMARK INTER + INTRA:         -10.606
REMARK INTER:                  -7.791
REMARK INTRA:                  -2.815
REMARK UNBOUND:                -2.073
REMARK SMILES CC(=O)CCC=C(C)CCC=C(C)CCC=C(C)C
REMARK SMILES IDX 10 1 11 2 12 3 13 4 14 5 15 6 16 7 18 8 17 9 19 10 9 11 7 12
REMARK SMILES IDX 6 13 8 14 5 15 4 16 2 17 3 18 1 19
REMARK H PARENT
REMARK Flexibility Score: inf
ROOT
ATOM      1  C   UNL     1      18.991 -32.095  23.814  1.00  0.00     0.032 C 
ENDROOT
BRANCH   1   2
ATOM      2  C   UNL     1      18.571 -30.926  22.955  1.00  0.00    -0.028 C 
ATOM      3  C   UNL     1      18.426 -30.948  21.610  1.00  0.00    -0.077 C 
ATOM      4  C   UNL     1      17.912 -29.705  20.931  1.00  0.00     0.039 C 
BRANCH   3   5
ATOM      5  C   UNL     1      18.769 -32.156  20.759  1.00  0.00     0.034 C 
BRANCH   5   6
ATOM      6  C   UNL     1      17.516 -32.804  20.152  1.00  0.00     0.032 C 
BRANCH   6   7
ATOM      7  C   UNL     1      17.764 -34.242  19.761  1.00  0.00    -0.028 C 
ATOM      8  C   UNL     1      17.169 -36.599  19.294  1.00  0.00     0.039 C 
ATOM      9  C   UNL     1      16.812 -35.203  19.735  1.00  0.00    -0.080 C 
ATOM     10  C   UNL     1      15.397 -34.944  20.190  1.00  0.00     0.039 C 
ENDBRANCH   6   7
ENDBRANCH   5   6
ENDBRANCH   3   5
ENDBRANCH   1   2
BRANCH   1  11
ATOM     11  C   UNL     1      17.808 -32.655  24.617  1.00  0.00     0.034 C 
BRANCH  11  12
ATOM     12  C   UNL     1      16.972 -33.623  23.800  1.00  0.00    -0.077 C 
ATOM     13  C   UNL     1      15.702 -33.368  23.409  1.00  0.00    -0.028 C 
ATOM     14  C   UNL     1      17.598 -34.926  23.372  1.00  0.00     0.039 C 
BRANCH  13  15
ATOM     15  C   UNL     1      14.900 -32.150  23.799  1.00  0.00     0.035 C 
BRANCH  15  16
ATOM     16  C   UNL     1      14.862 -31.102  22.677  1.00  0.00     0.079 C 
BRANCH  16  17
ATOM     17  C   UNL     1      13.544 -31.111  21.947  1.00  0.00     0.130 C 
ATOM     18  O   UNL     1      12.581 -30.528  22.422  1.00  0.00    -0.300 OA
ATOM     19  C   UNL     1      13.415 -31.802  20.623  1.00  0.00     0.087 C 
ENDBRANCH  16  17
ENDBRANCH  15  16
ENDBRANCH  13  15
ENDBRANCH  11  12
ENDBRANCH   1  11
TORSDOF 9
ENDMDL
MODEL 8
REMARK VINA RESULT:    -5.555      1.477      2.480
REMARK INTER + INTRA:         -10.550
REMARK INTER:                  -7.930
REMARK INTRA:                  -2.619
REMARK UNBOUND:                -2.073
REMARK SMILES CC(=O)CCC=C(C)CCC=C(C)CCC=C(C)C
REMARK SMILES IDX 10 1 11 2 12 3 13 4 14 5 15 6 16 7 18 8 17 9 19 10 9 11 7 12
REMARK SMILES IDX 6 13 8 14 5 15 4 16 2 17 3 18 1 19
REMARK H PARENT
REMARK Flexibility Score: inf
ROOT
ATOM      1  C   UNL     1      17.658 -30.945  24.197  1.00  0.00     0.032 C 
ENDROOT
BRANCH   1   2
ATOM      2  C   UNL     1      17.982 -32.148  25.050  1.00  0.00    -0.028 C 
ATOM      3  C   UNL     1      17.611 -33.423  24.788  1.00  0.00    -0.077 C 
ATOM      4  C   UNL     1      18.102 -34.508  25.709  1.00  0.00     0.039 C 
BRANCH   3   5
ATOM      5  C   UNL     1      16.717 -33.803  23.622  1.00  0.00     0.034 C 
BRANCH   5   6
ATOM      6  C   UNL     1      15.263 -33.365  23.849  1.00  0.00     0.032 C 
BRANCH   6   7
ATOM      7  C   UNL     1      14.605 -32.924  22.562  1.00  0.00    -0.028 C 
ATOM      8  C   UNL     1      13.397 -31.386  21.045  1.00  0.00     0.039 C 
ATOM      9  C   UNL     1      13.989 -31.733  22.387  1.00  0.00    -0.080 C 
ATOM     10  C   UNL     1      13.819 -30.744  23.514  1.00  0.00     0.039 C 
ENDBRANCH   6   7
ENDBRANCH   5   6
ENDBRANCH   3   5
ENDBRANCH   1   2
BRANCH   1  11
ATOM     11  C   UNL     1      18.454 -30.958  22.883  1.00  0.00     0.034 C 
BRANCH  11  12
ATOM     12  C   UNL     1      17.573 -30.671  21.680  1.00  0.00    -0.077 C 
ATOM     13  C   UNL     1      17.424 -31.527  20.642  1.00  0.00    -0.028 C 
ATOM     14  C   UNL     1      16.795 -29.380  21.653  1.00  0.00     0.039 C 
BRANCH  13  15
ATOM     15  C   UNL     1      18.171 -32.828  20.473  1.00  0.00     0.035 C 
BRANCH  15  16
ATOM     16  C   UNL     1      17.660 -33.634  19.271  1.00  0.00     0.079 C 
BRANCH  16  17
ATOM     17  C   UNL     1      16.467 -34.480  19.631  1.00  0.00     0.130 C 
ATOM     18  O   UNL     1      15.339 -34.069  19.407  1.00  0.00    -0.300 OA
ATOM     19  C   UNL     1      16.655 -35.841  20.231  1.00  0.00     0.087 C 
ENDBRANCH  16  17
ENDBRANCH  15  16
ENDBRANCH  13  15
ENDBRANCH  11  12
ENDBRANCH   1  11
TORSDOF 9
ENDMDL
MODEL 9
REMARK VINA RESULT:    -5.551      1.278      3.724
REMARK INTER + INTRA:         -10.544
REMARK INTER:                  -8.083
REMARK INTRA:                  -2.461
REMARK UNBOUND:                -2.073
REMARK SMILES CC(=O)CCC=C(C)CCC=C(C)CCC=C(C)C
REMARK SMILES IDX 10 1 11 2 12 3 13 4 14 5 15 6 16 7 18 8 17 9 19 10 9 11 7 12
REMARK SMILES IDX 6 13 8 14 5 15 4 16 2 17 3 18 1 19
REMARK H PARENT
REMARK Flexibility Score: inf
ROOT
ATOM      1  C   UNL     1      16.924 -30.194  22.892  1.00  0.00     0.032 C 
ENDROOT
BRANCH   1   2
ATOM      2  C   UNL     1      15.487 -29.820  23.166  1.00  0.00    -0.028 C 
ATOM      3  C   UNL     1      14.423 -30.649  23.059  1.00  0.00    -0.077 C 
ATOM      4  C   UNL     1      13.070 -30.122  23.459  1.00  0.00     0.039 C 
BRANCH   3   5
ATOM      5  C   UNL     1      14.530 -32.073  22.545  1.00  0.00     0.034 C 
BRANCH   5   6
ATOM      6  C   UNL     1      14.948 -33.052  23.653  1.00  0.00     0.032 C 
BRANCH   6   7
ATOM      7  C   UNL     1      16.029 -33.997  23.183  1.00  0.00    -0.028 C 
ATOM      8  C   UNL     1      18.264 -35.060  23.174  1.00  0.00     0.039 C 
ATOM      9  C   UNL     1      17.277 -34.049  23.699  1.00  0.00    -0.080 C 
ATOM     10  C   UNL     1      17.748 -33.085  24.760  1.00  0.00     0.039 C 
ENDBRANCH   6   7
ENDBRANCH   5   6
ENDBRANCH   3   5
ENDBRANCH   1   2
BRANCH   1  11
ATOM     11  C   UNL     1      17.165 -30.438  21.395  1.00  0.00     0.034 C 
BRANCH  11  12
ATOM     12  C   UNL     1      18.453 -31.201  21.142  1.00  0.00    -0.077 C 
ATOM     13  C   UNL     1      18.509 -32.365  20.453  1.00  0.00    -0.028 C 
ATOM     14  C   UNL     1      19.745 -30.618  21.657  1.00  0.00     0.039 C 
BRANCH  13  15
ATOM     15  C   UNL     1      17.314 -33.121  19.923  1.00  0.00     0.035 C 
BRANCH  15  16
ATOM     16  C   UNL     1      17.699 -34.509  19.394  1.00  0.00     0.079 C 
BRANCH  16  17
ATOM     17  C   UNL     1      16.702 -35.561  19.805  1.00  0.00     0.130 C 
ATOM     18  O   UNL     1      15.516 -35.279  19.879  1.00  0.00    -0.300 OA
ATOM     19  C   UNL     1      17.152 -36.962  20.091  1.00  0.00     0.087 C 
ENDBRANCH  16  17
ENDBRANCH  15  16
ENDBRANCH  13  15
ENDBRANCH  11  12
ENDBRANCH   1  11
TORSDOF 9
ENDMDL
