MODEL 1
REMARK VINA RESULT:    -3.844      0.000      0.000
REMARK INTER + INTRA:          -5.948
REMARK INTER:                  -5.416
REMARK INTRA:                  -0.531
REMARK UNBOUND:                -0.531
REMARK SMILES CCCCCCCCC(=O)[O-]
REMARK SMILES IDX 6 1 7 2 8 3 9 4 10 5 11 6 5 7 4 8 3 9 2 10 1 11
REMARK H PARENT
REMARK Flexibility Score: inf
ROOT
ATOM      1  C   UNL     1      30.853   6.531 -25.059  1.00  0.00     0.000 C 
ENDROOT
BRANCH   1   2
ATOM      2  C   UNL     1      31.720   6.188 -26.277  1.00  0.00     0.006 C 
BRANCH   2   3
ATOM      3  C   UNL     1      31.732   4.679 -26.536  1.00  0.00     0.053 C 
BRANCH   3   4
ATOM      4  C   UNL     1      30.891   4.346 -27.729  1.00  0.00     0.041 C 
ATOM      5  O   UNL     1      31.408   4.307 -28.876  1.00  0.00    -0.550 OA
ATOM      6  O   UNL     1      29.548   4.030 -27.566  1.00  0.00    -0.550 OA
ENDBRANCH   3   4
ENDBRANCH   2   3
ENDBRANCH   1   2
BRANCH   1   7
ATOM      7  C   UNL     1      31.699   7.128 -23.929  1.00  0.00     0.000 C 
BRANCH   7   8
ATOM      8  C   UNL     1      31.494   6.354 -22.619  1.00  0.00    -0.000 C 
BRANCH   8   9
ATOM      9  C   UNL     1      31.367   4.838 -22.840  1.00  0.00    -0.000 C 
BRANCH   9  10
ATOM     10  C   UNL     1      30.065   4.262 -22.266  1.00  0.00    -0.003 C 
ATOM     11  C   UNL     1      29.136   5.375 -21.788  1.00  0.00     0.004 C 
ENDBRANCH   9  10
ENDBRANCH   8   9
ENDBRANCH   7   8
ENDBRANCH   1   7
TORSDOF 7
ENDMDL
MODEL 2
REMARK VINA RESULT:    -3.764     23.780     24.902
REMARK INTER + INTRA:          -5.836
REMARK INTER:                  -5.363
REMARK INTRA:                  -0.473
REMARK UNBOUND:                -0.531
REMARK SMILES CCCCCCCCC(=O)[O-]
REMARK SMILES IDX 6 1 7 2 8 3 9 4 10 5 11 6 5 7 4 8 3 9 2 10 1 11
REMARK H PARENT
REMARK Flexibility Score: inf
ROOT
ATOM      1  C   UNL     1      13.351  22.333 -22.162  1.00  0.00     0.000 C 
ENDROOT
BRANCH   1   2
ATOM      2  C   UNL     1      12.265  22.355 -23.245  1.00  0.00     0.006 C 
BRANCH   2   3
ATOM      3  C   UNL     1      12.605  23.367 -24.343  1.00  0.00     0.053 C 
BRANCH   3   4
ATOM      4  C   UNL     1      13.637  22.807 -25.271  1.00  0.00     0.041 C 
ATOM      5  O   UNL     1      13.327  21.905 -26.092  1.00  0.00    -0.550 OA
ATOM      6  O   UNL     1      14.929  23.316 -25.262  1.00  0.00    -0.550 OA
ENDBRANCH   3   4
ENDBRANCH   2   3
ENDBRANCH   1   2
BRANCH   1   7
ATOM      7  C   UNL     1      13.037  23.337 -21.046  1.00  0.00     0.000 C 
BRANCH   7   8
ATOM      8  C   UNL     1      11.922  22.810 -20.131  1.00  0.00    -0.000 C 
BRANCH   8   9
ATOM      9  C   UNL     1      12.256  21.442 -19.516  1.00  0.00    -0.000 C 
BRANCH   9  10
ATOM     10  C   UNL     1      13.061  21.558 -18.214  1.00  0.00    -0.003 C 
ATOM     11  C   UNL     1      14.488  21.050 -18.403  1.00  0.00     0.004 C 
ENDBRANCH   9  10
ENDBRANCH   8   9
ENDBRANCH   7   8
ENDBRANCH   1   7
TORSDOF 7
ENDMDL
MODEL 3
REMARK VINA RESULT:    -3.737     24.173     24.751
REMARK INTER + INTRA:          -5.798
REMARK INTER:                  -5.489
REMARK INTRA:                  -0.309
REMARK UNBOUND:                -0.531
REMARK SMILES CCCCCCCCC(=O)[O-]
REMARK SMILES IDX 6 1 7 2 8 3 9 4 10 5 11 6 5 7 4 8 3 9 2 10 1 11
REMARK H PARENT
REMARK Flexibility Score: inf
ROOT
ATOM      1  C   UNL     1      12.574  23.114 -23.109  1.00  0.00     0.000 C 
ENDROOT
BRANCH   1   2
ATOM      2  C   UNL     1      13.699  22.381 -23.851  1.00  0.00     0.006 C 
BRANCH   2   3
ATOM      3  C   UNL     1      13.707  22.749 -25.338  1.00  0.00     0.053 C 
BRANCH   3   4
ATOM      4  C   UNL     1      13.107  21.648 -26.154  1.00  0.00     0.041 C 
ATOM      5  O   UNL     1      13.001  21.769 -27.402  1.00  0.00    -0.550 OA
ATOM      6  O   UNL     1      12.709  20.466 -25.540  1.00  0.00    -0.550 OA
ENDBRANCH   3   4
ENDBRANCH   2   3
ENDBRANCH   1   2
BRANCH   1   7
ATOM      7  C   UNL     1      12.119  22.324 -21.877  1.00  0.00     0.000 C 
BRANCH   7   8
ATOM      8  C   UNL     1      12.555  23.025 -20.583  1.00  0.00    -0.000 C 
BRANCH   8   9
ATOM      9  C   UNL     1      13.778  22.360 -19.931  1.00  0.00    -0.000 C 
BRANCH   9  10
ATOM     10  C   UNL     1      13.426  21.619 -18.633  1.00  0.00    -0.003 C 
ATOM     11  C   UNL     1      12.051  22.035 -18.117  1.00  0.00     0.004 C 
ENDBRANCH   9  10
ENDBRANCH   8   9
ENDBRANCH   7   8
ENDBRANCH   1   7
TORSDOF 7
ENDMDL
MODEL 4
REMARK VINA RESULT:    -3.734     24.435     25.374
REMARK INTER + INTRA:          -5.794
REMARK INTER:                  -5.580
REMARK INTRA:                  -0.213
REMARK UNBOUND:                -0.531
REMARK SMILES CCCCCCCCC(=O)[O-]
REMARK SMILES IDX 6 1 7 2 8 3 9 4 10 5 11 6 5 7 4 8 3 9 2 10 1 11
REMARK H PARENT
REMARK Flexibility Score: inf
ROOT
ATOM      1  C   UNL     1      12.458  22.428 -22.196  1.00  0.00     0.000 C 
ENDROOT
BRANCH   1   2
ATOM      2  C   UNL     1      12.621  23.229 -20.898  1.00  0.00     0.006 C 
BRANCH   2   3
ATOM      3  C   UNL     1      13.820  22.725 -20.089  1.00  0.00     0.053 C 
BRANCH   3   4
ATOM      4  C   UNL     1      13.363  21.859 -18.958  1.00  0.00     0.041 C 
ATOM      5  O   UNL     1      12.146  21.828 -18.636  1.00  0.00    -0.550 OA
ATOM      6  O   UNL     1      14.273  21.047 -18.293  1.00  0.00    -0.550 OA
ENDBRANCH   3   4
ENDBRANCH   2   3
ENDBRANCH   1   2
BRANCH   1   7
ATOM      7  C   UNL     1      12.646  23.325 -23.425  1.00  0.00     0.000 C 
BRANCH   7   8
ATOM      8  C   UNL     1      13.630  22.695 -24.420  1.00  0.00    -0.000 C 
BRANCH   8   9
ATOM      9  C   UNL     1      12.947  21.720 -25.393  1.00  0.00    -0.000 C 
BRANCH   9  10
ATOM     10  C   UNL     1      13.041  22.181 -26.855  1.00  0.00    -0.003 C 
ATOM     11  C   UNL     1      12.738  21.033 -27.814  1.00  0.00     0.004 C 
ENDBRANCH   9  10
ENDBRANCH   8   9
ENDBRANCH   7   8
ENDBRANCH   1   7
TORSDOF 7
ENDMDL
MODEL 5
REMARK VINA RESULT:    -3.727     23.458     24.930
REMARK INTER + INTRA:          -5.784
REMARK INTER:                  -5.389
REMARK INTRA:                  -0.394
REMARK UNBOUND:                -0.531
REMARK SMILES CCCCCCCCC(=O)[O-]
REMARK SMILES IDX 6 1 7 2 8 3 9 4 10 5 11 6 5 7 4 8 3 9 2 10 1 11
REMARK H PARENT
REMARK Flexibility Score: inf
ROOT
ATOM      1  C   UNL     1      12.885  23.307 -20.835  1.00  0.00     0.000 C 
ENDROOT
BRANCH   1   2
ATOM      2  C   UNL     1      14.064  22.706 -20.059  1.00  0.00     0.006 C 
BRANCH   2   3
ATOM      3  C   UNL     1      13.576  21.715 -18.998  1.00  0.00     0.053 C 
BRANCH   3   4
ATOM      4  C   UNL     1      14.674  20.774 -18.615  1.00  0.00     0.041 C 
ATOM      5  O   UNL     1      14.755  19.641 -19.157  1.00  0.00    -0.550 OA
ATOM      6  O   UNL     1      15.638  21.168 -17.696  1.00  0.00    -0.550 OA
ENDBRANCH   3   4
ENDBRANCH   2   3
ENDBRANCH   1   2
BRANCH   1   7
ATOM      7  C   UNL     1      11.930  22.212 -21.322  1.00  0.00     0.000 C 
BRANCH   7   8
ATOM      8  C   UNL     1      12.064  21.998 -22.836  1.00  0.00    -0.000 C 
BRANCH   8   9
ATOM      9  C   UNL     1      12.572  23.250 -23.569  1.00  0.00    -0.000 C 
BRANCH   9  10
ATOM     10  C   UNL     1      13.701  22.938 -24.561  1.00  0.00    -0.003 C 
ATOM     11  C   UNL     1      13.219  22.001 -25.666  1.00  0.00     0.004 C 
ENDBRANCH   9  10
ENDBRANCH   8   9
ENDBRANCH   7   8
ENDBRANCH   1   7
TORSDOF 7
ENDMDL
MODEL 6
REMARK VINA RESULT:    -3.717      3.395      5.079
REMARK INTER + INTRA:          -5.769
REMARK INTER:                  -5.135
REMARK INTRA:                  -0.634
REMARK UNBOUND:                -0.531
REMARK SMILES CCCCCCCCC(=O)[O-]
REMARK SMILES IDX 6 1 7 2 8 3 9 4 10 5 11 6 5 7 4 8 3 9 2 10 1 11
REMARK H PARENT
REMARK Flexibility Score: inf
ROOT
ATOM      1  C   UNL     1      31.733   4.424 -24.684  1.00  0.00     0.000 C 
ENDROOT
BRANCH   1   2
ATOM      2  C   UNL     1      30.818   4.308 -23.458  1.00  0.00     0.006 C 
BRANCH   2   3
ATOM      3  C   UNL     1      30.339   5.688 -22.999  1.00  0.00     0.053 C 
BRANCH   3   4
ATOM      4  C   UNL     1      29.852   5.630 -21.584  1.00  0.00     0.041 C 
ATOM      5  O   UNL     1      30.622   5.243 -20.666  1.00  0.00    -0.550 OA
ATOM      6  O   UNL     1      28.565   6.050 -21.274  1.00  0.00    -0.550 OA
ENDBRANCH   3   4
ENDBRANCH   2   3
ENDBRANCH   1   2
BRANCH   1   7
ATOM      7  C   UNL     1      31.529   5.763 -25.400  1.00  0.00     0.000 C 
BRANCH   7   8
ATOM      8  C   UNL     1      31.153   5.547 -26.873  1.00  0.00    -0.000 C 
BRANCH   8   9
ATOM      9  C   UNL     1      30.833   4.079 -27.194  1.00  0.00    -0.000 C 
BRANCH   9  10
ATOM     10  C   UNL     1      29.380   3.875 -27.648  1.00  0.00    -0.003 C 
ATOM     11  C   UNL     1      28.408   4.083 -26.490  1.00  0.00     0.004 C 
ENDBRANCH   9  10
ENDBRANCH   8   9
ENDBRANCH   7   8
ENDBRANCH   1   7
TORSDOF 7
ENDMDL
MODEL 7
REMARK VINA RESULT:    -3.702     24.157     25.305
REMARK INTER + INTRA:          -5.749
REMARK INTER:                  -5.205
REMARK INTRA:                  -0.544
REMARK UNBOUND:                -0.531
REMARK SMILES CCCCCCCCC(=O)[O-]
REMARK SMILES IDX 6 1 7 2 8 3 9 4 10 5 11 6 5 7 4 8 3 9 2 10 1 11
REMARK H PARENT
REMARK Flexibility Score: inf
ROOT
ATOM      1  C   UNL     1      12.259  23.005 -24.111  1.00  0.00     0.000 C 
ENDROOT
BRANCH   1   2
ATOM      2  C   UNL     1      12.071  22.202 -22.818  1.00  0.00     0.006 C 
BRANCH   2   3
ATOM      3  C   UNL     1      13.397  22.052 -22.066  1.00  0.00     0.053 C 
BRANCH   3   4
ATOM      4  C   UNL     1      13.360  22.820 -20.782  1.00  0.00     0.041 C 
ATOM      5  O   UNL     1      12.263  23.224 -20.317  1.00  0.00    -0.550 OA
ATOM      6  O   UNL     1      14.534  23.045 -20.074  1.00  0.00    -0.550 OA
ENDBRANCH   3   4
ENDBRANCH   2   3
ENDBRANCH   1   2
BRANCH   1   7
ATOM      7  C   UNL     1      13.716  22.956 -24.584  1.00  0.00     0.000 C 
BRANCH   7   8
ATOM      8  C   UNL     1      13.797  22.621 -26.080  1.00  0.00    -0.000 C 
BRANCH   8   9
ATOM      9  C   UNL     1      12.423  22.311 -26.694  1.00  0.00    -0.000 C 
BRANCH   9  10
ATOM     10  C   UNL     1      12.419  21.011 -27.511  1.00  0.00    -0.003 C 
ATOM     11  C   UNL     1      12.339  19.789 -26.599  1.00  0.00     0.004 C 
ENDBRANCH   9  10
ENDBRANCH   8   9
ENDBRANCH   7   8
ENDBRANCH   1   7
TORSDOF 7
ENDMDL
MODEL 8
REMARK VINA RESULT:    -3.671     22.717     24.288
REMARK INTER + INTRA:          -5.705
REMARK INTER:                  -5.215
REMARK INTRA:                  -0.490
REMARK UNBOUND:                -0.531
REMARK SMILES CCCCCCCCC(=O)[O-]
REMARK SMILES IDX 6 1 7 2 8 3 9 4 10 5 11 6 5 7 4 8 3 9 2 10 1 11
REMARK H PARENT
REMARK Flexibility Score: inf
ROOT
ATOM      1  C   UNL     1      13.693  20.877 -19.497  1.00  0.00     0.000 C 
ENDROOT
BRANCH   1   2
ATOM      2  C   UNL     1      14.527  21.081 -18.227  1.00  0.00     0.006 C 
BRANCH   2   3
ATOM      3  C   UNL     1      15.899  21.675 -18.559  1.00  0.00     0.053 C 
BRANCH   3   4
ATOM      4  C   UNL     1      16.978  20.946 -17.821  1.00  0.00     0.041 C 
ATOM      5  O   UNL     1      18.157  21.386 -17.828  1.00  0.00    -0.550 OA
ATOM      6  O   UNL     1      16.670  19.809 -17.084  1.00  0.00    -0.550 OA
ENDBRANCH   3   4
ENDBRANCH   2   3
ENDBRANCH   1   2
BRANCH   1   7
ATOM      7  C   UNL     1      12.295  21.488 -19.344  1.00  0.00     0.000 C 
BRANCH   7   8
ATOM      8  C   UNL     1      12.219  22.866 -20.016  1.00  0.00    -0.000 C 
BRANCH   8   9
ATOM      9  C   UNL     1      13.249  23.032 -21.145  1.00  0.00    -0.000 C 
BRANCH   9  10
ATOM     10  C   UNL     1      12.625  22.889 -22.541  1.00  0.00    -0.003 C 
ATOM     11  C   UNL     1      13.432  21.926 -23.408  1.00  0.00     0.004 C 
ENDBRANCH   9  10
ENDBRANCH   8   9
ENDBRANCH   7   8
ENDBRANCH   1   7
TORSDOF 7
ENDMDL
MODEL 9
REMARK VINA RESULT:    -3.639      1.654      2.198
REMARK INTER + INTRA:          -5.660
REMARK INTER:                  -5.266
REMARK INTRA:                  -0.395
REMARK UNBOUND:                -0.531
REMARK SMILES CCCCCCCCC(=O)[O-]
REMARK SMILES IDX 6 1 7 2 8 3 9 4 10 5 11 6 5 7 4 8 3 9 2 10 1 11
REMARK H PARENT
REMARK Flexibility Score: inf
ROOT
ATOM      1  C   UNL     1      29.593   4.512 -23.907  1.00  0.00     0.000 C 
ENDROOT
BRANCH   1   2
ATOM      2  C   UNL     1      29.497   4.219 -25.409  1.00  0.00     0.006 C 
BRANCH   2   3
ATOM      3  C   UNL     1      30.882   3.954 -26.007  1.00  0.00     0.053 C 
BRANCH   3   4
ATOM      4  C   UNL     1      31.179   4.937 -27.095  1.00  0.00     0.041 C 
ATOM      5  O   UNL     1      31.288   4.548 -28.288  1.00  0.00    -0.550 OA
ATOM      6  O   UNL     1      31.287   6.291 -26.799  1.00  0.00    -0.550 OA
ENDBRANCH   3   4
ENDBRANCH   2   3
ENDBRANCH   1   2
BRANCH   1   7
ATOM      7  C   UNL     1      31.031   4.345 -23.403  1.00  0.00     0.000 C 
BRANCH   7   8
ATOM      8  C   UNL     1      31.134   4.691 -21.910  1.00  0.00    -0.000 C 
BRANCH   8   9
ATOM      9  C   UNL     1      30.042   5.669 -21.451  1.00  0.00    -0.000 C 
BRANCH   9  10
ATOM     10  C   UNL     1      29.097   5.054 -20.409  1.00  0.00    -0.003 C 
ATOM     11  C   UNL     1      27.704   5.673 -20.497  1.00  0.00     0.004 C 
ENDBRANCH   9  10
ENDBRANCH   8   9
ENDBRANCH   7   8
ENDBRANCH   1   7
TORSDOF 7
ENDMDL
