MODEL 1
REMARK VINA RESULT:    -4.626      0.000      0.000
REMARK INTER + INTRA:          -4.626
REMARK INTER:                  -4.626
REMARK INTRA:                   0.000
REMARK UNBOUND:                 0.000
REMARK SMILES CC1=CC(=O)[C@@H]2C[C@H]1C2(C)C
REMARK SMILES IDX 1 1 2 2 3 3 4 4 5 5 6 6 7 7 8 8 9 9 10 10 11 11
REMARK H PARENT
REMARK Flexibility Score: inf
ROOT
ATOM      1  C   UNL     1       9.977  46.999  19.137  1.00  0.00     0.040 C 
ATOM      2  C   UNL     1      11.142  46.065  19.228  1.00  0.00    -0.066 C 
ATOM      3  C   UNL     1      10.985  44.714  19.329  1.00  0.00     0.047 C 
ATOM      4  C   UNL     1      12.244  43.906  19.412  1.00  0.00     0.159 C 
ATOM      5  O   UNL     1      12.233  42.649  19.465  1.00  0.00    -0.295 OA
ATOM      6  C   UNL     1      13.542  44.715  19.427  1.00  0.00     0.067 C 
ATOM      7  C   UNL     1      13.265  45.851  20.436  1.00  0.00     0.021 C 
ATOM      8  C   UNL     1      12.586  46.604  19.270  1.00  0.00     0.022 C 
ATOM      9  C   UNL     1      13.475  45.779  18.295  1.00  0.00    -0.019 C 
ATOM     10  C   UNL     1      14.847  46.451  18.036  1.00  0.00     0.012 C 
ATOM     11  C   UNL     1      12.871  45.363  16.924  1.00  0.00     0.012 C 
ENDROOT
TORSDOF 0
ENDMDL
MODEL 2
REMARK VINA RESULT:    -4.468      7.199      9.176
REMARK INTER + INTRA:          -4.468
REMARK INTER:                  -4.468
REMARK INTRA:                   0.000
REMARK UNBOUND:                 0.000
REMARK SMILES CC1=CC(=O)[C@@H]2C[C@H]1C2(C)C
REMARK SMILES IDX 1 1 2 2 3 3 4 4 5 5 6 6 7 7 8 8 9 9 10 10 11 11
REMARK H PARENT
REMARK Flexibility Score: inf
ROOT
ATOM      1  C   UNL     1      21.406  50.863  22.793  1.00  0.00     0.040 C 
ATOM      2  C   UNL     1      20.504  50.498  21.657  1.00  0.00    -0.066 C 
ATOM      3  C   UNL     1      20.814  50.784  20.361  1.00  0.00     0.047 C 
ATOM      4  C   UNL     1      19.813  50.357  19.331  1.00  0.00     0.159 C 
ATOM      5  O   UNL     1      20.005  50.524  18.098  1.00  0.00    -0.295 OA
ATOM      6  C   UNL     1      18.545  49.703  19.882  1.00  0.00     0.067 C 
ATOM      7  C   UNL     1      18.129  50.618  21.055  1.00  0.00     0.021 C 
ATOM      8  C   UNL     1      19.140  49.827  21.916  1.00  0.00     0.022 C 
ATOM      9  C   UNL     1      18.956  48.634  20.933  1.00  0.00    -0.019 C 
ATOM     10  C   UNL     1      17.773  47.717  21.335  1.00  0.00     0.012 C 
ATOM     11  C   UNL     1      20.188  47.735  20.631  1.00  0.00     0.012 C 
ENDROOT
TORSDOF 0
ENDMDL
MODEL 3
REMARK VINA RESULT:    -4.452      1.517      2.451
REMARK INTER + INTRA:          -4.452
REMARK INTER:                  -4.452
REMARK INTRA:                   0.000
REMARK UNBOUND:                 0.000
REMARK SMILES CC1=CC(=O)[C@@H]2C[C@H]1C2(C)C
REMARK SMILES IDX 1 1 2 2 3 3 4 4 5 5 6 6 7 7 8 8 9 9 10 10 11 11
REMARK H PARENT
REMARK Flexibility Score: inf
ROOT
ATOM      1  C   UNL     1      13.378  46.881  16.788  1.00  0.00     0.040 C 
ATOM      2  C   UNL     1      13.038  46.242  18.098  1.00  0.00    -0.066 C 
ATOM      3  C   UNL     1      11.752  45.988  18.471  1.00  0.00     0.047 C 
ATOM      4  C   UNL     1      11.567  45.344  19.812  1.00  0.00     0.159 C 
ATOM      5  O   UNL     1      10.432  45.021  20.250  1.00  0.00    -0.295 OA
ATOM      6  C   UNL     1      12.851  45.107  20.608  1.00  0.00     0.067 C 
ATOM      7  C   UNL     1      13.629  46.434  20.470  1.00  0.00     0.021 C 
ATOM      8  C   UNL     1      14.142  45.893  19.117  1.00  0.00     0.022 C 
ATOM      9  C   UNL     1      13.903  44.456  19.665  1.00  0.00    -0.019 C 
ATOM     10  C   UNL     1      15.129  43.910  20.440  1.00  0.00     0.012 C 
ATOM     11  C   UNL     1      13.428  43.359  18.671  1.00  0.00     0.012 C 
ENDROOT
TORSDOF 0
ENDMDL
MODEL 4
REMARK VINA RESULT:    -4.427      6.953      8.673
REMARK INTER + INTRA:          -4.427
REMARK INTER:                  -4.427
REMARK INTRA:                   0.000
REMARK UNBOUND:                 0.000
REMARK SMILES CC1=CC(=O)[C@@H]2C[C@H]1C2(C)C
REMARK SMILES IDX 1 1 2 2 3 3 4 4 5 5 6 6 7 7 8 8 9 9 10 10 11 11
REMARK H PARENT
REMARK Flexibility Score: inf
ROOT
ATOM      1  C   UNL     1      19.979  51.085  17.995  1.00  0.00     0.040 C 
ATOM      2  C   UNL     1      19.628  50.543  19.345  1.00  0.00    -0.066 C 
ATOM      3  C   UNL     1      18.574  51.019  20.068  1.00  0.00     0.047 C 
ATOM      4  C   UNL     1      18.345  50.378  21.403  1.00  0.00     0.159 C 
ATOM      5  O   UNL     1      17.381  50.699  22.145  1.00  0.00    -0.295 OA
ATOM      6  C   UNL     1      19.364  49.309  21.800  1.00  0.00     0.067 C 
ATOM      7  C   UNL     1      20.729  49.942  21.452  1.00  0.00     0.021 C 
ATOM      8  C   UNL     1      20.491  49.450  20.006  1.00  0.00     0.022 C 
ATOM      9  C   UNL     1      19.565  48.346  20.595  1.00  0.00    -0.019 C 
ATOM     10  C   UNL     1      20.348  47.068  20.987  1.00  0.00     0.012 C 
ATOM     11  C   UNL     1      18.316  47.919  19.774  1.00  0.00     0.012 C 
ENDROOT
TORSDOF 0
ENDMDL
MODEL 5
REMARK VINA RESULT:    -4.404     10.642     11.760
REMARK INTER + INTRA:          -4.404
REMARK INTER:                  -4.404
REMARK INTRA:                   0.000
REMARK UNBOUND:                 0.000
REMARK SMILES CC1=CC(=O)[C@@H]2C[C@H]1C2(C)C
REMARK SMILES IDX 1 1 2 2 3 3 4 4 5 5 6 6 7 7 8 8 9 9 10 10 11 11
REMARK H PARENT
REMARK Flexibility Score: inf
ROOT
ATOM      1  C   UNL     1      13.998  42.209  28.520  1.00  0.00     0.040 C 
ATOM      2  C   UNL     1      14.403  40.773  28.628  1.00  0.00    -0.066 C 
ATOM      3  C   UNL     1      13.764  39.783  27.942  1.00  0.00     0.047 C 
ATOM      4  C   UNL     1      14.281  38.393  28.150  1.00  0.00     0.159 C 
ATOM      5  O   UNL     1      13.804  37.400  27.541  1.00  0.00    -0.295 OA
ATOM      6  C   UNL     1      15.429  38.264  29.152  1.00  0.00     0.067 C 
ATOM      7  C   UNL     1      14.980  39.127  30.352  1.00  0.00     0.021 C 
ATOM      8  C   UNL     1      15.539  40.342  29.577  1.00  0.00     0.022 C 
ATOM      9  C   UNL     1      16.488  39.358  28.834  1.00  0.00    -0.019 C 
ATOM     10  C   UNL     1      17.818  39.131  29.598  1.00  0.00     0.012 C 
ATOM     11  C   UNL     1      16.827  39.648  27.344  1.00  0.00     0.012 C 
ENDROOT
TORSDOF 0
ENDMDL
MODEL 6
REMARK VINA RESULT:    -4.370      1.660      3.064
REMARK INTER + INTRA:          -4.370
REMARK INTER:                  -4.370
REMARK INTRA:                   0.000
REMARK UNBOUND:                 0.000
REMARK SMILES CC1=CC(=O)[C@@H]2C[C@H]1C2(C)C
REMARK SMILES IDX 1 1 2 2 3 3 4 4 5 5 6 6 7 7 8 8 9 9 10 10 11 11
REMARK H PARENT
REMARK Flexibility Score: inf
ROOT
ATOM      1  C   UNL     1      13.231  42.530  19.140  1.00  0.00     0.040 C 
ATOM      2  C   UNL     1      12.935  43.963  18.826  1.00  0.00    -0.066 C 
ATOM      3  C   UNL     1      11.863  44.617  19.357  1.00  0.00     0.047 C 
ATOM      4  C   UNL     1      11.695  46.050  18.951  1.00  0.00     0.159 C 
ATOM      5  O   UNL     1      10.771  46.773  19.407  1.00  0.00    -0.295 OA
ATOM      6  C   UNL     1      12.724  46.571  17.947  1.00  0.00     0.067 C 
ATOM      7  C   UNL     1      12.811  45.455  16.883  1.00  0.00     0.021 C 
ATOM      8  C   UNL     1      13.810  44.751  17.830  1.00  0.00     0.022 C 
ATOM      9  C   UNL     1      14.142  46.149  18.427  1.00  0.00    -0.019 C 
ATOM     10  C   UNL     1      15.268  46.871  17.645  1.00  0.00     0.012 C 
ATOM     11  C   UNL     1      14.467  46.242  19.944  1.00  0.00     0.012 C 
ENDROOT
TORSDOF 0
ENDMDL
MODEL 7
REMARK VINA RESULT:    -4.367      2.151      3.886
REMARK INTER + INTRA:          -4.367
REMARK INTER:                  -4.367
REMARK INTRA:                   0.000
REMARK UNBOUND:                 0.000
REMARK SMILES CC1=CC(=O)[C@@H]2C[C@H]1C2(C)C
REMARK SMILES IDX 1 1 2 2 3 3 4 4 5 5 6 6 7 7 8 8 9 9 10 10 11 11
REMARK H PARENT
REMARK Flexibility Score: inf
ROOT
ATOM      1  C   UNL     1      16.967  43.682  18.826  1.00  0.00     0.040 C 
ATOM      2  C   UNL     1      15.700  44.461  18.988  1.00  0.00    -0.066 C 
ATOM      3  C   UNL     1      15.433  45.190  20.109  1.00  0.00     0.047 C 
ATOM      4  C   UNL     1      14.124  45.919  20.128  1.00  0.00     0.159 C 
ATOM      5  O   UNL     1      13.782  46.660  21.086  1.00  0.00    -0.295 OA
ATOM      6  C   UNL     1      13.235  45.702  18.902  1.00  0.00     0.067 C 
ATOM      7  C   UNL     1      13.285  44.177  18.667  1.00  0.00     0.021 C 
ATOM      8  C   UNL     1      14.606  44.425  17.902  1.00  0.00     0.022 C 
ATOM      9  C   UNL     1      14.105  45.872  17.624  1.00  0.00    -0.019 C 
ATOM     10  C   UNL     1      13.248  45.962  16.336  1.00  0.00     0.012 C 
ATOM     11  C   UNL     1      15.154  47.019  17.592  1.00  0.00     0.012 C 
ENDROOT
TORSDOF 0
ENDMDL
MODEL 8
REMARK VINA RESULT:    -4.347      1.660      3.415
REMARK INTER + INTRA:          -4.347
REMARK INTER:                  -4.347
REMARK INTRA:                   0.000
REMARK UNBOUND:                 0.000
REMARK SMILES CC1=CC(=O)[C@@H]2C[C@H]1C2(C)C
REMARK SMILES IDX 1 1 2 2 3 3 4 4 5 5 6 6 7 7 8 8 9 9 10 10 11 11
REMARK H PARENT
REMARK Flexibility Score: inf
ROOT
ATOM      1  C   UNL     1      13.238  45.746  16.265  1.00  0.00     0.040 C 
ATOM      2  C   UNL     1      13.046  45.636  17.745  1.00  0.00    -0.066 C 
ATOM      3  C   UNL     1      13.869  46.262  18.634  1.00  0.00     0.047 C 
ATOM      4  C   UNL     1      13.552  46.061  20.084  1.00  0.00     0.159 C 
ATOM      5  O   UNL     1      14.211  46.620  20.999  1.00  0.00    -0.295 OA
ATOM      6  C   UNL     1      12.374  45.130  20.374  1.00  0.00     0.067 C 
ATOM      7  C   UNL     1      12.611  43.921  19.443  1.00  0.00     0.021 C 
ATOM      8  C   UNL     1      11.928  44.753  18.334  1.00  0.00     0.022 C 
ATOM      9  C   UNL     1      11.186  45.535  19.456  1.00  0.00    -0.019 C 
ATOM     10  C   UNL     1       9.859  44.852  19.873  1.00  0.00     0.012 C 
ATOM     11  C   UNL     1      10.906  47.048  19.234  1.00  0.00     0.012 C 
ENDROOT
TORSDOF 0
ENDMDL
MODEL 9
REMARK VINA RESULT:    -4.312      1.890      2.536
REMARK INTER + INTRA:          -4.312
REMARK INTER:                  -4.312
REMARK INTRA:                   0.000
REMARK UNBOUND:                 0.000
REMARK SMILES CC1=CC(=O)[C@@H]2C[C@H]1C2(C)C
REMARK SMILES IDX 1 1 2 2 3 3 4 4 5 5 6 6 7 7 8 8 9 9 10 10 11 11
REMARK H PARENT
REMARK Flexibility Score: inf
ROOT
ATOM      1  C   UNL     1      13.554  46.906  16.871  1.00  0.00     0.040 C 
ATOM      2  C   UNL     1      13.719  45.924  17.987  1.00  0.00    -0.066 C 
ATOM      3  C   UNL     1      13.108  44.704  17.980  1.00  0.00     0.047 C 
ATOM      4  C   UNL     1      13.367  43.827  19.166  1.00  0.00     0.159 C 
ATOM      5  O   UNL     1      12.897  42.663  19.257  1.00  0.00    -0.295 OA
ATOM      6  C   UNL     1      14.244  44.443  20.258  1.00  0.00     0.067 C 
ATOM      7  C   UNL     1      13.674  45.867  20.439  1.00  0.00     0.021 C 
ATOM      8  C   UNL     1      14.552  46.278  19.235  1.00  0.00     0.022 C 
ATOM      9  C   UNL     1      15.490  45.087  19.586  1.00  0.00    -0.019 C 
ATOM     10  C   UNL     1      16.579  45.478  20.618  1.00  0.00     0.012 C 
ATOM     11  C   UNL     1      16.178  44.324  18.419  1.00  0.00     0.012 C 
ENDROOT
TORSDOF 0
ENDMDL
