MODEL 1
REMARK VINA RESULT:    -3.536      0.000      0.000
REMARK INTER + INTRA:          -9.356
REMARK INTER:                  -9.325
REMARK INTRA:                  -0.031
REMARK UNBOUND:                -0.031
REMARK SMILES CCCCCCCCCCCCCCCCCCCCCCCCCCCCCC(=O)[O-]
REMARK SMILES IDX 16 1 17 2 18 3 19 4 20 5 21 6 22 7 23 8 24 9 25 10 26 11
REMARK SMILES IDX 27 12 28 13 29 14 30 15 31 16 32 17 15 18 14 19 13 20 12 21
REMARK SMILES IDX 11 22 10 23 9 24 8 25 7 26 6 27 5 28 4 29 3 30 2 31 1 32
REMARK H PARENT
REMARK Flexibility Score: inf
ROOT
ATOM      1  C   UNL     1     -42.649  28.003   0.658  1.00  0.00     0.000 C 
ENDROOT
BRANCH   1   2
ATOM      2  C   UNL     1     -43.442  27.437   1.849  1.00  0.00     0.000 C 
BRANCH   2   3
ATOM      3  C   UNL     1     -44.680  28.283   2.190  1.00  0.00     0.000 C 
BRANCH   3   4
ATOM      4  C   UNL     1     -44.339  29.772   2.385  1.00  0.00     0.000 C 
BRANCH   4   5
ATOM      5  C   UNL     1     -42.978  29.980   3.082  1.00  0.00     0.000 C 
BRANCH   5   6
ATOM      6  C   UNL     1     -43.077  30.097   4.613  1.00  0.00     0.000 C 
BRANCH   6   7
ATOM      7  C   UNL     1     -44.214  29.253   5.207  1.00  0.00     0.000 C 
BRANCH   7   8
ATOM      8  C   UNL     1     -45.150  30.122   6.061  1.00  0.00     0.000 C 
BRANCH   8   9
ATOM      9  C   UNL     1     -46.496  29.437   6.366  1.00  0.00     0.000 C 
BRANCH   9  10
ATOM     10  C   UNL     1     -46.522  27.913   6.139  1.00  0.00     0.000 C 
BRANCH  10  11
ATOM     11  C   UNL     1     -46.298  27.109   7.430  1.00  0.00     0.000 C 
BRANCH  11  12
ATOM     12  C   UNL     1     -44.808  26.899   7.756  1.00  0.00     0.000 C 
BRANCH  12  13
ATOM     13  C   UNL     1     -44.266  27.737   8.934  1.00  0.00     0.006 C 
BRANCH  13  14
ATOM     14  C   UNL     1     -43.734  29.125   8.541  1.00  0.00     0.053 C 
BRANCH  14  15
ATOM     15  C   UNL     1     -42.249  29.121   8.340  1.00  0.00     0.041 C 
ATOM     16  O   UNL     1     -41.733  28.417   7.434  1.00  0.00    -0.550 OA
ATOM     17  O   UNL     1     -41.439  29.931   9.124  1.00  0.00    -0.550 OA
ENDBRANCH  14  15
ENDBRANCH  13  14
ENDBRANCH  12  13
ENDBRANCH  11  12
ENDBRANCH  10  11
ENDBRANCH   9  10
ENDBRANCH   8   9
ENDBRANCH   7   8
ENDBRANCH   6   7
ENDBRANCH   5   6
ENDBRANCH   4   5
ENDBRANCH   3   4
ENDBRANCH   2   3
ENDBRANCH   1   2
BRANCH   1  18
ATOM     18  C   UNL     1     -43.539  28.268  -0.576  1.00  0.00     0.000 C 
BRANCH  18  19
ATOM     19  C   UNL     1     -44.063  29.714  -0.675  1.00  0.00     0.000 C 
BRANCH  19  20
ATOM     20  C   UNL     1     -45.595  29.860  -0.648  1.00  0.00     0.000 C 
BRANCH  20  21
ATOM     21  C   UNL     1     -46.344  29.074  -1.741  1.00  0.00     0.000 C 
BRANCH  21  22
ATOM     22  C   UNL     1     -46.788  27.678  -1.280  1.00  0.00     0.000 C 
BRANCH  22  23
ATOM     23  C   UNL     1     -45.675  26.647  -1.507  1.00  0.00     0.000 C 
BRANCH  23  24
ATOM     24  C   UNL     1     -45.999  25.734  -2.696  1.00  0.00    -0.000 C 
BRANCH  24  25
ATOM     25  C   UNL     1     -47.111  26.342  -3.564  1.00  0.00    -0.000 C 
BRANCH  25  26
ATOM     26  C   UNL     1     -46.569  26.984  -4.852  1.00  0.00    -0.000 C 
BRANCH  26  27
ATOM     27  C   UNL     1     -47.119  26.313  -6.123  1.00  0.00    -0.000 C 
BRANCH  27  28
ATOM     28  C   UNL     1     -46.017  26.063  -7.167  1.00  0.00    -0.000 C 
BRANCH  28  29
ATOM     29  C   UNL     1     -45.421  27.369  -7.720  1.00  0.00    -0.000 C 
BRANCH  29  30
ATOM     30  C   UNL     1     -46.514  28.377  -8.132  1.00  0.00    -0.000 C 
BRANCH  30  31
ATOM     31  C   UNL     1     -46.190  29.828  -7.734  1.00  0.00    -0.003 C 
ATOM     32  C   UNL     1     -45.699  29.959  -6.294  1.00  0.00     0.004 C 
ENDBRANCH  30  31
ENDBRANCH  29  30
ENDBRANCH  28  29
ENDBRANCH  27  28
ENDBRANCH  26  27
ENDBRANCH  25  26
ENDBRANCH  24  25
ENDBRANCH  23  24
ENDBRANCH  22  23
ENDBRANCH  21  22
ENDBRANCH  20  21
ENDBRANCH  19  20
ENDBRANCH  18  19
ENDBRANCH   1  18
TORSDOF 28
ENDMDL
MODEL 2
REMARK VINA RESULT:    -3.181      1.930      3.553
REMARK INTER + INTRA:          -8.418
REMARK INTER:                  -6.357
REMARK INTRA:                  -2.062
REMARK UNBOUND:                -0.031
REMARK SMILES CCCCCCCCCCCCCCCCCCCCCCCCCCCCCC(=O)[O-]
REMARK SMILES IDX 16 1 17 2 18 3 19 4 20 5 21 6 22 7 23 8 24 9 25 10 26 11
REMARK SMILES IDX 27 12 28 13 29 14 30 15 31 16 32 17 15 18 14 19 13 20 12 21
REMARK SMILES IDX 11 22 10 23 9 24 8 25 7 26 6 27 5 28 4 29 3 30 2 31 1 32
REMARK H PARENT
REMARK Flexibility Score: inf
ROOT
ATOM      1  C   UNL     1     -44.209  26.385  -0.605  1.00  0.00     0.000 C 
ENDROOT
BRANCH   1   2
ATOM      2  C   UNL     1     -44.550  27.761  -0.006  1.00  0.00     0.000 C 
BRANCH   2   3
ATOM      3  C   UNL     1     -45.642  27.681   1.074  1.00  0.00     0.000 C 
BRANCH   3   4
ATOM      4  C   UNL     1     -46.160  29.070   1.489  1.00  0.00     0.000 C 
BRANCH   4   5
ATOM      5  C   UNL     1     -46.449  29.165   3.002  1.00  0.00     0.000 C 
BRANCH   5   6
ATOM      6  C   UNL     1     -47.125  27.912   3.585  1.00  0.00     0.000 C 
BRANCH   6   7
ATOM      7  C   UNL     1     -46.542  27.493   4.942  1.00  0.00     0.000 C 
BRANCH   7   8
ATOM      8  C   UNL     1     -47.093  28.378   6.071  1.00  0.00     0.000 C 
BRANCH   8   9
ATOM      9  C   UNL     1     -46.252  29.646   6.307  1.00  0.00     0.000 C 
BRANCH   9  10
ATOM     10  C   UNL     1     -45.862  29.909   7.775  1.00  0.00     0.000 C 
BRANCH  10  11
ATOM     11  C   UNL     1     -44.734  28.990   8.271  1.00  0.00     0.000 C 
BRANCH  11  12
ATOM     12  C   UNL     1     -43.375  29.301   7.619  1.00  0.00     0.000 C 
BRANCH  12  13
ATOM     13  C   UNL     1     -43.356  29.248   6.077  1.00  0.00     0.006 C 
BRANCH  13  14
ATOM     14  C   UNL     1     -43.106  27.852   5.486  1.00  0.00     0.053 C 
BRANCH  14  15
ATOM     15  C   UNL     1     -43.311  27.823   4.002  1.00  0.00     0.041 C 
ATOM     16  O   UNL     1     -43.129  28.863   3.316  1.00  0.00    -0.550 OA
ATOM     17  O   UNL     1     -43.661  26.638   3.371  1.00  0.00    -0.550 OA
ENDBRANCH  14  15
ENDBRANCH  13  14
ENDBRANCH  12  13
ENDBRANCH  11  12
ENDBRANCH  10  11
ENDBRANCH   9  10
ENDBRANCH   8   9
ENDBRANCH   7   8
ENDBRANCH   6   7
ENDBRANCH   5   6
ENDBRANCH   4   5
ENDBRANCH   3   4
ENDBRANCH   2   3
ENDBRANCH   1   2
BRANCH   1  18
ATOM     18  C   UNL     1     -45.422  25.718  -1.289  1.00  0.00     0.000 C 
BRANCH  18  19
ATOM     19  C   UNL     1     -45.927  26.465  -2.539  1.00  0.00     0.000 C 
BRANCH  19  20
ATOM     20  C   UNL     1     -47.090  27.444  -2.295  1.00  0.00     0.000 C 
BRANCH  20  21
ATOM     21  C   UNL     1     -46.671  28.909  -2.068  1.00  0.00     0.000 C 
BRANCH  21  22
ATOM     22  C   UNL     1     -46.043  29.554  -3.313  1.00  0.00     0.000 C 
BRANCH  22  23
ATOM     23  C   UNL     1     -47.125  30.124  -4.239  1.00  0.00     0.000 C 
BRANCH  23  24
ATOM     24  C   UNL     1     -46.991  29.561  -5.659  1.00  0.00    -0.000 C 
BRANCH  24  25
ATOM     25  C   UNL     1     -45.654  29.979  -6.289  1.00  0.00    -0.000 C 
BRANCH  25  26
ATOM     26  C   UNL     1     -45.736  30.103  -7.819  1.00  0.00    -0.000 C 
BRANCH  26  27
ATOM     27  C   UNL     1     -47.073  29.589  -8.383  1.00  0.00    -0.000 C 
BRANCH  27  28
ATOM     28  C   UNL     1     -46.904  28.274  -9.164  1.00  0.00    -0.000 C 
BRANCH  28  29
ATOM     29  C   UNL     1     -47.111  27.033  -8.278  1.00  0.00    -0.000 C 
BRANCH  29  30
ATOM     30  C   UNL     1     -45.775  26.438  -7.790  1.00  0.00    -0.000 C 
BRANCH  30  31
ATOM     31  C   UNL     1     -45.800  26.003  -6.315  1.00  0.00    -0.003 C 
ATOM     32  C   UNL     1     -47.125  26.315  -5.621  1.00  0.00     0.004 C 
ENDBRANCH  30  31
ENDBRANCH  29  30
ENDBRANCH  28  29
ENDBRANCH  27  28
ENDBRANCH  26  27
ENDBRANCH  25  26
ENDBRANCH  24  25
ENDBRANCH  23  24
ENDBRANCH  22  23
ENDBRANCH  21  22
ENDBRANCH  20  21
ENDBRANCH  19  20
ENDBRANCH  18  19
ENDBRANCH   1  18
TORSDOF 28
ENDMDL
MODEL 3
REMARK VINA RESULT:    -3.133      1.861      4.005
REMARK INTER + INTRA:          -8.291
REMARK INTER:                  -6.605
REMARK INTRA:                  -1.686
REMARK UNBOUND:                -0.031
REMARK SMILES CCCCCCCCCCCCCCCCCCCCCCCCCCCCCC(=O)[O-]
REMARK SMILES IDX 16 1 17 2 18 3 19 4 20 5 21 6 22 7 23 8 24 9 25 10 26 11
REMARK SMILES IDX 27 12 28 13 29 14 30 15 31 16 32 17 15 18 14 19 13 20 12 21
REMARK SMILES IDX 11 22 10 23 9 24 8 25 7 26 6 27 5 28 4 29 3 30 2 31 1 32
REMARK H PARENT
REMARK Flexibility Score: inf
ROOT
ATOM      1  C   UNL     1     -45.172  28.831  -0.846  1.00  0.00     0.000 C 
ENDROOT
BRANCH   1   2
ATOM      2  C   UNL     1     -45.377  27.653   0.122  1.00  0.00     0.000 C 
BRANCH   2   3
ATOM      3  C   UNL     1     -45.463  28.103   1.590  1.00  0.00     0.000 C 
BRANCH   3   4
ATOM      4  C   UNL     1     -46.502  29.219   1.803  1.00  0.00     0.000 C 
BRANCH   4   5
ATOM      5  C   UNL     1     -46.891  29.390   3.286  1.00  0.00     0.000 C 
BRANCH   5   6
ATOM      6  C   UNL     1     -47.045  28.060   4.045  1.00  0.00     0.000 C 
BRANCH   6   7
ATOM      7  C   UNL     1     -46.625  28.158   5.518  1.00  0.00     0.000 C 
BRANCH   7   8
ATOM      8  C   UNL     1     -46.931  29.553   6.083  1.00  0.00     0.000 C 
BRANCH   8   9
ATOM      9  C   UNL     1     -46.923  29.595   7.622  1.00  0.00     0.000 C 
BRANCH   9  10
ATOM     10  C   UNL     1     -45.863  28.702   8.296  1.00  0.00     0.000 C 
BRANCH  10  11
ATOM     11  C   UNL     1     -44.828  29.503   9.104  1.00  0.00     0.000 C 
BRANCH  11  12
ATOM     12  C   UNL     1     -43.375  29.164   8.722  1.00  0.00     0.000 C 
BRANCH  12  13
ATOM     13  C   UNL     1     -43.215  28.156   7.564  1.00  0.00     0.006 C 
BRANCH  13  14
ATOM     14  C   UNL     1     -42.773  28.778   6.230  1.00  0.00     0.053 C 
BRANCH  14  15
ATOM     15  C   UNL     1     -43.504  28.187   5.064  1.00  0.00     0.041 C 
ATOM     16  O   UNL     1     -44.138  27.107   5.193  1.00  0.00    -0.550 OA
ATOM     17  O   UNL     1     -43.524  28.852   3.845  1.00  0.00    -0.550 OA
ENDBRANCH  14  15
ENDBRANCH  13  14
ENDBRANCH  12  13
ENDBRANCH  11  12
ENDBRANCH  10  11
ENDBRANCH   9  10
ENDBRANCH   8   9
ENDBRANCH   7   8
ENDBRANCH   6   7
ENDBRANCH   5   6
ENDBRANCH   4   5
ENDBRANCH   3   4
ENDBRANCH   2   3
ENDBRANCH   1   2
BRANCH   1  18
ATOM     18  C   UNL     1     -46.110  28.763  -2.071  1.00  0.00     0.000 C 
BRANCH  18  19
ATOM     19  C   UNL     1     -46.334  30.120  -2.767  1.00  0.00     0.000 C 
BRANCH  19  20
ATOM     20  C   UNL     1     -46.734  30.039  -4.251  1.00  0.00     0.000 C 
BRANCH  20  21
ATOM     21  C   UNL     1     -45.556  29.959  -5.240  1.00  0.00     0.000 C 
BRANCH  21  22
ATOM     22  C   UNL     1     -45.989  30.117  -6.705  1.00  0.00     0.000 C 
BRANCH  22  23
ATOM     23  C   UNL     1     -45.206  29.160  -7.614  1.00  0.00     0.000 C 
BRANCH  23  24
ATOM     24  C   UNL     1     -46.080  28.654  -8.769  1.00  0.00    -0.000 C 
BRANCH  24  25
ATOM     25  C   UNL     1     -47.124  27.647  -8.264  1.00  0.00    -0.000 C 
BRANCH  25  26
ATOM     26  C   UNL     1     -46.562  26.220  -8.152  1.00  0.00    -0.000 C 
BRANCH  26  27
ATOM     27  C   UNL     1     -46.863  25.571  -6.790  1.00  0.00    -0.000 C 
BRANCH  27  28
ATOM     28  C   UNL     1     -46.938  26.610  -5.658  1.00  0.00    -0.000 C 
BRANCH  28  29
ATOM     29  C   UNL     1     -46.185  26.159  -4.394  1.00  0.00    -0.000 C 
BRANCH  29  30
ATOM     30  C   UNL     1     -47.125  25.510  -3.358  1.00  0.00    -0.000 C 
BRANCH  30  31
ATOM     31  C   UNL     1     -46.428  25.163  -2.031  1.00  0.00    -0.003 C 
ATOM     32  C   UNL     1     -44.936  25.487  -2.035  1.00  0.00     0.004 C 
ENDBRANCH  30  31
ENDBRANCH  29  30
ENDBRANCH  28  29
ENDBRANCH  27  28
ENDBRANCH  26  27
ENDBRANCH  25  26
ENDBRANCH  24  25
ENDBRANCH  23  24
ENDBRANCH  22  23
ENDBRANCH  21  22
ENDBRANCH  20  21
ENDBRANCH  19  20
ENDBRANCH  18  19
ENDBRANCH   1  18
TORSDOF 28
ENDMDL
MODEL 4
REMARK VINA RESULT:    -2.838      2.091      3.653
REMARK INTER + INTRA:          -7.515
REMARK INTER:                  -6.702
REMARK INTRA:                  -0.813
REMARK UNBOUND:                -0.031
REMARK SMILES CCCCCCCCCCCCCCCCCCCCCCCCCCCCCC(=O)[O-]
REMARK SMILES IDX 16 1 17 2 18 3 19 4 20 5 21 6 22 7 23 8 24 9 25 10 26 11
REMARK SMILES IDX 27 12 28 13 29 14 30 15 31 16 32 17 15 18 14 19 13 20 12 21
REMARK SMILES IDX 11 22 10 23 9 24 8 25 7 26 6 27 5 28 4 29 3 30 2 31 1 32
REMARK H PARENT
REMARK Flexibility Score: inf
ROOT
ATOM      1  C   UNL     1     -43.888  28.943   0.716  1.00  0.00     0.000 C 
ENDROOT
BRANCH   1   2
ATOM      2  C   UNL     1     -42.503  28.942   1.386  1.00  0.00     0.000 C 
BRANCH   2   3
ATOM      3  C   UNL     1     -42.422  29.913   2.576  1.00  0.00     0.000 C 
BRANCH   3   4
ATOM      4  C   UNL     1     -42.397  29.181   3.930  1.00  0.00     0.000 C 
BRANCH   4   5
ATOM      5  C   UNL     1     -43.386  29.788   4.948  1.00  0.00     0.000 C 
BRANCH   5   6
ATOM      6  C   UNL     1     -43.409  29.057   6.302  1.00  0.00     0.000 C 
BRANCH   6   7
ATOM      7  C   UNL     1     -42.687  29.831   7.414  1.00  0.00     0.000 C 
BRANCH   7   8
ATOM      8  C   UNL     1     -42.758  29.069   8.745  1.00  0.00     0.000 C 
BRANCH   8   9
ATOM      9  C   UNL     1     -43.943  28.088   8.816  1.00  0.00     0.000 C 
BRANCH   9  10
ATOM     10  C   UNL     1     -45.333  28.747   8.916  1.00  0.00     0.000 C 
BRANCH  10  11
ATOM     11  C   UNL     1     -46.484  27.770   8.622  1.00  0.00     0.000 C 
BRANCH  11  12
ATOM     12  C   UNL     1     -46.385  27.128   7.226  1.00  0.00     0.000 C 
BRANCH  12  13
ATOM     13  C   UNL     1     -46.450  28.114   6.041  1.00  0.00     0.006 C 
BRANCH  13  14
ATOM     14  C   UNL     1     -46.926  27.494   4.717  1.00  0.00     0.053 C 
BRANCH  14  15
ATOM     15  C   UNL     1     -46.459  28.277   3.529  1.00  0.00     0.041 C 
ATOM     16  O   UNL     1     -45.991  27.684   2.522  1.00  0.00    -0.550 OA
ATOM     17  O   UNL     1     -46.581  29.660   3.514  1.00  0.00    -0.550 OA
ENDBRANCH  14  15
ENDBRANCH  13  14
ENDBRANCH  12  13
ENDBRANCH  11  12
ENDBRANCH  10  11
ENDBRANCH   9  10
ENDBRANCH   8   9
ENDBRANCH   7   8
ENDBRANCH   6   7
ENDBRANCH   5   6
ENDBRANCH   4   5
ENDBRANCH   3   4
ENDBRANCH   2   3
ENDBRANCH   1   2
BRANCH   1  18
ATOM     18  C   UNL     1     -43.867  28.311  -0.693  1.00  0.00     0.000 C 
BRANCH  18  19
ATOM     19  C   UNL     1     -45.249  28.244  -1.372  1.00  0.00     0.000 C 
BRANCH  19  20
ATOM     20  C   UNL     1     -46.401  28.890  -0.580  1.00  0.00     0.000 C 
BRANCH  20  21
ATOM     21  C   UNL     1     -47.063  30.101  -1.265  1.00  0.00     0.000 C 
BRANCH  21  22
ATOM     22  C   UNL     1     -47.122  29.970  -2.794  1.00  0.00     0.000 C 
BRANCH  22  23
ATOM     23  C   UNL     1     -45.725  30.125  -3.410  1.00  0.00     0.000 C 
BRANCH  23  24
ATOM     24  C   UNL     1     -45.561  29.225  -4.642  1.00  0.00    -0.000 C 
BRANCH  24  25
ATOM     25  C   UNL     1     -45.649  30.048  -5.936  1.00  0.00    -0.000 C 
BRANCH  25  26
ATOM     26  C   UNL     1     -46.498  29.360  -7.017  1.00  0.00    -0.000 C 
BRANCH  26  27
ATOM     27  C   UNL     1     -45.952  27.974  -7.403  1.00  0.00    -0.000 C 
BRANCH  27  28
ATOM     28  C   UNL     1     -47.040  26.888  -7.345  1.00  0.00    -0.000 C 
BRANCH  28  29
ATOM     29  C   UNL     1     -47.102  26.190  -5.974  1.00  0.00    -0.000 C 
BRANCH  29  30
ATOM     30  C   UNL     1     -45.772  26.306  -5.202  1.00  0.00    -0.000 C 
BRANCH  30  31
ATOM     31  C   UNL     1     -45.850  25.766  -3.764  1.00  0.00    -0.003 C 
ATOM     32  C   UNL     1     -47.044  26.309  -2.983  1.00  0.00     0.004 C 
ENDBRANCH  30  31
ENDBRANCH  29  30
ENDBRANCH  28  29
ENDBRANCH  27  28
ENDBRANCH  26  27
ENDBRANCH  25  26
ENDBRANCH  24  25
ENDBRANCH  23  24
ENDBRANCH  22  23
ENDBRANCH  21  22
ENDBRANCH  20  21
ENDBRANCH  19  20
ENDBRANCH  18  19
ENDBRANCH   1  18
TORSDOF 28
ENDMDL
MODEL 5
REMARK VINA RESULT:    -2.798      2.257      3.611
REMARK INTER + INTRA:          -7.407
REMARK INTER:                  -6.284
REMARK INTRA:                  -1.123
REMARK UNBOUND:                -0.031
REMARK SMILES CCCCCCCCCCCCCCCCCCCCCCCCCCCCCC(=O)[O-]
REMARK SMILES IDX 16 1 17 2 18 3 19 4 20 5 21 6 22 7 23 8 24 9 25 10 26 11
REMARK SMILES IDX 27 12 28 13 29 14 30 15 31 16 32 17 15 18 14 19 13 20 12 21
REMARK SMILES IDX 11 22 10 23 9 24 8 25 7 26 6 27 5 28 4 29 3 30 2 31 1 32
REMARK H PARENT
REMARK Flexibility Score: inf
ROOT
ATOM      1  C   UNL     1     -42.522  27.685   0.921  1.00  0.00     0.000 C 
ENDROOT
BRANCH   1   2
ATOM      2  C   UNL     1     -42.734  29.175   0.597  1.00  0.00     0.000 C 
BRANCH   2   3
ATOM      3  C   UNL     1     -42.136  30.103   1.667  1.00  0.00     0.000 C 
BRANCH   3   4
ATOM      4  C   UNL     1     -42.954  30.099   2.971  1.00  0.00     0.000 C 
BRANCH   4   5
ATOM      5  C   UNL     1     -42.060  30.124   4.229  1.00  0.00     0.000 C 
BRANCH   5   6
ATOM      6  C   UNL     1     -42.588  29.252   5.383  1.00  0.00     0.000 C 
BRANCH   6   7
ATOM      7  C   UNL     1     -43.103  27.884   4.913  1.00  0.00     0.000 C 
BRANCH   7   8
ATOM      8  C   UNL     1     -43.989  27.235   5.987  1.00  0.00     0.000 C 
BRANCH   8   9
ATOM      9  C   UNL     1     -43.331  27.217   7.380  1.00  0.00     0.000 C 
BRANCH   9  10
ATOM     10  C   UNL     1     -44.187  27.811   8.516  1.00  0.00     0.000 C 
BRANCH  10  11
ATOM     11  C   UNL     1     -44.421  29.323   8.365  1.00  0.00     0.000 C 
BRANCH  11  12
ATOM     12  C   UNL     1     -45.843  29.666   7.883  1.00  0.00     0.000 C 
BRANCH  12  13
ATOM     13  C   UNL     1     -45.969  29.993   6.381  1.00  0.00     0.006 C 
BRANCH  13  14
ATOM     14  C   UNL     1     -47.125  29.278   5.663  1.00  0.00     0.053 C 
BRANCH  14  15
ATOM     15  C   UNL     1     -46.745  28.842   4.281  1.00  0.00     0.041 C 
ATOM     16  O   UNL     1     -46.543  27.624   4.033  1.00  0.00    -0.550 OA
ATOM     17  O   UNL     1     -46.659  29.774   3.256  1.00  0.00    -0.550 OA
ENDBRANCH  14  15
ENDBRANCH  13  14
ENDBRANCH  12  13
ENDBRANCH  11  12
ENDBRANCH  10  11
ENDBRANCH   9  10
ENDBRANCH   8   9
ENDBRANCH   7   8
ENDBRANCH   6   7
ENDBRANCH   5   6
ENDBRANCH   4   5
ENDBRANCH   3   4
ENDBRANCH   2   3
ENDBRANCH   1   2
BRANCH   1  18
ATOM     18  C   UNL     1     -43.486  27.172   2.012  1.00  0.00     0.000 C 
BRANCH  18  19
ATOM     19  C   UNL     1     -44.943  27.007   1.537  1.00  0.00     0.000 C 
BRANCH  19  20
ATOM     20  C   UNL     1     -45.546  28.235   0.830  1.00  0.00     0.000 C 
BRANCH  20  21
ATOM     21  C   UNL     1     -46.173  27.951  -0.548  1.00  0.00     0.000 C 
BRANCH  21  22
ATOM     22  C   UNL     1     -46.874  29.175  -1.154  1.00  0.00     0.000 C 
BRANCH  22  23
ATOM     23  C   UNL     1     -46.121  29.679  -2.392  1.00  0.00     0.000 C 
BRANCH  23  24
ATOM     24  C   UNL     1     -47.055  29.781  -3.605  1.00  0.00    -0.000 C 
BRANCH  24  25
ATOM     25  C   UNL     1     -46.849  28.591  -4.555  1.00  0.00    -0.000 C 
BRANCH  25  26
ATOM     26  C   UNL     1     -46.665  29.029  -6.017  1.00  0.00    -0.000 C 
BRANCH  26  27
ATOM     27  C   UNL     1     -45.381  28.462  -6.647  1.00  0.00    -0.000 C 
BRANCH  27  28
ATOM     28  C   UNL     1     -45.540  26.988  -7.057  1.00  0.00    -0.000 C 
BRANCH  28  29
ATOM     29  C   UNL     1     -46.985  26.641  -7.459  1.00  0.00    -0.000 C 
BRANCH  29  30
ATOM     30  C   UNL     1     -47.095  26.246  -8.946  1.00  0.00    -0.000 C 
BRANCH  30  31
ATOM     31  C   UNL     1     -46.951  24.734  -9.190  1.00  0.00    -0.003 C 
ATOM     32  C   UNL     1     -47.125  24.345 -10.657  1.00  0.00     0.004 C 
ENDBRANCH  30  31
ENDBRANCH  29  30
ENDBRANCH  28  29
ENDBRANCH  27  28
ENDBRANCH  26  27
ENDBRANCH  25  26
ENDBRANCH  24  25
ENDBRANCH  23  24
ENDBRANCH  22  23
ENDBRANCH  21  22
ENDBRANCH  20  21
ENDBRANCH  19  20
ENDBRANCH  18  19
ENDBRANCH   1  18
TORSDOF 28
ENDMDL
MODEL 6
REMARK VINA RESULT:    -2.739      1.406      2.379
REMARK INTER + INTRA:          -7.252
REMARK INTER:                  -5.123
REMARK INTRA:                  -2.129
REMARK UNBOUND:                -0.031
REMARK SMILES CCCCCCCCCCCCCCCCCCCCCCCCCCCCCC(=O)[O-]
REMARK SMILES IDX 16 1 17 2 18 3 19 4 20 5 21 6 22 7 23 8 24 9 25 10 26 11
REMARK SMILES IDX 27 12 28 13 29 14 30 15 31 16 32 17 15 18 14 19 13 20 12 21
REMARK SMILES IDX 11 22 10 23 9 24 8 25 7 26 6 27 5 28 4 29 3 30 2 31 1 32
REMARK H PARENT
REMARK Flexibility Score: inf
ROOT
ATOM      1  C   UNL     1     -42.472  26.489   1.575  1.00  0.00     0.000 C 
ENDROOT
BRANCH   1   2
ATOM      2  C   UNL     1     -43.116  27.323   2.697  1.00  0.00     0.000 C 
BRANCH   2   3
ATOM      3  C   UNL     1     -44.518  26.818   3.076  1.00  0.00     0.000 C 
BRANCH   3   4
ATOM      4  C   UNL     1     -45.517  27.969   3.295  1.00  0.00     0.000 C 
BRANCH   4   5
ATOM      5  C   UNL     1     -44.816  29.311   3.592  1.00  0.00     0.000 C 
BRANCH   5   6
ATOM      6  C   UNL     1     -45.035  29.821   5.028  1.00  0.00     0.000 C 
BRANCH   6   7
ATOM      7  C   UNL     1     -46.501  29.738   5.476  1.00  0.00     0.000 C 
BRANCH   7   8
ATOM      8  C   UNL     1     -46.693  28.625   6.517  1.00  0.00     0.000 C 
BRANCH   8   9
ATOM      9  C   UNL     1     -47.118  29.159   7.898  1.00  0.00     0.000 C 
BRANCH   9  10
ATOM     10  C   UNL     1     -46.267  28.661   9.083  1.00  0.00     0.000 C 
BRANCH  10  11
ATOM     11  C   UNL     1     -45.420  27.424   8.737  1.00  0.00     0.000 C 
BRANCH  11  12
ATOM     12  C   UNL     1     -43.910  27.723   8.694  1.00  0.00     0.000 C 
BRANCH  12  13
ATOM     13  C   UNL     1     -43.511  29.162   9.085  1.00  0.00     0.006 C 
BRANCH  13  14
ATOM     14  C   UNL     1     -42.968  30.013   7.926  1.00  0.00     0.053 C 
BRANCH  14  15
ATOM     15  C   UNL     1     -42.278  29.180   6.890  1.00  0.00     0.041 C 
ATOM     16  O   UNL     1     -41.885  28.017   7.170  1.00  0.00    -0.550 OA
ATOM     17  O   UNL     1     -42.108  29.669   5.603  1.00  0.00    -0.550 OA
ENDBRANCH  14  15
ENDBRANCH  13  14
ENDBRANCH  12  13
ENDBRANCH  11  12
ENDBRANCH  10  11
ENDBRANCH   9  10
ENDBRANCH   8   9
ENDBRANCH   7   8
ENDBRANCH   6   7
ENDBRANCH   5   6
ENDBRANCH   4   5
ENDBRANCH   3   4
ENDBRANCH   2   3
ENDBRANCH   1   2
BRANCH   1  18
ATOM     18  C   UNL     1     -42.676  27.115   0.178  1.00  0.00     0.000 C 
BRANCH  18  19
ATOM     19  C   UNL     1     -42.579  28.653   0.158  1.00  0.00     0.000 C 
BRANCH  19  20
ATOM     20  C   UNL     1     -43.486  29.355  -0.869  1.00  0.00     0.000 C 
BRANCH  20  21
ATOM     21  C   UNL     1     -44.902  29.691  -0.365  1.00  0.00     0.000 C 
BRANCH  21  22
ATOM     22  C   UNL     1     -45.938  28.613  -0.717  1.00  0.00     0.000 C 
BRANCH  22  23
ATOM     23  C   UNL     1     -47.059  29.195  -1.587  1.00  0.00     0.000 C 
BRANCH  23  24
ATOM     24  C   UNL     1     -47.117  28.501  -2.954  1.00  0.00    -0.000 C 
BRANCH  24  25
ATOM     25  C   UNL     1     -45.890  28.866  -3.804  1.00  0.00    -0.000 C 
BRANCH  25  26
ATOM     26  C   UNL     1     -46.140  30.083  -4.709  1.00  0.00    -0.000 C 
BRANCH  26  27
ATOM     27  C   UNL     1     -47.020  29.745  -5.925  1.00  0.00    -0.000 C 
BRANCH  27  28
ATOM     28  C   UNL     1     -46.254  29.890  -7.252  1.00  0.00    -0.000 C 
BRANCH  28  29
ATOM     29  C   UNL     1     -45.026  28.967  -7.327  1.00  0.00    -0.000 C 
BRANCH  29  30
ATOM     30  C   UNL     1     -45.399  27.539  -7.774  1.00  0.00    -0.000 C 
BRANCH  30  31
ATOM     31  C   UNL     1     -45.681  26.583  -6.602  1.00  0.00    -0.003 C 
ATOM     32  C   UNL     1     -47.124  26.085  -6.568  1.00  0.00     0.004 C 
ENDBRANCH  30  31
ENDBRANCH  29  30
ENDBRANCH  28  29
ENDBRANCH  27  28
ENDBRANCH  26  27
ENDBRANCH  25  26
ENDBRANCH  24  25
ENDBRANCH  23  24
ENDBRANCH  22  23
ENDBRANCH  21  22
ENDBRANCH  20  21
ENDBRANCH  19  20
ENDBRANCH  18  19
ENDBRANCH   1  18
TORSDOF 28
ENDMDL
MODEL 7
REMARK VINA RESULT:    -2.626      4.237     10.389
REMARK INTER + INTRA:          -6.955
REMARK INTER:                  -4.615
REMARK INTRA:                  -2.340
REMARK UNBOUND:                -0.031
REMARK SMILES CCCCCCCCCCCCCCCCCCCCCCCCCCCCCC(=O)[O-]
REMARK SMILES IDX 16 1 17 2 18 3 19 4 20 5 21 6 22 7 23 8 24 9 25 10 26 11
REMARK SMILES IDX 27 12 28 13 29 14 30 15 31 16 32 17 15 18 14 19 13 20 12 21
REMARK SMILES IDX 11 22 10 23 9 24 8 25 7 26 6 27 5 28 4 29 3 30 2 31 1 32
REMARK H PARENT
REMARK Flexibility Score: inf
ROOT
ATOM      1  C   UNL     1     -45.860  27.728   4.317  1.00  0.00     0.000 C 
ENDROOT
BRANCH   1   2
ATOM      2  C   UNL     1     -46.799  28.814   3.766  1.00  0.00     0.000 C 
BRANCH   2   3
ATOM      3  C   UNL     1     -47.115  28.621   2.273  1.00  0.00     0.000 C 
BRANCH   3   4
ATOM      4  C   UNL     1     -47.039  29.938   1.481  1.00  0.00     0.000 C 
BRANCH   4   5
ATOM      5  C   UNL     1     -47.108  29.715  -0.045  1.00  0.00     0.000 C 
BRANCH   5   6
ATOM      6  C   UNL     1     -45.790  30.023  -0.777  1.00  0.00     0.000 C 
BRANCH   6   7
ATOM      7  C   UNL     1     -45.774  29.509  -2.224  1.00  0.00     0.000 C 
BRANCH   7   8
ATOM      8  C   UNL     1     -44.853  28.287  -2.359  1.00  0.00     0.000 C 
BRANCH   8   9
ATOM      9  C   UNL     1     -45.272  27.113  -1.455  1.00  0.00     0.000 C 
BRANCH   9  10
ATOM     10  C   UNL     1     -46.215  26.086  -2.111  1.00  0.00     0.000 C 
BRANCH  10  11
ATOM     11  C   UNL     1     -45.916  25.862  -3.603  1.00  0.00     0.000 C 
BRANCH  11  12
ATOM     12  C   UNL     1     -46.997  26.452  -4.527  1.00  0.00     0.000 C 
BRANCH  12  13
ATOM     13  C   UNL     1     -46.498  26.917  -5.911  1.00  0.00     0.006 C 
BRANCH  13  14
ATOM     14  C   UNL     1     -45.954  28.354  -5.947  1.00  0.00     0.053 C 
BRANCH  14  15
ATOM     15  C   UNL     1     -45.866  28.889  -7.344  1.00  0.00     0.041 C 
ATOM     16  O   UNL     1     -46.362  28.242  -8.303  1.00  0.00    -0.550 OA
ATOM     17  O   UNL     1     -45.276  30.122  -7.581  1.00  0.00    -0.550 OA
ENDBRANCH  14  15
ENDBRANCH  13  14
ENDBRANCH  12  13
ENDBRANCH  11  12
ENDBRANCH  10  11
ENDBRANCH   9  10
ENDBRANCH   8   9
ENDBRANCH   7   8
ENDBRANCH   6   7
ENDBRANCH   5   6
ENDBRANCH   4   5
ENDBRANCH   3   4
ENDBRANCH   2   3
ENDBRANCH   1   2
BRANCH   1  18
ATOM     18  C   UNL     1     -46.497  26.919   5.468  1.00  0.00     0.000 C 
BRANCH  18  19
ATOM     19  C   UNL     1     -47.040  27.787   6.619  1.00  0.00     0.000 C 
BRANCH  19  20
ATOM     20  C   UNL     1     -46.358  29.158   6.787  1.00  0.00     0.000 C 
BRANCH  20  21
ATOM     21  C   UNL     1     -45.209  29.192   7.812  1.00  0.00     0.000 C 
BRANCH  21  22
ATOM     22  C   UNL     1     -44.411  27.881   7.866  1.00  0.00     0.000 C 
BRANCH  22  23
ATOM     23  C   UNL     1     -43.105  28.067   8.650  1.00  0.00     0.000 C 
BRANCH  23  24
ATOM     24  C   UNL     1     -42.144  29.004   7.909  1.00  0.00    -0.000 C 
BRANCH  24  25
ATOM     25  C   UNL     1     -42.156  28.719   6.399  1.00  0.00    -0.000 C 
BRANCH  25  26
ATOM     26  C   UNL     1     -42.349  29.992   5.560  1.00  0.00    -0.000 C 
BRANCH  26  27
ATOM     27  C   UNL     1     -43.758  30.091   4.950  1.00  0.00    -0.000 C 
BRANCH  27  28
ATOM     28  C   UNL     1     -43.725  30.083   3.412  1.00  0.00    -0.000 C 
BRANCH  28  29
ATOM     29  C   UNL     1     -42.463  29.401   2.854  1.00  0.00    -0.000 C 
BRANCH  29  30
ATOM     30  C   UNL     1     -42.804  28.210   1.936  1.00  0.00    -0.000 C 
BRANCH  30  31
ATOM     31  C   UNL     1     -42.522  28.482   0.449  1.00  0.00    -0.003 C 
ATOM     32  C   UNL     1     -42.428  29.970   0.119  1.00  0.00     0.004 C 
ENDBRANCH  30  31
ENDBRANCH  29  30
ENDBRANCH  28  29
ENDBRANCH  27  28
ENDBRANCH  26  27
ENDBRANCH  25  26
ENDBRANCH  24  25
ENDBRANCH  23  24
ENDBRANCH  22  23
ENDBRANCH  21  22
ENDBRANCH  20  21
ENDBRANCH  19  20
ENDBRANCH  18  19
ENDBRANCH   1  18
TORSDOF 28
ENDMDL
MODEL 8
REMARK VINA RESULT:    -2.586      4.233      9.650
REMARK INTER + INTRA:          -6.850
REMARK INTER:                  -4.140
REMARK INTRA:                  -2.709
REMARK UNBOUND:                -0.031
REMARK SMILES CCCCCCCCCCCCCCCCCCCCCCCCCCCCCC(=O)[O-]
REMARK SMILES IDX 16 1 17 2 18 3 19 4 20 5 21 6 22 7 23 8 24 9 25 10 26 11
REMARK SMILES IDX 27 12 28 13 29 14 30 15 31 16 32 17 15 18 14 19 13 20 12 21
REMARK SMILES IDX 11 22 10 23 9 24 8 25 7 26 6 27 5 28 4 29 3 30 2 31 1 32
REMARK H PARENT
REMARK Flexibility Score: inf
ROOT
ATOM      1  C   UNL     1     -43.496  26.277   4.834  1.00  0.00     0.000 C 
ENDROOT
BRANCH   1   2
ATOM      2  C   UNL     1     -43.648  27.784   4.558  1.00  0.00     0.000 C 
BRANCH   2   3
ATOM      3  C   UNL     1     -42.299  28.476   4.302  1.00  0.00     0.000 C 
BRANCH   3   4
ATOM      4  C   UNL     1     -42.426  29.673   3.342  1.00  0.00     0.000 C 
BRANCH   4   5
ATOM      5  C   UNL     1     -43.405  29.399   2.182  1.00  0.00     0.000 C 
BRANCH   5   6
ATOM      6  C   UNL     1     -42.826  28.490   1.083  1.00  0.00     0.000 C 
BRANCH   6   7
ATOM      7  C   UNL     1     -42.749  29.180  -0.287  1.00  0.00     0.000 C 
BRANCH   7   8
ATOM      8  C   UNL     1     -44.076  29.877  -0.623  1.00  0.00     0.000 C 
BRANCH   8   9
ATOM      9  C   UNL     1     -44.501  29.688  -2.092  1.00  0.00     0.000 C 
BRANCH   9  10
ATOM     10  C   UNL     1     -45.944  30.120  -2.417  1.00  0.00     0.000 C 
BRANCH  10  11
ATOM     11  C   UNL     1     -46.731  29.053  -3.195  1.00  0.00     0.000 C 
BRANCH  11  12
ATOM     12  C   UNL     1     -46.774  29.324  -4.711  1.00  0.00     0.000 C 
BRANCH  12  13
ATOM     13  C   UNL     1     -45.619  28.704  -5.525  1.00  0.00     0.006 C 
BRANCH  13  14
ATOM     14  C   UNL     1     -45.885  28.595  -7.034  1.00  0.00     0.053 C 
BRANCH  14  15
ATOM     15  C   UNL     1     -46.123  27.180  -7.464  1.00  0.00     0.041 C 
ATOM     16  O   UNL     1     -47.054  26.908  -8.266  1.00  0.00    -0.550 OA
ATOM     17  O   UNL     1     -45.289  26.166  -7.013  1.00  0.00    -0.550 OA
ENDBRANCH  14  15
ENDBRANCH  13  14
ENDBRANCH  12  13
ENDBRANCH  11  12
ENDBRANCH  10  11
ENDBRANCH   9  10
ENDBRANCH   8   9
ENDBRANCH   7   8
ENDBRANCH   6   7
ENDBRANCH   5   6
ENDBRANCH   4   5
ENDBRANCH   3   4
ENDBRANCH   2   3
ENDBRANCH   1   2
BRANCH   1  18
ATOM     18  C   UNL     1     -43.359  25.961   6.339  1.00  0.00     0.000 C 
BRANCH  18  19
ATOM     19  C   UNL     1     -43.372  27.206   7.247  1.00  0.00     0.000 C 
BRANCH  19  20
ATOM     20  C   UNL     1     -44.307  27.120   8.467  1.00  0.00     0.000 C 
BRANCH  20  21
ATOM     21  C   UNL     1     -45.812  27.147   8.138  1.00  0.00     0.000 C 
BRANCH  21  22
ATOM     22  C   UNL     1     -46.112  27.722   6.746  1.00  0.00     0.000 C 
BRANCH  22  23
ATOM     23  C   UNL     1     -46.946  29.006   6.852  1.00  0.00     0.000 C 
BRANCH  23  24
ATOM     24  C   UNL     1     -46.451  30.071   5.866  1.00  0.00    -0.000 C 
BRANCH  24  25
ATOM     25  C   UNL     1     -46.941  29.769   4.442  1.00  0.00    -0.000 C 
BRANCH  25  26
ATOM     26  C   UNL     1     -47.125  28.264   4.188  1.00  0.00    -0.000 C 
BRANCH  26  27
ATOM     27  C   UNL     1     -46.522  27.813   2.846  1.00  0.00    -0.000 C 
BRANCH  27  28
ATOM     28  C   UNL     1     -46.729  28.861   1.739  1.00  0.00    -0.000 C 
BRANCH  28  29
ATOM     29  C   UNL     1     -46.922  28.222   0.352  1.00  0.00    -0.000 C 
BRANCH  29  30
ATOM     30  C   UNL     1     -45.968  27.032   0.122  1.00  0.00    -0.000 C 
BRANCH  30  31
ATOM     31  C   UNL     1     -46.446  26.066  -0.975  1.00  0.00    -0.003 C 
ATOM     32  C   UNL     1     -45.520  26.032  -2.189  1.00  0.00     0.004 C 
ENDBRANCH  30  31
ENDBRANCH  29  30
ENDBRANCH  28  29
ENDBRANCH  27  28
ENDBRANCH  26  27
ENDBRANCH  25  26
ENDBRANCH  24  25
ENDBRANCH  23  24
ENDBRANCH  22  23
ENDBRANCH  21  22
ENDBRANCH  20  21
ENDBRANCH  19  20
ENDBRANCH  18  19
ENDBRANCH   1  18
TORSDOF 28
ENDMDL
MODEL 9
REMARK VINA RESULT:    -2.437      1.490      2.611
REMARK INTER + INTRA:          -6.458
REMARK INTER:                  -4.796
REMARK INTRA:                  -1.662
REMARK UNBOUND:                -0.031
REMARK SMILES CCCCCCCCCCCCCCCCCCCCCCCCCCCCCC(=O)[O-]
REMARK SMILES IDX 16 1 17 2 18 3 19 4 20 5 21 6 22 7 23 8 24 9 25 10 26 11
REMARK SMILES IDX 27 12 28 13 29 14 30 15 31 16 32 17 15 18 14 19 13 20 12 21
REMARK SMILES IDX 11 22 10 23 9 24 8 25 7 26 6 27 5 28 4 29 3 30 2 31 1 32
REMARK H PARENT
REMARK Flexibility Score: inf
ROOT
ATOM      1  C   UNL     1     -42.371  27.100  -0.847  1.00  0.00     0.000 C 
ENDROOT
BRANCH   1   2
ATOM      2  C   UNL     1     -41.743  28.480  -0.583  1.00  0.00     0.000 C 
BRANCH   2   3
ATOM      3  C   UNL     1     -42.698  29.433   0.155  1.00  0.00     0.000 C 
BRANCH   3   4
ATOM      4  C   UNL     1     -42.028  30.120   1.358  1.00  0.00     0.000 C 
BRANCH   4   5
ATOM      5  C   UNL     1     -42.884  30.036   2.639  1.00  0.00     0.000 C 
BRANCH   5   6
ATOM      6  C   UNL     1     -44.400  30.080   2.377  1.00  0.00     0.000 C 
BRANCH   6   7
ATOM      7  C   UNL     1     -45.186  29.076   3.231  1.00  0.00     0.000 C 
BRANCH   7   8
ATOM      8  C   UNL     1     -46.635  29.545   3.432  1.00  0.00     0.000 C 
BRANCH   8   9
ATOM      9  C   UNL     1     -47.088  29.487   4.903  1.00  0.00     0.000 C 
BRANCH   9  10
ATOM     10  C   UNL     1     -45.972  29.177   5.921  1.00  0.00     0.000 C 
BRANCH  10  11
ATOM     11  C   UNL     1     -45.983  27.716   6.399  1.00  0.00     0.000 C 
BRANCH  11  12
ATOM     12  C   UNL     1     -44.769  26.911   5.899  1.00  0.00     0.000 C 
BRANCH  12  13
ATOM     13  C   UNL     1     -43.483  27.071   6.737  1.00  0.00     0.006 C 
BRANCH  13  14
ATOM     14  C   UNL     1     -42.733  28.393   6.514  1.00  0.00     0.053 C 
BRANCH  14  15
ATOM     15  C   UNL     1     -42.718  29.247   7.745  1.00  0.00     0.041 C 
ATOM     16  O   UNL     1     -41.763  30.037   7.958  1.00  0.00    -0.550 OA
ATOM     17  O   UNL     1     -43.783  29.202   8.635  1.00  0.00    -0.550 OA
ENDBRANCH  14  15
ENDBRANCH  13  14
ENDBRANCH  12  13
ENDBRANCH  11  12
ENDBRANCH  10  11
ENDBRANCH   9  10
ENDBRANCH   8   9
ENDBRANCH   7   8
ENDBRANCH   6   7
ENDBRANCH   5   6
ENDBRANCH   4   5
ENDBRANCH   3   4
ENDBRANCH   2   3
ENDBRANCH   1   2
BRANCH   1  18
ATOM     18  C   UNL     1     -43.517  26.772   0.136  1.00  0.00     0.000 C 
BRANCH  18  19
ATOM     19  C   UNL     1     -44.888  27.334  -0.288  1.00  0.00     0.000 C 
BRANCH  19  20
ATOM     20  C   UNL     1     -45.793  26.349  -1.051  1.00  0.00     0.000 C 
BRANCH  20  21
ATOM     21  C   UNL     1     -46.996  26.992  -1.768  1.00  0.00     0.000 C 
BRANCH  21  22
ATOM     22  C   UNL     1     -47.113  26.571  -3.240  1.00  0.00     0.000 C 
BRANCH  22  23
ATOM     23  C   UNL     1     -46.117  27.347  -4.112  1.00  0.00     0.000 C 
BRANCH  23  24
ATOM     24  C   UNL     1     -45.511  28.527  -3.344  1.00  0.00    -0.000 C 
BRANCH  24  25
ATOM     25  C   UNL     1     -45.648  29.830  -4.147  1.00  0.00    -0.000 C 
BRANCH  25  26
ATOM     26  C   UNL     1     -47.062  30.027  -4.716  1.00  0.00    -0.000 C 
BRANCH  26  27
ATOM     27  C   UNL     1     -47.117  29.838  -6.242  1.00  0.00    -0.000 C 
BRANCH  27  28
ATOM     28  C   UNL     1     -45.748  30.069  -6.903  1.00  0.00    -0.000 C 
BRANCH  28  29
ATOM     29  C   UNL     1     -45.237  28.825  -7.652  1.00  0.00    -0.000 C 
BRANCH  29  30
ATOM     30  C   UNL     1     -45.486  27.527  -6.857  1.00  0.00    -0.000 C 
BRANCH  30  31
ATOM     31  C   UNL     1     -45.842  26.323  -7.747  1.00  0.00    -0.003 C 
ATOM     32  C   UNL     1     -47.125  26.530  -8.550  1.00  0.00     0.004 C 
ENDBRANCH  30  31
ENDBRANCH  29  30
ENDBRANCH  28  29
ENDBRANCH  27  28
ENDBRANCH  26  27
ENDBRANCH  25  26
ENDBRANCH  24  25
ENDBRANCH  23  24
ENDBRANCH  22  23
ENDBRANCH  21  22
ENDBRANCH  20  21
ENDBRANCH  19  20
ENDBRANCH  18  19
ENDBRANCH   1  18
TORSDOF 28
ENDMDL
