MODEL 1
REMARK VINA RESULT:    -4.261      0.000      0.000
REMARK INTER + INTRA:          -4.649
REMARK INTER:                  -4.635
REMARK INTRA:                  -0.014
REMARK UNBOUND:                -0.014
REMARK SMILES OCc1ccco1
REMARK SMILES IDX 2 1 3 2 5 3 6 4 4 5 7 6 1 7
REMARK H PARENT 1 8
REMARK Flexibility Score: inf
ROOT
ATOM      1  C   UNL     1      24.841  12.309  16.127  1.00  0.00     0.231 C 
ENDROOT
BRANCH   1   2
ATOM      2  C   UNL     1      25.530  12.799  17.361  1.00  0.00     0.129 A 
ATOM      3  C   UNL     1      26.319  14.090  18.953  1.00  0.00     0.042 A 
ATOM      4  C   UNL     1      26.575  12.759  19.218  1.00  0.00     0.195 A 
ATOM      5  C   UNL     1      25.640  14.117  17.753  1.00  0.00     0.048 A 
ATOM      6  O   UNL     1      26.089  12.014  18.252  1.00  0.00    -0.467 OA
ENDBRANCH   1   2
BRANCH   1   7
ATOM      7  O   UNL     1      23.471  12.592  16.197  1.00  0.00    -0.388 OA
ATOM      8  H   UNL     1      23.020  11.963  15.575  1.00  0.00     0.211 HD
ENDBRANCH   1   7
TORSDOF 2
ENDMDL
MODEL 2
REMARK VINA RESULT:    -4.026      1.334      3.029
REMARK INTER + INTRA:          -4.393
REMARK INTER:                  -4.373
REMARK INTRA:                  -0.020
REMARK UNBOUND:                -0.014
REMARK SMILES OCc1ccco1
REMARK SMILES IDX 2 1 3 2 5 3 6 4 4 5 7 6 1 7
REMARK H PARENT 1 8
REMARK Flexibility Score: inf
ROOT
ATOM      1  C   UNL     1      26.786  12.684  19.136  1.00  0.00     0.231 C 
ENDROOT
BRANCH   1   2
ATOM      2  C   UNL     1      25.996  12.643  17.867  1.00  0.00     0.129 A 
ATOM      3  C   UNL     1      24.810  13.225  16.112  1.00  0.00     0.042 A 
ATOM      4  C   UNL     1      25.105  11.876  16.089  1.00  0.00     0.195 A 
ATOM      5  C   UNL     1      25.389  13.724  17.260  1.00  0.00     0.048 A 
ATOM      6  O   UNL     1      25.816  11.561  17.147  1.00  0.00    -0.467 OA
ENDBRANCH   1   2
BRANCH   1   7
ATOM      7  O   UNL     1      26.791  11.421  19.740  1.00  0.00    -0.388 OA
ATOM      8  H   UNL     1      26.748  10.755  19.004  1.00  0.00     0.211 HD
ENDBRANCH   1   7
TORSDOF 2
ENDMDL
MODEL 3
REMARK VINA RESULT:    -3.754     17.876     18.904
REMARK INTER + INTRA:          -4.096
REMARK INTER:                  -4.080
REMARK INTRA:                  -0.016
REMARK UNBOUND:                -0.014
REMARK SMILES OCc1ccco1
REMARK SMILES IDX 2 1 3 2 5 3 6 4 4 5 7 6 1 7
REMARK H PARENT 1 8
REMARK Flexibility Score: inf
ROOT
ATOM      1  C   UNL     1      17.875  -5.334  13.726  1.00  0.00     0.231 C 
ENDROOT
BRANCH   1   2
ATOM      2  C   UNL     1      18.910  -4.654  14.564  1.00  0.00     0.129 A 
ATOM      3  C   UNL     1      20.314  -4.166  16.181  1.00  0.00     0.042 A 
ATOM      4  C   UNL     1      20.415  -3.260  15.144  1.00  0.00     0.195 A 
ATOM      5  C   UNL     1      19.343  -5.071  15.806  1.00  0.00     0.048 A 
ATOM      6  O   UNL     1      19.568  -3.580  14.193  1.00  0.00    -0.467 OA
ENDBRANCH   1   2
BRANCH   1   7
ATOM      7  O   UNL     1      18.459  -5.835  12.555  1.00  0.00    -0.388 OA
ATOM      8  H   UNL     1      18.714  -6.775  12.746  1.00  0.00     0.211 HD
ENDBRANCH   1   7
TORSDOF 2
ENDMDL
MODEL 4
REMARK VINA RESULT:    -3.597     17.808     18.965
REMARK INTER + INTRA:          -3.926
REMARK INTER:                  -3.913
REMARK INTRA:                  -0.014
REMARK UNBOUND:                -0.014
REMARK SMILES OCc1ccco1
REMARK SMILES IDX 2 1 3 2 5 3 6 4 4 5 7 6 1 7
REMARK H PARENT 1 8
REMARK Flexibility Score: inf
ROOT
ATOM      1  C   UNL     1      20.501  -3.555  16.594  1.00  0.00     0.231 C 
ENDROOT
BRANCH   1   2
ATOM      2  C   UNL     1      19.660  -4.414  15.704  1.00  0.00     0.129 A 
ATOM      3  C   UNL     1      18.532  -6.106  14.873  1.00  0.00     0.042 A 
ATOM      4  C   UNL     1      18.400  -4.982  14.081  1.00  0.00     0.195 A 
ATOM      5  C   UNL     1      19.344  -5.739  15.926  1.00  0.00     0.048 A 
ATOM      6  O   UNL     1      19.082  -3.989  14.605  1.00  0.00    -0.467 OA
ENDBRANCH   1   2
BRANCH   1   7
ATOM      7  O   UNL     1      19.770  -3.177  17.727  1.00  0.00    -0.388 OA
ATOM      8  H   UNL     1      19.785  -3.954  18.346  1.00  0.00     0.211 HD
ENDBRANCH   1   7
TORSDOF 2
ENDMDL
MODEL 5
REMARK VINA RESULT:    -3.586     17.032     17.836
REMARK INTER + INTRA:          -3.914
REMARK INTER:                  -3.893
REMARK INTRA:                  -0.021
REMARK UNBOUND:                -0.014
REMARK SMILES OCc1ccco1
REMARK SMILES IDX 2 1 3 2 5 3 6 4 4 5 7 6 1 7
REMARK H PARENT 1 8
REMARK Flexibility Score: inf
ROOT
ATOM      1  C   UNL     1      20.153  -2.341  13.288  1.00  0.00     0.231 C 
ENDROOT
BRANCH   1   2
ATOM      2  C   UNL     1      19.979  -3.310  14.414  1.00  0.00     0.129 A 
ATOM      3  C   UNL     1      20.182  -4.355  16.335  1.00  0.00     0.042 A 
ATOM      4  C   UNL     1      19.174  -4.909  15.571  1.00  0.00     0.195 A 
ATOM      5  C   UNL     1      20.702  -3.318  15.590  1.00  0.00     0.048 A 
ATOM      6  O   UNL     1      19.075  -4.262  14.432  1.00  0.00    -0.467 OA
ENDBRANCH   1   2
BRANCH   1   7
ATOM      7  O   UNL     1      19.012  -2.337  12.477  1.00  0.00    -0.388 OA
ATOM      8  H   UNL     1      19.157  -3.029  11.780  1.00  0.00     0.211 HD
ENDBRANCH   1   7
TORSDOF 2
ENDMDL
MODEL 6
REMARK VINA RESULT:    -3.420      1.543      2.171
REMARK INTER + INTRA:          -3.734
REMARK INTER:                  -3.718
REMARK INTRA:                  -0.015
REMARK UNBOUND:                -0.014
REMARK SMILES OCc1ccco1
REMARK SMILES IDX 2 1 3 2 5 3 6 4 4 5 7 6 1 7
REMARK H PARENT 1 8
REMARK Flexibility Score: inf
ROOT
ATOM      1  C   UNL     1      25.619  11.050  17.114  1.00  0.00     0.231 C 
ENDROOT
BRANCH   1   2
ATOM      2  C   UNL     1      25.960  12.159  18.057  1.00  0.00     0.129 A 
ATOM      3  C   UNL     1      26.799  13.311  19.729  1.00  0.00     0.042 A 
ATOM      4  C   UNL     1      26.082  14.125  18.874  1.00  0.00     0.195 A 
ATOM      5  C   UNL     1      26.724  12.040  19.200  1.00  0.00     0.048 A 
ATOM      6  O   UNL     1      25.597  13.409  17.885  1.00  0.00    -0.467 OA
ENDBRANCH   1   2
BRANCH   1   7
ATOM      7  O   UNL     1      25.706   9.816  17.772  1.00  0.00    -0.388 OA
ATOM      8  H   UNL     1      25.109   9.874  18.563  1.00  0.00     0.211 HD
ENDBRANCH   1   7
TORSDOF 2
ENDMDL
MODEL 7
REMARK VINA RESULT:    -3.266      2.008      3.248
REMARK INTER + INTRA:          -3.566
REMARK INTER:                  -3.546
REMARK INTRA:                  -0.020
REMARK UNBOUND:                -0.014
REMARK SMILES OCc1ccco1
REMARK SMILES IDX 2 1 3 2 5 3 6 4 4 5 7 6 1 7
REMARK H PARENT 1 8
REMARK Flexibility Score: inf
ROOT
ATOM      1  C   UNL     1      26.875  10.770  19.490  1.00  0.00     0.231 C 
ENDROOT
BRANCH   1   2
ATOM      2  C   UNL     1      26.429  12.045  18.848  1.00  0.00     0.129 A 
ATOM      3  C   UNL     1      25.549  13.501  17.459  1.00  0.00     0.042 A 
ATOM      4  C   UNL     1      26.038  14.125  18.590  1.00  0.00     0.195 A 
ATOM      5  C   UNL     1      25.798  12.155  17.626  1.00  0.00     0.048 A 
ATOM      6  O   UNL     1      26.553  13.229  19.401  1.00  0.00    -0.467 OA
ENDBRANCH   1   2
BRANCH   1   7
ATOM      7  O   UNL     1      27.960  11.015  20.341  1.00  0.00    -0.388 OA
ATOM      8  H   UNL     1      27.958  10.289  21.018  1.00  0.00     0.211 HD
ENDBRANCH   1   7
TORSDOF 2
ENDMDL
MODEL 8
REMARK VINA RESULT:    -2.837      8.976      9.719
REMARK INTER + INTRA:          -3.100
REMARK INTER:                  -3.084
REMARK INTRA:                  -0.016
REMARK UNBOUND:                -0.014
REMARK SMILES OCc1ccco1
REMARK SMILES IDX 2 1 3 2 5 3 6 4 4 5 7 6 1 7
REMARK H PARENT 1 8
REMARK Flexibility Score: inf
ROOT
ATOM      1  C   UNL     1      20.003  10.073  10.293  1.00  0.00     0.231 C 
ENDROOT
BRANCH   1   2
ATOM      2  C   UNL     1      20.530   8.726  10.671  1.00  0.00     0.129 A 
ATOM      3  C   UNL     1      21.853   7.090  11.302  1.00  0.00     0.042 A 
ATOM      4  C   UNL     1      20.553   6.648  11.148  1.00  0.00     0.195 A 
ATOM      5  C   UNL     1      21.839   8.434  10.997  1.00  0.00     0.048 A 
ATOM      6  O   UNL     1      19.788   7.648  10.775  1.00  0.00    -0.467 OA
ENDBRANCH   1   2
BRANCH   1   7
ATOM      7  O   UNL     1      20.897  11.071  10.702  1.00  0.00    -0.388 OA
ATOM      8  H   UNL     1      21.624  10.613  11.199  1.00  0.00     0.211 HD
ENDBRANCH   1   7
TORSDOF 2
ENDMDL
