MODEL 1
REMARK VINA RESULT:     7.000      0.000      0.000
REMARK INTER + INTRA:           8.349
REMARK INTER:                   7.819
REMARK INTRA:                   0.531
REMARK UNBOUND:                 0.531
REMARK SMILES C=C(C)[C@@H]1CC[C@]2(C(=O)[O-])CC[C@@]3(C)[C@@H](CC[C@@H]4[C@]5(C)CCC(=O)C(C)(C)[C@@H]5CC[C@@]43C)[C@H]12
REMARK SMILES IDX 7 1 6 2 33 3 11 4 5 5 15 6 4 7 12 8 16 9 13 10 17 11 31 12
REMARK SMILES IDX 14 13 18 14 30 15 32 16 19 17 29 18 21 19 20 20 28 21 22 22
REMARK SMILES IDX 25 23 23 24 26 25 27 26 24 27 8 28 9 29 10 30 2 31 3 32 1 33
REMARK H PARENT
REMARK Flexibility Score: inf
ROOT
ATOM      1  C   UNL     1     -12.470  15.351 -32.024  1.00  0.00     0.014 C 
ATOM      2  C   UNL     1     -11.415  15.778 -30.963  1.00  0.00     0.014 C 
ATOM      3  C   UNL     1     -12.855  13.886 -31.613  1.00  0.00     0.012 C 
ATOM      4  C   UNL     1     -13.658  16.340 -32.086  1.00  0.00     0.014 C 
ATOM      5  C   UNL     1     -10.880  14.500 -30.318  1.00  0.00     0.009 C 
ATOM      6  C   UNL     1     -13.997  13.783 -30.514  1.00  0.00     0.000 C 
ATOM      7  C   UNL     1     -11.476  13.354 -31.137  1.00  0.00     0.018 C 
ATOM      8  C   UNL     1     -14.634  16.193 -30.925  1.00  0.00     0.008 C 
ATOM      9  C   UNL     1     -14.481  12.318 -30.351  1.00  0.00     0.005 C 
ATOM     10  C   UNL     1     -15.209  14.746 -30.745  1.00  0.00    -0.024 C 
ATOM     11  C   UNL     1     -15.905  12.107 -29.808  1.00  0.00     0.005 C 
ATOM     12  C   UNL     1     -16.214  14.685 -29.454  1.00  0.00    -0.024 C 
ATOM     13  C   UNL     1     -15.914  14.372 -32.097  1.00  0.00     0.012 C 
ATOM     14  C   UNL     1     -16.411  13.210 -28.850  1.00  0.00     0.002 C 
ATOM     15  C   UNL     1     -17.603  15.320 -29.799  1.00  0.00     0.008 C 
ATOM     16  C   UNL     1     -15.613  15.565 -28.297  1.00  0.00     0.012 C 
ATOM     17  C   UNL     1     -17.867  12.891 -28.205  1.00  0.00    -0.025 C 
ATOM     18  C   UNL     1     -18.643  14.298 -30.260  1.00  0.00     0.006 C 
ATOM     19  C   UNL     1     -18.007  11.364 -27.877  1.00  0.00     0.015 C 
ATOM     20  C   UNL     1     -17.949  13.619 -26.824  1.00  0.00     0.012 C 
ATOM     21  C   UNL     1     -19.094  13.400 -29.093  1.00  0.00     0.008 C 
ATOM     22  C   UNL     1     -19.395  10.939 -27.402  1.00  0.00     0.077 C 
ATOM     23  C   UNL     1     -20.188  12.328 -29.517  1.00  0.00     0.027 C 
ATOM     24  C   UNL     1     -20.467  11.371 -28.357  1.00  0.00     0.138 C 
ATOM     25  C   UNL     1     -19.781  11.498 -30.757  1.00  0.00     0.020 C 
ATOM     26  C   UNL     1     -21.517  13.056 -29.872  1.00  0.00     0.020 C 
ATOM     27  O   UNL     1     -21.580  10.884 -28.217  1.00  0.00    -0.299 OA
ENDROOT
BRANCH   1  28
ATOM     28  C   UNL     1     -11.814  15.391 -33.405  1.00  0.00     0.048 C 
ATOM     29  O   UNL     1     -11.194  16.412 -33.810  1.00  0.00    -0.550 OA
ATOM     30  O   UNL     1     -11.818  14.254 -34.207  1.00  0.00    -0.550 OA
ENDBRANCH   1  28
BRANCH   7  31
ATOM     31  C   UNL     1     -11.420  11.950 -30.541  1.00  0.00    -0.077 C 
ATOM     32  C   UNL     1     -11.980  11.737 -29.157  1.00  0.00     0.039 C 
ATOM     33  C   UNL     1     -10.953  10.877 -31.205  1.00  0.00     0.008 C 
ENDBRANCH   7  31
TORSDOF 2
ENDMDL
