MODEL 1
REMARK VINA RESULT:    -5.513      0.000      0.000
REMARK INTER + INTRA:          -5.783
REMARK INTER:                  -5.996
REMARK INTRA:                   0.213
REMARK UNBOUND:                 0.213
REMARK SMILES CC1(C)CC[C@@]2(C(=O)[O-])CC[C@]3(C)C(=CC[C@@H]4[C@]5(C)CC[C@@H](O)C(C)(C)[C@@H]5CC[C@@]43C)[C@@H]2C1
REMARK SMILES IDX 6 1 5 2 10 3 32 4 4 5 11 6 14 7 33 8 2 9 12 10 15 11 1 12
REMARK SMILES IDX 3 13 13 14 30 15 16 16 17 17 29 18 31 19 18 20 28 21 27 22
REMARK SMILES IDX 20 23 19 24 24 25 21 26 22 27 25 28 26 29 7 30 8 31 9 32
REMARK SMILES IDX 23 33
REMARK H PARENT 23 34
REMARK Flexibility Score: inf
ROOT
ATOM      1  C   UNL     1       7.233   8.413 -15.431  1.00  0.00     0.017 C 
ATOM      2  C   UNL     1       5.907   8.087 -14.692  1.00  0.00     0.014 C 
ATOM      3  C   UNL     1       6.923   8.723 -16.902  1.00  0.00     0.014 C 
ATOM      4  C   UNL     1       7.829   9.702 -14.799  1.00  0.00     0.028 C 
ATOM      5  C   UNL     1       6.138   7.840 -13.191  1.00  0.00     0.007 C 
ATOM      6  C   UNL     1       8.211   8.956 -17.699  1.00  0.00     0.013 C 
ATOM      7  C   UNL     1       8.976  10.335 -15.618  1.00  0.00    -0.064 C 
ATOM      8  C   UNL     1       8.118   9.473 -13.280  1.00  0.00     0.015 C 
ATOM      9  C   UNL     1       6.858   9.018 -12.480  1.00  0.00    -0.035 C 
ATOM     10  C   UNL     1       9.203  10.057 -17.134  1.00  0.00    -0.006 C 
ATOM     11  C   UNL     1       9.602  11.406 -15.085  1.00  0.00    -0.027 C 
ATOM     12  C   UNL     1       7.311   8.544 -11.082  1.00  0.00     0.011 C 
ATOM     13  C   UNL     1       5.880  10.201 -12.281  1.00  0.00     0.011 C 
ATOM     14  C   UNL     1      10.638   9.451 -17.303  1.00  0.00     0.017 C 
ATOM     15  C   UNL     1       9.089  11.454 -17.945  1.00  0.00    -0.020 C 
ATOM     16  C   UNL     1      10.538  12.256 -15.874  1.00  0.00     0.032 C 
ATOM     17  C   UNL     1       9.966  12.619 -17.281  1.00  0.00     0.006 C 
ATOM     18  C   UNL     1       7.614  11.918 -17.967  1.00  0.00     0.008 C 
ATOM     19  C   UNL     1       9.555  11.248 -19.430  1.00  0.00     0.012 C 
ATOM     20  C   UNL     1       9.359  14.111 -17.310  1.00  0.00    -0.025 C 
ATOM     21  C   UNL     1       7.361  13.233 -18.714  1.00  0.00     0.005 C 
ATOM     22  C   UNL     1       8.454  14.345 -18.581  1.00  0.00     0.003 C 
ATOM     23  C   UNL     1       8.532  14.454 -16.017  1.00  0.00     0.010 C 
ATOM     24  C   UNL     1      10.604  15.054 -17.365  1.00  0.00     0.012 C 
ATOM     25  C   UNL     1       7.845  15.825 -18.711  1.00  0.00    -0.006 C 
ATOM     26  C   UNL     1       7.305  15.370 -16.218  1.00  0.00     0.033 C 
ATOM     27  C   UNL     1       7.484  16.441 -17.302  1.00  0.00     0.120 C 
ATOM     28  C   UNL     1       8.833  16.746 -19.494  1.00  0.00     0.014 C 
ATOM     29  C   UNL     1       6.554  15.847 -19.591  1.00  0.00     0.014 C 
ENDROOT
BRANCH   1  30
ATOM     30  C   UNL     1       8.153   7.192 -15.353  1.00  0.00     0.048 C 
ATOM     31  O   UNL     1       9.323   7.314 -14.901  1.00  0.00    -0.550 OA
ATOM     32  O   UNL     1       7.708   5.924 -15.705  1.00  0.00    -0.550 OA
ENDBRANCH   1  30
BRANCH  27  33
ATOM     33  O   UNL     1       8.433  17.379 -16.855  1.00  0.00    -0.393 OA
ATOM     34  H   UNL     1       8.816  17.033 -16.006  1.00  0.00     0.210 HD
ENDBRANCH  27  33
TORSDOF 2
ENDMDL
MODEL 2
REMARK VINA RESULT:    -5.113      1.437      7.767
REMARK INTER + INTRA:          -5.349
REMARK INTER:                  -5.551
REMARK INTRA:                   0.202
REMARK UNBOUND:                 0.213
REMARK SMILES CC1(C)CC[C@@]2(C(=O)[O-])CC[C@]3(C)C(=CC[C@@H]4[C@]5(C)CC[C@@H](O)C(C)(C)[C@@H]5CC[C@@]43C)[C@@H]2C1
REMARK SMILES IDX 6 1 5 2 10 3 32 4 4 5 11 6 14 7 33 8 2 9 12 10 15 11 1 12
REMARK SMILES IDX 3 13 13 14 30 15 16 16 17 17 29 18 31 19 18 20 28 21 27 22
REMARK SMILES IDX 20 23 19 24 24 25 21 26 22 27 25 28 26 29 7 30 8 31 9 32
REMARK SMILES IDX 23 33
REMARK H PARENT 23 34
REMARK Flexibility Score: inf
ROOT
ATOM      1  C   UNL     1       7.783  15.684 -17.904  1.00  0.00     0.017 C 
ATOM      2  C   UNL     1       6.728  15.996 -18.999  1.00  0.00     0.014 C 
ATOM      3  C   UNL     1       7.061  15.408 -16.577  1.00  0.00     0.014 C 
ATOM      4  C   UNL     1       8.524  14.380 -18.310  1.00  0.00     0.028 C 
ATOM      5  C   UNL     1       7.382  16.209 -20.375  1.00  0.00     0.007 C 
ATOM      6  C   UNL     1       8.064  15.190 -15.440  1.00  0.00     0.013 C 
ATOM      7  C   UNL     1       9.383  13.763 -17.184  1.00  0.00    -0.064 C 
ATOM      8  C   UNL     1       9.239  14.574 -19.687  1.00  0.00     0.015 C 
ATOM      9  C   UNL     1       8.266  15.013 -20.824  1.00  0.00    -0.035 C 
ATOM     10  C   UNL     1       9.167  14.074 -15.672  1.00  0.00    -0.006 C 
ATOM     11  C   UNL     1      10.126  12.679 -17.493  1.00  0.00    -0.027 C 
ATOM     12  C   UNL     1       9.105  15.456 -22.043  1.00  0.00     0.011 C 
ATOM     13  C   UNL     1       7.376  13.829 -21.272  1.00  0.00     0.011 C 
ATOM     14  C   UNL     1      10.498  14.681 -15.112  1.00  0.00     0.017 C 
ATOM     15  C   UNL     1       8.813  12.696 -14.900  1.00  0.00    -0.020 C 
ATOM     16  C   UNL     1      10.789  11.845 -16.450  1.00  0.00     0.032 C 
ATOM     17  C   UNL     1       9.834  11.514 -15.260  1.00  0.00     0.006 C 
ATOM     18  C   UNL     1       7.390  12.236 -15.292  1.00  0.00     0.008 C 
ATOM     19  C   UNL     1       8.835  12.934 -13.348  1.00  0.00     0.012 C 
ATOM     20  C   UNL     1       9.231  10.025 -15.374  1.00  0.00    -0.025 C 
ATOM     21  C   UNL     1       6.922  10.939 -14.623  1.00  0.00     0.005 C 
ATOM     22  C   UNL     1       7.997   9.822 -14.413  1.00  0.00     0.003 C 
ATOM     23  C   UNL     1       8.807   9.655 -16.844  1.00  0.00     0.010 C 
ATOM     24  C   UNL     1      10.400   9.081 -14.945  1.00  0.00     0.012 C 
ATOM     25  C   UNL     1       7.365   8.346 -14.432  1.00  0.00    -0.006 C 
ATOM     26  C   UNL     1       7.567   8.747 -16.984  1.00  0.00     0.033 C 
ATOM     27  C   UNL     1       7.418   7.699 -15.873  1.00  0.00     0.120 C 
ATOM     28  C   UNL     1       8.078   7.441 -13.379  1.00  0.00     0.014 C 
ATOM     29  C   UNL     1       5.875   8.347 -13.960  1.00  0.00     0.014 C 
ENDROOT
BRANCH   1  30
ATOM     30  C   UNL     1       8.697  16.901 -17.740  1.00  0.00     0.048 C 
ATOM     31  O   UNL     1       9.944  16.774 -17.874  1.00  0.00    -0.550 OA
ATOM     32  O   UNL     1       8.182  18.171 -17.513  1.00  0.00    -0.550 OA
ENDBRANCH   1  30
BRANCH  27  33
ATOM     33  O   UNL     1       8.448   6.749 -16.008  1.00  0.00    -0.393 OA
ATOM     34  H   UNL     1       8.020   5.875 -16.207  1.00  0.00     0.210 HD
ENDBRANCH  27  33
TORSDOF 2
ENDMDL
MODEL 3
REMARK VINA RESULT:    -3.871      1.971      7.723
REMARK INTER + INTRA:          -3.998
REMARK INTER:                  -5.224
REMARK INTRA:                   1.226
REMARK UNBOUND:                 0.213
REMARK SMILES CC1(C)CC[C@@]2(C(=O)[O-])CC[C@]3(C)C(=CC[C@@H]4[C@]5(C)CC[C@@H](O)C(C)(C)[C@@H]5CC[C@@]43C)[C@@H]2C1
REMARK SMILES IDX 6 1 5 2 10 3 32 4 4 5 11 6 14 7 33 8 2 9 12 10 15 11 1 12
REMARK SMILES IDX 3 13 13 14 30 15 16 16 17 17 29 18 31 19 18 20 28 21 27 22
REMARK SMILES IDX 20 23 19 24 24 25 21 26 22 27 25 28 26 29 7 30 8 31 9 32
REMARK SMILES IDX 23 33
REMARK H PARENT 23 34
REMARK Flexibility Score: inf
ROOT
ATOM      1  C   UNL     1       8.862  16.450 -19.016  1.00  0.00     0.017 C 
ATOM      2  C   UNL     1       9.382  17.674 -18.216  1.00  0.00     0.014 C 
ATOM      3  C   UNL     1       9.983  15.406 -19.118  1.00  0.00     0.014 C 
ATOM      4  C   UNL     1       7.700  15.808 -18.209  1.00  0.00     0.028 C 
ATOM      5  C   UNL     1       8.281  18.729 -18.012  1.00  0.00     0.007 C 
ATOM      6  C   UNL     1       9.552  14.217 -19.984  1.00  0.00     0.013 C 
ATOM      7  C   UNL     1       7.282  14.406 -18.707  1.00  0.00    -0.064 C 
ATOM      8  C   UNL     1       6.541  16.840 -18.019  1.00  0.00     0.015 C 
ATOM      9  C   UNL     1       7.006  18.160 -17.331  1.00  0.00    -0.035 C 
ATOM     10  C   UNL     1       8.203  13.492 -19.569  1.00  0.00    -0.006 C 
ATOM     11  C   UNL     1       6.219  13.826 -18.110  1.00  0.00    -0.027 C 
ATOM     12  C   UNL     1       5.875  19.204 -17.459  1.00  0.00     0.011 C 
ATOM     13  C   UNL     1       7.264  17.930 -15.822  1.00  0.00     0.011 C 
ATOM     14  C   UNL     1       7.460  13.194 -20.916  1.00  0.00     0.017 C 
ATOM     15  C   UNL     1       8.474  12.114 -18.764  1.00  0.00    -0.020 C 
ATOM     16  C   UNL     1       5.875  12.391 -18.316  1.00  0.00     0.032 C 
ATOM     17  C   UNL     1       7.124  11.460 -18.201  1.00  0.00     0.006 C 
ATOM     18  C   UNL     1       9.409  12.393 -17.564  1.00  0.00     0.008 C 
ATOM     19  C   UNL     1       9.189  11.079 -19.705  1.00  0.00     0.012 C 
ATOM     20  C   UNL     1       7.197  10.733 -16.766  1.00  0.00    -0.025 C 
ATOM     21  C   UNL     1       9.755  11.165 -16.715  1.00  0.00     0.005 C 
ATOM     22  C   UNL     1       8.621  10.108 -16.502  1.00  0.00     0.003 C 
ATOM     23  C   UNL     1       6.829  11.698 -15.579  1.00  0.00     0.010 C 
ATOM     24  C   UNL     1       6.123   9.600 -16.831  1.00  0.00     0.012 C 
ATOM     25  C   UNL     1       8.764   9.322 -15.108  1.00  0.00    -0.006 C 
ATOM     26  C   UNL     1       7.595  11.473 -14.258  1.00  0.00     0.033 C 
ATOM     27  C   UNL     1       7.923  10.004 -13.957  1.00  0.00     0.120 C 
ATOM     28  C   UNL     1       8.363   7.826 -15.291  1.00  0.00     0.014 C 
ATOM     29  C   UNL     1      10.252   9.245 -14.637  1.00  0.00     0.014 C 
ENDROOT
BRANCH   1  30
ATOM     30  C   UNL     1       8.470  16.912 -20.422  1.00  0.00     0.048 C 
ATOM     31  O   UNL     1       7.528  17.735 -20.574  1.00  0.00    -0.550 OA
ATOM     32  O   UNL     1       9.175  16.498 -21.545  1.00  0.00    -0.550 OA
ENDBRANCH   1  30
BRANCH  27  33
ATOM     33  O   UNL     1       6.725   9.323 -13.678  1.00  0.00    -0.393 OA
ATOM     34  H   UNL     1       5.976   9.940 -13.890  1.00  0.00     0.210 HD
ENDBRANCH  27  33
TORSDOF 2
ENDMDL
