MODEL 1
REMARK VINA RESULT:    -4.230      0.000      0.000
REMARK INTER + INTRA:          -6.265
REMARK INTER:                  -5.961
REMARK INTRA:                  -0.303
REMARK UNBOUND:                -0.303
REMARK SMILES CCCCCCCCC(=O)[O-]
REMARK SMILES IDX 6 1 7 2 8 3 9 4 10 5 11 6 5 7 4 8 3 9 2 10 1 11
REMARK H PARENT
REMARK Flexibility Score: inf
ROOT
ATOM      1  C   UNL     1      11.757  40.576  -0.061  1.00  0.00     0.000 C 
ENDROOT
BRANCH   1   2
ATOM      2  C   UNL     1      11.164  41.926  -0.502  1.00  0.00     0.006 C 
BRANCH   2   3
ATOM      3  C   UNL     1       9.682  41.864  -0.905  1.00  0.00     0.053 C 
BRANCH   3   4
ATOM      4  C   UNL     1       9.215  43.146  -1.522  1.00  0.00     0.041 C 
ATOM      5  O   UNL     1       9.871  43.675  -2.458  1.00  0.00    -0.550 OA
ATOM      6  O   UNL     1       8.073  43.774  -1.043  1.00  0.00    -0.550 OA
ENDBRANCH   3   4
ENDBRANCH   2   3
ENDBRANCH   1   2
BRANCH   1   7
ATOM      7  C   UNL     1      11.682  40.360   1.458  1.00  0.00     0.000 C 
BRANCH   7   8
ATOM      8  C   UNL     1      10.970  39.042   1.790  1.00  0.00    -0.000 C 
BRANCH   8   9
ATOM      9  C   UNL     1       9.696  38.878   0.950  1.00  0.00    -0.000 C 
BRANCH   9  10
ATOM     10  C   UNL     1       8.914  37.604   1.303  1.00  0.00    -0.003 C 
ATOM     11  C   UNL     1       9.542  36.341   0.716  1.00  0.00     0.004 C 
ENDBRANCH   9  10
ENDBRANCH   8   9
ENDBRANCH   7   8
ENDBRANCH   1   7
TORSDOF 7
ENDMDL
MODEL 2
REMARK VINA RESULT:    -3.983      2.981      4.993
REMARK INTER + INTRA:          -5.916
REMARK INTER:                  -5.456
REMARK INTRA:                  -0.460
REMARK UNBOUND:                -0.303
REMARK SMILES CCCCCCCCC(=O)[O-]
REMARK SMILES IDX 6 1 7 2 8 3 9 4 10 5 11 6 5 7 4 8 3 9 2 10 1 11
REMARK H PARENT
REMARK Flexibility Score: inf
ROOT
ATOM      1  C   UNL     1      12.618  40.299   1.922  1.00  0.00     0.000 C 
ENDROOT
BRANCH   1   2
ATOM      2  C   UNL     1      11.227  39.652   2.052  1.00  0.00     0.006 C 
BRANCH   2   3
ATOM      3  C   UNL     1      11.178  38.169   1.649  1.00  0.00     0.053 C 
BRANCH   3   4
ATOM      4  C   UNL     1       9.880  37.808   0.996  1.00  0.00     0.041 C 
ATOM      5  O   UNL     1       8.977  38.675   0.857  1.00  0.00    -0.550 OA
ATOM      6  O   UNL     1       9.655  36.506   0.568  1.00  0.00    -0.550 OA
ENDBRANCH   3   4
ENDBRANCH   2   3
ENDBRANCH   1   2
BRANCH   1   7
ATOM      7  C   UNL     1      12.629  41.501   0.966  1.00  0.00     0.000 C 
BRANCH   7   8
ATOM      8  C   UNL     1      11.968  41.143  -0.372  1.00  0.00    -0.000 C 
BRANCH   8   9
ATOM      9  C   UNL     1      11.864  42.376  -1.281  1.00  0.00    -0.000 C 
BRANCH   9  10
ATOM     10  C   UNL     1      10.411  42.721  -1.644  1.00  0.00    -0.003 C 
ATOM     11  C   UNL     1       9.392  41.952  -0.805  1.00  0.00     0.004 C 
ENDBRANCH   9  10
ENDBRANCH   8   9
ENDBRANCH   7   8
ENDBRANCH   1   7
TORSDOF 7
ENDMDL
MODEL 3
REMARK VINA RESULT:    -3.947      3.742      4.732
REMARK INTER + INTRA:          -5.865
REMARK INTER:                  -5.348
REMARK INTRA:                  -0.518
REMARK UNBOUND:                -0.303
REMARK SMILES CCCCCCCCC(=O)[O-]
REMARK SMILES IDX 6 1 7 2 8 3 9 4 10 5 11 6 5 7 4 8 3 9 2 10 1 11
REMARK H PARENT
REMARK Flexibility Score: inf
ROOT
ATOM      1  C   UNL     1      11.978  41.080   1.076  1.00  0.00     0.000 C 
ENDROOT
BRANCH   1   2
ATOM      2  C   UNL     1      11.306  40.018   0.187  1.00  0.00     0.006 C 
BRANCH   2   3
ATOM      3  C   UNL     1       9.904  39.596   0.656  1.00  0.00     0.053 C 
BRANCH   3   4
ATOM      4  C   UNL     1       9.870  38.169   1.108  1.00  0.00     0.041 C 
ATOM      5  O   UNL     1      10.930  37.490   1.144  1.00  0.00    -0.550 OA
ATOM      6  O   UNL     1       8.663  37.578   1.460  1.00  0.00    -0.550 OA
ENDBRANCH   3   4
ENDBRANCH   2   3
ENDBRANCH   1   2
BRANCH   1   7
ATOM      7  C   UNL     1      13.119  40.507   1.929  1.00  0.00     0.000 C 
BRANCH   7   8
ATOM      8  C   UNL     1      12.576  39.862   3.211  1.00  0.00    -0.000 C 
BRANCH   8   9
ATOM      9  C   UNL     1      13.223  38.491   3.453  1.00  0.00    -0.000 C 
BRANCH   9  10
ATOM     10  C   UNL     1      14.742  38.505   3.224  1.00  0.00    -0.003 C 
ATOM     11  C   UNL     1      15.304  37.125   2.887  1.00  0.00     0.004 C 
ENDBRANCH   9  10
ENDBRANCH   8   9
ENDBRANCH   7   8
ENDBRANCH   1   7
TORSDOF 7
ENDMDL
MODEL 4
REMARK VINA RESULT:    -3.891     11.269     12.412
REMARK INTER + INTRA:          -5.787
REMARK INTER:                  -5.143
REMARK INTRA:                  -0.644
REMARK UNBOUND:                -0.303
REMARK SMILES CCCCCCCCC(=O)[O-]
REMARK SMILES IDX 6 1 7 2 8 3 9 4 10 5 11 6 5 7 4 8 3 9 2 10 1 11
REMARK H PARENT
REMARK Flexibility Score: inf
ROOT
ATOM      1  C   UNL     1      10.783  34.175   7.622  1.00  0.00     0.000 C 
ENDROOT
BRANCH   1   2
ATOM      2  C   UNL     1      11.774  33.881   8.763  1.00  0.00     0.006 C 
BRANCH   2   3
ATOM      3  C   UNL     1      12.413  32.483   8.703  1.00  0.00     0.053 C 
BRANCH   3   4
ATOM      4  C   UNL     1      13.461  32.300   9.756  1.00  0.00     0.041 C 
ATOM      5  O   UNL     1      14.670  32.537   9.496  1.00  0.00    -0.550 OA
ATOM      6  O   UNL     1      13.107  31.835  11.016  1.00  0.00    -0.550 OA
ENDBRANCH   3   4
ENDBRANCH   2   3
ENDBRANCH   1   2
BRANCH   1   7
ATOM      7  C   UNL     1       9.345  33.759   7.962  1.00  0.00     0.000 C 
BRANCH   7   8
ATOM      8  C   UNL     1       8.903  32.564   7.106  1.00  0.00    -0.000 C 
BRANCH   8   9
ATOM      9  C   UNL     1       9.935  32.261   6.010  1.00  0.00    -0.000 C 
BRANCH   9  10
ATOM     10  C   UNL     1      10.431  30.808   6.051  1.00  0.00    -0.003 C 
ATOM     11  C   UNL     1       9.870  30.024   7.236  1.00  0.00     0.004 C 
ENDBRANCH   9  10
ENDBRANCH   8   9
ENDBRANCH   7   8
ENDBRANCH   1   7
TORSDOF 7
ENDMDL
MODEL 5
REMARK VINA RESULT:    -3.789      4.052      5.779
REMARK INTER + INTRA:          -5.643
REMARK INTER:                  -5.221
REMARK INTRA:                  -0.423
REMARK UNBOUND:                -0.303
REMARK SMILES CCCCCCCCC(=O)[O-]
REMARK SMILES IDX 6 1 7 2 8 3 9 4 10 5 11 6 5 7 4 8 3 9 2 10 1 11
REMARK H PARENT
REMARK Flexibility Score: inf
ROOT
ATOM      1  C   UNL     1      11.067  39.951   0.656  1.00  0.00     0.000 C 
ENDROOT
BRANCH   1   2
ATOM      2  C   UNL     1      11.079  38.944   1.821  1.00  0.00     0.006 C 
BRANCH   2   3
ATOM      3  C   UNL     1      11.626  39.510   3.141  1.00  0.00     0.053 C 
BRANCH   3   4
ATOM      4  C   UNL     1      12.936  38.890   3.517  1.00  0.00     0.041 C 
ATOM      5  O   UNL     1      13.280  37.785   3.020  1.00  0.00    -0.550 OA
ATOM      6  O   UNL     1      13.763  39.515   4.441  1.00  0.00    -0.550 OA
ENDBRANCH   3   4
ENDBRANCH   2   3
ENDBRANCH   1   2
BRANCH   1   7
ATOM      7  C   UNL     1      12.092  41.081   0.837  1.00  0.00     0.000 C 
BRANCH   7   8
ATOM      8  C   UNL     1      12.092  42.020  -0.377  1.00  0.00    -0.000 C 
BRANCH   8   9
ATOM      9  C   UNL     1      11.132  41.514  -1.464  1.00  0.00    -0.000 C 
BRANCH   9  10
ATOM     10  C   UNL     1      10.129  42.587  -1.912  1.00  0.00    -0.003 C 
ATOM     11  C   UNL     1       8.975  42.769  -0.926  1.00  0.00     0.004 C 
ENDBRANCH   9  10
ENDBRANCH   8   9
ENDBRANCH   7   8
ENDBRANCH   1   7
TORSDOF 7
ENDMDL
MODEL 6
REMARK VINA RESULT:    -3.784      1.438      2.611
REMARK INTER + INTRA:          -5.635
REMARK INTER:                  -5.262
REMARK INTRA:                  -0.373
REMARK UNBOUND:                -0.303
REMARK SMILES CCCCCCCCC(=O)[O-]
REMARK SMILES IDX 6 1 7 2 8 3 9 4 10 5 11 6 5 7 4 8 3 9 2 10 1 11
REMARK H PARENT
REMARK Flexibility Score: inf
ROOT
ATOM      1  C   UNL     1      11.505  40.545  -0.206  1.00  0.00     0.000 C 
ENDROOT
BRANCH   1   2
ATOM      2  C   UNL     1      10.945  41.908  -0.652  1.00  0.00     0.006 C 
BRANCH   2   3
ATOM      3  C   UNL     1       9.410  41.965  -0.734  1.00  0.00     0.053 C 
BRANCH   3   4
ATOM      4  C   UNL     1       8.933  43.191  -1.449  1.00  0.00     0.041 C 
ATOM      5  O   UNL     1       7.892  43.785  -1.062  1.00  0.00    -0.550 OA
ATOM      6  O   UNL     1       9.619  43.660  -2.561  1.00  0.00    -0.550 OA
ENDBRANCH   3   4
ENDBRANCH   2   3
ENDBRANCH   1   2
BRANCH   1   7
ATOM      7  C   UNL     1      10.481  39.707   0.573  1.00  0.00     0.000 C 
BRANCH   7   8
ATOM      8  C   UNL     1      11.055  39.255   1.922  1.00  0.00    -0.000 C 
BRANCH   8   9
ATOM      9  C   UNL     1      12.155  40.214   2.401  1.00  0.00    -0.000 C 
BRANCH   9  10
ATOM     10  C   UNL     1      13.034  39.604   3.502  1.00  0.00    -0.003 C 
ATOM     11  C   UNL     1      13.569  38.220   3.135  1.00  0.00     0.004 C 
ENDBRANCH   9  10
ENDBRANCH   8   9
ENDBRANCH   7   8
ENDBRANCH   1   7
TORSDOF 7
ENDMDL
MODEL 7
REMARK VINA RESULT:    -3.747      8.666      9.348
REMARK INTER + INTRA:          -5.583
REMARK INTER:                  -4.722
REMARK INTRA:                  -0.861
REMARK UNBOUND:                -0.303
REMARK SMILES CCCCCCCCC(=O)[O-]
REMARK SMILES IDX 6 1 7 2 8 3 9 4 10 5 11 6 5 7 4 8 3 9 2 10 1 11
REMARK H PARENT
REMARK Flexibility Score: inf
ROOT
ATOM      1  C   UNL     1       5.648  37.095  -5.914  1.00  0.00     0.000 C 
ENDROOT
BRANCH   1   2
ATOM      2  C   UNL     1       5.435  38.029  -7.120  1.00  0.00     0.006 C 
BRANCH   2   3
ATOM      3  C   UNL     1       5.245  39.509  -6.747  1.00  0.00     0.053 C 
BRANCH   3   4
ATOM      4  C   UNL     1       4.354  40.220  -7.717  1.00  0.00     0.041 C 
ATOM      5  O   UNL     1       4.288  41.478  -7.713  1.00  0.00    -0.550 OA
ATOM      6  O   UNL     1       3.571  39.494  -8.605  1.00  0.00    -0.550 OA
ENDBRANCH   3   4
ENDBRANCH   2   3
ENDBRANCH   1   2
BRANCH   1   7
ATOM      7  C   UNL     1       4.919  37.577  -4.652  1.00  0.00     0.000 C 
BRANCH   7   8
ATOM      8  C   UNL     1       3.482  37.040  -4.609  1.00  0.00    -0.000 C 
BRANCH   8   9
ATOM      9  C   UNL     1       2.466  38.190  -4.580  1.00  0.00    -0.000 C 
BRANCH   9  10
ATOM     10  C   UNL     1       1.575  38.223  -5.832  1.00  0.00    -0.003 C 
ATOM     11  C   UNL     1       1.830  37.045  -6.771  1.00  0.00     0.004 C 
ENDBRANCH   9  10
ENDBRANCH   8   9
ENDBRANCH   7   8
ENDBRANCH   1   7
TORSDOF 7
ENDMDL
MODEL 8
REMARK VINA RESULT:    -3.724      1.840      2.606
REMARK INTER + INTRA:          -5.552
REMARK INTER:                  -5.212
REMARK INTRA:                  -0.340
REMARK UNBOUND:                -0.303
REMARK SMILES CCCCCCCCC(=O)[O-]
REMARK SMILES IDX 6 1 7 2 8 3 9 4 10 5 11 6 5 7 4 8 3 9 2 10 1 11
REMARK H PARENT
REMARK Flexibility Score: inf
ROOT
ATOM      1  C   UNL     1      10.343  41.477  -0.496  1.00  0.00     0.000 C 
ENDROOT
BRANCH   1   2
ATOM      2  C   UNL     1      10.852  42.513  -1.516  1.00  0.00     0.006 C 
BRANCH   2   3
ATOM      3  C   UNL     1      11.570  41.904  -2.731  1.00  0.00     0.053 C 
BRANCH   3   4
ATOM      4  C   UNL     1      11.568  42.833  -3.906  1.00  0.00     0.041 C 
ATOM      5  O   UNL     1      10.799  43.830  -3.925  1.00  0.00    -0.550 OA
ATOM      6  O   UNL     1      12.392  42.579  -4.995  1.00  0.00    -0.550 OA
ENDBRANCH   3   4
ENDBRANCH   2   3
ENDBRANCH   1   2
BRANCH   1   7
ATOM      7  C   UNL     1      11.359  40.359  -0.227  1.00  0.00     0.000 C 
BRANCH   7   8
ATOM      8  C   UNL     1      11.725  40.297   1.262  1.00  0.00    -0.000 C 
BRANCH   8   9
ATOM      9  C   UNL     1      10.982  39.151   1.964  1.00  0.00    -0.000 C 
BRANCH   9  10
ATOM     10  C   UNL     1      10.467  38.090   0.979  1.00  0.00    -0.003 C 
ATOM     11  C   UNL     1       9.015  37.693   1.242  1.00  0.00     0.004 C 
ENDBRANCH   9  10
ENDBRANCH   8   9
ENDBRANCH   7   8
ENDBRANCH   1   7
TORSDOF 7
ENDMDL
MODEL 9
REMARK VINA RESULT:    -3.712      8.025      8.907
REMARK INTER + INTRA:          -5.534
REMARK INTER:                  -5.095
REMARK INTRA:                  -0.439
REMARK UNBOUND:                -0.303
REMARK SMILES CCCCCCCCC(=O)[O-]
REMARK SMILES IDX 6 1 7 2 8 3 9 4 10 5 11 6 5 7 4 8 3 9 2 10 1 11
REMARK H PARENT
REMARK Flexibility Score: inf
ROOT
ATOM      1  C   UNL     1       5.449  36.505  -5.208  1.00  0.00     0.000 C 
ENDROOT
BRANCH   1   2
ATOM      2  C   UNL     1       5.201  38.016  -5.044  1.00  0.00     0.006 C 
BRANCH   2   3
ATOM      3  C   UNL     1       5.570  38.855  -6.278  1.00  0.00     0.053 C 
BRANCH   3   4
ATOM      4  C   UNL     1       4.378  39.550  -6.860  1.00  0.00     0.041 C 
ATOM      5  O   UNL     1       3.239  39.017  -6.795  1.00  0.00    -0.550 OA
ATOM      6  O   UNL     1       4.530  40.772  -7.503  1.00  0.00    -0.550 OA
ENDBRANCH   3   4
ENDBRANCH   2   3
ENDBRANCH   1   2
BRANCH   1   7
ATOM      7  C   UNL     1       5.851  36.120  -6.639  1.00  0.00     0.000 C 
BRANCH   7   8
ATOM      8  C   UNL     1       6.819  34.929  -6.635  1.00  0.00    -0.000 C 
BRANCH   8   9
ATOM      9  C   UNL     1       6.760  34.178  -5.297  1.00  0.00    -0.000 C 
BRANCH   9  10
ATOM     10  C   UNL     1       6.472  32.679  -5.473  1.00  0.00    -0.003 C 
ATOM     11  C   UNL     1       6.824  32.168  -6.870  1.00  0.00     0.004 C 
ENDBRANCH   9  10
ENDBRANCH   8   9
ENDBRANCH   7   8
ENDBRANCH   1   7
TORSDOF 7
ENDMDL
