MODEL 1
REMARK VINA RESULT:    -3.781      0.000      0.000
REMARK INTER + INTRA:          -6.488
REMARK INTER:                  -5.770
REMARK INTRA:                  -0.718
REMARK UNBOUND:                -0.718
REMARK SMILES CCCCCCCCCCC(=O)[O-]
REMARK SMILES IDX 7 1 8 2 9 3 10 4 11 5 12 6 13 7 6 8 5 9 4 10 3 11 2 12 1 13
REMARK H PARENT
REMARK Flexibility Score: inf
ROOT
ATOM      1  C   UNL     1    -117.714 -98.954  44.635  1.00  0.00     0.000 C 
ENDROOT
BRANCH   1   2
ATOM      2  C   UNL     1    -118.444 -97.650  44.273  1.00  0.00     0.000 C 
BRANCH   2   3
ATOM      3  C   UNL     1    -118.823 -97.577  42.783  1.00  0.00     0.006 C 
BRANCH   3   4
ATOM      4  C   UNL     1    -117.795 -98.283  41.890  1.00  0.00     0.053 C 
BRANCH   4   5
ATOM      5  C   UNL     1    -117.891 -97.836  40.464  1.00  0.00     0.041 C 
ATOM      6  O   UNL     1    -118.339 -96.693  40.187  1.00  0.00    -0.550 OA
ATOM      7  O   UNL     1    -117.456 -98.670  39.441  1.00  0.00    -0.550 OA
ENDBRANCH   4   5
ENDBRANCH   3   4
ENDBRANCH   2   3
ENDBRANCH   1   2
BRANCH   1   8
ATOM      8  C   UNL     1    -118.361 -99.681  45.826  1.00  0.00     0.000 C 
BRANCH   8   9
ATOM      9  C   UNL     1    -117.657 -99.386  47.164  1.00  0.00    -0.000 C 
BRANCH   9  10
ATOM     10  C   UNL     1    -118.591 -99.225  48.377  1.00  0.00    -0.000 C 
BRANCH  10  11
ATOM     11  C   UNL     1    -118.793 -97.757  48.789  1.00  0.00    -0.000 C 
BRANCH  11  12
ATOM     12  C   UNL     1    -117.718 -96.829  48.201  1.00  0.00    -0.003 C 
ATOM     13  C   UNL     1    -118.312 -95.651  47.427  1.00  0.00     0.004 C 
ENDBRANCH  11  12
ENDBRANCH  10  11
ENDBRANCH   9  10
ENDBRANCH   8   9
ENDBRANCH   1   8
TORSDOF 9
ENDMDL
MODEL 2
REMARK VINA RESULT:    -3.245      8.629     12.236
REMARK INTER + INTRA:          -5.671
REMARK INTER:                  -4.846
REMARK INTRA:                  -0.824
REMARK UNBOUND:                -0.718
REMARK SMILES CCCCCCCCCCC(=O)[O-]
REMARK SMILES IDX 7 1 8 2 9 3 10 4 11 5 12 6 13 7 6 8 5 9 4 10 3 11 2 12 1 13
REMARK H PARENT
REMARK Flexibility Score: inf
ROOT
ATOM      1  C   UNL     1    -115.798 -97.956  33.201  1.00  0.00     0.000 C 
ENDROOT
BRANCH   1   2
ATOM      2  C   UNL     1    -116.273 -97.931  34.664  1.00  0.00     0.000 C 
BRANCH   2   3
ATOM      3  C   UNL     1    -115.261 -98.580  35.626  1.00  0.00     0.006 C 
BRANCH   3   4
ATOM      4  C   UNL     1    -115.706 -99.980  36.072  1.00  0.00     0.053 C 
BRANCH   4   5
ATOM      5  C   UNL     1    -116.938 -99.930  36.923  1.00  0.00     0.041 C 
ATOM      6  O   UNL     1    -118.071-100.125  36.410  1.00  0.00    -0.550 OA
ATOM      7  O   UNL     1    -116.832 -99.702  38.289  1.00  0.00    -0.550 OA
ENDBRANCH   4   5
ENDBRANCH   3   4
ENDBRANCH   2   3
ENDBRANCH   1   2
BRANCH   1   8
ATOM      8  C   UNL     1    -116.164 -99.267  32.485  1.00  0.00     0.000 C 
BRANCH   8   9
ATOM      9  C   UNL     1    -117.479 -99.884  32.998  1.00  0.00    -0.000 C 
BRANCH   9  10
ATOM     10  C   UNL     1    -118.746 -99.465  32.227  1.00  0.00    -0.000 C 
BRANCH  10  11
ATOM     11  C   UNL     1    -118.453 -99.040  30.779  1.00  0.00    -0.000 C 
BRANCH  11  12
ATOM     12  C   UNL     1    -119.105 -97.696  30.418  1.00  0.00    -0.003 C 
ATOM     13  C   UNL     1    -118.340 -96.496  30.978  1.00  0.00     0.004 C 
ENDBRANCH  11  12
ENDBRANCH  10  11
ENDBRANCH   9  10
ENDBRANCH   8   9
ENDBRANCH   1   8
TORSDOF 9
ENDMDL
MODEL 3
REMARK VINA RESULT:    -3.112      9.090     12.499
REMARK INTER + INTRA:          -5.468
REMARK INTER:                  -4.669
REMARK INTRA:                  -0.799
REMARK UNBOUND:                -0.718
REMARK SMILES CCCCCCCCCCC(=O)[O-]
REMARK SMILES IDX 7 1 8 2 9 3 10 4 11 5 12 6 13 7 6 8 5 9 4 10 3 11 2 12 1 13
REMARK H PARENT
REMARK Flexibility Score: inf
ROOT
ATOM      1  C   UNL     1    -115.903 -96.528  33.376  1.00  0.00     0.000 C 
ENDROOT
BRANCH   1   2
ATOM      2  C   UNL     1    -115.385 -97.501  34.449  1.00  0.00     0.000 C 
BRANCH   2   3
ATOM      3  C   UNL     1    -115.811 -98.956  34.185  1.00  0.00     0.006 C 
BRANCH   3   4
ATOM      4  C   UNL     1    -115.607 -99.851  35.415  1.00  0.00     0.053 C 
BRANCH   4   5
ATOM      5  C   UNL     1    -116.745 -99.739  36.382  1.00  0.00     0.041 C 
ATOM      6  O   UNL     1    -117.918-100.016  36.017  1.00  0.00    -0.550 OA
ATOM      7  O   UNL     1    -116.506 -99.360  37.697  1.00  0.00    -0.550 OA
ENDBRANCH   4   5
ENDBRANCH   3   4
ENDBRANCH   2   3
ENDBRANCH   1   2
BRANCH   1   8
ATOM      8  C   UNL     1    -116.667 -97.245  32.250  1.00  0.00     0.000 C 
BRANCH   8   9
ATOM      9  C   UNL     1    -118.003 -96.563  31.903  1.00  0.00    -0.000 C 
BRANCH   9  10
ATOM     10  C   UNL     1    -119.125 -97.511  31.440  1.00  0.00    -0.000 C 
BRANCH  10  11
ATOM     11  C   UNL     1    -118.620 -98.631  30.515  1.00  0.00    -0.000 C 
BRANCH  11  12
ATOM     12  C   UNL     1    -118.814-100.029  31.124  1.00  0.00    -0.003 C 
ATOM     13  C   UNL     1    -119.096 -99.987  32.626  1.00  0.00     0.004 C 
ENDBRANCH  11  12
ENDBRANCH  10  11
ENDBRANCH   9  10
ENDBRANCH   8   9
ENDBRANCH   1   8
TORSDOF 9
ENDMDL
MODEL 4
REMARK VINA RESULT:    -2.928      5.514      8.619
REMARK INTER + INTRA:          -5.186
REMARK INTER:                  -4.830
REMARK INTRA:                  -0.356
REMARK UNBOUND:                -0.718
REMARK SMILES CCCCCCCCCCC(=O)[O-]
REMARK SMILES IDX 7 1 8 2 9 3 10 4 11 5 12 6 13 7 6 8 5 9 4 10 3 11 2 12 1 13
REMARK H PARENT
REMARK Flexibility Score: inf
ROOT
ATOM      1  C   UNL     1    -115.580 -99.257  35.704  1.00  0.00     0.000 C 
ENDROOT
BRANCH   1   2
ATOM      2  C   UNL     1    -115.367-100.075  34.419  1.00  0.00     0.000 C 
BRANCH   2   3
ATOM      3  C   UNL     1    -115.847 -99.333  33.158  1.00  0.00     0.006 C 
BRANCH   3   4
ATOM      4  C   UNL     1    -116.990 -98.356  33.462  1.00  0.00     0.053 C 
BRANCH   4   5
ATOM      5  C   UNL     1    -116.694 -96.977  32.959  1.00  0.00     0.041 C 
ATOM      6  O   UNL     1    -115.759 -96.303  33.466  1.00  0.00    -0.550 OA
ATOM      7  O   UNL     1    -117.430 -96.447  31.907  1.00  0.00    -0.550 OA
ENDBRANCH   4   5
ENDBRANCH   3   4
ENDBRANCH   2   3
ENDBRANCH   1   2
BRANCH   1   8
ATOM      8  C   UNL     1    -116.416-100.011  36.752  1.00  0.00     0.000 C 
BRANCH   8   9
ATOM      9  C   UNL     1    -116.804 -99.133  37.955  1.00  0.00    -0.000 C 
BRANCH   9  10
ATOM     10  C   UNL     1    -117.367 -99.894  39.171  1.00  0.00    -0.000 C 
BRANCH  10  11
ATOM     11  C   UNL     1    -117.547 -98.999  40.408  1.00  0.00    -0.000 C 
BRANCH  11  12
ATOM     12  C   UNL     1    -116.322 -99.023  41.335  1.00  0.00    -0.003 C 
ATOM     13  C   UNL     1    -116.697 -98.931  42.815  1.00  0.00     0.004 C 
ENDBRANCH  11  12
ENDBRANCH  10  11
ENDBRANCH   9  10
ENDBRANCH   8   9
ENDBRANCH   1   8
TORSDOF 9
ENDMDL
MODEL 5
REMARK VINA RESULT:    -2.850      5.527     10.554
REMARK INTER + INTRA:          -5.068
REMARK INTER:                  -4.473
REMARK INTRA:                  -0.594
REMARK UNBOUND:                -0.718
REMARK SMILES CCCCCCCCCCC(=O)[O-]
REMARK SMILES IDX 7 1 8 2 9 3 10 4 11 5 12 6 13 7 6 8 5 9 4 10 3 11 2 12 1 13
REMARK H PARENT
REMARK Flexibility Score: inf
ROOT
ATOM      1  C   UNL     1    -115.707 -99.108  36.011  1.00  0.00     0.000 C 
ENDROOT
BRANCH   1   2
ATOM      2  C   UNL     1    -116.570 -99.842  37.051  1.00  0.00     0.000 C 
BRANCH   2   3
ATOM      3  C   UNL     1    -116.895 -98.967  38.276  1.00  0.00     0.006 C 
BRANCH   3   4
ATOM      4  C   UNL     1    -117.385 -99.801  39.467  1.00  0.00     0.053 C 
BRANCH   4   5
ATOM      5  C   UNL     1    -116.946 -99.219  40.775  1.00  0.00     0.041 C 
ATOM      6  O   UNL     1    -115.821 -99.517  41.256  1.00  0.00    -0.550 OA
ATOM      7  O   UNL     1    -117.765 -98.321  41.448  1.00  0.00    -0.550 OA
ENDBRANCH   4   5
ENDBRANCH   3   4
ENDBRANCH   2   3
ENDBRANCH   1   2
BRANCH   1   8
ATOM      8  C   UNL     1    -115.627 -99.861  34.673  1.00  0.00     0.000 C 
BRANCH   8   9
ATOM      9  C   UNL     1    -117.005-100.061  34.014  1.00  0.00    -0.000 C 
BRANCH   9  10
ATOM     10  C   UNL     1    -117.794 -98.768  33.736  1.00  0.00    -0.000 C 
BRANCH  10  11
ATOM     11  C   UNL     1    -117.611 -98.250  32.300  1.00  0.00    -0.000 C 
BRANCH  11  12
ATOM     12  C   UNL     1    -117.148 -96.785  32.256  1.00  0.00    -0.003 C 
ATOM     13  C   UNL     1    -116.144 -96.448  33.359  1.00  0.00     0.004 C 
ENDBRANCH  11  12
ENDBRANCH  10  11
ENDBRANCH   9  10
ENDBRANCH   8   9
ENDBRANCH   1   8
TORSDOF 9
ENDMDL
MODEL 6
REMARK VINA RESULT:    -2.780      5.109     10.144
REMARK INTER + INTRA:          -4.961
REMARK INTER:                  -4.677
REMARK INTRA:                  -0.284
REMARK UNBOUND:                -0.718
REMARK SMILES CCCCCCCCCCC(=O)[O-]
REMARK SMILES IDX 7 1 8 2 9 3 10 4 11 5 12 6 13 7 6 8 5 9 4 10 3 11 2 12 1 13
REMARK H PARENT
REMARK Flexibility Score: inf
ROOT
ATOM      1  C   UNL     1    -116.848 -99.139  37.214  1.00  0.00     0.000 C 
ENDROOT
BRANCH   1   2
ATOM      2  C   UNL     1    -116.945-100.123  38.392  1.00  0.00     0.000 C 
BRANCH   2   3
ATOM      3  C   UNL     1    -117.892 -99.630  39.501  1.00  0.00     0.006 C 
BRANCH   3   4
ATOM      4  C   UNL     1    -117.210 -98.625  40.438  1.00  0.00     0.053 C 
BRANCH   4   5
ATOM      5  C   UNL     1    -118.135 -97.517  40.838  1.00  0.00     0.041 C 
ATOM      6  O   UNL     1    -118.374 -96.572  40.042  1.00  0.00    -0.550 OA
ATOM      7  O   UNL     1    -118.759 -97.544  42.079  1.00  0.00    -0.550 OA
ENDBRANCH   4   5
ENDBRANCH   3   4
ENDBRANCH   2   3
ENDBRANCH   1   2
BRANCH   1   8
ATOM      8  C   UNL     1    -115.797 -99.565  36.175  1.00  0.00     0.000 C 
BRANCH   8   9
ATOM      9  C   UNL     1    -115.420 -98.431  35.203  1.00  0.00    -0.000 C 
BRANCH   9  10
ATOM     10  C   UNL     1    -116.499 -98.069  34.166  1.00  0.00    -0.000 C 
BRANCH  10  11
ATOM     11  C   UNL     1    -116.081 -96.911  33.245  1.00  0.00    -0.000 C 
BRANCH  11  12
ATOM     12  C   UNL     1    -117.249 -96.380  32.400  1.00  0.00    -0.003 C 
ATOM     13  C   UNL     1    -117.951 -97.479  31.600  1.00  0.00     0.004 C 
ENDBRANCH  11  12
ENDBRANCH  10  11
ENDBRANCH   9  10
ENDBRANCH   8   9
ENDBRANCH   1   8
TORSDOF 9
ENDMDL
MODEL 7
REMARK VINA RESULT:    -2.747      4.460      7.066
REMARK INTER + INTRA:          -4.911
REMARK INTER:                  -4.589
REMARK INTRA:                  -0.321
REMARK UNBOUND:                -0.718
REMARK SMILES CCCCCCCCCCC(=O)[O-]
REMARK SMILES IDX 7 1 8 2 9 3 10 4 11 5 12 6 13 7 6 8 5 9 4 10 3 11 2 12 1 13
REMARK H PARENT
REMARK Flexibility Score: inf
ROOT
ATOM      1  C   UNL     1    -116.600 -99.194  37.821  1.00  0.00     0.000 C 
ENDROOT
BRANCH   1   2
ATOM      2  C   UNL     1    -116.320 -99.737  36.409  1.00  0.00     0.000 C 
BRANCH   2   3
ATOM      3  C   UNL     1    -115.394 -98.817  35.593  1.00  0.00     0.006 C 
BRANCH   3   4
ATOM      4  C   UNL     1    -115.737 -98.832  34.097  1.00  0.00     0.053 C 
BRANCH   4   5
ATOM      5  C   UNL     1    -116.577 -97.656  33.705  1.00  0.00     0.041 C 
ATOM      6  O   UNL     1    -116.034 -96.559  33.411  1.00  0.00    -0.550 OA
ATOM      7  O   UNL     1    -117.959 -97.781  33.631  1.00  0.00    -0.550 OA
ENDBRANCH   4   5
ENDBRANCH   3   4
ENDBRANCH   2   3
ENDBRANCH   1   2
BRANCH   1   8
ATOM      8  C   UNL     1    -117.510-100.124  38.640  1.00  0.00     0.000 C 
BRANCH   8   9
ATOM      9  C   UNL     1    -117.677 -99.666  40.101  1.00  0.00    -0.000 C 
BRANCH   9  10
ATOM     10  C   UNL     1    -116.444 -99.878  41.001  1.00  0.00    -0.000 C 
BRANCH  10  11
ATOM     11  C   UNL     1    -116.213 -98.719  41.984  1.00  0.00    -0.000 C 
BRANCH  11  12
ATOM     12  C   UNL     1    -116.923 -98.938  43.330  1.00  0.00    -0.003 C 
ATOM     13  C   UNL     1    -118.246 -98.178  43.433  1.00  0.00     0.004 C 
ENDBRANCH  11  12
ENDBRANCH  10  11
ENDBRANCH   9  10
ENDBRANCH   8   9
ENDBRANCH   1   8
TORSDOF 9
ENDMDL
MODEL 8
REMARK VINA RESULT:    -2.735      6.407     11.539
REMARK INTER + INTRA:          -4.892
REMARK INTER:                  -4.558
REMARK INTRA:                  -0.334
REMARK UNBOUND:                -0.718
REMARK SMILES CCCCCCCCCCC(=O)[O-]
REMARK SMILES IDX 7 1 8 2 9 3 10 4 11 5 12 6 13 7 6 8 5 9 4 10 3 11 2 12 1 13
REMARK H PARENT
REMARK Flexibility Score: inf
ROOT
ATOM      1  C   UNL     1    -115.435 -99.180  34.982  1.00  0.00     0.000 C 
ENDROOT
BRANCH   1   2
ATOM      2  C   UNL     1    -116.538 -99.684  35.927  1.00  0.00     0.000 C 
BRANCH   2   3
ATOM      3  C   UNL     1    -116.490 -99.007  37.309  1.00  0.00     0.006 C 
BRANCH   3   4
ATOM      4  C   UNL     1    -117.194 -99.842  38.387  1.00  0.00     0.053 C 
BRANCH   4   5
ATOM      5  C   UNL     1    -117.230 -99.136  39.707  1.00  0.00     0.041 C 
ATOM      6  O   UNL     1    -116.575 -99.584  40.684  1.00  0.00    -0.550 OA
ATOM      7  O   UNL     1    -117.962 -97.963  39.849  1.00  0.00    -0.550 OA
ENDBRANCH   4   5
ENDBRANCH   3   4
ENDBRANCH   2   3
ENDBRANCH   1   2
BRANCH   1   8
ATOM      8  C   UNL     1    -115.830 -97.883  34.255  1.00  0.00     0.000 C 
BRANCH   8   9
ATOM      9  C   UNL     1    -117.277 -97.908  33.727  1.00  0.00    -0.000 C 
BRANCH   9  10
ATOM     10  C   UNL     1    -117.504 -97.166  32.396  1.00  0.00    -0.000 C 
BRANCH  10  11
ATOM     11  C   UNL     1    -118.436 -97.925  31.438  1.00  0.00    -0.000 C 
BRANCH  11  12
ATOM     12  C   UNL     1    -119.016 -97.019  30.340  1.00  0.00    -0.003 C 
ATOM     13  C   UNL     1    -119.125 -95.557  30.775  1.00  0.00     0.004 C 
ENDBRANCH  11  12
ENDBRANCH  10  11
ENDBRANCH   9  10
ENDBRANCH   8   9
ENDBRANCH   1   8
TORSDOF 9
ENDMDL
MODEL 9
REMARK VINA RESULT:    -2.277      7.422     10.925
REMARK INTER + INTRA:          -4.194
REMARK INTER:                  -3.827
REMARK INTRA:                  -0.367
REMARK UNBOUND:                -0.718
REMARK SMILES CCCCCCCCCCC(=O)[O-]
REMARK SMILES IDX 7 1 8 2 9 3 10 4 11 5 12 6 13 7 6 8 5 9 4 10 3 11 2 12 1 13
REMARK H PARENT
REMARK Flexibility Score: inf
ROOT
ATOM      1  C   UNL     1    -115.484 -96.954  33.400  1.00  0.00     0.000 C 
ENDROOT
BRANCH   1   2
ATOM      2  C   UNL     1    -116.921 -96.611  32.975  1.00  0.00     0.000 C 
BRANCH   2   3
ATOM      3  C   UNL     1    -117.869 -97.822  33.059  1.00  0.00     0.006 C 
BRANCH   3   4
ATOM      4  C   UNL     1    -119.121 -97.636  32.191  1.00  0.00     0.053 C 
BRANCH   4   5
ATOM      5  C   UNL     1    -118.891 -98.075  30.777  1.00  0.00     0.041 C 
ATOM      6  O   UNL     1    -119.026 -97.257  29.830  1.00  0.00    -0.550 OA
ATOM      7  O   UNL     1    -118.495 -99.378  30.508  1.00  0.00    -0.550 OA
ENDBRANCH   4   5
ENDBRANCH   3   4
ENDBRANCH   2   3
ENDBRANCH   1   2
BRANCH   1   8
ATOM      8  C   UNL     1    -115.426 -97.676  34.756  1.00  0.00     0.000 C 
BRANCH   8   9
ATOM      9  C   UNL     1    -115.285 -99.203  34.618  1.00  0.00    -0.000 C 
BRANCH   9  10
ATOM     10  C   UNL     1    -115.973-100.030  35.721  1.00  0.00    -0.000 C 
BRANCH  10  11
ATOM     11  C   UNL     1    -116.502 -99.166  36.877  1.00  0.00    -0.000 C 
BRANCH  11  12
ATOM     12  C   UNL     1    -117.122-100.006  38.004  1.00  0.00    -0.003 C 
ATOM     13  C   UNL     1    -117.219 -99.244  39.327  1.00  0.00     0.004 C 
ENDBRANCH  11  12
ENDBRANCH  10  11
ENDBRANCH   9  10
ENDBRANCH   8   9
ENDBRANCH   1   8
TORSDOF 9
ENDMDL
