MODEL 1
REMARK VINA RESULT:    -7.914      0.000      0.000
REMARK INTER + INTRA:          -8.607
REMARK INTER:                  -8.376
REMARK INTRA:                  -0.230
REMARK UNBOUND:                -0.230
REMARK SMILES O=c1cc(-c2ccccc2)oc2ccccc12
REMARK SMILES IDX 4 1 3 2 2 3 1 4 17 5 16 6 15 7 14 8 13 9 12 10 11 11 5 12
REMARK SMILES IDX 8 13 7 14 9 15 6 16 10 17
REMARK H PARENT
REMARK Flexibility Score: inf
ROOT
ATOM      1  C   UNL     1     -13.059   8.963  25.674  1.00  0.00     0.138 A 
ATOM      2  C   UNL     1     -12.615  10.122  26.346  1.00  0.00     0.100 A 
ATOM      3  C   UNL     1     -12.649  10.163  27.742  1.00  0.00     0.193 A 
ATOM      4  O   UNL     1     -12.252  11.199  28.342  1.00  0.00    -0.289 OA
ATOM      5  C   UNL     1     -13.123   9.053  28.454  1.00  0.00     0.065 A 
ATOM      6  C   UNL     1     -13.183   9.030  29.860  1.00  0.00     0.016 A 
ATOM      7  C   UNL     1     -13.664   7.895  30.521  1.00  0.00     0.001 A 
ATOM      8  C   UNL     1     -14.087   6.782  29.789  1.00  0.00     0.004 A 
ATOM      9  C   UNL     1     -14.031   6.796  28.393  1.00  0.00     0.048 A 
ATOM     10  C   UNL     1     -13.551   7.927  27.721  1.00  0.00     0.138 A 
ATOM     11  O   UNL     1     -13.501   7.930  26.393  1.00  0.00    -0.456 OA
ENDROOT
BRANCH   1  12
ATOM     12  C   UNL     1     -13.057   8.836  24.184  1.00  0.00     0.017 A 
ATOM     13  C   UNL     1     -13.118   8.670  21.367  1.00  0.00     0.000 A 
ATOM     14  C   UNL     1     -13.895   9.621  22.027  1.00  0.00     0.001 A 
ATOM     15  C   UNL     1     -12.311   7.801  22.100  1.00  0.00     0.001 A 
ATOM     16  C   UNL     1     -13.866   9.706  23.422  1.00  0.00     0.012 A 
ATOM     17  C   UNL     1     -12.277   7.878  23.496  1.00  0.00     0.012 A 
ENDBRANCH   1  12
TORSDOF 1
ENDMDL
MODEL 2
REMARK VINA RESULT:    -7.680      1.633      6.096
REMARK INTER + INTRA:          -8.359
REMARK INTER:                  -8.138
REMARK INTRA:                  -0.221
REMARK UNBOUND:                -0.230
REMARK SMILES O=c1cc(-c2ccccc2)oc2ccccc12
REMARK SMILES IDX 4 1 3 2 2 3 1 4 17 5 16 6 15 7 14 8 13 9 12 10 11 11 5 12
REMARK SMILES IDX 8 13 7 14 9 15 6 16 10 17
REMARK H PARENT
REMARK Flexibility Score: inf
ROOT
ATOM      1  C   UNL     1     -13.836   8.079  26.158  1.00  0.00     0.138 A 
ATOM      2  C   UNL     1     -12.696   7.812  25.369  1.00  0.00     0.100 A 
ATOM      3  C   UNL     1     -12.754   8.008  23.988  1.00  0.00     0.193 A 
ATOM      4  O   UNL     1     -11.735   7.770  23.283  1.00  0.00    -0.289 OA
ATOM      5  C   UNL     1     -13.943   8.467  23.405  1.00  0.00     0.065 A 
ATOM      6  C   UNL     1     -14.068   8.686  22.021  1.00  0.00     0.016 A 
ATOM      7  C   UNL     1     -15.277   9.146  21.491  1.00  0.00     0.001 A 
ATOM      8  C   UNL     1     -16.366   9.389  22.333  1.00  0.00     0.004 A 
ATOM      9  C   UNL     1     -16.251   9.176  23.709  1.00  0.00     0.048 A 
ATOM     10  C   UNL     1     -15.045   8.715  24.250  1.00  0.00     0.138 A 
ATOM     11  O   UNL     1     -14.945   8.515  25.560  1.00  0.00    -0.456 OA
ENDROOT
BRANCH   1  12
ATOM     12  C   UNL     1     -13.859   7.895  27.642  1.00  0.00     0.017 A 
ATOM     13  C   UNL     1     -13.888   7.645  30.453  1.00  0.00     0.000 A 
ATOM     14  C   UNL     1     -13.702   8.896  29.865  1.00  0.00     0.001 A 
ATOM     15  C   UNL     1     -14.060   6.519  29.650  1.00  0.00     0.001 A 
ATOM     16  C   UNL     1     -13.687   9.022  28.473  1.00  0.00     0.012 A 
ATOM     17  C   UNL     1     -14.047   6.636  28.257  1.00  0.00     0.012 A 
ENDBRANCH   1  12
TORSDOF 1
ENDMDL
MODEL 3
REMARK VINA RESULT:    -7.472      7.463     10.344
REMARK INTER + INTRA:          -8.139
REMARK INTER:                  -7.874
REMARK INTRA:                  -0.265
REMARK UNBOUND:                -0.230
REMARK SMILES O=c1cc(-c2ccccc2)oc2ccccc12
REMARK SMILES IDX 4 1 3 2 2 3 1 4 17 5 16 6 15 7 14 8 13 9 12 10 11 11 5 12
REMARK SMILES IDX 8 13 7 14 9 15 6 16 10 17
REMARK H PARENT
REMARK Flexibility Score: inf
ROOT
ATOM      1  C   UNL     1     -11.433   5.170  18.604  1.00  0.00     0.138 A 
ATOM      2  C   UNL     1     -12.161   4.014  18.249  1.00  0.00     0.100 A 
ATOM      3  C   UNL     1     -11.474   2.868  17.839  1.00  0.00     0.193 A 
ATOM      4  O   UNL     1     -12.125   1.835  17.522  1.00  0.00    -0.289 OA
ATOM      5  C   UNL     1     -10.074   2.883  17.786  1.00  0.00     0.065 A 
ATOM      6  C   UNL     1      -9.323   1.764  17.383  1.00  0.00     0.016 A 
ATOM      7  C   UNL     1      -7.927   1.833  17.350  1.00  0.00     0.001 A 
ATOM      8  C   UNL     1      -7.273   3.012  17.716  1.00  0.00     0.004 A 
ATOM      9  C   UNL     1      -8.010   4.129  18.118  1.00  0.00     0.048 A 
ATOM     10  C   UNL     1      -9.408   4.071  18.155  1.00  0.00     0.138 A 
ATOM     11  O   UNL     1     -10.101   5.138  18.539  1.00  0.00    -0.456 OA
ENDROOT
BRANCH   1  12
ATOM     12  C   UNL     1     -12.088   6.437  19.052  1.00  0.00     0.017 A 
ATOM     13  C   UNL     1     -13.235   8.874  19.897  1.00  0.00     0.000 A 
ATOM     14  C   UNL     1     -11.867   8.800  19.638  1.00  0.00     0.001 A 
ATOM     15  C   UNL     1     -14.035   7.743  19.738  1.00  0.00     0.001 A 
ATOM     16  C   UNL     1     -11.296   7.594  19.220  1.00  0.00     0.012 A 
ATOM     17  C   UNL     1     -13.473   6.533  19.320  1.00  0.00     0.012 A 
ENDBRANCH   1  12
TORSDOF 1
ENDMDL
MODEL 4
REMARK VINA RESULT:    -7.308      1.433      5.806
REMARK INTER + INTRA:          -7.966
REMARK INTER:                  -7.745
REMARK INTRA:                  -0.221
REMARK UNBOUND:                -0.230
REMARK SMILES O=c1cc(-c2ccccc2)oc2ccccc12
REMARK SMILES IDX 4 1 3 2 2 3 1 4 17 5 16 6 15 7 14 8 13 9 12 10 11 11 5 12
REMARK SMILES IDX 8 13 7 14 9 15 6 16 10 17
REMARK H PARENT
REMARK Flexibility Score: inf
ROOT
ATOM      1  C   UNL     1     -13.178   7.977  27.507  1.00  0.00     0.138 A 
ATOM      2  C   UNL     1     -12.907   9.358  27.397  1.00  0.00     0.100 A 
ATOM      3  C   UNL     1     -12.976   9.975  26.147  1.00  0.00     0.193 A 
ATOM      4  O   UNL     1     -12.734  11.209  26.049  1.00  0.00    -0.289 OA
ATOM      5  C   UNL     1     -13.314   9.215  25.019  1.00  0.00     0.065 A 
ATOM      6  C   UNL     1     -13.402   9.776  23.731  1.00  0.00     0.016 A 
ATOM      7  C   UNL     1     -13.744   8.972  22.640  1.00  0.00     0.001 A 
ATOM      8  C   UNL     1     -14.000   7.610  22.822  1.00  0.00     0.004 A 
ATOM      9  C   UNL     1     -13.916   7.045  24.098  1.00  0.00     0.048 A 
ATOM     10  C   UNL     1     -13.574   7.840  25.197  1.00  0.00     0.138 A 
ATOM     11  O   UNL     1     -13.497   7.294  26.406  1.00  0.00    -0.456 OA
ENDROOT
BRANCH   1  12
ATOM     12  C   UNL     1     -13.126   7.238  28.806  1.00  0.00     0.017 A 
ATOM     13  C   UNL     1     -13.119   5.877  31.279  1.00  0.00     0.000 A 
ATOM     14  C   UNL     1     -14.230   6.630  30.900  1.00  0.00     0.001 A 
ATOM     15  C   UNL     1     -12.012   5.798  30.435  1.00  0.00     0.001 A 
ATOM     16  C   UNL     1     -14.236   7.305  29.675  1.00  0.00     0.012 A 
ATOM     17  C   UNL     1     -12.010   6.470  29.208  1.00  0.00     0.012 A 
ENDBRANCH   1  12
TORSDOF 1
ENDMDL
MODEL 5
REMARK VINA RESULT:    -7.109      5.845      9.922
REMARK INTER + INTRA:          -7.755
REMARK INTER:                  -7.502
REMARK INTRA:                  -0.252
REMARK UNBOUND:                -0.230
REMARK SMILES O=c1cc(-c2ccccc2)oc2ccccc12
REMARK SMILES IDX 4 1 3 2 2 3 1 4 17 5 16 6 15 7 14 8 13 9 12 10 11 11 5 12
REMARK SMILES IDX 8 13 7 14 9 15 6 16 10 17
REMARK H PARENT
REMARK Flexibility Score: inf
ROOT
ATOM      1  C   UNL     1     -11.120   5.231  19.782  1.00  0.00     0.138 A 
ATOM      2  C   UNL     1     -11.970   4.505  18.921  1.00  0.00     0.100 A 
ATOM      3  C   UNL     1     -11.415   3.659  17.959  1.00  0.00     0.193 A 
ATOM      4  O   UNL     1     -12.175   3.010  17.189  1.00  0.00    -0.289 OA
ATOM      5  C   UNL     1     -10.021   3.543  17.862  1.00  0.00     0.065 A 
ATOM      6  C   UNL     1      -9.398   2.708  16.917  1.00  0.00     0.016 A 
ATOM      7  C   UNL     1      -8.003   2.629  16.865  1.00  0.00     0.001 A 
ATOM      8  C   UNL     1      -7.223   3.378  17.750  1.00  0.00     0.004 A 
ATOM      9  C   UNL     1      -7.833   4.209  18.693  1.00  0.00     0.048 A 
ATOM     10  C   UNL     1      -9.229   4.296  18.754  1.00  0.00     0.138 A 
ATOM     11  O   UNL     1      -9.800   5.089  19.655  1.00  0.00    -0.456 OA
ENDROOT
BRANCH   1  12
ATOM     12  C   UNL     1     -11.632   6.158  20.838  1.00  0.00     0.017 A 
ATOM     13  C   UNL     1     -12.674   7.848  22.844  1.00  0.00     0.000 A 
ATOM     14  C   UNL     1     -13.347   6.676  22.500  1.00  0.00     0.001 A 
ATOM     15  C   UNL     1     -11.486   8.183  22.197  1.00  0.00     0.001 A 
ATOM     16  C   UNL     1     -12.833   5.837  21.507  1.00  0.00     0.012 A 
ATOM     17  C   UNL     1     -10.964   7.350  21.202  1.00  0.00     0.012 A 
ENDBRANCH   1  12
TORSDOF 1
ENDMDL
MODEL 6
REMARK VINA RESULT:    -7.082      1.484      6.139
REMARK INTER + INTRA:          -7.727
REMARK INTER:                  -7.506
REMARK INTRA:                  -0.221
REMARK UNBOUND:                -0.230
REMARK SMILES O=c1cc(-c2ccccc2)oc2ccccc12
REMARK SMILES IDX 4 1 3 2 2 3 1 4 17 5 16 6 15 7 14 8 13 9 12 10 11 11 5 12
REMARK SMILES IDX 8 13 7 14 9 15 6 16 10 17
REMARK H PARENT
REMARK Flexibility Score: inf
ROOT
ATOM      1  C   UNL     1     -14.012   8.163  26.056  1.00  0.00     0.138 A 
ATOM      2  C   UNL     1     -15.199   8.584  25.418  1.00  0.00     0.100 A 
ATOM      3  C   UNL     1     -15.220   8.724  24.029  1.00  0.00     0.193 A 
ATOM      4  O   UNL     1     -16.280   9.100  23.459  1.00  0.00    -0.289 OA
ATOM      5  C   UNL     1     -14.063   8.445  23.289  1.00  0.00     0.065 A 
ATOM      6  C   UNL     1     -14.018   8.565  21.888  1.00  0.00     0.016 A 
ATOM      7  C   UNL     1     -12.838   8.272  21.198  1.00  0.00     0.001 A 
ATOM      8  C   UNL     1     -11.699   7.860  21.896  1.00  0.00     0.004 A 
ATOM      9  C   UNL     1     -11.735   7.737  23.288  1.00  0.00     0.048 A 
ATOM     10  C   UNL     1     -12.911   8.027  23.988  1.00  0.00     0.138 A 
ATOM     11  O   UNL     1     -12.936   7.907  25.311  1.00  0.00    -0.456 OA
ENDROOT
BRANCH   1  12
ATOM     12  C   UNL     1     -13.903   7.988  27.538  1.00  0.00     0.017 A 
ATOM     13  C   UNL     1     -13.682   7.754  30.342  1.00  0.00     0.000 A 
ATOM     14  C   UNL     1     -13.564   9.004  29.734  1.00  0.00     0.001 A 
ATOM     15  C   UNL     1     -13.910   6.621  29.563  1.00  0.00     0.001 A 
ATOM     16  C   UNL     1     -13.673   9.122  28.345  1.00  0.00     0.012 A 
ATOM     17  C   UNL     1     -14.021   6.730  28.173  1.00  0.00     0.012 A 
ENDBRANCH   1  12
TORSDOF 1
ENDMDL
MODEL 7
REMARK VINA RESULT:    -6.925      1.543      2.743
REMARK INTER + INTRA:          -7.560
REMARK INTER:                  -7.323
REMARK INTRA:                  -0.237
REMARK UNBOUND:                -0.230
REMARK SMILES O=c1cc(-c2ccccc2)oc2ccccc12
REMARK SMILES IDX 4 1 3 2 2 3 1 4 17 5 16 6 15 7 14 8 13 9 12 10 11 11 5 12
REMARK SMILES IDX 8 13 7 14 9 15 6 16 10 17
REMARK H PARENT
REMARK Flexibility Score: inf
ROOT
ATOM      1  C   UNL     1     -13.824   8.504  25.758  1.00  0.00     0.138 A 
ATOM      2  C   UNL     1     -13.939   7.180  26.234  1.00  0.00     0.100 A 
ATOM      3  C   UNL     1     -13.468   6.865  27.510  1.00  0.00     0.193 A 
ATOM      4  O   UNL     1     -13.571   5.682  27.935  1.00  0.00    -0.289 OA
ATOM      5  C   UNL     1     -12.888   7.867  28.300  1.00  0.00     0.065 A 
ATOM      6  C   UNL     1     -12.395   7.616  29.593  1.00  0.00     0.016 A 
ATOM      7  C   UNL     1     -11.827   8.654  30.339  1.00  0.00     0.001 A 
ATOM      8  C   UNL     1     -11.746   9.942  29.803  1.00  0.00     0.004 A 
ATOM      9  C   UNL     1     -12.234  10.201  28.519  1.00  0.00     0.048 A 
ATOM     10  C   UNL     1     -12.805   9.169  27.764  1.00  0.00     0.138 A 
ATOM     11  O   UNL     1     -13.266   9.425  26.545  1.00  0.00    -0.456 OA
ENDROOT
BRANCH   1  12
ATOM     12  C   UNL     1     -14.302   8.926  24.405  1.00  0.00     0.017 A 
ATOM     13  C   UNL     1     -15.292   9.685  21.873  1.00  0.00     0.000 A 
ATOM     14  C   UNL     1     -16.126   9.038  22.783  1.00  0.00     0.001 A 
ATOM     15  C   UNL     1     -13.968   9.957  22.215  1.00  0.00     0.001 A 
ATOM     16  C   UNL     1     -15.639   8.661  24.038  1.00  0.00     0.012 A 
ATOM     17  C   UNL     1     -13.471   9.583  23.468  1.00  0.00     0.012 A 
ENDBRANCH   1  12
TORSDOF 1
ENDMDL
MODEL 8
REMARK VINA RESULT:    -6.919      6.607      9.398
REMARK INTER + INTRA:          -7.554
REMARK INTER:                  -7.333
REMARK INTRA:                  -0.221
REMARK UNBOUND:                -0.230
REMARK SMILES O=c1cc(-c2ccccc2)oc2ccccc12
REMARK SMILES IDX 4 1 3 2 2 3 1 4 17 5 16 6 15 7 14 8 13 9 12 10 11 11 5 12
REMARK SMILES IDX 8 13 7 14 9 15 6 16 10 17
REMARK H PARENT
REMARK Flexibility Score: inf
ROOT
ATOM      1  C   UNL     1     -11.890   5.982  19.168  1.00  0.00     0.138 A 
ATOM      2  C   UNL     1     -10.506   6.013  19.447  1.00  0.00     0.100 A 
ATOM      3  C   UNL     1      -9.714   4.911  19.117  1.00  0.00     0.193 A 
ATOM      4  O   UNL     1      -8.478   4.938  19.367  1.00  0.00    -0.289 OA
ATOM      5  C   UNL     1     -10.303   3.792  18.514  1.00  0.00     0.065 A 
ATOM      6  C   UNL     1      -9.562   2.651  18.157  1.00  0.00     0.016 A 
ATOM      7  C   UNL     1     -10.200   1.561  17.556  1.00  0.00     0.001 A 
ATOM      8  C   UNL     1     -11.575   1.601  17.309  1.00  0.00     0.004 A 
ATOM      9  C   UNL     1     -12.320   2.731  17.659  1.00  0.00     0.048 A 
ATOM     10  C   UNL     1     -11.691   3.827  18.262  1.00  0.00     0.138 A 
ATOM     11  O   UNL     1     -12.407   4.896  18.591  1.00  0.00    -0.456 OA
ENDROOT
BRANCH   1  12
ATOM     12  C   UNL     1     -12.809   7.117  19.488  1.00  0.00     0.017 A 
ATOM     13  C   UNL     1     -14.553   9.225  20.184  1.00  0.00     0.000 A 
ATOM     14  C   UNL     1     -14.198   8.270  21.136  1.00  0.00     0.001 A 
ATOM     15  C   UNL     1     -14.046   9.137  18.889  1.00  0.00     0.001 A 
ATOM     16  C   UNL     1     -13.334   7.225  20.794  1.00  0.00     0.012 A 
ATOM     17  C   UNL     1     -13.181   8.096  18.538  1.00  0.00     0.012 A 
ENDBRANCH   1  12
TORSDOF 1
ENDMDL
MODEL 9
REMARK VINA RESULT:    -6.732      6.243      8.611
REMARK INTER + INTRA:          -7.356
REMARK INTER:                  -7.136
REMARK INTRA:                  -0.220
REMARK UNBOUND:                -0.230
REMARK SMILES O=c1cc(-c2ccccc2)oc2ccccc12
REMARK SMILES IDX 4 1 3 2 2 3 1 4 17 5 16 6 15 7 14 8 13 9 12 10 11 11 5 12
REMARK SMILES IDX 8 13 7 14 9 15 6 16 10 17
REMARK H PARENT
REMARK Flexibility Score: inf
ROOT
ATOM      1  C   UNL     1     -11.082   5.449  19.422  1.00  0.00     0.138 A 
ATOM      2  C   UNL     1     -11.692   5.134  20.655  1.00  0.00     0.100 A 
ATOM      3  C   UNL     1     -12.701   5.961  21.154  1.00  0.00     0.193 A 
ATOM      4  O   UNL     1     -13.247   5.678  22.256  1.00  0.00    -0.289 OA
ATOM      5  C   UNL     1     -13.092   7.091  20.425  1.00  0.00     0.065 A 
ATOM      6  C   UNL     1     -14.101   7.964  20.871  1.00  0.00     0.016 A 
ATOM      7  C   UNL     1     -14.454   9.078  20.103  1.00  0.00     0.001 A 
ATOM      8  C   UNL     1     -13.805   9.329  18.890  1.00  0.00     0.004 A 
ATOM      9  C   UNL     1     -12.802   8.467  18.438  1.00  0.00     0.048 A 
ATOM     10  C   UNL     1     -12.442   7.349  19.200  1.00  0.00     0.138 A 
ATOM     11  O   UNL     1     -11.487   6.535  18.762  1.00  0.00    -0.456 OA
ENDROOT
BRANCH   1  12
ATOM     12  C   UNL     1      -9.995   4.619  18.816  1.00  0.00     0.017 A 
ATOM     13  C   UNL     1      -8.014   2.997  17.628  1.00  0.00     0.000 A 
ATOM     14  C   UNL     1      -9.363   2.753  17.371  1.00  0.00     0.001 A 
ATOM     15  C   UNL     1      -7.646   4.044  18.472  1.00  0.00     0.001 A 
ATOM     16  C   UNL     1     -10.346   3.554  17.959  1.00  0.00     0.012 A 
ATOM     17  C   UNL     1      -8.623   4.851  19.064  1.00  0.00     0.012 A 
ENDBRANCH   1  12
TORSDOF 1
ENDMDL
