MODEL 1
REMARK VINA RESULT:    -9.844      0.000      0.000
REMARK INTER + INTRA:         -21.028
REMARK INTER:                 -18.764
REMARK INTRA:                  -2.264
REMARK UNBOUND:                -2.264
REMARK SMILES C[C@@H]1O[C@H](O[C@@H]2[C@H](O)[C@@H](OCCc3ccc(O)c(O)c3)O[C@H](CO)[C@H]2OC(=O)C=Cc2ccc(O)c(O)c2)[C@@H](O)[C@H](O)[C@H]1O
REMARK SMILES IDX 6 1 7 2 9 3 21 4 22 5 25 6 5 7 4 8 1 9 2 10 43 11 3 12 41 13
REMARK SMILES IDX 39 14 44 15 42 17 40 19 8 21 26 23 27 24 28 25 29 26 30 27
REMARK SMILES IDX 31 28 38 29 32 30 36 31 33 32 34 33 37 34 35 36 10 38 11 39
REMARK SMILES IDX 12 40 13 41 20 42 14 43 18 44 15 45 16 46 19 47 17 49 23 51
REMARK SMILES IDX 24 52
REMARK H PARENT 44 16 42 18 40 20 8 22 37 35 35 37 19 48 17 50 24 53
REMARK Flexibility Score: inf
ROOT
ATOM      1  C   UNL     1     -34.106  39.346  42.961  1.00  0.00     0.199 C 
ATOM      2  C   UNL     1     -33.715  39.584  41.447  1.00  0.00     0.203 C 
ATOM      3  C   UNL     1     -33.647  41.171  41.245  1.00  0.00     0.282 C 
ATOM      4  O   UNL     1     -32.566  41.767  41.888  1.00  0.00    -0.340 OA
ATOM      5  C   UNL     1     -32.587  41.585  43.364  1.00  0.00     0.190 C 
ATOM      6  C   UNL     1     -33.590  40.545  43.995  1.00  0.00     0.240 C 
ENDROOT
BRANCH   1   7
ATOM      7  O   UNL     1     -34.402  37.934  43.436  1.00  0.00    -0.340 OA
BRANCH   7   8
ATOM      8  C   UNL     1     -35.301  37.546  44.603  1.00  0.00     0.282 C 
ATOM      9  C   UNL     1     -36.929  35.466  42.601  1.00  0.00     0.041 C 
ATOM     10  C   UNL     1     -36.969  35.801  44.093  1.00  0.00     0.150 C 
ATOM     11  C   UNL     1     -36.297  34.779  45.026  1.00  0.00     0.174 C 
ATOM     12  O   UNL     1     -36.718  37.145  44.474  1.00  0.00    -0.344 OA
ATOM     13  C   UNL     1     -34.841  34.989  45.236  1.00  0.00     0.179 C 
ATOM     14  C   UNL     1     -34.571  36.490  45.581  1.00  0.00     0.202 C 
BRANCH  11  15
ATOM     15  O   UNL     1     -36.978  34.342  46.192  1.00  0.00    -0.388 OA
ATOM     16  H   UNL     1     -37.492  33.493  45.921  1.00  0.00     0.211 HD
ENDBRANCH  11  15
BRANCH  13  17
ATOM     17  O   UNL     1     -34.173  34.737  43.977  1.00  0.00    -0.387 OA
ATOM     18  H   UNL     1     -34.849  34.186  43.464  1.00  0.00     0.211 HD
ENDBRANCH  13  17
BRANCH  14  19
ATOM     19  O   UNL     1     -34.830  36.811  46.954  1.00  0.00    -0.385 OA
ATOM     20  H   UNL     1     -35.634  36.193  47.132  1.00  0.00     0.211 HD
ENDBRANCH  14  19
ENDBRANCH   7   8
ENDBRANCH   1   7
BRANCH   2  21
ATOM     21  O   UNL     1     -32.404  39.102  41.187  1.00  0.00    -0.385 OA
ATOM     22  H   UNL     1     -32.422  38.096  41.262  1.00  0.00     0.211 HD
ENDBRANCH   2  21
BRANCH   6  23
ATOM     23  O   UNL     1     -34.787  41.309  44.348  1.00  0.00    -0.453 OA
BRANCH  23  24
ATOM     24  C   UNL     1     -35.450  41.363  45.620  1.00  0.00     0.331 C 
ATOM     25  O   UNL     1     -35.371  42.394  46.393  1.00  0.00    -0.247 OA
BRANCH  24  26
ATOM     26  C   UNL     1     -36.093  40.183  46.174  1.00  0.00     0.094 C 
ATOM     27  C   UNL     1     -37.374  40.233  46.525  1.00  0.00     0.016 C 
BRANCH  27  28
ATOM     28  C   UNL     1     -38.226  39.013  46.641  1.00  0.00    -0.021 A 
ATOM     29  C   UNL     1     -39.563  39.107  46.128  1.00  0.00     0.058 A 
ATOM     30  C   UNL     1     -38.014  38.225  47.775  1.00  0.00     0.012 A 
ATOM     31  C   UNL     1     -40.632  38.642  46.947  1.00  0.00     0.157 A 
ATOM     32  C   UNL     1     -39.080  38.006  48.656  1.00  0.00     0.051 A 
ATOM     33  C   UNL     1     -40.378  38.257  48.267  1.00  0.00     0.157 A 
BRANCH  31  34
ATOM     34  O   UNL     1     -41.950  38.606  46.448  1.00  0.00    -0.504 OA
ATOM     35  H   UNL     1     -42.667  39.127  46.915  1.00  0.00     0.293 HD
ENDBRANCH  31  34
BRANCH  33  36
ATOM     36  O   UNL     1     -41.509  38.150  49.106  1.00  0.00    -0.504 OA
ATOM     37  H   UNL     1     -42.362  37.692  48.726  1.00  0.00     0.293 HD
ENDBRANCH  33  36
ENDBRANCH  27  28
ENDBRANCH  24  26
ENDBRANCH  23  24
ENDBRANCH   6  23
BRANCH   3  38
ATOM     38  O   UNL     1     -34.899  41.766  41.607  1.00  0.00    -0.350 OA
BRANCH  38  39
ATOM     39  C   UNL     1     -35.415  42.589  40.564  1.00  0.00     0.168 C 
BRANCH  39  40
ATOM     40  C   UNL     1     -35.139  44.120  40.720  1.00  0.00     0.064 C 
BRANCH  40  41
ATOM     41  C   UNL     1     -34.297  44.751  39.621  1.00  0.00    -0.042 A 
ATOM     42  C   UNL     1     -34.918  45.487  38.594  1.00  0.00     0.054 A 
ATOM     43  C   UNL     1     -32.993  44.462  39.505  1.00  0.00     0.008 A 
ATOM     44  C   UNL     1     -34.175  45.985  37.530  1.00  0.00     0.157 A 
ATOM     45  C   UNL     1     -32.214  45.025  38.508  1.00  0.00     0.050 A 
ATOM     46  C   UNL     1     -32.797  45.768  37.485  1.00  0.00     0.157 A 
BRANCH  44  47
ATOM     47  O   UNL     1     -34.845  46.512  36.417  1.00  0.00    -0.504 OA
ATOM     48  H   UNL     1     -35.616  47.163  36.554  1.00  0.00     0.293 HD
ENDBRANCH  44  47
BRANCH  46  49
ATOM     49  O   UNL     1     -31.992  46.350  36.498  1.00  0.00    -0.504 OA
ATOM     50  H   UNL     1     -31.103  46.759  36.786  1.00  0.00     0.293 HD
ENDBRANCH  46  49
ENDBRANCH  40  41
ENDBRANCH  39  40
ENDBRANCH  38  39
ENDBRANCH   3  38
BRANCH   5  51
ATOM     51  C   UNL     1     -31.137  41.291  43.789  1.00  0.00     0.192 C 
BRANCH  51  52
ATOM     52  O   UNL     1     -30.598  40.064  43.293  1.00  0.00    -0.394 OA
ATOM     53  H   UNL     1     -31.030  39.339  43.811  1.00  0.00     0.210 HD
ENDBRANCH  51  52
ENDBRANCH   5  51
TORSDOF 20
ENDMDL
MODEL 2
REMARK VINA RESULT:    -9.777      2.539      6.950
REMARK INTER + INTRA:         -20.900
REMARK INTER:                 -19.484
REMARK INTRA:                  -1.415
REMARK UNBOUND:                -2.264
REMARK SMILES C[C@@H]1O[C@H](O[C@@H]2[C@H](O)[C@@H](OCCc3ccc(O)c(O)c3)O[C@H](CO)[C@H]2OC(=O)C=Cc2ccc(O)c(O)c2)[C@@H](O)[C@H](O)[C@H]1O
REMARK SMILES IDX 6 1 7 2 9 3 21 4 22 5 25 6 5 7 4 8 1 9 2 10 43 11 3 12 41 13
REMARK SMILES IDX 39 14 44 15 42 17 40 19 8 21 26 23 27 24 28 25 29 26 30 27
REMARK SMILES IDX 31 28 38 29 32 30 36 31 33 32 34 33 37 34 35 36 10 38 11 39
REMARK SMILES IDX 12 40 13 41 20 42 14 43 18 44 15 45 16 46 19 47 17 49 23 51
REMARK SMILES IDX 24 52
REMARK H PARENT 44 16 42 18 40 20 8 22 37 35 35 37 19 48 17 50 24 53
REMARK Flexibility Score: inf
ROOT
ATOM      1  C   UNL     1     -36.155  39.942  43.368  1.00  0.00     0.199 C 
ATOM      2  C   UNL     1     -36.725  41.417  43.386  1.00  0.00     0.203 C 
ATOM      3  C   UNL     1     -36.087  42.159  42.118  1.00  0.00     0.282 C 
ATOM      4  O   UNL     1     -36.584  41.705  40.900  1.00  0.00    -0.340 OA
ATOM      5  C   UNL     1     -36.314  40.262  40.656  1.00  0.00     0.190 C 
ATOM      6  C   UNL     1     -35.798  39.366  41.847  1.00  0.00     0.240 C 
ENDROOT
BRANCH   1   7
ATOM      7  O   UNL     1     -36.454  39.020  44.538  1.00  0.00    -0.340 OA
BRANCH   7   8
ATOM      8  C   UNL     1     -36.537  39.422  46.004  1.00  0.00     0.282 C 
ATOM      9  C   UNL     1     -39.795  38.818  45.943  1.00  0.00     0.041 C 
ATOM     10  C   UNL     1     -38.777  39.207  47.016  1.00  0.00     0.150 C 
ATOM     11  C   UNL     1     -38.328  38.073  47.954  1.00  0.00     0.174 C 
ATOM     12  O   UNL     1     -37.711  40.063  46.634  1.00  0.00    -0.344 OA
ATOM     13  C   UNL     1     -37.179  37.272  47.458  1.00  0.00     0.179 C 
ATOM     14  C   UNL     1     -36.041  38.229  46.971  1.00  0.00     0.202 C 
BRANCH  11  15
ATOM     15  O   UNL     1     -38.298  38.295  49.355  1.00  0.00    -0.388 OA
ATOM     16  H   UNL     1     -38.246  37.364  49.790  1.00  0.00     0.211 HD
ENDBRANCH  11  15
BRANCH  13  17
ATOM     17  O   UNL     1     -37.622  36.543  46.289  1.00  0.00    -0.387 OA
ATOM     18  H   UNL     1     -36.946  35.794  46.215  1.00  0.00     0.211 HD
ENDBRANCH  13  17
BRANCH  14  19
ATOM     19  O   UNL     1     -35.239  38.745  48.040  1.00  0.00    -0.385 OA
ATOM     20  H   UNL     1     -34.307  38.435  47.729  1.00  0.00     0.211 HD
ENDBRANCH  14  19
ENDBRANCH   7   8
ENDBRANCH   1   7
BRANCH   2  21
ATOM     21  O   UNL     1     -38.129  41.415  43.169  1.00  0.00    -0.385 OA
ATOM     22  H   UNL     1     -38.324  42.021  42.387  1.00  0.00     0.211 HD
ENDBRANCH   2  21
BRANCH   6  23
ATOM     23  O   UNL     1     -34.339  39.374  41.750  1.00  0.00    -0.453 OA
BRANCH  23  24
ATOM     24  C   UNL     1     -33.538  39.272  40.563  1.00  0.00     0.331 C 
ATOM     25  O   UNL     1     -33.985  38.735  39.477  1.00  0.00    -0.247 OA
BRANCH  24  26
ATOM     26  C   UNL     1     -32.124  39.607  40.588  1.00  0.00     0.094 C 
ATOM     27  C   UNL     1     -31.585  40.113  41.693  1.00  0.00     0.016 C 
BRANCH  27  28
ATOM     28  C   UNL     1     -30.122  40.042  41.982  1.00  0.00    -0.021 A 
ATOM     29  C   UNL     1     -29.285  40.993  41.309  1.00  0.00     0.058 A 
ATOM     30  C   UNL     1     -29.607  38.765  42.217  1.00  0.00     0.012 A 
ATOM     31  C   UNL     1     -28.105  40.516  40.669  1.00  0.00     0.157 A 
ATOM     32  C   UNL     1     -28.591  38.281  41.382  1.00  0.00     0.051 A 
ATOM     33  C   UNL     1     -27.875  39.140  40.575  1.00  0.00     0.157 A 
BRANCH  31  34
ATOM     34  O   UNL     1     -27.189  41.420  40.093  1.00  0.00    -0.504 OA
ATOM     35  H   UNL     1     -27.118  42.349  40.461  1.00  0.00     0.293 HD
ENDBRANCH  31  34
BRANCH  33  36
ATOM     36  O   UNL     1     -26.894  38.740  39.640  1.00  0.00    -0.504 OA
ATOM     37  H   UNL     1     -27.074  37.888  39.072  1.00  0.00     0.293 HD
ENDBRANCH  33  36
ENDBRANCH  27  28
ENDBRANCH  24  26
ENDBRANCH  23  24
ENDBRANCH   6  23
BRANCH   3  38
ATOM     38  O   UNL     1     -34.657  42.103  42.184  1.00  0.00    -0.350 OA
BRANCH  38  39
ATOM     39  C   UNL     1     -34.049  42.788  41.092  1.00  0.00     0.168 C 
BRANCH  39  40
ATOM     40  C   UNL     1     -34.769  44.100  40.639  1.00  0.00     0.064 C 
BRANCH  40  41
ATOM     41  C   UNL     1     -34.133  44.826  39.463  1.00  0.00    -0.042 A 
ATOM     42  C   UNL     1     -34.946  45.464  38.507  1.00  0.00     0.054 A 
ATOM     43  C   UNL     1     -32.821  44.710  39.214  1.00  0.00     0.008 A 
ATOM     44  C   UNL     1     -34.388  46.046  37.375  1.00  0.00     0.157 A 
ATOM     45  C   UNL     1     -32.229  45.362  38.145  1.00  0.00     0.050 A 
ATOM     46  C   UNL     1     -33.004  46.012  37.189  1.00  0.00     0.157 A 
BRANCH  44  47
ATOM     47  O   UNL     1     -35.231  46.469  36.338  1.00  0.00    -0.504 OA
ATOM     48  H   UNL     1     -34.918  47.201  35.703  1.00  0.00     0.293 HD
ENDBRANCH  44  47
BRANCH  46  49
ATOM     49  O   UNL     1     -32.387  46.685  36.128  1.00  0.00    -0.504 OA
ATOM     50  H   UNL     1     -32.777  46.563  35.193  1.00  0.00     0.293 HD
ENDBRANCH  46  49
ENDBRANCH  40  41
ENDBRANCH  39  40
ENDBRANCH  38  39
ENDBRANCH   3  38
BRANCH   5  51
ATOM     51  C   UNL     1     -37.592  39.678  40.029  1.00  0.00     0.192 C 
BRANCH  51  52
ATOM     52  O   UNL     1     -38.446  40.631  39.395  1.00  0.00    -0.394 OA
ATOM     53  H   UNL     1     -39.361  40.452  39.729  1.00  0.00     0.210 HD
ENDBRANCH  51  52
ENDBRANCH   5  51
TORSDOF 20
ENDMDL
MODEL 3
REMARK VINA RESULT:    -9.711      2.566      6.775
REMARK INTER + INTRA:         -20.775
REMARK INTER:                 -18.639
REMARK INTRA:                  -2.137
REMARK UNBOUND:                -2.264
REMARK SMILES C[C@@H]1O[C@H](O[C@@H]2[C@H](O)[C@@H](OCCc3ccc(O)c(O)c3)O[C@H](CO)[C@H]2OC(=O)C=Cc2ccc(O)c(O)c2)[C@@H](O)[C@H](O)[C@H]1O
REMARK SMILES IDX 6 1 7 2 9 3 21 4 22 5 25 6 5 7 4 8 1 9 2 10 43 11 3 12 41 13
REMARK SMILES IDX 39 14 44 15 42 17 40 19 8 21 26 23 27 24 28 25 29 26 30 27
REMARK SMILES IDX 31 28 38 29 32 30 36 31 33 32 34 33 37 34 35 36 10 38 11 39
REMARK SMILES IDX 12 40 13 41 20 42 14 43 18 44 15 45 16 46 19 47 17 49 23 51
REMARK SMILES IDX 24 52
REMARK H PARENT 44 16 42 18 40 20 8 22 37 35 35 37 19 48 17 50 24 53
REMARK Flexibility Score: inf
ROOT
ATOM      1  C   UNL     1     -37.049  38.728  42.992  1.00  0.00     0.199 C 
ATOM      2  C   UNL     1     -37.735  40.073  43.462  1.00  0.00     0.203 C 
ATOM      3  C   UNL     1     -37.047  41.246  42.615  1.00  0.00     0.282 C 
ATOM      4  O   UNL     1     -37.395  41.236  41.268  1.00  0.00    -0.340 OA
ATOM      5  C   UNL     1     -36.989  39.989  40.566  1.00  0.00     0.190 C 
ATOM      6  C   UNL     1     -36.512  38.749  41.416  1.00  0.00     0.240 C 
ENDROOT
BRANCH   1   7
ATOM      7  O   UNL     1     -37.376  37.436  43.723  1.00  0.00    -0.340 OA
BRANCH   7   8
ATOM      8  C   UNL     1     -36.454  36.678  44.668  1.00  0.00     0.282 C 
ATOM      9  C   UNL     1     -34.737  39.469  45.165  1.00  0.00     0.041 C 
ATOM     10  C   UNL     1     -34.706  38.051  45.739  1.00  0.00     0.150 C 
ATOM     11  C   UNL     1     -35.324  37.883  47.137  1.00  0.00     0.174 C 
ATOM     12  O   UNL     1     -35.020  36.979  44.864  1.00  0.00    -0.344 OA
ATOM     13  C   UNL     1     -36.787  37.625  47.146  1.00  0.00     0.179 C 
ATOM     14  C   UNL     1     -37.127  36.492  46.123  1.00  0.00     0.202 C 
BRANCH  11  15
ATOM     15  O   UNL     1     -34.617  37.157  48.132  1.00  0.00    -0.388 OA
ATOM     16  H   UNL     1     -35.212  36.353  48.374  1.00  0.00     0.211 HD
ENDBRANCH  11  15
BRANCH  13  17
ATOM     17  O   UNL     1     -37.448  38.818  46.664  1.00  0.00    -0.387 OA
ATOM     18  H   UNL     1     -36.746  39.248  46.075  1.00  0.00     0.211 HD
ENDBRANCH  13  17
BRANCH  14  19
ATOM     19  O   UNL     1     -36.877  35.176  46.631  1.00  0.00    -0.385 OA
ATOM     20  H   UNL     1     -37.842  34.821  46.690  1.00  0.00     0.211 HD
ENDBRANCH  14  19
ENDBRANCH   7   8
ENDBRANCH   1   7
BRANCH   2  21
ATOM     21  O   UNL     1     -39.109  40.087  43.102  1.00  0.00    -0.385 OA
ATOM     22  H   UNL     1     -39.457  39.143  43.170  1.00  0.00     0.211 HD
ENDBRANCH   2  21
BRANCH   6  23
ATOM     23  O   UNL     1     -35.055  38.855  41.493  1.00  0.00    -0.453 OA
BRANCH  23  24
ATOM     24  C   UNL     1     -34.139  39.145  40.427  1.00  0.00     0.331 C 
ATOM     25  O   UNL     1     -34.352  38.756  39.213  1.00  0.00    -0.247 OA
BRANCH  24  26
ATOM     26  C   UNL     1     -32.839  39.734  40.701  1.00  0.00     0.094 C 
ATOM     27  C   UNL     1     -32.412  39.836  41.956  1.00  0.00     0.016 C 
BRANCH  27  28
ATOM     28  C   UNL     1     -30.968  39.967  42.308  1.00  0.00    -0.021 A 
ATOM     29  C   UNL     1     -30.236  41.012  41.651  1.00  0.00     0.058 A 
ATOM     30  C   UNL     1     -30.297  38.776  42.592  1.00  0.00     0.012 A 
ATOM     31  C   UNL     1     -28.975  40.688  41.071  1.00  0.00     0.157 A 
ATOM     32  C   UNL     1     -29.189  38.420  41.812  1.00  0.00     0.051 A 
ATOM     33  C   UNL     1     -28.559  39.354  41.018  1.00  0.00     0.157 A 
BRANCH  31  34
ATOM     34  O   UNL     1     -28.164  41.698  40.515  1.00  0.00    -0.504 OA
ATOM     35  H   UNL     1     -27.886  41.631  39.555  1.00  0.00     0.293 HD
ENDBRANCH  31  34
BRANCH  33  36
ATOM     36  O   UNL     1     -27.492  39.076  40.134  1.00  0.00    -0.504 OA
ATOM     37  H   UNL     1     -26.537  39.386  40.403  1.00  0.00     0.293 HD
ENDBRANCH  33  36
ENDBRANCH  27  28
ENDBRANCH  24  26
ENDBRANCH  23  24
ENDBRANCH   6  23
BRANCH   3  38
ATOM     38  O   UNL     1     -35.629  41.232  42.818  1.00  0.00    -0.350 OA
BRANCH  38  39
ATOM     39  C   UNL     1     -35.145  42.496  43.265  1.00  0.00     0.168 C 
BRANCH  39  40
ATOM     40  C   UNL     1     -35.641  43.732  42.445  1.00  0.00     0.064 C 
BRANCH  40  41
ATOM     41  C   UNL     1     -35.055  43.871  41.048  1.00  0.00    -0.042 A 
ATOM     42  C   UNL     1     -35.216  45.073  40.334  1.00  0.00     0.054 A 
ATOM     43  C   UNL     1     -34.550  42.807  40.408  1.00  0.00     0.008 A 
ATOM     44  C   UNL     1     -34.773  45.184  39.022  1.00  0.00     0.157 A 
ATOM     45  C   UNL     1     -34.015  42.918  39.135  1.00  0.00     0.050 A 
ATOM     46  C   UNL     1     -34.148  44.097  38.407  1.00  0.00     0.157 A 
BRANCH  44  47
ATOM     47  O   UNL     1     -35.147  46.304  38.266  1.00  0.00    -0.504 OA
ATOM     48  H   UNL     1     -36.125  46.587  38.236  1.00  0.00     0.293 HD
ENDBRANCH  44  47
BRANCH  46  49
ATOM     49  O   UNL     1     -33.581  44.199  37.131  1.00  0.00    -0.504 OA
ATOM     50  H   UNL     1     -34.060  44.775  36.440  1.00  0.00     0.293 HD
ENDBRANCH  46  49
ENDBRANCH  40  41
ENDBRANCH  39  40
ENDBRANCH  38  39
ENDBRANCH   3  38
BRANCH   5  51
ATOM     51  C   UNL     1     -38.154  39.612  39.634  1.00  0.00     0.192 C 
BRANCH  51  52
ATOM     52  O   UNL     1     -38.915  40.715  39.139  1.00  0.00    -0.394 OA
ATOM     53  H   UNL     1     -39.111  40.515  38.189  1.00  0.00     0.210 HD
ENDBRANCH  51  52
ENDBRANCH   5  51
TORSDOF 20
ENDMDL
MODEL 4
REMARK VINA RESULT:    -9.551      1.338      1.775
REMARK INTER + INTRA:         -20.470
REMARK INTER:                 -17.675
REMARK INTRA:                  -2.795
REMARK UNBOUND:                -2.264
REMARK SMILES C[C@@H]1O[C@H](O[C@@H]2[C@H](O)[C@@H](OCCc3ccc(O)c(O)c3)O[C@H](CO)[C@H]2OC(=O)C=Cc2ccc(O)c(O)c2)[C@@H](O)[C@H](O)[C@H]1O
REMARK SMILES IDX 6 1 7 2 9 3 21 4 22 5 25 6 5 7 4 8 1 9 2 10 43 11 3 12 41 13
REMARK SMILES IDX 39 14 44 15 42 17 40 19 8 21 26 23 27 24 28 25 29 26 30 27
REMARK SMILES IDX 31 28 38 29 32 30 36 31 33 32 34 33 37 34 35 36 10 38 11 39
REMARK SMILES IDX 12 40 13 41 20 42 14 43 18 44 15 45 16 46 19 47 17 49 23 51
REMARK SMILES IDX 24 52
REMARK H PARENT 44 16 42 18 40 20 8 22 37 35 35 37 19 48 17 50 24 53
REMARK Flexibility Score: inf
ROOT
ATOM      1  C   UNL     1     -34.125  39.416  42.543  1.00  0.00     0.199 C 
ATOM      2  C   UNL     1     -33.171  39.424  41.282  1.00  0.00     0.203 C 
ATOM      3  C   UNL     1     -33.044  40.954  40.827  1.00  0.00     0.282 C 
ATOM      4  O   UNL     1     -32.309  41.738  41.712  1.00  0.00    -0.340 OA
ATOM      5  C   UNL     1     -32.908  41.808  43.072  1.00  0.00     0.190 C 
ATOM      6  C   UNL     1     -34.070  40.810  43.451  1.00  0.00     0.240 C 
ENDROOT
BRANCH   1   7
ATOM      7  O   UNL     1     -34.572  38.084  43.124  1.00  0.00    -0.340 OA
BRANCH   7   8
ATOM      8  C   UNL     1     -35.422  37.886  44.372  1.00  0.00     0.282 C 
ATOM      9  C   UNL     1     -36.928  35.334  42.888  1.00  0.00     0.041 C 
ATOM     10  C   UNL     1     -36.969  35.966  44.281  1.00  0.00     0.150 C 
ATOM     11  C   UNL     1     -36.210  35.205  45.382  1.00  0.00     0.174 C 
ATOM     12  O   UNL     1     -36.809  37.373  44.370  1.00  0.00    -0.344 OA
ATOM     13  C   UNL     1     -34.770  35.551  45.501  1.00  0.00     0.179 C 
ATOM     14  C   UNL     1     -34.603  37.106  45.523  1.00  0.00     0.202 C 
BRANCH  11  15
ATOM     15  O   UNL     1     -36.840  34.974  46.633  1.00  0.00    -0.388 OA
ATOM     16  H   UNL     1     -36.155  34.463  47.206  1.00  0.00     0.211 HD
ENDBRANCH  11  15
BRANCH  13  17
ATOM     17  O   UNL     1     -34.106  35.091  44.301  1.00  0.00    -0.387 OA
ATOM     18  H   UNL     1     -34.624  34.258  44.055  1.00  0.00     0.211 HD
ENDBRANCH  13  17
BRANCH  14  19
ATOM     19  O   UNL     1     -34.863  37.685  46.808  1.00  0.00    -0.385 OA
ATOM     20  H   UNL     1     -35.882  37.547  46.862  1.00  0.00     0.211 HD
ENDBRANCH  14  19
ENDBRANCH   7   8
ENDBRANCH   1   7
BRANCH   2  21
ATOM     21  O   UNL     1     -31.859  39.015  41.643  1.00  0.00    -0.385 OA
ATOM     22  H   UNL     1     -31.225  39.343  40.932  1.00  0.00     0.211 HD
ENDBRANCH   2  21
BRANCH   6  23
ATOM     23  O   UNL     1     -35.316  41.522  43.164  1.00  0.00    -0.453 OA
BRANCH  23  24
ATOM     24  C   UNL     1     -36.643  40.980  43.113  1.00  0.00     0.331 C 
ATOM     25  O   UNL     1     -37.189  40.601  42.006  1.00  0.00    -0.247 OA
BRANCH  24  26
ATOM     26  C   UNL     1     -37.501  41.000  44.287  1.00  0.00     0.094 C 
ATOM     27  C   UNL     1     -38.355  40.003  44.498  1.00  0.00     0.016 C 
BRANCH  27  28
ATOM     28  C   UNL     1     -38.908  39.688  45.848  1.00  0.00    -0.021 A 
ATOM     29  C   UNL     1     -37.961  39.350  46.870  1.00  0.00     0.058 A 
ATOM     30  C   UNL     1     -40.149  39.047  45.865  1.00  0.00     0.012 A 
ATOM     31  C   UNL     1     -38.212  38.193  47.664  1.00  0.00     0.157 A 
ATOM     32  C   UNL     1     -40.254  37.791  46.476  1.00  0.00     0.051 A 
ATOM     33  C   UNL     1     -39.271  37.342  47.333  1.00  0.00     0.157 A 
BRANCH  31  34
ATOM     34  O   UNL     1     -37.377  37.880  48.755  1.00  0.00    -0.504 OA
ATOM     35  H   UNL     1     -36.454  37.530  48.583  1.00  0.00     0.293 HD
ENDBRANCH  31  34
BRANCH  33  36
ATOM     36  O   UNL     1     -39.242  36.061  47.929  1.00  0.00    -0.504 OA
ATOM     37  H   UNL     1     -38.422  35.811  48.517  1.00  0.00     0.293 HD
ENDBRANCH  33  36
ENDBRANCH  27  28
ENDBRANCH  24  26
ENDBRANCH  23  24
ENDBRANCH   6  23
BRANCH   3  38
ATOM     38  O   UNL     1     -34.342  41.497  40.559  1.00  0.00    -0.350 OA
BRANCH  38  39
ATOM     39  C   UNL     1     -34.316  42.423  39.476  1.00  0.00     0.168 C 
BRANCH  39  40
ATOM     40  C   UNL     1     -33.991  43.902  39.867  1.00  0.00     0.064 C 
BRANCH  40  41
ATOM     41  C   UNL     1     -33.682  44.835  38.706  1.00  0.00    -0.042 A 
ATOM     42  C   UNL     1     -34.733  45.415  37.970  1.00  0.00     0.054 A 
ATOM     43  C   UNL     1     -32.429  44.970  38.249  1.00  0.00     0.008 A 
ATOM     44  C   UNL     1     -34.470  46.189  36.846  1.00  0.00     0.157 A 
ATOM     45  C   UNL     1     -32.132  45.813  37.191  1.00  0.00     0.050 A 
ATOM     46  C   UNL     1     -33.149  46.410  36.451  1.00  0.00     0.157 A 
BRANCH  44  47
ATOM     47  O   UNL     1     -35.530  46.561  36.009  1.00  0.00    -0.504 OA
ATOM     48  H   UNL     1     -36.479  46.270  36.238  1.00  0.00     0.293 HD
ENDBRANCH  44  47
BRANCH  46  49
ATOM     49  O   UNL     1     -32.831  47.278  35.399  1.00  0.00    -0.504 OA
ATOM     50  H   UNL     1     -33.070  48.263  35.503  1.00  0.00     0.293 HD
ENDBRANCH  46  49
ENDBRANCH  40  41
ENDBRANCH  39  40
ENDBRANCH  38  39
ENDBRANCH   3  38
BRANCH   5  51
ATOM     51  C   UNL     1     -31.741  41.710  44.070  1.00  0.00     0.192 C 
BRANCH  51  52
ATOM     52  O   UNL     1     -30.665  40.862  43.663  1.00  0.00    -0.394 OA
ATOM     53  H   UNL     1     -29.830  41.319  43.935  1.00  0.00     0.210 HD
ENDBRANCH  51  52
ENDBRANCH   5  51
TORSDOF 20
ENDMDL
MODEL 5
REMARK VINA RESULT:    -9.494      2.793      9.290
REMARK INTER + INTRA:         -20.362
REMARK INTER:                 -17.732
REMARK INTRA:                  -2.630
REMARK UNBOUND:                -2.264
REMARK SMILES C[C@@H]1O[C@H](O[C@@H]2[C@H](O)[C@@H](OCCc3ccc(O)c(O)c3)O[C@H](CO)[C@H]2OC(=O)C=Cc2ccc(O)c(O)c2)[C@@H](O)[C@H](O)[C@H]1O
REMARK SMILES IDX 6 1 7 2 9 3 21 4 22 5 25 6 5 7 4 8 1 9 2 10 43 11 3 12 41 13
REMARK SMILES IDX 39 14 44 15 42 17 40 19 8 21 26 23 27 24 28 25 29 26 30 27
REMARK SMILES IDX 31 28 38 29 32 30 36 31 33 32 34 33 37 34 35 36 10 38 11 39
REMARK SMILES IDX 12 40 13 41 20 42 14 43 18 44 15 45 16 46 19 47 17 49 23 51
REMARK SMILES IDX 24 52
REMARK H PARENT 44 16 42 18 40 20 8 22 37 35 35 37 19 48 17 50 24 53
REMARK Flexibility Score: inf
ROOT
ATOM      1  C   UNL     1     -36.233  39.923  43.287  1.00  0.00     0.199 C 
ATOM      2  C   UNL     1     -37.613  40.696  43.245  1.00  0.00     0.203 C 
ATOM      3  C   UNL     1     -38.334  40.402  44.644  1.00  0.00     0.282 C 
ATOM      4  O   UNL     1     -37.722  41.026  45.727  1.00  0.00    -0.340 OA
ATOM      5  C   UNL     1     -36.316  40.589  45.939  1.00  0.00     0.190 C 
ATOM      6  C   UNL     1     -35.595  39.749  44.815  1.00  0.00     0.240 C 
ENDROOT
BRANCH   1   7
ATOM      7  O   UNL     1     -35.373  39.876  42.036  1.00  0.00    -0.340 OA
BRANCH   7   8
ATOM      8  C   UNL     1     -34.725  41.068  41.344  1.00  0.00     0.282 C 
ATOM      9  C   UNL     1     -32.258  40.957  43.555  1.00  0.00     0.041 C 
ATOM     10  C   UNL     1     -32.558  41.770  42.294  1.00  0.00     0.150 C 
ATOM     11  C   UNL     1     -31.784  41.355  41.032  1.00  0.00     0.174 C 
ATOM     12  O   UNL     1     -33.913  42.098  42.029  1.00  0.00    -0.344 OA
ATOM     13  C   UNL     1     -32.424  40.278  40.233  1.00  0.00     0.179 C 
ATOM     14  C   UNL     1     -33.936  40.617  40.011  1.00  0.00     0.202 C 
BRANCH  11  15
ATOM     15  O   UNL     1     -31.156  42.350  40.237  1.00  0.00    -0.388 OA
ATOM     16  H   UNL     1     -30.852  43.085  40.890  1.00  0.00     0.211 HD
ENDBRANCH  11  15
BRANCH  13  17
ATOM     17  O   UNL     1     -32.393  39.065  41.021  1.00  0.00    -0.387 OA
ATOM     18  H   UNL     1     -31.424  38.998  41.301  1.00  0.00     0.211 HD
ENDBRANCH  13  17
BRANCH  14  19
ATOM     19  O   UNL     1     -34.157  41.556  38.951  1.00  0.00    -0.385 OA
ATOM     20  H   UNL     1     -33.859  42.424  39.418  1.00  0.00     0.211 HD
ENDBRANCH  14  19
ENDBRANCH   7   8
ENDBRANCH   1   7
BRANCH   2  21
ATOM     21  O   UNL     1     -37.399  42.100  43.204  1.00  0.00    -0.385 OA
ATOM     22  H   UNL     1     -36.583  42.273  42.639  1.00  0.00     0.211 HD
ENDBRANCH   2  21
BRANCH   6  23
ATOM     23  O   UNL     1     -35.797  38.345  45.174  1.00  0.00    -0.453 OA
BRANCH  23  24
ATOM     24  C   UNL     1     -35.213  37.628  46.271  1.00  0.00     0.331 C 
ATOM     25  O   UNL     1     -34.386  38.184  47.094  1.00  0.00    -0.247 OA
BRANCH  24  26
ATOM     26  C   UNL     1     -35.388  36.191  46.398  1.00  0.00     0.094 C 
ATOM     27  C   UNL     1     -36.311  35.571  45.669  1.00  0.00     0.016 C 
BRANCH  27  28
ATOM     28  C   UNL     1     -36.254  34.110  45.368  1.00  0.00    -0.021 A 
ATOM     29  C   UNL     1     -37.098  33.256  46.154  1.00  0.00     0.058 A 
ATOM     30  C   UNL     1     -35.009  33.616  44.972  1.00  0.00     0.012 A 
ATOM     31  C   UNL     1     -36.525  32.083  46.725  1.00  0.00     0.157 A 
ATOM     32  C   UNL     1     -34.407  32.607  45.734  1.00  0.00     0.051 A 
ATOM     33  C   UNL     1     -35.144  31.876  46.641  1.00  0.00     0.157 A 
BRANCH  31  34
ATOM     34  O   UNL     1     -37.333  31.152  47.407  1.00  0.00    -0.504 OA
ATOM     35  H   UNL     1     -38.236  30.923  47.040  1.00  0.00     0.293 HD
ENDBRANCH  31  34
BRANCH  33  36
ATOM     36  O   UNL     1     -34.614  30.900  47.515  1.00  0.00    -0.504 OA
ATOM     37  H   UNL     1     -33.891  31.196  48.201  1.00  0.00     0.293 HD
ENDBRANCH  33  36
ENDBRANCH  27  28
ENDBRANCH  24  26
ENDBRANCH  23  24
ENDBRANCH   6  23
BRANCH   3  38
ATOM     38  O   UNL     1     -38.481  38.989  44.834  1.00  0.00    -0.350 OA
BRANCH  38  39
ATOM     39  C   UNL     1     -39.355  38.689  45.919  1.00  0.00     0.168 C 
BRANCH  39  40
ATOM     40  C   UNL     1     -38.893  37.517  46.846  1.00  0.00     0.064 C 
BRANCH  40  41
ATOM     41  C   UNL     1     -39.726  37.306  48.102  1.00  0.00    -0.042 A 
ATOM     42  C   UNL     1     -39.896  36.009  48.623  1.00  0.00     0.054 A 
ATOM     43  C   UNL     1     -40.457  38.305  48.616  1.00  0.00     0.008 A 
ATOM     44  C   UNL     1     -40.733  35.786  49.710  1.00  0.00     0.157 A 
ATOM     45  C   UNL     1     -41.222  38.128  49.757  1.00  0.00     0.050 A 
ATOM     46  C   UNL     1     -41.400  36.860  50.303  1.00  0.00     0.157 A 
BRANCH  44  47
ATOM     47  O   UNL     1     -41.060  34.469  50.062  1.00  0.00    -0.504 OA
ATOM     48  H   UNL     1     -41.489  34.281  50.966  1.00  0.00     0.293 HD
ENDBRANCH  44  47
BRANCH  46  49
ATOM     49  O   UNL     1     -42.158  36.702  51.470  1.00  0.00    -0.504 OA
ATOM     50  H   UNL     1     -41.908  35.944  52.104  1.00  0.00     0.293 HD
ENDBRANCH  46  49
ENDBRANCH  40  41
ENDBRANCH  39  40
ENDBRANCH  38  39
ENDBRANCH   3  38
BRANCH   5  51
ATOM     51  C   UNL     1     -35.514  41.853  46.294  1.00  0.00     0.192 C 
BRANCH  51  52
ATOM     52  O   UNL     1     -35.247  42.729  45.196  1.00  0.00    -0.394 OA
ATOM     53  H   UNL     1     -35.027  42.149  44.424  1.00  0.00     0.210 HD
ENDBRANCH  51  52
ENDBRANCH   5  51
TORSDOF 20
ENDMDL
MODEL 6
REMARK VINA RESULT:    -9.402      2.936      8.244
REMARK INTER + INTRA:         -20.186
REMARK INTER:                 -17.529
REMARK INTRA:                  -2.658
REMARK UNBOUND:                -2.264
REMARK SMILES C[C@@H]1O[C@H](O[C@@H]2[C@H](O)[C@@H](OCCc3ccc(O)c(O)c3)O[C@H](CO)[C@H]2OC(=O)C=Cc2ccc(O)c(O)c2)[C@@H](O)[C@H](O)[C@H]1O
REMARK SMILES IDX 6 1 7 2 9 3 21 4 22 5 25 6 5 7 4 8 1 9 2 10 43 11 3 12 41 13
REMARK SMILES IDX 39 14 44 15 42 17 40 19 8 21 26 23 27 24 28 25 29 26 30 27
REMARK SMILES IDX 31 28 38 29 32 30 36 31 33 32 34 33 37 34 35 36 10 38 11 39
REMARK SMILES IDX 12 40 13 41 20 42 14 43 18 44 15 45 16 46 19 47 17 49 23 51
REMARK SMILES IDX 24 52
REMARK H PARENT 44 16 42 18 40 20 8 22 37 35 35 37 19 48 17 50 24 53
REMARK Flexibility Score: inf
ROOT
ATOM      1  C   UNL     1     -34.894  38.868  43.367  1.00  0.00     0.199 C 
ATOM      2  C   UNL     1     -35.421  37.980  42.168  1.00  0.00     0.203 C 
ATOM      3  C   UNL     1     -36.928  37.582  42.535  1.00  0.00     0.282 C 
ATOM      4  O   UNL     1     -37.816  38.651  42.474  1.00  0.00    -0.340 OA
ATOM      5  C   UNL     1     -37.484  39.746  43.425  1.00  0.00     0.190 C 
ATOM      6  C   UNL     1     -36.081  39.737  44.146  1.00  0.00     0.240 C 
ENDROOT
BRANCH   1   7
ATOM      7  O   UNL     1     -33.432  39.281  43.394  1.00  0.00    -0.340 OA
BRANCH   7   8
ATOM      8  C   UNL     1     -32.879  40.657  43.044  1.00  0.00     0.282 C 
ATOM      9  C   UNL     1     -30.018  39.234  42.161  1.00  0.00     0.041 C 
ATOM     10  C   UNL     1     -30.593  40.651  42.114  1.00  0.00     0.150 C 
ATOM     11  C   UNL     1     -31.071  41.133  40.734  1.00  0.00     0.174 C 
ATOM     12  O   UNL     1     -31.457  41.046  43.168  1.00  0.00    -0.344 OA
ATOM     13  C   UNL     1     -32.477  40.781  40.403  1.00  0.00     0.179 C 
ATOM     14  C   UNL     1     -33.408  41.154  41.604  1.00  0.00     0.202 C 
BRANCH  11  15
ATOM     15  O   UNL     1     -30.687  42.418  40.270  1.00  0.00    -0.388 OA
ATOM     16  H   UNL     1     -31.423  43.065  40.583  1.00  0.00     0.211 HD
ENDBRANCH  11  15
BRANCH  13  17
ATOM     17  O   UNL     1     -32.552  39.343  40.266  1.00  0.00    -0.387 OA
ATOM     18  H   UNL     1     -32.095  39.008  41.104  1.00  0.00     0.211 HD
ENDBRANCH  13  17
BRANCH  14  19
ATOM     19  O   UNL     1     -33.750  42.546  41.645  1.00  0.00    -0.385 OA
ATOM     20  H   UNL     1     -32.965  42.937  41.105  1.00  0.00     0.211 HD
ENDBRANCH  14  19
ENDBRANCH   7   8
ENDBRANCH   1   7
BRANCH   2  21
ATOM     21  O   UNL     1     -35.500  38.746  40.975  1.00  0.00    -0.385 OA
ATOM     22  H   UNL     1     -35.874  39.652  41.211  1.00  0.00     0.211 HD
ENDBRANCH   2  21
BRANCH   6  23
ATOM     23  O   UNL     1     -36.295  39.061  45.426  1.00  0.00    -0.453 OA
BRANCH  23  24
ATOM     24  C   UNL     1     -37.201  39.435  46.474  1.00  0.00     0.331 C 
ATOM     25  O   UNL     1     -37.156  40.594  47.041  1.00  0.00    -0.247 OA
BRANCH  24  26
ATOM     26  C   UNL     1     -38.096  38.455  47.068  1.00  0.00     0.094 C 
ATOM     27  C   UNL     1     -39.119  38.862  47.813  1.00  0.00     0.016 C 
BRANCH  27  28
ATOM     28  C   UNL     1     -40.324  38.016  48.058  1.00  0.00    -0.021 A 
ATOM     29  C   UNL     1     -40.904  38.084  49.368  1.00  0.00     0.058 A 
ATOM     30  C   UNL     1     -40.357  36.791  47.388  1.00  0.00     0.012 A 
ATOM     31  C   UNL     1     -41.219  36.861  50.029  1.00  0.00     0.157 A 
ATOM     32  C   UNL     1     -40.439  35.612  48.139  1.00  0.00     0.051 A 
ATOM     33  C   UNL     1     -40.819  35.646  49.464  1.00  0.00     0.157 A 
BRANCH  31  34
ATOM     34  O   UNL     1     -41.894  36.870  51.266  1.00  0.00    -0.504 OA
ATOM     35  H   UNL     1     -42.728  37.416  51.367  1.00  0.00     0.293 HD
ENDBRANCH  31  34
BRANCH  33  36
ATOM     36  O   UNL     1     -40.848  34.526  50.326  1.00  0.00    -0.504 OA
ATOM     37  H   UNL     1     -39.952  34.043  50.535  1.00  0.00     0.293 HD
ENDBRANCH  33  36
ENDBRANCH  27  28
ENDBRANCH  24  26
ENDBRANCH  23  24
ENDBRANCH   6  23
BRANCH   3  38
ATOM     38  O   UNL     1     -36.965  36.908  43.798  1.00  0.00    -0.350 OA
BRANCH  38  39
ATOM     39  C   UNL     1     -36.643  35.525  43.671  1.00  0.00     0.168 C 
BRANCH  39  40
ATOM     40  C   UNL     1     -36.472  34.750  45.019  1.00  0.00     0.064 C 
BRANCH  40  41
ATOM     41  C   UNL     1     -35.216  33.899  45.132  1.00  0.00    -0.042 A 
ATOM     42  C   UNL     1     -35.181  32.812  46.026  1.00  0.00     0.054 A 
ATOM     43  C   UNL     1     -34.077  34.275  44.535  1.00  0.00     0.008 A 
ATOM     44  C   UNL     1     -34.012  32.085  46.213  1.00  0.00     0.157 A 
ATOM     45  C   UNL     1     -32.925  33.512  44.630  1.00  0.00     0.050 A 
ATOM     46  C   UNL     1     -32.862  32.424  45.497  1.00  0.00     0.157 A 
BRANCH  44  47
ATOM     47  O   UNL     1     -33.942  31.163  47.267  1.00  0.00    -0.504 OA
ATOM     48  H   UNL     1     -34.275  31.429  48.192  1.00  0.00     0.293 HD
ENDBRANCH  44  47
BRANCH  46  49
ATOM     49  O   UNL     1     -31.698  31.650  45.564  1.00  0.00    -0.504 OA
ATOM     50  H   UNL     1     -30.805  32.113  45.392  1.00  0.00     0.293 HD
ENDBRANCH  46  49
ENDBRANCH  40  41
ENDBRANCH  39  40
ENDBRANCH  38  39
ENDBRANCH   3  38
BRANCH   5  51
ATOM     51  C   UNL     1     -37.715  41.067  42.670  1.00  0.00     0.192 C 
BRANCH  51  52
ATOM     52  O   UNL     1     -36.743  41.369  41.666  1.00  0.00    -0.394 OA
ATOM     53  H   UNL     1     -37.249  41.662  40.867  1.00  0.00     0.210 HD
ENDBRANCH  51  52
ENDBRANCH   5  51
TORSDOF 20
ENDMDL
MODEL 7
REMARK VINA RESULT:    -9.394      3.047      6.456
REMARK INTER + INTRA:         -20.171
REMARK INTER:                 -17.868
REMARK INTRA:                  -2.303
REMARK UNBOUND:                -2.264
REMARK SMILES C[C@@H]1O[C@H](O[C@@H]2[C@H](O)[C@@H](OCCc3ccc(O)c(O)c3)O[C@H](CO)[C@H]2OC(=O)C=Cc2ccc(O)c(O)c2)[C@@H](O)[C@H](O)[C@H]1O
REMARK SMILES IDX 6 1 7 2 9 3 21 4 22 5 25 6 5 7 4 8 1 9 2 10 43 11 3 12 41 13
REMARK SMILES IDX 39 14 44 15 42 17 40 19 8 21 26 23 27 24 28 25 29 26 30 27
REMARK SMILES IDX 31 28 38 29 32 30 36 31 33 32 34 33 37 34 35 36 10 38 11 39
REMARK SMILES IDX 12 40 13 41 20 42 14 43 18 44 15 45 16 46 19 47 17 49 23 51
REMARK SMILES IDX 24 52
REMARK H PARENT 44 16 42 18 40 20 8 22 37 35 35 37 19 48 17 50 24 53
REMARK Flexibility Score: inf
ROOT
ATOM      1  C   UNL     1     -34.225  40.158  43.448  1.00  0.00     0.199 C 
ATOM      2  C   UNL     1     -35.116  41.447  43.238  1.00  0.00     0.203 C 
ATOM      3  C   UNL     1     -34.866  41.925  41.730  1.00  0.00     0.282 C 
ATOM      4  O   UNL     1     -35.417  41.073  40.778  1.00  0.00    -0.340 OA
ATOM      5  C   UNL     1     -34.855  39.696  40.826  1.00  0.00     0.190 C 
ATOM      6  C   UNL     1     -33.972  39.270  42.062  1.00  0.00     0.240 C 
ENDROOT
BRANCH   1   7
ATOM      7  O   UNL     1     -34.122  39.547  44.835  1.00  0.00    -0.340 OA
BRANCH   7   8
ATOM      8  C   UNL     1     -35.035  39.840  46.018  1.00  0.00     0.282 C 
ATOM      9  C   UNL     1     -37.304  37.806  44.715  1.00  0.00     0.041 C 
ATOM     10  C   UNL     1     -37.169  38.600  46.015  1.00  0.00     0.150 C 
ATOM     11  C   UNL     1     -36.783  37.783  47.260  1.00  0.00     0.174 C 
ATOM     12  O   UNL     1     -36.512  39.857  45.954  1.00  0.00    -0.344 OA
ATOM     13  C   UNL     1     -35.321  37.609  47.464  1.00  0.00     0.179 C 
ATOM     14  C   UNL     1     -34.602  38.991  47.320  1.00  0.00     0.202 C 
BRANCH  11  15
ATOM     15  O   UNL     1     -37.503  37.968  48.469  1.00  0.00    -0.388 OA
ATOM     16  H   UNL     1     -36.964  37.482  49.199  1.00  0.00     0.211 HD
ENDBRANCH  11  15
BRANCH  13  17
ATOM     17  O   UNL     1     -34.822  36.780  46.389  1.00  0.00    -0.387 OA
ATOM     18  H   UNL     1     -33.823  36.939  46.420  1.00  0.00     0.211 HD
ENDBRANCH  13  17
BRANCH  14  19
ATOM     19  O   UNL     1     -34.686  39.799  48.500  1.00  0.00    -0.385 OA
ATOM     20  H   UNL     1     -34.504  39.083  49.219  1.00  0.00     0.211 HD
ENDBRANCH  14  19
ENDBRANCH   7   8
ENDBRANCH   1   7
BRANCH   2  21
ATOM     21  O   UNL     1     -36.497  41.120  43.319  1.00  0.00    -0.385 OA
ATOM     22  H   UNL     1     -36.964  41.550  42.535  1.00  0.00     0.211 HD
ENDBRANCH   2  21
BRANCH   6  23
ATOM     23  O   UNL     1     -32.586  39.528  41.670  1.00  0.00    -0.453 OA
BRANCH  23  24
ATOM     24  C   UNL     1     -31.411  39.420  42.486  1.00  0.00     0.331 C 
ATOM     25  O   UNL     1     -30.905  40.436  43.102  1.00  0.00    -0.247 OA
BRANCH  24  26
ATOM     26  C   UNL     1     -30.630  38.193  42.508  1.00  0.00     0.094 C 
ATOM     27  C   UNL     1     -29.370  38.206  42.087  1.00  0.00     0.016 C 
BRANCH  27  28
ATOM     28  C   UNL     1     -28.372  37.174  42.498  1.00  0.00    -0.021 A 
ATOM     29  C   UNL     1     -28.894  35.923  42.969  1.00  0.00     0.058 A 
ATOM     30  C   UNL     1     -27.200  37.658  43.084  1.00  0.00     0.012 A 
ATOM     31  C   UNL     1     -28.368  35.388  44.181  1.00  0.00     0.157 A 
ATOM     32  C   UNL     1     -26.875  37.251  44.384  1.00  0.00     0.051 A 
ATOM     33  C   UNL     1     -27.488  36.153  44.951  1.00  0.00     0.157 A 
BRANCH  31  34
ATOM     34  O   UNL     1     -28.762  34.110  44.627  1.00  0.00    -0.504 OA
ATOM     35  H   UNL     1     -29.002  33.979  45.591  1.00  0.00     0.293 HD
ENDBRANCH  31  34
BRANCH  33  36
ATOM     36  O   UNL     1     -27.292  35.716  46.281  1.00  0.00    -0.504 OA
ATOM     37  H   UNL     1     -26.317  35.589  46.618  1.00  0.00     0.293 HD
ENDBRANCH  33  36
ENDBRANCH  27  28
ENDBRANCH  24  26
ENDBRANCH  23  24
ENDBRANCH   6  23
BRANCH   3  38
ATOM     38  O   UNL     1     -33.469  42.160  41.515  1.00  0.00    -0.350 OA
BRANCH  38  39
ATOM     39  C   UNL     1     -33.233  42.878  40.306  1.00  0.00     0.168 C 
BRANCH  39  40
ATOM     40  C   UNL     1     -34.079  44.181  40.124  1.00  0.00     0.064 C 
BRANCH  40  41
ATOM     41  C   UNL     1     -33.767  44.998  38.879  1.00  0.00    -0.042 A 
ATOM     42  C   UNL     1     -34.815  45.547  38.117  1.00  0.00     0.054 A 
ATOM     43  C   UNL     1     -32.521  45.047  38.385  1.00  0.00     0.008 A 
ATOM     44  C   UNL     1     -34.554  46.211  36.925  1.00  0.00     0.157 A 
ATOM     45  C   UNL     1     -32.222  45.783  37.251  1.00  0.00     0.050 A 
ATOM     46  C   UNL     1     -33.236  46.349  36.483  1.00  0.00     0.157 A 
BRANCH  44  47
ATOM     47  O   UNL     1     -35.621  46.545  36.081  1.00  0.00    -0.504 OA
ATOM     48  H   UNL     1     -35.483  47.234  35.343  1.00  0.00     0.293 HD
ENDBRANCH  44  47
BRANCH  46  49
ATOM     49  O   UNL     1     -32.914  47.110  35.353  1.00  0.00    -0.504 OA
ATOM     50  H   UNL     1     -33.444  46.943  34.497  1.00  0.00     0.293 HD
ENDBRANCH  46  49
ENDBRANCH  40  41
ENDBRANCH  39  40
ENDBRANCH  38  39
ENDBRANCH   3  38
BRANCH   5  51
ATOM     51  C   UNL     1     -36.038  38.733  40.626  1.00  0.00     0.192 C 
BRANCH  51  52
ATOM     52  O   UNL     1     -37.278  39.172  41.184  1.00  0.00    -0.394 OA
ATOM     53  H   UNL     1     -37.656  39.825  40.543  1.00  0.00     0.210 HD
ENDBRANCH  51  52
ENDBRANCH   5  51
TORSDOF 20
ENDMDL
MODEL 8
REMARK VINA RESULT:    -9.369      2.163      7.776
REMARK INTER + INTRA:         -20.123
REMARK INTER:                 -17.760
REMARK INTRA:                  -2.363
REMARK UNBOUND:                -2.264
REMARK SMILES C[C@@H]1O[C@H](O[C@@H]2[C@H](O)[C@@H](OCCc3ccc(O)c(O)c3)O[C@H](CO)[C@H]2OC(=O)C=Cc2ccc(O)c(O)c2)[C@@H](O)[C@H](O)[C@H]1O
REMARK SMILES IDX 6 1 7 2 9 3 21 4 22 5 25 6 5 7 4 8 1 9 2 10 43 11 3 12 41 13
REMARK SMILES IDX 39 14 44 15 42 17 40 19 8 21 26 23 27 24 28 25 29 26 30 27
REMARK SMILES IDX 31 28 38 29 32 30 36 31 33 32 34 33 37 34 35 36 10 38 11 39
REMARK SMILES IDX 12 40 13 41 20 42 14 43 18 44 15 45 16 46 19 47 17 49 23 51
REMARK SMILES IDX 24 52
REMARK H PARENT 44 16 42 18 40 20 8 22 37 35 35 37 19 48 17 50 24 53
REMARK Flexibility Score: inf
ROOT
ATOM      1  C   UNL     1     -34.629  39.213  43.974  1.00  0.00     0.199 C 
ATOM      2  C   UNL     1     -33.999  40.053  45.157  1.00  0.00     0.203 C 
ATOM      3  C   UNL     1     -34.044  41.585  44.692  1.00  0.00     0.282 C 
ATOM      4  O   UNL     1     -35.329  42.117  44.653  1.00  0.00    -0.340 OA
ATOM      5  C   UNL     1     -36.226  41.416  43.696  1.00  0.00     0.190 C 
ATOM      6  C   UNL     1     -35.768  40.038  43.082  1.00  0.00     0.240 C 
ENDROOT
BRANCH   1   7
ATOM      7  O   UNL     1     -34.593  37.696  44.044  1.00  0.00    -0.340 OA
BRANCH   7   8
ATOM      8  C   UNL     1     -34.802  36.846  45.290  1.00  0.00     0.282 C 
ATOM      9  C   UNL     1     -37.938  37.909  45.436  1.00  0.00     0.041 C 
ATOM     10  C   UNL     1     -37.092  36.895  46.209  1.00  0.00     0.150 C 
ATOM     11  C   UNL     1     -37.343  35.417  45.865  1.00  0.00     0.174 C 
ATOM     12  O   UNL     1     -35.718  37.193  46.399  1.00  0.00    -0.344 OA
ATOM     13  C   UNL     1     -36.543  34.896  44.726  1.00  0.00     0.179 C 
ATOM     14  C   UNL     1     -35.042  35.296  44.912  1.00  0.00     0.202 C 
BRANCH  11  15
ATOM     15  O   UNL     1     -37.512  34.474  46.913  1.00  0.00    -0.388 OA
ATOM     16  H   UNL     1     -36.613  33.979  46.998  1.00  0.00     0.211 HD
ENDBRANCH  11  15
BRANCH  13  17
ATOM     17  O   UNL     1     -36.994  35.568  43.527  1.00  0.00    -0.387 OA
ATOM     18  H   UNL     1     -36.872  34.865  42.810  1.00  0.00     0.211 HD
ENDBRANCH  13  17
BRANCH  14  19
ATOM     19  O   UNL     1     -34.335  34.440  45.819  1.00  0.00    -0.385 OA
ATOM     20  H   UNL     1     -34.946  33.611  45.792  1.00  0.00     0.211 HD
ENDBRANCH  14  19
ENDBRANCH   7   8
ENDBRANCH   1   7
BRANCH   2  21
ATOM     21  O   UNL     1     -34.816  39.975  46.317  1.00  0.00    -0.385 OA
ATOM     22  H   UNL     1     -34.905  39.003  46.569  1.00  0.00     0.211 HD
ENDBRANCH   2  21
BRANCH   6  23
ATOM     23  O   UNL     1     -35.119  40.363  41.812  1.00  0.00    -0.453 OA
BRANCH  23  24
ATOM     24  C   UNL     1     -35.564  41.292  40.813  1.00  0.00     0.331 C 
ATOM     25  O   UNL     1     -36.684  41.145  40.187  1.00  0.00    -0.247 OA
BRANCH  24  26
ATOM     26  C   UNL     1     -34.685  42.345  40.332  1.00  0.00     0.094 C 
ATOM     27  C   UNL     1     -35.157  43.272  39.504  1.00  0.00     0.016 C 
BRANCH  27  28
ATOM     28  C   UNL     1     -34.514  44.609  39.340  1.00  0.00    -0.021 A 
ATOM     29  C   UNL     1     -34.885  45.365  38.179  1.00  0.00     0.058 A 
ATOM     30  C   UNL     1     -33.199  44.715  39.800  1.00  0.00     0.012 A 
ATOM     31  C   UNL     1     -33.846  45.948  37.395  1.00  0.00     0.157 A 
ATOM     32  C   UNL     1     -32.193  45.077  38.895  1.00  0.00     0.051 A 
ATOM     33  C   UNL     1     -32.511  45.644  37.679  1.00  0.00     0.157 A 
BRANCH  31  34
ATOM     34  O   UNL     1     -34.158  46.794  36.312  1.00  0.00    -0.504 OA
ATOM     35  H   UNL     1     -33.854  47.749  36.331  1.00  0.00     0.293 HD
ENDBRANCH  31  34
BRANCH  33  36
ATOM     36  O   UNL     1     -31.578  45.964  36.667  1.00  0.00    -0.504 OA
ATOM     37  H   UNL     1     -31.279  46.955  36.569  1.00  0.00     0.293 HD
ENDBRANCH  33  36
ENDBRANCH  27  28
ENDBRANCH  24  26
ENDBRANCH  23  24
ENDBRANCH   6  23
BRANCH   3  38
ATOM     38  O   UNL     1     -33.346  41.742  43.451  1.00  0.00    -0.350 OA
BRANCH  38  39
ATOM     39  C   UNL     1     -31.965  41.413  43.574  1.00  0.00     0.168 C 
BRANCH  39  40
ATOM     40  C   UNL     1     -31.158  41.392  42.233  1.00  0.00     0.064 C 
BRANCH  40  41
ATOM     41  C   UNL     1     -30.158  40.255  42.087  1.00  0.00    -0.042 A 
ATOM     42  C   UNL     1     -29.085  40.375  41.183  1.00  0.00     0.054 A 
ATOM     43  C   UNL     1     -30.382  39.066  42.662  1.00  0.00     0.008 A 
ATOM     44  C   UNL     1     -28.220  39.310  40.964  1.00  0.00     0.157 A 
ATOM     45  C   UNL     1     -29.482  38.021  42.536  1.00  0.00     0.050 A 
ATOM     46  C   UNL     1     -28.405  38.113  41.659  1.00  0.00     0.157 A 
BRANCH  44  47
ATOM     47  O   UNL     1     -27.308  39.377  39.902  1.00  0.00    -0.504 OA
ATOM     48  H   UNL     1     -27.370  38.702  39.141  1.00  0.00     0.293 HD
ENDBRANCH  44  47
BRANCH  46  49
ATOM     49  O   UNL     1     -27.491  37.056  41.560  1.00  0.00    -0.504 OA
ATOM     50  H   UNL     1     -26.497  37.277  41.607  1.00  0.00     0.293 HD
ENDBRANCH  46  49
ENDBRANCH  40  41
ENDBRANCH  39  40
ENDBRANCH  38  39
ENDBRANCH   3  38
BRANCH   5  51
ATOM     51  C   UNL     1     -37.594  41.291  44.390  1.00  0.00     0.192 C 
BRANCH  51  52
ATOM     52  O   UNL     1     -38.645  40.774  43.570  1.00  0.00    -0.394 OA
ATOM     53  H   UNL     1     -38.507  39.795  43.524  1.00  0.00     0.210 HD
ENDBRANCH  51  52
ENDBRANCH   5  51
TORSDOF 20
ENDMDL
MODEL 9
REMARK VINA RESULT:    -9.362      1.879      9.836
REMARK INTER + INTRA:         -20.109
REMARK INTER:                 -17.712
REMARK INTRA:                  -2.397
REMARK UNBOUND:                -2.264
REMARK SMILES C[C@@H]1O[C@H](O[C@@H]2[C@H](O)[C@@H](OCCc3ccc(O)c(O)c3)O[C@H](CO)[C@H]2OC(=O)C=Cc2ccc(O)c(O)c2)[C@@H](O)[C@H](O)[C@H]1O
REMARK SMILES IDX 6 1 7 2 9 3 21 4 22 5 25 6 5 7 4 8 1 9 2 10 43 11 3 12 41 13
REMARK SMILES IDX 39 14 44 15 42 17 40 19 8 21 26 23 27 24 28 25 29 26 30 27
REMARK SMILES IDX 31 28 38 29 32 30 36 31 33 32 34 33 37 34 35 36 10 38 11 39
REMARK SMILES IDX 12 40 13 41 20 42 14 43 18 44 15 45 16 46 19 47 17 49 23 51
REMARK SMILES IDX 24 52
REMARK H PARENT 44 16 42 18 40 20 8 22 37 35 35 37 19 48 17 50 24 53
REMARK Flexibility Score: inf
ROOT
ATOM      1  C   UNL     1     -34.851  38.438  44.011  1.00  0.00     0.199 C 
ATOM      2  C   UNL     1     -34.998  38.014  45.528  1.00  0.00     0.203 C 
ATOM      3  C   UNL     1     -36.566  37.822  45.790  1.00  0.00     0.282 C 
ATOM      4  O   UNL     1     -37.104  36.706  45.156  1.00  0.00    -0.340 OA
ATOM      5  C   UNL     1     -36.983  36.757  43.674  1.00  0.00     0.190 C 
ATOM      6  C   UNL     1     -36.048  37.844  43.017  1.00  0.00     0.240 C 
ENDROOT
BRANCH   1   7
ATOM      7  O   UNL     1     -33.486  38.846  43.486  1.00  0.00    -0.340 OA
BRANCH   7   8
ATOM      8  C   UNL     1     -33.211  39.853  42.377  1.00  0.00     0.282 C 
ATOM      9  C   UNL     1     -31.317  41.584  44.475  1.00  0.00     0.041 C 
ATOM     10  C   UNL     1     -31.665  41.677  42.988  1.00  0.00     0.150 C 
ATOM     11  C   UNL     1     -30.579  41.185  42.016  1.00  0.00     0.174 C 
ATOM     12  O   UNL     1     -32.974  41.297  42.593  1.00  0.00    -0.344 OA
ATOM     13  C   UNL     1     -30.623  39.730  41.717  1.00  0.00     0.179 C 
ATOM     14  C   UNL     1     -32.086  39.311  41.355  1.00  0.00     0.202 C 
BRANCH  11  15
ATOM     15  O   UNL     1     -30.232  41.981  40.893  1.00  0.00    -0.388 OA
ATOM     16  H   UNL     1     -31.067  42.004  40.292  1.00  0.00     0.211 HD
ENDBRANCH  11  15
BRANCH  13  17
ATOM     17  O   UNL     1     -30.288  39.019  42.932  1.00  0.00    -0.387 OA
ATOM     18  H   UNL     1     -31.096  38.431  43.084  1.00  0.00     0.211 HD
ENDBRANCH  13  17
BRANCH  14  19
ATOM     19  O   UNL     1     -32.445  39.615  40.001  1.00  0.00    -0.385 OA
ATOM     20  H   UNL     1     -31.556  40.016  39.668  1.00  0.00     0.211 HD
ENDBRANCH  14  19
ENDBRANCH   7   8
ENDBRANCH   1   7
BRANCH   2  21
ATOM     21  O   UNL     1     -34.408  36.740  45.750  1.00  0.00    -0.385 OA
ATOM     22  H   UNL     1     -34.158  36.353  44.854  1.00  0.00     0.211 HD
ENDBRANCH   2  21
BRANCH   6  23
ATOM     23  O   UNL     1     -36.914  38.982  42.711  1.00  0.00    -0.453 OA
BRANCH  23  24
ATOM     24  C   UNL     1     -37.139  39.593  41.433  1.00  0.00     0.331 C 
ATOM     25  O   UNL     1     -38.125  39.252  40.671  1.00  0.00    -0.247 OA
BRANCH  24  26
ATOM     26  C   UNL     1     -36.159  40.500  40.858  1.00  0.00     0.094 C 
ATOM     27  C   UNL     1     -36.365  41.812  40.906  1.00  0.00     0.016 C 
BRANCH  27  28
ATOM     28  C   UNL     1     -35.258  42.807  40.792  1.00  0.00    -0.021 A 
ATOM     29  C   UNL     1     -35.499  44.107  41.350  1.00  0.00     0.058 A 
ATOM     30  C   UNL     1     -34.478  42.724  39.637  1.00  0.00     0.012 A 
ATOM     31  C   UNL     1     -35.184  45.248  40.557  1.00  0.00     0.157 A 
ATOM     32  C   UNL     1     -34.407  43.834  38.786  1.00  0.00     0.051 A 
ATOM     33  C   UNL     1     -34.802  45.081  39.222  1.00  0.00     0.157 A 
BRANCH  31  34
ATOM     34  O   UNL     1     -35.292  46.546  41.097  1.00  0.00    -0.504 OA
ATOM     35  H   UNL     1     -36.194  46.979  41.158  1.00  0.00     0.293 HD
ENDBRANCH  31  34
BRANCH  33  36
ATOM     36  O   UNL     1     -34.850  46.241  38.417  1.00  0.00    -0.504 OA
ATOM     37  H   UNL     1     -34.516  46.172  37.435  1.00  0.00     0.293 HD
ENDBRANCH  33  36
ENDBRANCH  27  28
ENDBRANCH  24  26
ENDBRANCH  23  24
ENDBRANCH   6  23
BRANCH   3  38
ATOM     38  O   UNL     1     -37.269  39.029  45.469  1.00  0.00    -0.350 OA
BRANCH  38  39
ATOM     39  C   UNL     1     -38.152  39.422  46.516  1.00  0.00     0.168 C 
BRANCH  39  40
ATOM     40  C   UNL     1     -39.634  38.948  46.356  1.00  0.00     0.064 C 
BRANCH  40  41
ATOM     41  C   UNL     1     -40.117  37.945  47.393  1.00  0.00    -0.042 A 
ATOM     42  C   UNL     1     -40.851  38.386  48.511  1.00  0.00     0.054 A 
ATOM     43  C   UNL     1     -39.698  36.672  47.363  1.00  0.00     0.008 A 
ATOM     44  C   UNL     1     -41.215  37.499  49.516  1.00  0.00     0.157 A 
ATOM     45  C   UNL     1     -40.127  35.748  48.301  1.00  0.00     0.050 A 
ATOM     46  C   UNL     1     -40.864  36.151  49.411  1.00  0.00     0.157 A 
BRANCH  44  47
ATOM     47  O   UNL     1     -41.740  38.001  50.714  1.00  0.00    -0.504 OA
ATOM     48  H   UNL     1     -41.256  37.819  51.592  1.00  0.00     0.293 HD
ENDBRANCH  44  47
BRANCH  46  49
ATOM     49  O   UNL     1     -41.309  35.200  50.337  1.00  0.00    -0.504 OA
ATOM     50  H   UNL     1     -41.733  34.345  49.979  1.00  0.00     0.293 HD
ENDBRANCH  46  49
ENDBRANCH  40  41
ENDBRANCH  39  40
ENDBRANCH  38  39
ENDBRANCH   3  38
BRANCH   5  51
ATOM     51  C   UNL     1     -36.596  35.339  43.219  1.00  0.00     0.192 C 
BRANCH  51  52
ATOM     52  O   UNL     1     -35.616  34.687  44.030  1.00  0.00    -0.394 OA
ATOM     53  H   UNL     1     -35.037  35.402  44.396  1.00  0.00     0.210 HD
ENDBRANCH  51  52
ENDBRANCH   5  51
TORSDOF 20
ENDMDL
