MODEL 1
REMARK VINA RESULT:    -4.168      0.000      0.000
REMARK INTER + INTRA:          -4.507
REMARK INTER:                  -4.411
REMARK INTRA:                  -0.096
REMARK UNBOUND:                -0.096
REMARK SMILES C=C(C)[C@H]1CC=C(C)C(=O)C1
REMARK SMILES IDX 8 1 7 2 6 3 5 4 4 5 11 6 9 7 10 8 2 9 1 10 3 11
REMARK H PARENT
REMARK Flexibility Score: inf
ROOT
ATOM      1  C   UNL     1      10.246   8.271   0.020  1.00  0.00     0.048 C 
ATOM      2  C   UNL     1      10.827   8.701   1.339  1.00  0.00    -0.012 C 
ATOM      3  C   UNL     1      10.667   9.968   1.759  1.00  0.00    -0.019 C 
ATOM      4  C   UNL     1      11.243  10.455   3.061  1.00  0.00     0.036 C 
ATOM      5  C   UNL     1      11.267   9.329   4.113  1.00  0.00     0.025 C 
ATOM      6  C   UNL     1      12.019   8.102   3.565  1.00  0.00     0.089 C 
ATOM      7  C   UNL     1      11.466   7.697   2.226  1.00  0.00     0.158 C 
ATOM      8  O   UNL     1      11.585   6.501   1.849  1.00  0.00    -0.295 OA
ENDROOT
BRANCH   5   9
ATOM      9  C   UNL     1      11.852   9.804   5.433  1.00  0.00    -0.077 C 
ATOM     10  C   UNL     1      13.125   9.536   5.776  1.00  0.00     0.008 C 
ATOM     11  C   UNL     1      10.973  10.594   6.368  1.00  0.00     0.039 C 
ENDBRANCH   5   9
TORSDOF 1
ENDMDL
MODEL 2
REMARK VINA RESULT:    -4.162     22.613     23.392
REMARK INTER + INTRA:          -4.501
REMARK INTER:                  -4.407
REMARK INTRA:                  -0.095
REMARK UNBOUND:                -0.096
REMARK SMILES C=C(C)[C@H]1CC=C(C)C(=O)C1
REMARK SMILES IDX 8 1 7 2 6 3 5 4 4 5 11 6 9 7 10 8 2 9 1 10 3 11
REMARK H PARENT
REMARK Flexibility Score: inf
ROOT
ATOM      1  C   UNL     1       2.304  -5.798  14.602  1.00  0.00     0.048 C 
ATOM      2  C   UNL     1       1.061  -5.864  15.447  1.00  0.00    -0.012 C 
ATOM      3  C   UNL     1       0.866  -4.960  16.421  1.00  0.00    -0.019 C 
ATOM      4  C   UNL     1      -0.351  -4.991  17.307  1.00  0.00     0.036 C 
ATOM      5  C   UNL     1      -1.578  -5.528  16.545  1.00  0.00     0.025 C 
ATOM      6  C   UNL     1      -1.267  -6.905  15.932  1.00  0.00     0.089 C 
ATOM      7  C   UNL     1      -0.000  -6.849  15.122  1.00  0.00     0.158 C 
ATOM      8  O   UNL     1       0.165  -7.675  14.185  1.00  0.00    -0.295 OA
ENDROOT
BRANCH   5   9
ATOM      9  C   UNL     1      -2.814  -5.571  17.429  1.00  0.00    -0.077 C 
ATOM     10  C   UNL     1      -2.743  -5.942  18.720  1.00  0.00     0.008 C 
ATOM     11  C   UNL     1      -4.142  -5.185  16.831  1.00  0.00     0.039 C 
ENDBRANCH   5   9
TORSDOF 1
ENDMDL
MODEL 3
REMARK VINA RESULT:    -4.091      2.086      5.037
REMARK INTER + INTRA:          -4.426
REMARK INTER:                  -4.334
REMARK INTRA:                  -0.092
REMARK UNBOUND:                -0.096
REMARK SMILES C=C(C)[C@H]1CC=C(C)C(=O)C1
REMARK SMILES IDX 8 1 7 2 6 3 5 4 4 5 11 6 9 7 10 8 2 9 1 10 3 11
REMARK H PARENT
REMARK Flexibility Score: inf
ROOT
ATOM      1  C   UNL     1      11.256  10.111   4.243  1.00  0.00     0.048 C 
ATOM      2  C   UNL     1      11.254   9.138   3.096  1.00  0.00    -0.012 C 
ATOM      3  C   UNL     1      11.746   7.898   3.270  1.00  0.00    -0.019 C 
ATOM      4  C   UNL     1      11.785   6.892   2.152  1.00  0.00     0.036 C 
ATOM      5  C   UNL     1      10.596   7.083   1.191  1.00  0.00     0.025 C 
ATOM      6  C   UNL     1      10.556   8.532   0.671  1.00  0.00     0.089 C 
ATOM      7  C   UNL     1      10.600   9.506   1.816  1.00  0.00     0.158 C 
ATOM      8  O   UNL     1      10.107  10.655   1.663  1.00  0.00    -0.295 OA
ENDROOT
BRANCH   5   9
ATOM      9  C   UNL     1      10.624   6.076   0.052  1.00  0.00    -0.077 C 
ATOM     10  C   UNL     1       9.755   5.050  -0.001  1.00  0.00     0.008 C 
ATOM     11  C   UNL     1      11.654   6.245  -1.034  1.00  0.00     0.039 C 
ENDBRANCH   5   9
TORSDOF 1
ENDMDL
MODEL 4
REMARK VINA RESULT:    -4.043      3.126      5.957
REMARK INTER + INTRA:          -4.375
REMARK INTER:                  -4.277
REMARK INTRA:                  -0.098
REMARK UNBOUND:                -0.096
REMARK SMILES C=C(C)[C@H]1CC=C(C)C(=O)C1
REMARK SMILES IDX 8 1 7 2 6 3 5 4 4 5 11 6 9 7 10 8 2 9 1 10 3 11
REMARK H PARENT
REMARK Flexibility Score: inf
ROOT
ATOM      1  C   UNL     1      12.321  10.922  10.006  1.00  0.00     0.048 C 
ATOM      2  C   UNL     1      12.237  10.660   8.528  1.00  0.00    -0.012 C 
ATOM      3  C   UNL     1      13.064   9.765   7.960  1.00  0.00    -0.019 C 
ATOM      4  C   UNL     1      13.035   9.478   6.482  1.00  0.00     0.036 C 
ATOM      5  C   UNL     1      11.610   9.624   5.916  1.00  0.00     0.025 C 
ATOM      6  C   UNL     1      11.041  11.015   6.251  1.00  0.00     0.089 C 
ATOM      7  C   UNL     1      11.163  11.296   7.724  1.00  0.00     0.158 C 
ATOM      8  O   UNL     1      10.364  12.107   8.263  1.00  0.00    -0.295 OA
ENDROOT
BRANCH   5   9
ATOM      9  C   UNL     1      11.565   9.342   4.423  1.00  0.00    -0.077 C 
ATOM     10  C   UNL     1      11.231  10.298   3.537  1.00  0.00     0.008 C 
ATOM     11  C   UNL     1      11.908   7.957   3.940  1.00  0.00     0.039 C 
ENDBRANCH   5   9
TORSDOF 1
ENDMDL
MODEL 5
REMARK VINA RESULT:    -3.935      1.804      2.863
REMARK INTER + INTRA:          -4.261
REMARK INTER:                  -4.165
REMARK INTRA:                  -0.096
REMARK UNBOUND:                -0.096
REMARK SMILES C=C(C)[C@H]1CC=C(C)C(=O)C1
REMARK SMILES IDX 8 1 7 2 6 3 5 4 4 5 11 6 9 7 10 8 2 9 1 10 3 11
REMARK H PARENT
REMARK Flexibility Score: inf
ROOT
ATOM      1  C   UNL     1       9.849   5.728   0.386  1.00  0.00     0.048 C 
ATOM      2  C   UNL     1      10.357   6.918   1.153  1.00  0.00    -0.012 C 
ATOM      3  C   UNL     1      11.397   6.779   1.992  1.00  0.00    -0.019 C 
ATOM      4  C   UNL     1      11.933   7.932   2.797  1.00  0.00     0.036 C 
ATOM      5  C   UNL     1      11.777   9.261   2.033  1.00  0.00     0.025 C 
ATOM      6  C   UNL     1      10.310   9.471   1.619  1.00  0.00     0.089 C 
ATOM      7  C   UNL     1       9.788   8.264   0.889  1.00  0.00     0.158 C 
ATOM      8  O   UNL     1       8.836   8.402   0.075  1.00  0.00    -0.295 OA
ENDROOT
BRANCH   5   9
ATOM      9  C   UNL     1      12.310  10.437   2.836  1.00  0.00    -0.077 C 
ATOM     10  C   UNL     1      12.803  11.535   2.233  1.00  0.00     0.008 C 
ATOM     11  C   UNL     1      12.277  10.358   4.340  1.00  0.00     0.039 C 
ENDBRANCH   5   9
TORSDOF 1
ENDMDL
MODEL 6
REMARK VINA RESULT:    -3.860     22.863     23.673
REMARK INTER + INTRA:          -4.182
REMARK INTER:                  -4.088
REMARK INTRA:                  -0.094
REMARK UNBOUND:                -0.096
REMARK SMILES C=C(C)[C@H]1CC=C(C)C(=O)C1
REMARK SMILES IDX 8 1 7 2 6 3 5 4 4 5 11 6 9 7 10 8 2 9 1 10 3 11
REMARK H PARENT
REMARK Flexibility Score: inf
ROOT
ATOM      1  C   UNL     1      -3.459  -5.746  17.877  1.00  0.00     0.048 C 
ATOM      2  C   UNL     1      -2.149  -5.884  17.152  1.00  0.00    -0.012 C 
ATOM      3  C   UNL     1      -1.108  -5.107  17.498  1.00  0.00    -0.019 C 
ATOM      4  C   UNL     1       0.219  -5.191  16.793  1.00  0.00     0.036 C 
ATOM      5  C   UNL     1       0.501  -6.627  16.311  1.00  0.00     0.025 C 
ATOM      6  C   UNL     1      -0.658  -7.135  15.435  1.00  0.00     0.089 C 
ATOM      7  C   UNL     1      -1.973  -6.958  16.143  1.00  0.00     0.158 C 
ATOM      8  O   UNL     1      -2.938  -7.711  15.843  1.00  0.00    -0.295 OA
ENDROOT
BRANCH   5   9
ATOM      9  C   UNL     1       1.837  -6.728  15.592  1.00  0.00    -0.077 C 
ATOM     10  C   UNL     1       2.198  -5.836  14.651  1.00  0.00     0.008 C 
ATOM     11  C   UNL     1       2.768  -7.856  15.954  1.00  0.00     0.039 C 
ENDBRANCH   5   9
TORSDOF 1
ENDMDL
MODEL 7
REMARK VINA RESULT:    -3.760     22.837     23.760
REMARK INTER + INTRA:          -4.076
REMARK INTER:                  -3.975
REMARK INTRA:                  -0.101
REMARK UNBOUND:                -0.096
REMARK SMILES C=C(C)[C@H]1CC=C(C)C(=O)C1
REMARK SMILES IDX 8 1 7 2 6 3 5 4 4 5 11 6 9 7 10 8 2 9 1 10 3 11
REMARK H PARENT
REMARK Flexibility Score: inf
ROOT
ATOM      1  C   UNL     1      -3.063  -5.509  19.006  1.00  0.00     0.048 C 
ATOM      2  C   UNL     1      -2.008  -5.866  17.995  1.00  0.00    -0.012 C 
ATOM      3  C   UNL     1      -2.307  -6.694  16.979  1.00  0.00    -0.019 C 
ATOM      4  C   UNL     1      -1.285  -7.097  15.951  1.00  0.00     0.036 C 
ATOM      5  C   UNL     1      -0.271  -5.964  15.702  1.00  0.00     0.025 C 
ATOM      6  C   UNL     1       0.377  -5.524  17.027  1.00  0.00     0.089 C 
ATOM      7  C   UNL     1      -0.678  -5.208  18.052  1.00  0.00     0.158 C 
ATOM      8  O   UNL     1      -0.408  -4.404  18.984  1.00  0.00    -0.295 OA
ENDROOT
BRANCH   5   9
ATOM      9  C   UNL     1       0.772  -6.359  14.669  1.00  0.00    -0.077 C 
ATOM     10  C   UNL     1       2.036  -5.903  14.736  1.00  0.00     0.008 C 
ATOM     11  C   UNL     1       0.366  -7.283  13.550  1.00  0.00     0.039 C 
ENDBRANCH   5   9
TORSDOF 1
ENDMDL
MODEL 8
REMARK VINA RESULT:    -3.745      1.676      2.972
REMARK INTER + INTRA:          -4.060
REMARK INTER:                  -3.963
REMARK INTRA:                  -0.096
REMARK UNBOUND:                -0.096
REMARK SMILES C=C(C)[C@H]1CC=C(C)C(=O)C1
REMARK SMILES IDX 8 1 7 2 6 3 5 4 4 5 11 6 9 7 10 8 2 9 1 10 3 11
REMARK H PARENT
REMARK Flexibility Score: inf
ROOT
ATOM      1  C   UNL     1      10.182   4.896  -0.268  1.00  0.00     0.048 C 
ATOM      2  C   UNL     1      10.433   6.274   0.279  1.00  0.00    -0.012 C 
ATOM      3  C   UNL     1       9.401   7.111   0.483  1.00  0.00    -0.019 C 
ATOM      4  C   UNL     1       9.597   8.506   1.011  1.00  0.00     0.036 C 
ATOM      5  C   UNL     1      10.797   8.571   1.976  1.00  0.00     0.025 C 
ATOM      6  C   UNL     1      12.063   8.022   1.292  1.00  0.00     0.089 C 
ATOM      7  C   UNL     1      11.800   6.661   0.707  1.00  0.00     0.158 C 
ATOM      8  O   UNL     1      12.764   5.864   0.550  1.00  0.00    -0.295 OA
ENDROOT
BRANCH   5   9
ATOM      9  C   UNL     1      11.012   9.976   2.514  1.00  0.00    -0.077 C 
ATOM     10  C   UNL     1      11.568  10.189   3.721  1.00  0.00     0.008 C 
ATOM     11  C   UNL     1      10.588  11.146   1.666  1.00  0.00     0.039 C 
ENDBRANCH   5   9
TORSDOF 1
ENDMDL
MODEL 9
REMARK VINA RESULT:    -3.706     22.861     23.681
REMARK INTER + INTRA:          -4.019
REMARK INTER:                  -3.925
REMARK INTRA:                  -0.094
REMARK UNBOUND:                -0.096
REMARK SMILES C=C(C)[C@H]1CC=C(C)C(=O)C1
REMARK SMILES IDX 8 1 7 2 6 3 5 4 4 5 11 6 9 7 10 8 2 9 1 10 3 11
REMARK H PARENT
REMARK Flexibility Score: inf
ROOT
ATOM      1  C   UNL     1       2.249  -7.036  15.377  1.00  0.00     0.048 C 
ATOM      2  C   UNL     1       0.854  -6.614  15.748  1.00  0.00    -0.012 C 
ATOM      3  C   UNL     1      -0.129  -7.529  15.802  1.00  0.00    -0.019 C 
ATOM      4  C   UNL     1      -1.546  -7.158  16.150  1.00  0.00     0.036 C 
ATOM      5  C   UNL     1      -1.583  -5.979  17.142  1.00  0.00     0.025 C 
ATOM      6  C   UNL     1      -0.787  -4.785  16.584  1.00  0.00     0.089 C 
ATOM      7  C   UNL     1       0.594  -5.216  16.173  1.00  0.00     0.158 C 
ATOM      8  O   UNL     1       1.523  -4.365  16.158  1.00  0.00    -0.295 OA
ENDROOT
BRANCH   5   9
ATOM      9  C   UNL     1      -3.008  -5.589  17.499  1.00  0.00    -0.077 C 
ATOM     10  C   UNL     1      -3.884  -5.189  16.559  1.00  0.00     0.008 C 
ATOM     11  C   UNL     1      -3.435  -5.659  18.942  1.00  0.00     0.039 C 
ENDBRANCH   5   9
TORSDOF 1
ENDMDL
