MODEL 1
REMARK VINA RESULT:    -4.671      0.000      0.000
REMARK INTER + INTRA:         -10.061
REMARK INTER:                  -7.129
REMARK INTRA:                  -2.932
REMARK UNBOUND:                -2.932
REMARK SMILES CC(=O)CCC=C(C)CCC=C(C)CCC=C(C)C
REMARK SMILES IDX 10 1 11 2 12 3 13 4 14 5 15 6 16 7 18 8 17 9 19 10 9 11 7 12
REMARK SMILES IDX 6 13 8 14 5 15 4 16 2 17 3 18 1 19
REMARK H PARENT
REMARK Flexibility Score: inf
ROOT
ATOM      1  C   UNL     1     134.536 182.568 191.554  1.00  0.00     0.032 C 
ENDROOT
BRANCH   1   2
ATOM      2  C   UNL     1     135.923 182.504 190.965  1.00  0.00    -0.028 C 
ATOM      3  C   UNL     1     136.338 183.126 189.836  1.00  0.00    -0.077 C 
ATOM      4  C   UNL     1     137.748 182.874 189.366  1.00  0.00     0.039 C 
BRANCH   3   5
ATOM      5  C   UNL     1     135.475 184.084 189.036  1.00  0.00     0.034 C 
BRANCH   5   6
ATOM      6  C   UNL     1     134.650 183.357 187.967  1.00  0.00     0.032 C 
BRANCH   6   7
ATOM      7  C   UNL     1     133.234 183.881 187.908  1.00  0.00    -0.028 C 
ATOM      8  C   UNL     1     132.231 181.821 188.923  1.00  0.00     0.039 C 
ATOM      9  C   UNL     1     132.139 183.195 188.301  1.00  0.00    -0.080 C 
ATOM     10  C   UNL     1     130.788 183.832 188.107  1.00  0.00     0.039 C 
ENDBRANCH   6   7
ENDBRANCH   5   6
ENDBRANCH   3   5
ENDBRANCH   1   2
BRANCH   1  11
ATOM     11  C   UNL     1     134.439 183.637 192.653  1.00  0.00     0.034 C 
BRANCH  11  12
ATOM     12  C   UNL     1     133.703 184.878 192.179  1.00  0.00    -0.077 C 
ATOM     13  C   UNL     1     134.237 186.121 192.218  1.00  0.00    -0.028 C 
ATOM     14  C   UNL     1     132.293 184.724 191.667  1.00  0.00     0.039 C 
BRANCH  13  15
ATOM     15  C   UNL     1     135.645 186.449 192.644  1.00  0.00     0.035 C 
BRANCH  15  16
ATOM     16  C   UNL     1     136.537 186.711 191.426  1.00  0.00     0.079 C 
BRANCH  16  17
ATOM     17  C   UNL     1     137.841 185.969 191.554  1.00  0.00     0.130 C 
ATOM     18  O   UNL     1     138.734 186.180 190.747  1.00  0.00    -0.300 OA
ATOM     19  C   UNL     1     138.075 184.983 192.660  1.00  0.00     0.087 C 
ENDBRANCH  16  17
ENDBRANCH  15  16
ENDBRANCH  13  15
ENDBRANCH  11  12
ENDBRANCH   1  11
TORSDOF 9
ENDMDL
MODEL 2
REMARK VINA RESULT:    -4.601      1.189      1.819
REMARK INTER + INTRA:          -9.954
REMARK INTER:                  -7.274
REMARK INTRA:                  -2.679
REMARK UNBOUND:                -2.932
REMARK SMILES CC(=O)CCC=C(C)CCC=C(C)CCC=C(C)C
REMARK SMILES IDX 10 1 11 2 12 3 13 4 14 5 15 6 16 7 18 8 17 9 19 10 9 11 7 12
REMARK SMILES IDX 6 13 8 14 5 15 4 16 2 17 3 18 1 19
REMARK H PARENT
REMARK Flexibility Score: inf
ROOT
ATOM      1  C   UNL     1     134.539 182.608 191.655  1.00  0.00     0.032 C 
ENDROOT
BRANCH   1   2
ATOM      2  C   UNL     1     135.906 182.542 191.019  1.00  0.00    -0.028 C 
ATOM      3  C   UNL     1     136.279 183.154 189.870  1.00  0.00    -0.077 C 
ATOM      4  C   UNL     1     137.673 182.901 189.354  1.00  0.00     0.039 C 
BRANCH   3   5
ATOM      5  C   UNL     1     135.385 184.100 189.091  1.00  0.00     0.034 C 
BRANCH   5   6
ATOM      6  C   UNL     1     134.226 183.363 188.407  1.00  0.00     0.032 C 
BRANCH   6   7
ATOM      7  C   UNL     1     134.641 182.794 187.072  1.00  0.00    -0.028 C 
ATOM      8  C   UNL     1     134.840 180.445 187.922  1.00  0.00     0.039 C 
ATOM      9  C   UNL     1     134.950 181.498 186.845  1.00  0.00    -0.080 C 
ATOM     10  C   UNL     1     135.419 181.105 185.468  1.00  0.00     0.039 C 
ENDBRANCH   6   7
ENDBRANCH   5   6
ENDBRANCH   3   5
ENDBRANCH   1   2
BRANCH   1  11
ATOM     11  C   UNL     1     134.472 183.697 192.735  1.00  0.00     0.034 C 
BRANCH  11  12
ATOM     12  C   UNL     1     133.692 184.914 192.271  1.00  0.00    -0.077 C 
ATOM     13  C   UNL     1     134.192 186.172 192.288  1.00  0.00    -0.028 C 
ATOM     14  C   UNL     1     132.275 184.719 191.795  1.00  0.00     0.039 C 
BRANCH  13  15
ATOM     15  C   UNL     1     135.601 186.541 192.678  1.00  0.00     0.035 C 
BRANCH  15  16
ATOM     16  C   UNL     1     136.490 186.686 191.438  1.00  0.00     0.079 C 
BRANCH  16  17
ATOM     17  C   UNL     1     137.793 185.959 191.632  1.00  0.00     0.130 C 
ATOM     18  O   UNL     1     138.700 186.126 190.830  1.00  0.00    -0.300 OA
ATOM     19  C   UNL     1     138.011 185.041 192.798  1.00  0.00     0.087 C 
ENDBRANCH  16  17
ENDBRANCH  15  16
ENDBRANCH  13  15
ENDBRANCH  11  12
ENDBRANCH   1  11
TORSDOF 9
ENDMDL
MODEL 3
REMARK VINA RESULT:    -4.566      2.012      4.039
REMARK INTER + INTRA:          -9.901
REMARK INTER:                  -7.399
REMARK INTRA:                  -2.503
REMARK UNBOUND:                -2.932
REMARK SMILES CC(=O)CCC=C(C)CCC=C(C)CCC=C(C)C
REMARK SMILES IDX 10 1 11 2 12 3 13 4 14 5 15 6 16 7 18 8 17 9 19 10 9 11 7 12
REMARK SMILES IDX 6 13 8 14 5 15 4 16 2 17 3 18 1 19
REMARK H PARENT
REMARK Flexibility Score: inf
ROOT
ATOM      1  C   UNL     1     137.566 183.767 190.282  1.00  0.00     0.032 C 
ENDROOT
BRANCH   1   2
ATOM      2  C   UNL     1     136.211 184.045 189.679  1.00  0.00    -0.028 C 
ATOM      3  C   UNL     1     135.606 183.316 188.712  1.00  0.00    -0.077 C 
ATOM      4  C   UNL     1     134.281 183.802 188.183  1.00  0.00     0.039 C 
BRANCH   3   5
ATOM      5  C   UNL     1     136.172 182.024 188.152  1.00  0.00     0.034 C 
BRANCH   5   6
ATOM      6  C   UNL     1     135.413 180.794 188.667  1.00  0.00     0.032 C 
BRANCH   6   7
ATOM      7  C   UNL     1     135.750 180.499 190.110  1.00  0.00    -0.028 C 
ATOM      8  C   UNL     1     133.480 181.129 190.965  1.00  0.00     0.039 C 
ATOM      9  C   UNL     1     134.908 180.674 191.152  1.00  0.00    -0.080 C 
ATOM     10  C   UNL     1     135.424 180.402 192.541  1.00  0.00     0.039 C 
ENDBRANCH   6   7
ENDBRANCH   5   6
ENDBRANCH   3   5
ENDBRANCH   1   2
BRANCH   1  11
ATOM     11  C   UNL     1     137.733 184.467 191.639  1.00  0.00     0.034 C 
BRANCH  11  12
ATOM     12  C   UNL     1     137.768 185.979 191.501  1.00  0.00    -0.077 C 
ATOM     13  C   UNL     1     136.865 186.802 192.083  1.00  0.00    -0.028 C 
ATOM     14  C   UNL     1     138.847 186.596 190.648  1.00  0.00     0.039 C 
BRANCH  13  15
ATOM     15  C   UNL     1     135.760 186.362 193.009  1.00  0.00     0.035 C 
BRANCH  15  16
ATOM     16  C   UNL     1     134.411 186.348 192.281  1.00  0.00     0.079 C 
BRANCH  16  17
ATOM     17  C   UNL     1     133.829 184.960 192.270  1.00  0.00     0.130 C 
ATOM     18  O   UNL     1     133.010 184.659 191.414  1.00  0.00    -0.300 OA
ATOM     19  C   UNL     1     134.242 183.930 193.279  1.00  0.00     0.087 C 
ENDBRANCH  16  17
ENDBRANCH  15  16
ENDBRANCH  13  15
ENDBRANCH  11  12
ENDBRANCH   1  11
TORSDOF 9
ENDMDL
MODEL 4
REMARK VINA RESULT:    -4.562      2.404      3.998
REMARK INTER + INTRA:          -9.894
REMARK INTER:                  -8.206
REMARK INTRA:                  -1.688
REMARK UNBOUND:                -2.932
REMARK SMILES CC(=O)CCC=C(C)CCC=C(C)CCC=C(C)C
REMARK SMILES IDX 10 1 11 2 12 3 13 4 14 5 15 6 16 7 18 8 17 9 19 10 9 11 7 12
REMARK SMILES IDX 6 13 8 14 5 15 4 16 2 17 3 18 1 19
REMARK H PARENT
REMARK Flexibility Score: inf
ROOT
ATOM      1  C   UNL     1     137.389 183.889 190.032  1.00  0.00     0.032 C 
ENDROOT
BRANCH   1   2
ATOM      2  C   UNL     1     135.964 184.143 189.607  1.00  0.00    -0.028 C 
ATOM      3  C   UNL     1     135.277 183.449 188.669  1.00  0.00    -0.077 C 
ATOM      4  C   UNL     1     133.883 183.908 188.328  1.00  0.00     0.039 C 
BRANCH   3   5
ATOM      5  C   UNL     1     135.821 182.219 187.966  1.00  0.00     0.034 C 
BRANCH   5   6
ATOM      6  C   UNL     1     134.732 181.481 187.175  1.00  0.00     0.032 C 
BRANCH   6   7
ATOM      7  C   UNL     1     135.053 181.435 185.700  1.00  0.00    -0.028 C 
ATOM      8  C   UNL     1     133.165 182.949 185.050  1.00  0.00     0.039 C 
ATOM      9  C   UNL     1     134.344 182.059 184.734  1.00  0.00    -0.080 C 
ATOM     10  C   UNL     1     134.753 181.851 183.299  1.00  0.00     0.039 C 
ENDBRANCH   6   7
ENDBRANCH   5   6
ENDBRANCH   3   5
ENDBRANCH   1   2
BRANCH   1  11
ATOM     11  C   UNL     1     137.664 184.439 191.439  1.00  0.00     0.034 C 
BRANCH  11  12
ATOM     12  C   UNL     1     137.725 185.956 191.458  1.00  0.00    -0.077 C 
ATOM     13  C   UNL     1     136.843 186.729 192.132  1.00  0.00    -0.028 C 
ATOM     14  C   UNL     1     138.808 186.639 190.662  1.00  0.00     0.039 C 
BRANCH  13  15
ATOM     15  C   UNL     1     135.738 186.215 193.020  1.00  0.00     0.035 C 
BRANCH  15  16
ATOM     16  C   UNL     1     134.376 186.355 192.332  1.00  0.00     0.079 C 
BRANCH  16  17
ATOM     17  C   UNL     1     133.669 185.027 192.281  1.00  0.00     0.130 C 
ATOM     18  O   UNL     1     132.600 184.937 191.695  1.00  0.00    -0.300 OA
ATOM     19  C   UNL     1     134.254 183.804 192.923  1.00  0.00     0.087 C 
ENDBRANCH  16  17
ENDBRANCH  15  16
ENDBRANCH  13  15
ENDBRANCH  11  12
ENDBRANCH   1  11
TORSDOF 9
ENDMDL
MODEL 5
REMARK VINA RESULT:    -4.521      2.666      4.062
REMARK INTER + INTRA:          -9.832
REMARK INTER:                  -7.277
REMARK INTRA:                  -2.555
REMARK UNBOUND:                -2.932
REMARK SMILES CC(=O)CCC=C(C)CCC=C(C)CCC=C(C)C
REMARK SMILES IDX 10 1 11 2 12 3 13 4 14 5 15 6 16 7 18 8 17 9 19 10 9 11 7 12
REMARK SMILES IDX 6 13 8 14 5 15 4 16 2 17 3 18 1 19
REMARK H PARENT
REMARK Flexibility Score: inf
ROOT
ATOM      1  C   UNL     1     138.124 184.590 190.411  1.00  0.00     0.032 C 
ENDROOT
BRANCH   1   2
ATOM      2  C   UNL     1     137.691 183.273 189.816  1.00  0.00    -0.028 C 
ATOM      3  C   UNL     1     136.489 183.011 189.251  1.00  0.00    -0.077 C 
ATOM      4  C   UNL     1     136.218 181.605 188.782  1.00  0.00     0.039 C 
BRANCH   3   5
ATOM      5  C   UNL     1     135.413 184.059 189.037  1.00  0.00     0.034 C 
BRANCH   5   6
ATOM      6  C   UNL     1     134.094 183.676 189.720  1.00  0.00     0.032 C 
BRANCH   6   7
ATOM      7  C   UNL     1     133.923 184.393 191.038  1.00  0.00    -0.028 C 
ATOM      8  C   UNL     1     134.693 182.445 192.413  1.00  0.00     0.039 C 
ATOM      9  C   UNL     1     134.155 183.847 192.252  1.00  0.00    -0.080 C 
ATOM     10  C   UNL     1     133.865 184.675 193.476  1.00  0.00     0.039 C 
ENDBRANCH   6   7
ENDBRANCH   5   6
ENDBRANCH   3   5
ENDBRANCH   1   2
BRANCH   1  11
ATOM     11  C   UNL     1     137.679 184.721 191.874  1.00  0.00     0.034 C 
BRANCH  11  12
ATOM     12  C   UNL     1     137.136 186.104 192.185  1.00  0.00    -0.077 C 
ATOM     13  C   UNL     1     136.984 186.582 193.442  1.00  0.00    -0.028 C 
ATOM     14  C   UNL     1     136.713 186.983 191.035  1.00  0.00     0.039 C 
BRANCH  13  15
ATOM     15  C   UNL     1     137.405 185.864 194.700  1.00  0.00     0.035 C 
BRANCH  15  16
ATOM     16  C   UNL     1     138.498 186.647 195.434  1.00  0.00     0.079 C 
BRANCH  16  17
ATOM     17  C   UNL     1     137.924 187.371 196.623  1.00  0.00     0.130 C 
ATOM     18  O   UNL     1     136.894 186.960 197.136  1.00  0.00    -0.300 OA
ATOM     19  C   UNL     1     138.597 188.579 197.203  1.00  0.00     0.087 C 
ENDBRANCH  16  17
ENDBRANCH  15  16
ENDBRANCH  13  15
ENDBRANCH  11  12
ENDBRANCH   1  11
TORSDOF 9
ENDMDL
MODEL 6
REMARK VINA RESULT:    -4.469      2.213      5.520
REMARK INTER + INTRA:          -9.752
REMARK INTER:                  -7.359
REMARK INTRA:                  -2.394
REMARK UNBOUND:                -2.932
REMARK SMILES CC(=O)CCC=C(C)CCC=C(C)CCC=C(C)C
REMARK SMILES IDX 10 1 11 2 12 3 13 4 14 5 15 6 16 7 18 8 17 9 19 10 9 11 7 12
REMARK SMILES IDX 6 13 8 14 5 15 4 16 2 17 3 18 1 19
REMARK H PARENT
REMARK Flexibility Score: inf
ROOT
ATOM      1  C   UNL     1     137.711 184.525 190.580  1.00  0.00     0.032 C 
ENDROOT
BRANCH   1   2
ATOM      2  C   UNL     1     137.774 185.142 191.956  1.00  0.00    -0.028 C 
ATOM      3  C   UNL     1     136.926 186.074 192.451  1.00  0.00    -0.077 C 
ATOM      4  C   UNL     1     137.204 186.627 193.825  1.00  0.00     0.039 C 
BRANCH   3   5
ATOM      5  C   UNL     1     135.697 186.571 191.712  1.00  0.00     0.034 C 
BRANCH   5   6
ATOM      6  C   UNL     1     134.403 186.250 192.471  1.00  0.00     0.032 C 
BRANCH   6   7
ATOM      7  C   UNL     1     133.847 184.902 192.075  1.00  0.00    -0.028 C 
ATOM      8  C   UNL     1     134.755 183.726 194.093  1.00  0.00     0.039 C 
ATOM      9  C   UNL     1     134.023 183.758 192.772  1.00  0.00    -0.080 C 
ATOM     10  C   UNL     1     133.465 182.481 192.202  1.00  0.00     0.039 C 
ENDBRANCH   6   7
ENDBRANCH   5   6
ENDBRANCH   3   5
ENDBRANCH   1   2
BRANCH   1  11
ATOM     11  C   UNL     1     136.895 183.224 190.583  1.00  0.00     0.034 C 
BRANCH  11  12
ATOM     12  C   UNL     1     136.792 182.611 189.198  1.00  0.00    -0.077 C 
ATOM     13  C   UNL     1     135.795 182.897 188.328  1.00  0.00    -0.028 C 
ATOM     14  C   UNL     1     137.836 181.608 188.778  1.00  0.00     0.039 C 
BRANCH  13  15
ATOM     15  C   UNL     1     134.705 183.913 188.560  1.00  0.00     0.035 C 
BRANCH  15  16
ATOM     16  C   UNL     1     133.329 183.240 188.585  1.00  0.00     0.079 C 
BRANCH  16  17
ATOM     17  C   UNL     1     132.478 183.730 187.444  1.00  0.00     0.130 C 
ATOM     18  O   UNL     1     131.368 184.187 187.676  1.00  0.00    -0.300 OA
ATOM     19  C   UNL     1     132.967 183.684 186.027  1.00  0.00     0.087 C 
ENDBRANCH  16  17
ENDBRANCH  15  16
ENDBRANCH  13  15
ENDBRANCH  11  12
ENDBRANCH   1  11
TORSDOF 9
ENDMDL
MODEL 7
REMARK VINA RESULT:    -4.443      2.065      3.484
REMARK INTER + INTRA:          -9.714
REMARK INTER:                  -7.923
REMARK INTRA:                  -1.790
REMARK UNBOUND:                -2.932
REMARK SMILES CC(=O)CCC=C(C)CCC=C(C)CCC=C(C)C
REMARK SMILES IDX 10 1 11 2 12 3 13 4 14 5 15 6 16 7 18 8 17 9 19 10 9 11 7 12
REMARK SMILES IDX 6 13 8 14 5 15 4 16 2 17 3 18 1 19
REMARK H PARENT
REMARK Flexibility Score: inf
ROOT
ATOM      1  C   UNL     1     137.701 184.602 190.800  1.00  0.00     0.032 C 
ENDROOT
BRANCH   1   2
ATOM      2  C   UNL     1     137.552 183.356 189.962  1.00  0.00    -0.028 C 
ATOM      3  C   UNL     1     136.506 183.059 189.155  1.00  0.00    -0.077 C 
ATOM      4  C   UNL     1     136.506 181.723 188.458  1.00  0.00     0.039 C 
BRANCH   3   5
ATOM      5  C   UNL     1     135.351 184.007 188.891  1.00  0.00     0.034 C 
BRANCH   5   6
ATOM      6  C   UNL     1     134.081 183.260 188.465  1.00  0.00     0.032 C 
BRANCH   6   7
ATOM      7  C   UNL     1     133.542 183.785 187.155  1.00  0.00    -0.028 C 
ATOM      8  C   UNL     1     134.011 181.670 185.897  1.00  0.00     0.039 C 
ATOM      9  C   UNL     1     133.533 183.099 185.992  1.00  0.00    -0.080 C 
ATOM     10  C   UNL     1     133.026 183.795 184.755  1.00  0.00     0.039 C 
ENDBRANCH   6   7
ENDBRANCH   5   6
ENDBRANCH   3   5
ENDBRANCH   1   2
BRANCH   1  11
ATOM     11  C   UNL     1     137.281 184.356 192.256  1.00  0.00     0.034 C 
BRANCH  11  12
ATOM     12  C   UNL     1     137.221 185.643 193.059  1.00  0.00    -0.077 C 
ATOM     13  C   UNL     1     136.181 186.507 193.005  1.00  0.00    -0.028 C 
ATOM     14  C   UNL     1     138.393 185.994 193.940  1.00  0.00     0.039 C 
BRANCH  13  15
ATOM     15  C   UNL     1     134.910 186.289 192.224  1.00  0.00     0.035 C 
BRANCH  15  16
ATOM     16  C   UNL     1     133.935 185.402 193.007  1.00  0.00     0.079 C 
BRANCH  16  17
ATOM     17  C   UNL     1     133.355 184.336 192.115  1.00  0.00     0.130 C 
ATOM     18  O   UNL     1     132.469 184.630 191.326  1.00  0.00    -0.300 OA
ATOM     19  C   UNL     1     133.851 182.921 192.162  1.00  0.00     0.087 C 
ENDBRANCH  16  17
ENDBRANCH  15  16
ENDBRANCH  13  15
ENDBRANCH  11  12
ENDBRANCH   1  11
TORSDOF 9
ENDMDL
MODEL 8
REMARK VINA RESULT:    -4.430      2.415      5.786
REMARK INTER + INTRA:          -9.693
REMARK INTER:                  -7.930
REMARK INTRA:                  -1.763
REMARK UNBOUND:                -2.932
REMARK SMILES CC(=O)CCC=C(C)CCC=C(C)CCC=C(C)C
REMARK SMILES IDX 10 1 11 2 12 3 13 4 14 5 15 6 16 7 18 8 17 9 19 10 9 11 7 12
REMARK SMILES IDX 6 13 8 14 5 15 4 16 2 17 3 18 1 19
REMARK H PARENT
REMARK Flexibility Score: inf
ROOT
ATOM      1  C   UNL     1     136.998 183.570 190.972  1.00  0.00     0.032 C 
ENDROOT
BRANCH   1   2
ATOM      2  C   UNL     1     137.858 184.696 190.454  1.00  0.00    -0.028 C 
ATOM      3  C   UNL     1     138.354 185.720 191.187  1.00  0.00    -0.077 C 
ATOM      4  C   UNL     1     139.131 186.794 190.469  1.00  0.00     0.039 C 
BRANCH   3   5
ATOM      5  C   UNL     1     138.198 185.832 192.692  1.00  0.00     0.034 C 
BRANCH   5   6
ATOM      6  C   UNL     1     137.058 186.782 193.082  1.00  0.00     0.032 C 
BRANCH   6   7
ATOM      7  C   UNL     1     136.017 186.082 193.925  1.00  0.00    -0.028 C 
ATOM      8  C   UNL     1     134.206 186.305 192.208  1.00  0.00     0.039 C 
ATOM      9  C   UNL     1     134.730 185.890 193.562  1.00  0.00    -0.080 C 
ATOM     10  C   UNL     1     133.799 185.238 194.550  1.00  0.00     0.039 C 
ENDBRANCH   6   7
ENDBRANCH   5   6
ENDBRANCH   3   5
ENDBRANCH   1   2
BRANCH   1  11
ATOM     11  C   UNL     1     135.666 183.482 190.212  1.00  0.00     0.034 C 
BRANCH  11  12
ATOM     12  C   UNL     1     135.815 182.774 188.878  1.00  0.00    -0.077 C 
ATOM     13  C   UNL     1     134.991 182.985 187.825  1.00  0.00    -0.028 C 
ATOM     14  C   UNL     1     136.920 181.760 188.724  1.00  0.00     0.039 C 
BRANCH  13  15
ATOM     15  C   UNL     1     133.875 183.999 187.786  1.00  0.00     0.035 C 
BRANCH  15  16
ATOM     16  C   UNL     1     132.512 183.305 187.697  1.00  0.00     0.079 C 
BRANCH  16  17
ATOM     17  C   UNL     1     131.586 183.816 188.768  1.00  0.00     0.130 C 
ATOM     18  O   UNL     1     130.494 184.266 188.454  1.00  0.00    -0.300 OA
ATOM     19  C   UNL     1     131.968 183.773 190.218  1.00  0.00     0.087 C 
ENDBRANCH  16  17
ENDBRANCH  15  16
ENDBRANCH  13  15
ENDBRANCH  11  12
ENDBRANCH   1  11
TORSDOF 9
ENDMDL
MODEL 9
REMARK VINA RESULT:    -4.362      2.711      5.084
REMARK INTER + INTRA:          -9.589
REMARK INTER:                  -7.523
REMARK INTRA:                  -2.066
REMARK UNBOUND:                -2.932
REMARK SMILES CC(=O)CCC=C(C)CCC=C(C)CCC=C(C)C
REMARK SMILES IDX 10 1 11 2 12 3 13 4 14 5 15 6 16 7 18 8 17 9 19 10 9 11 7 12
REMARK SMILES IDX 6 13 8 14 5 15 4 16 2 17 3 18 1 19
REMARK H PARENT
REMARK Flexibility Score: inf
ROOT
ATOM      1  C   UNL     1     135.529 186.241 193.068  1.00  0.00     0.032 C 
ENDROOT
BRANCH   1   2
ATOM      2  C   UNL     1     136.606 186.725 192.129  1.00  0.00    -0.028 C 
ATOM      3  C   UNL     1     137.573 185.963 191.566  1.00  0.00    -0.077 C 
ATOM      4  C   UNL     1     138.610 186.649 190.714  1.00  0.00     0.039 C 
BRANCH   3   5
ATOM      5  C   UNL     1     137.655 184.456 191.721  1.00  0.00     0.034 C 
BRANCH   5   6
ATOM      6  C   UNL     1     137.503 183.731 190.378  1.00  0.00     0.032 C 
BRANCH   6   7
ATOM      7  C   UNL     1     136.192 184.072 189.709  1.00  0.00    -0.028 C 
ATOM      8  C   UNL     1     136.178 182.022 188.268  1.00  0.00     0.039 C 
ATOM      9  C   UNL     1     135.602 183.336 188.742  1.00  0.00    -0.080 C 
ATOM     10  C   UNL     1     134.330 183.854 188.124  1.00  0.00     0.039 C 
ENDBRANCH   6   7
ENDBRANCH   5   6
ENDBRANCH   3   5
ENDBRANCH   1   2
BRANCH   1  11
ATOM     11  C   UNL     1     134.259 185.834 192.308  1.00  0.00     0.034 C 
BRANCH  11  12
ATOM     12  C   UNL     1     133.883 184.384 192.557  1.00  0.00    -0.077 C 
ATOM     13  C   UNL     1     132.845 183.767 191.946  1.00  0.00    -0.028 C 
ATOM     14  C   UNL     1     134.689 183.597 193.559  1.00  0.00     0.039 C 
BRANCH  13  15
ATOM     15  C   UNL     1     131.973 184.384 190.881  1.00  0.00     0.035 C 
BRANCH  15  16
ATOM     16  C   UNL     1     130.504 183.999 191.090  1.00  0.00     0.079 C 
BRANCH  16  17
ATOM     17  C   UNL     1     129.839 183.711 189.770  1.00  0.00     0.130 C 
ATOM     18  O   UNL     1     128.726 183.208 189.756  1.00  0.00    -0.300 OA
ATOM     19  C   UNL     1     130.509 184.039 188.468  1.00  0.00     0.087 C 
ENDBRANCH  16  17
ENDBRANCH  15  16
ENDBRANCH  13  15
ENDBRANCH  11  12
ENDBRANCH   1  11
TORSDOF 9
ENDMDL
