MODEL 1
REMARK VINA RESULT:    -3.031      0.000      0.000
REMARK INTER + INTRA:         -10.174
REMARK INTER:                  -6.574
REMARK INTRA:                  -3.600
REMARK UNBOUND:                -3.600
REMARK SMILES CCCCCCCCCCCCCCCCCCCCCC(=O)[O-]
REMARK SMILES IDX 12 1 11 2 10 3 9 4 8 5 7 6 6 7 5 8 4 9 3 10 2 11 1 12 13 13
REMARK SMILES IDX 14 14 15 15 16 16 17 17 18 18 19 19 20 20 21 21 22 22 23 23
REMARK SMILES IDX 24 24
REMARK H PARENT
REMARK Flexibility Score: inf
ROOT
ATOM      1  C   UNL     1      31.911   8.622  21.762  1.00  0.00     0.000 C 
ENDROOT
BRANCH   1   2
ATOM      2  C   UNL     1      31.209   9.405  22.887  1.00  0.00     0.000 C 
BRANCH   2   3
ATOM      3  C   UNL     1      32.060  10.575  23.407  1.00  0.00     0.000 C 
BRANCH   3   4
ATOM      4  C   UNL     1      32.449  11.561  22.292  1.00  0.00    -0.000 C 
BRANCH   4   5
ATOM      5  C   UNL     1      33.892  12.072  22.430  1.00  0.00    -0.000 C 
BRANCH   5   6
ATOM      6  C   UNL     1      34.724  11.227  23.406  1.00  0.00    -0.000 C 
BRANCH   6   7
ATOM      7  C   UNL     1      36.173  11.093  22.919  1.00  0.00    -0.000 C 
BRANCH   7   8
ATOM      8  C   UNL     1      36.537   9.656  22.508  1.00  0.00    -0.000 C 
BRANCH   8   9
ATOM      9  C   UNL     1      35.513   9.009  21.552  1.00  0.00    -0.000 C 
BRANCH   9  10
ATOM     10  C   UNL     1      35.671   9.512  20.109  1.00  0.00    -0.000 C 
BRANCH  10  11
ATOM     11  C   UNL     1      34.451   9.141  19.258  1.00  0.00    -0.003 C 
ATOM     12  C   UNL     1      33.612  10.372  18.930  1.00  0.00     0.004 C 
ENDBRANCH  10  11
ENDBRANCH   9  10
ENDBRANCH   8   9
ENDBRANCH   7   8
ENDBRANCH   6   7
ENDBRANCH   5   6
ENDBRANCH   4   5
ENDBRANCH   3   4
ENDBRANCH   2   3
ENDBRANCH   1   2
BRANCH   1  13
ATOM     13  C   UNL     1      31.160   7.337  21.383  1.00  0.00     0.000 C 
BRANCH  13  14
ATOM     14  C   UNL     1      31.304   6.992  19.890  1.00  0.00     0.000 C 
BRANCH  14  15
ATOM     15  C   UNL     1      32.340   5.885  19.636  1.00  0.00     0.000 C 
BRANCH  15  16
ATOM     16  C   UNL     1      32.552   4.982  20.863  1.00  0.00     0.000 C 
BRANCH  16  17
ATOM     17  C   UNL     1      33.996   5.032  21.389  1.00  0.00     0.000 C 
BRANCH  17  18
ATOM     18  C   UNL     1      34.982   5.618  20.364  1.00  0.00     0.000 C 
BRANCH  18  19
ATOM     19  C   UNL     1      36.361   4.941  20.418  1.00  0.00     0.000 C 
BRANCH  19  20
ATOM     20  C   UNL     1      37.479   5.911  20.837  1.00  0.00     0.006 C 
BRANCH  20  21
ATOM     21  C   UNL     1      37.572   6.062  22.362  1.00  0.00     0.053 C 
BRANCH  21  22
ATOM     22  C   UNL     1      38.969   6.375  22.805  1.00  0.00     0.041 C 
ATOM     23  O   UNL     1      39.368   7.568  22.849  1.00  0.00    -0.550 OA
ATOM     24  O   UNL     1      39.836   5.347  23.156  1.00  0.00    -0.550 OA
ENDBRANCH  21  22
ENDBRANCH  20  21
ENDBRANCH  19  20
ENDBRANCH  18  19
ENDBRANCH  17  18
ENDBRANCH  16  17
ENDBRANCH  15  16
ENDBRANCH  14  15
ENDBRANCH  13  14
ENDBRANCH   1  13
TORSDOF 20
ENDMDL
MODEL 2
REMARK VINA RESULT:    -2.919      1.269      4.417
REMARK INTER + INTRA:          -9.932
REMARK INTER:                  -6.075
REMARK INTRA:                  -3.857
REMARK UNBOUND:                -3.600
REMARK SMILES CCCCCCCCCCCCCCCCCCCCCC(=O)[O-]
REMARK SMILES IDX 12 1 11 2 10 3 9 4 8 5 7 6 6 7 5 8 4 9 3 10 2 11 1 12 13 13
REMARK SMILES IDX 14 14 15 15 16 16 17 17 18 18 19 19 20 20 21 21 22 22 23 23
REMARK SMILES IDX 24 24
REMARK H PARENT
REMARK Flexibility Score: inf
ROOT
ATOM      1  C   UNL     1      32.210   8.875  21.603  1.00  0.00     0.000 C 
ENDROOT
BRANCH   1   2
ATOM      2  C   UNL     1      31.173   7.760  21.829  1.00  0.00     0.000 C 
BRANCH   2   3
ATOM      3  C   UNL     1      31.654   6.396  21.310  1.00  0.00     0.000 C 
BRANCH   3   4
ATOM      4  C   UNL     1      32.087   6.448  19.834  1.00  0.00    -0.000 C 
BRANCH   4   5
ATOM      5  C   UNL     1      33.547   6.012  19.630  1.00  0.00    -0.000 C 
BRANCH   5   6
ATOM      6  C   UNL     1      34.129   5.310  20.865  1.00  0.00    -0.000 C 
BRANCH   6   7
ATOM      7  C   UNL     1      35.492   5.905  21.245  1.00  0.00    -0.000 C 
BRANCH   7   8
ATOM      8  C   UNL     1      35.572   7.423  21.006  1.00  0.00    -0.000 C 
BRANCH   8   9
ATOM      9  C   UNL     1      36.756   7.846  20.110  1.00  0.00    -0.000 C 
BRANCH   9  10
ATOM     10  C   UNL     1      36.545   9.236  19.491  1.00  0.00    -0.000 C 
BRANCH  10  11
ATOM     11  C   UNL     1      35.064   9.629  19.508  1.00  0.00    -0.003 C 
ATOM     12  C   UNL     1      34.882  11.113  19.206  1.00  0.00     0.004 C 
ENDBRANCH  10  11
ENDBRANCH   9  10
ENDBRANCH   8   9
ENDBRANCH   7   8
ENDBRANCH   6   7
ENDBRANCH   5   6
ENDBRANCH   4   5
ENDBRANCH   3   4
ENDBRANCH   2   3
ENDBRANCH   1   2
BRANCH   1  13
ATOM     13  C   UNL     1      32.094  10.004  22.638  1.00  0.00     0.000 C 
BRANCH  13  14
ATOM     14  C   UNL     1      32.362  11.391  22.026  1.00  0.00     0.000 C 
BRANCH  14  15
ATOM     15  C   UNL     1      33.609  12.069  22.620  1.00  0.00     0.000 C 
BRANCH  15  16
ATOM     16  C   UNL     1      34.559  11.066  23.298  1.00  0.00     0.000 C 
BRANCH  16  17
ATOM     17  C   UNL     1      36.012  11.217  22.821  1.00  0.00     0.000 C 
BRANCH  17  18
ATOM     18  C   UNL     1      36.915  10.063  23.289  1.00  0.00     0.000 C 
BRANCH  18  19
ATOM     19  C   UNL     1      38.308  10.105  22.641  1.00  0.00     0.000 C 
BRANCH  19  20
ATOM     20  C   UNL     1      39.316   9.181  23.347  1.00  0.00     0.006 C 
BRANCH  20  21
ATOM     21  C   UNL     1      39.500   7.851  22.604  1.00  0.00     0.053 C 
BRANCH  21  22
ATOM     22  C   UNL     1      38.708   6.747  23.237  1.00  0.00     0.041 C 
ATOM     23  O   UNL     1      38.137   6.931  24.345  1.00  0.00    -0.550 OA
ATOM     24  O   UNL     1      38.613   5.510  22.612  1.00  0.00    -0.550 OA
ENDBRANCH  21  22
ENDBRANCH  20  21
ENDBRANCH  19  20
ENDBRANCH  18  19
ENDBRANCH  17  18
ENDBRANCH  16  17
ENDBRANCH  15  16
ENDBRANCH  14  15
ENDBRANCH  13  14
ENDBRANCH   1  13
TORSDOF 20
ENDMDL
MODEL 3
REMARK VINA RESULT:    -2.838      3.095      4.964
REMARK INTER + INTRA:          -9.756
REMARK INTER:                  -6.582
REMARK INTRA:                  -3.174
REMARK UNBOUND:                -3.600
REMARK SMILES CCCCCCCCCCCCCCCCCCCCCC(=O)[O-]
REMARK SMILES IDX 12 1 11 2 10 3 9 4 8 5 7 6 6 7 5 8 4 9 3 10 2 11 1 12 13 13
REMARK SMILES IDX 14 14 15 15 16 16 17 17 18 18 19 19 20 20 21 21 22 22 23 23
REMARK SMILES IDX 24 24
REMARK H PARENT
REMARK Flexibility Score: inf
ROOT
ATOM      1  C   UNL     1      33.477  11.131  20.362  1.00  0.00     0.000 C 
ENDROOT
BRANCH   1   2
ATOM      2  C   UNL     1      35.005  10.973  20.266  1.00  0.00     0.000 C 
BRANCH   2   3
ATOM      3  C   UNL     1      35.447   9.500  20.296  1.00  0.00     0.000 C 
BRANCH   3   4
ATOM      4  C   UNL     1      35.990   9.078  21.673  1.00  0.00    -0.000 C 
BRANCH   4   5
ATOM      5  C   UNL     1      36.083  10.255  22.658  1.00  0.00    -0.000 C 
BRANCH   5   6
ATOM      6  C   UNL     1      37.535  10.629  22.992  1.00  0.00    -0.000 C 
BRANCH   6   7
ATOM      7  C   UNL     1      37.863  12.048  22.507  1.00  0.00    -0.000 C 
BRANCH   7   8
ATOM      8  C   UNL     1      38.428  12.078  21.077  1.00  0.00    -0.000 C 
BRANCH   8   9
ATOM      9  C   UNL     1      39.279  10.839  20.723  1.00  0.00    -0.000 C 
BRANCH   9  10
ATOM     10  C   UNL     1      38.886  10.236  19.366  1.00  0.00    -0.000 C 
BRANCH  10  11
ATOM     11  C   UNL     1      38.916  11.299  18.261  1.00  0.00    -0.003 C 
ATOM     12  C   UNL     1      37.543  11.463  17.617  1.00  0.00     0.004 C 
ENDBRANCH  10  11
ENDBRANCH   9  10
ENDBRANCH   8   9
ENDBRANCH   7   8
ENDBRANCH   6   7
ENDBRANCH   5   6
ENDBRANCH   4   5
ENDBRANCH   3   4
ENDBRANCH   2   3
ENDBRANCH   1   2
BRANCH   1  13
ATOM     13  C   UNL     1      33.056  12.125  21.454  1.00  0.00     0.000 C 
BRANCH  13  14
ATOM     14  C   UNL     1      32.321  11.440  22.621  1.00  0.00     0.000 C 
BRANCH  14  15
ATOM     15  C   UNL     1      32.470   9.910  22.597  1.00  0.00     0.000 C 
BRANCH  15  16
ATOM     16  C   UNL     1      31.115   9.184  22.658  1.00  0.00     0.000 C 
BRANCH  16  17
ATOM     17  C   UNL     1      31.123   7.856  21.883  1.00  0.00     0.000 C 
BRANCH  17  18
ATOM     18  C   UNL     1      32.278   7.766  20.870  1.00  0.00     0.000 C 
BRANCH  18  19
ATOM     19  C   UNL     1      32.959   6.388  20.875  1.00  0.00     0.000 C 
BRANCH  19  20
ATOM     20  C   UNL     1      32.076   5.294  21.499  1.00  0.00     0.006 C 
BRANCH  20  21
ATOM     21  C   UNL     1      32.883   4.047  21.882  1.00  0.00     0.053 C 
BRANCH  21  22
ATOM     22  C   UNL     1      32.680   2.932  20.902  1.00  0.00     0.041 C 
ATOM     23  O   UNL     1      33.320   1.854  21.026  1.00  0.00    -0.550 OA
ATOM     24  O   UNL     1      31.795   3.087  19.843  1.00  0.00    -0.550 OA
ENDBRANCH  21  22
ENDBRANCH  20  21
ENDBRANCH  19  20
ENDBRANCH  18  19
ENDBRANCH  17  18
ENDBRANCH  16  17
ENDBRANCH  15  16
ENDBRANCH  14  15
ENDBRANCH  13  14
ENDBRANCH   1  13
TORSDOF 20
ENDMDL
MODEL 4
REMARK VINA RESULT:    -2.807      3.135      3.816
REMARK INTER + INTRA:          -9.688
REMARK INTER:                  -6.369
REMARK INTRA:                  -3.319
REMARK UNBOUND:                -3.600
REMARK SMILES CCCCCCCCCCCCCCCCCCCCCC(=O)[O-]
REMARK SMILES IDX 12 1 11 2 10 3 9 4 8 5 7 6 6 7 5 8 4 9 3 10 2 11 1 12 13 13
REMARK SMILES IDX 14 14 15 15 16 16 17 17 18 18 19 19 20 20 21 21 22 22 23 23
REMARK SMILES IDX 24 24
REMARK H PARENT
REMARK Flexibility Score: inf
ROOT
ATOM      1  C   UNL     1      31.947   8.684  21.789  1.00  0.00     0.000 C 
ENDROOT
BRANCH   1   2
ATOM      2  C   UNL     1      31.250   9.520  22.877  1.00  0.00     0.000 C 
BRANCH   2   3
ATOM      3  C   UNL     1      32.158  10.625  23.440  1.00  0.00     0.000 C 
BRANCH   3   4
ATOM      4  C   UNL     1      32.611  11.621  22.359  1.00  0.00    -0.000 C 
BRANCH   4   5
ATOM      5  C   UNL     1      34.076  12.054  22.529  1.00  0.00    -0.000 C 
BRANCH   5   6
ATOM      6  C   UNL     1      34.905  11.027  23.313  1.00  0.00    -0.000 C 
BRANCH   6   7
ATOM      7  C   UNL     1      36.373  11.045  22.862  1.00  0.00    -0.000 C 
BRANCH   7   8
ATOM      8  C   UNL     1      36.836   9.701  22.276  1.00  0.00    -0.000 C 
BRANCH   8   9
ATOM      9  C   UNL     1      35.682   8.836  21.726  1.00  0.00    -0.000 C 
BRANCH   9  10
ATOM     10  C   UNL     1      35.664   8.803  20.190  1.00  0.00    -0.000 C 
BRANCH  10  11
ATOM     11  C   UNL     1      34.576   9.727  19.631  1.00  0.00    -0.003 C 
ATOM     12  C   UNL     1      35.169  11.042  19.136  1.00  0.00     0.004 C 
ENDBRANCH  10  11
ENDBRANCH   9  10
ENDBRANCH   8   9
ENDBRANCH   7   8
ENDBRANCH   6   7
ENDBRANCH   5   6
ENDBRANCH   4   5
ENDBRANCH   3   4
ENDBRANCH   2   3
ENDBRANCH   1   2
BRANCH   1  13
ATOM     13  C   UNL     1      31.193   7.384  21.472  1.00  0.00     0.000 C 
BRANCH  13  14
ATOM     14  C   UNL     1      31.544   6.824  20.082  1.00  0.00     0.000 C 
BRANCH  14  15
ATOM     15  C   UNL     1      32.829   5.979  20.093  1.00  0.00     0.000 C 
BRANCH  15  16
ATOM     16  C   UNL     1      33.600   6.060  18.764  1.00  0.00     0.000 C 
BRANCH  16  17
ATOM     17  C   UNL     1      34.993   5.416  18.851  1.00  0.00     0.000 C 
BRANCH  17  18
ATOM     18  C   UNL     1      35.314   4.881  20.257  1.00  0.00     0.000 C 
BRANCH  18  19
ATOM     19  C   UNL     1      35.621   3.374  20.259  1.00  0.00     0.000 C 
BRANCH  19  20
ATOM     20  C   UNL     1      34.429   2.528  19.779  1.00  0.00     0.006 C 
BRANCH  20  21
ATOM     21  C   UNL     1      33.317   2.447  20.833  1.00  0.00     0.053 C 
BRANCH  21  22
ATOM     22  C   UNL     1      31.986   2.145  20.213  1.00  0.00     0.041 C 
ATOM     23  O   UNL     1      31.856   2.138  18.960  1.00  0.00    -0.550 OA
ATOM     24  O   UNL     1      30.885   1.884  21.020  1.00  0.00    -0.550 OA
ENDBRANCH  21  22
ENDBRANCH  20  21
ENDBRANCH  19  20
ENDBRANCH  18  19
ENDBRANCH  17  18
ENDBRANCH  16  17
ENDBRANCH  15  16
ENDBRANCH  14  15
ENDBRANCH  13  14
ENDBRANCH   1  13
TORSDOF 20
ENDMDL
MODEL 5
REMARK VINA RESULT:    -2.759      2.866      5.072
REMARK INTER + INTRA:          -9.584
REMARK INTER:                  -6.266
REMARK INTRA:                  -3.318
REMARK UNBOUND:                -3.600
REMARK SMILES CCCCCCCCCCCCCCCCCCCCCC(=O)[O-]
REMARK SMILES IDX 12 1 11 2 10 3 9 4 8 5 7 6 6 7 5 8 4 9 3 10 2 11 1 12 13 13
REMARK SMILES IDX 14 14 15 15 16 16 17 17 18 18 19 19 20 20 21 21 22 22 23 23
REMARK SMILES IDX 24 24
REMARK H PARENT
REMARK Flexibility Score: inf
ROOT
ATOM      1  C   UNL     1      35.228  11.234  21.714  1.00  0.00     0.000 C 
ENDROOT
BRANCH   1   2
ATOM      2  C   UNL     1      34.557  11.886  22.935  1.00  0.00     0.000 C 
BRANCH   2   3
ATOM      3  C   UNL     1      33.434  11.016  23.523  1.00  0.00     0.000 C 
BRANCH   3   4
ATOM      4  C   UNL     1      32.348  10.678  22.485  1.00  0.00    -0.000 C 
BRANCH   4   5
ATOM      5  C   UNL     1      31.269   9.736  23.043  1.00  0.00    -0.000 C 
BRANCH   5   6
ATOM      6  C   UNL     1      31.056   8.498  22.161  1.00  0.00    -0.000 C 
BRANCH   6   7
ATOM      7  C   UNL     1      32.313   8.187  21.336  1.00  0.00    -0.000 C 
BRANCH   7   8
ATOM      8  C   UNL     1      32.002   7.438  20.028  1.00  0.00    -0.000 C 
BRANCH   8   9
ATOM      9  C   UNL     1      32.912   7.849  18.851  1.00  0.00    -0.000 C 
BRANCH   9  10
ATOM     10  C   UNL     1      33.706   9.130  19.152  1.00  0.00    -0.000 C 
BRANCH  10  11
ATOM     11  C   UNL     1      35.015   9.167  18.356  1.00  0.00    -0.003 C 
ATOM     12  C   UNL     1      35.689   7.799  18.338  1.00  0.00     0.004 C 
ENDBRANCH  10  11
ENDBRANCH   9  10
ENDBRANCH   8   9
ENDBRANCH   7   8
ENDBRANCH   6   7
ENDBRANCH   5   6
ENDBRANCH   4   5
ENDBRANCH   3   4
ENDBRANCH   2   3
ENDBRANCH   1   2
BRANCH   1  13
ATOM     13  C   UNL     1      35.883   9.886  22.051  1.00  0.00     0.000 C 
BRANCH  13  14
ATOM     14  C   UNL     1      37.092  10.039  22.993  1.00  0.00     0.000 C 
BRANCH  14  15
ATOM     15  C   UNL     1      38.050   8.839  22.923  1.00  0.00     0.000 C 
BRANCH  15  16
ATOM     16  C   UNL     1      37.692   7.862  21.790  1.00  0.00     0.000 C 
BRANCH  16  17
ATOM     17  C   UNL     1      37.385   6.447  22.308  1.00  0.00     0.000 C 
BRANCH  17  18
ATOM     18  C   UNL     1      36.621   5.592  21.282  1.00  0.00     0.000 C 
BRANCH  18  19
ATOM     19  C   UNL     1      35.096   5.742  21.410  1.00  0.00     0.000 C 
BRANCH  19  20
ATOM     20  C   UNL     1      34.334   4.533  20.840  1.00  0.00     0.006 C 
BRANCH  20  21
ATOM     21  C   UNL     1      33.046   4.241  21.621  1.00  0.00     0.053 C 
BRANCH  21  22
ATOM     22  C   UNL     1      32.001   3.608  20.753  1.00  0.00     0.041 C 
ATOM     23  O   UNL     1      31.961   3.864  19.520  1.00  0.00    -0.550 OA
ATOM     24  O   UNL     1      31.064   2.745  21.307  1.00  0.00    -0.550 OA
ENDBRANCH  21  22
ENDBRANCH  20  21
ENDBRANCH  19  20
ENDBRANCH  18  19
ENDBRANCH  17  18
ENDBRANCH  16  17
ENDBRANCH  15  16
ENDBRANCH  14  15
ENDBRANCH  13  14
ENDBRANCH   1  13
TORSDOF 20
ENDMDL
MODEL 6
REMARK VINA RESULT:    -2.755      1.481      3.640
REMARK INTER + INTRA:          -9.576
REMARK INTER:                  -5.771
REMARK INTRA:                  -3.805
REMARK UNBOUND:                -3.600
REMARK SMILES CCCCCCCCCCCCCCCCCCCCCC(=O)[O-]
REMARK SMILES IDX 12 1 11 2 10 3 9 4 8 5 7 6 6 7 5 8 4 9 3 10 2 11 1 12 13 13
REMARK SMILES IDX 14 14 15 15 16 16 17 17 18 18 19 19 20 20 21 21 22 22 23 23
REMARK SMILES IDX 24 24
REMARK H PARENT
REMARK Flexibility Score: inf
ROOT
ATOM      1  C   UNL     1      32.307   4.991  21.519  1.00  0.00     0.000 C 
ENDROOT
BRANCH   1   2
ATOM      2  C   UNL     1      32.911   6.329  21.055  1.00  0.00     0.000 C 
BRANCH   2   3
ATOM      3  C   UNL     1      32.238   6.868  19.782  1.00  0.00     0.000 C 
BRANCH   3   4
ATOM      4  C   UNL     1      33.175   7.768  18.958  1.00  0.00    -0.000 C 
BRANCH   4   5
ATOM      5  C   UNL     1      33.426   9.130  19.626  1.00  0.00    -0.000 C 
BRANCH   5   6
ATOM      6  C   UNL     1      34.844   9.659  19.368  1.00  0.00    -0.000 C 
BRANCH   6   7
ATOM      7  C   UNL     1      35.474  10.198  20.660  1.00  0.00    -0.000 C 
BRANCH   7   8
ATOM      8  C   UNL     1      34.749   9.714  21.928  1.00  0.00    -0.000 C 
BRANCH   8   9
ATOM      9  C   UNL     1      34.319  10.860  22.869  1.00  0.00    -0.000 C 
BRANCH   9  10
ATOM     10  C   UNL     1      32.850  11.259  22.662  1.00  0.00    -0.000 C 
BRANCH  10  11
ATOM     11  C   UNL     1      31.919  10.409  23.533  1.00  0.00    -0.003 C 
ATOM     12  C   UNL     1      31.198   9.351  22.703  1.00  0.00     0.004 C 
ENDBRANCH  10  11
ENDBRANCH   9  10
ENDBRANCH   8   9
ENDBRANCH   7   8
ENDBRANCH   6   7
ENDBRANCH   5   6
ENDBRANCH   4   5
ENDBRANCH   3   4
ENDBRANCH   2   3
ENDBRANCH   1   2
BRANCH   1  13
ATOM     13  C   UNL     1      33.290   3.820  21.372  1.00  0.00     0.000 C 
BRANCH  13  14
ATOM     14  C   UNL     1      33.544   3.446  19.901  1.00  0.00     0.000 C 
BRANCH  14  15
ATOM     15  C   UNL     1      35.024   3.143  19.615  1.00  0.00     0.000 C 
BRANCH  15  16
ATOM     16  C   UNL     1      35.975   4.118  20.330  1.00  0.00     0.000 C 
BRANCH  16  17
ATOM     17  C   UNL     1      36.384   5.303  19.440  1.00  0.00     0.000 C 
BRANCH  17  18
ATOM     18  C   UNL     1      36.562   6.609  20.233  1.00  0.00     0.000 C 
BRANCH  18  19
ATOM     19  C   UNL     1      36.441   6.398  21.751  1.00  0.00     0.000 C 
BRANCH  19  20
ATOM     20  C   UNL     1      37.707   6.832  22.510  1.00  0.00     0.006 C 
BRANCH  20  21
ATOM     21  C   UNL     1      38.348   8.084  21.897  1.00  0.00     0.053 C 
BRANCH  21  22
ATOM     22  C   UNL     1      38.691   9.101  22.942  1.00  0.00     0.041 C 
ATOM     23  O   UNL     1      37.777   9.733  23.536  1.00  0.00    -0.550 OA
ATOM     24  O   UNL     1      40.020   9.362  23.252  1.00  0.00    -0.550 OA
ENDBRANCH  21  22
ENDBRANCH  20  21
ENDBRANCH  19  20
ENDBRANCH  18  19
ENDBRANCH  17  18
ENDBRANCH  16  17
ENDBRANCH  15  16
ENDBRANCH  14  15
ENDBRANCH  13  14
ENDBRANCH   1  13
TORSDOF 20
ENDMDL
MODEL 7
REMARK VINA RESULT:    -2.725      3.340      5.349
REMARK INTER + INTRA:          -9.512
REMARK INTER:                  -6.216
REMARK INTRA:                  -3.296
REMARK UNBOUND:                -3.600
REMARK SMILES CCCCCCCCCCCCCCCCCCCCCC(=O)[O-]
REMARK SMILES IDX 12 1 11 2 10 3 9 4 8 5 7 6 6 7 5 8 4 9 3 10 2 11 1 12 13 13
REMARK SMILES IDX 14 14 15 15 16 16 17 17 18 18 19 19 20 20 21 21 22 22 23 23
REMARK SMILES IDX 24 24
REMARK H PARENT
REMARK Flexibility Score: inf
ROOT
ATOM      1  C   UNL     1      30.978   7.252  21.287  1.00  0.00     0.000 C 
ENDROOT
BRANCH   1   2
ATOM      2  C   UNL     1      31.867   8.419  21.753  1.00  0.00     0.000 C 
BRANCH   2   3
ATOM      3  C   UNL     1      31.215   9.242  22.876  1.00  0.00     0.000 C 
BRANCH   3   4
ATOM      4  C   UNL     1      32.086  10.433  23.313  1.00  0.00    -0.000 C 
BRANCH   4   5
ATOM      5  C   UNL     1      32.399  11.393  22.155  1.00  0.00    -0.000 C 
BRANCH   5   6
ATOM      6  C   UNL     1      33.770  12.069  22.305  1.00  0.00    -0.000 C 
BRANCH   6   7
ATOM      7  C   UNL     1      34.631  11.341  23.347  1.00  0.00    -0.000 C 
BRANCH   7   8
ATOM      8  C   UNL     1      35.821  10.592  22.725  1.00  0.00    -0.000 C 
BRANCH   8   9
ATOM      9  C   UNL     1      35.405   9.390  21.850  1.00  0.00    -0.000 C 
BRANCH   9  10
ATOM     10  C   UNL     1      36.513   8.328  21.761  1.00  0.00    -0.000 C 
BRANCH  10  11
ATOM     11  C   UNL     1      37.422   8.375  22.993  1.00  0.00    -0.003 C 
ATOM     12  C   UNL     1      38.252   7.101  23.116  1.00  0.00     0.004 C 
ENDBRANCH  10  11
ENDBRANCH   9  10
ENDBRANCH   8   9
ENDBRANCH   7   8
ENDBRANCH   6   7
ENDBRANCH   5   6
ENDBRANCH   4   5
ENDBRANCH   3   4
ENDBRANCH   2   3
ENDBRANCH   1   2
BRANCH   1  13
ATOM     13  C   UNL     1      31.774   5.957  21.070  1.00  0.00     0.000 C 
BRANCH  13  14
ATOM     14  C   UNL     1      33.288   6.210  20.947  1.00  0.00     0.000 C 
BRANCH  14  15
ATOM     15  C   UNL     1      33.908   5.507  19.728  1.00  0.00     0.000 C 
BRANCH  15  16
ATOM     16  C   UNL     1      34.595   6.491  18.766  1.00  0.00     0.000 C 
BRANCH  16  17
ATOM     17  C   UNL     1      33.669   7.641  18.338  1.00  0.00     0.000 C 
BRANCH  17  18
ATOM     18  C   UNL     1      34.327   9.023  18.491  1.00  0.00     0.000 C 
BRANCH  18  19
ATOM     19  C   UNL     1      33.314  10.120  18.858  1.00  0.00     0.000 C 
BRANCH  19  20
ATOM     20  C   UNL     1      33.756  11.515  18.382  1.00  0.00     0.006 C 
BRANCH  20  21
ATOM     21  C   UNL     1      32.765  12.125  17.383  1.00  0.00     0.053 C 
BRANCH  21  22
ATOM     22  C   UNL     1      32.488  11.198  16.238  1.00  0.00     0.041 C 
ATOM     23  O   UNL     1      31.348  10.679  16.104  1.00  0.00    -0.550 OA
ATOM     24  O   UNL     1      33.492  10.894  15.328  1.00  0.00    -0.550 OA
ENDBRANCH  21  22
ENDBRANCH  20  21
ENDBRANCH  19  20
ENDBRANCH  18  19
ENDBRANCH  17  18
ENDBRANCH  16  17
ENDBRANCH  15  16
ENDBRANCH  14  15
ENDBRANCH  13  14
ENDBRANCH   1  13
TORSDOF 20
ENDMDL
MODEL 8
REMARK VINA RESULT:    -2.718      2.654      5.523
REMARK INTER + INTRA:          -9.497
REMARK INTER:                  -5.382
REMARK INTRA:                  -4.115
REMARK UNBOUND:                -3.600
REMARK SMILES CCCCCCCCCCCCCCCCCCCCCC(=O)[O-]
REMARK SMILES IDX 12 1 11 2 10 3 9 4 8 5 7 6 6 7 5 8 4 9 3 10 2 11 1 12 13 13
REMARK SMILES IDX 14 14 15 15 16 16 17 17 18 18 19 19 20 20 21 21 22 22 23 23
REMARK SMILES IDX 24 24
REMARK H PARENT
REMARK Flexibility Score: inf
ROOT
ATOM      1  C   UNL     1      36.107  12.125  22.861  1.00  0.00     0.000 C 
ENDROOT
BRANCH   1   2
ATOM      2  C   UNL     1      36.902  11.035  22.119  1.00  0.00     0.000 C 
BRANCH   2   3
ATOM      3  C   UNL     1      38.402  11.073  22.451  1.00  0.00     0.000 C 
BRANCH   3   4
ATOM      4  C   UNL     1      38.880   9.795  23.161  1.00  0.00    -0.000 C 
BRANCH   4   5
ATOM      5  C   UNL     1      37.715   8.890  23.596  1.00  0.00    -0.000 C 
BRANCH   5   6
ATOM      6  C   UNL     1      38.126   7.414  23.705  1.00  0.00    -0.000 C 
BRANCH   6   7
ATOM      7  C   UNL     1      37.469   6.577  22.599  1.00  0.00    -0.000 C 
BRANCH   7   8
ATOM      8  C   UNL     1      36.512   7.396  21.715  1.00  0.00    -0.000 C 
BRANCH   8   9
ATOM      9  C   UNL     1      36.892   7.383  20.219  1.00  0.00    -0.000 C 
BRANCH   9  10
ATOM     10  C   UNL     1      38.409   7.498  20.006  1.00  0.00    -0.000 C 
BRANCH  10  11
ATOM     11  C   UNL     1      38.789   8.886  19.480  1.00  0.00    -0.003 C 
ATOM     12  C   UNL     1      37.602   9.565  18.803  1.00  0.00     0.004 C 
ENDBRANCH  10  11
ENDBRANCH   9  10
ENDBRANCH   8   9
ENDBRANCH   7   8
ENDBRANCH   6   7
ENDBRANCH   5   6
ENDBRANCH   4   5
ENDBRANCH   3   4
ENDBRANCH   2   3
ENDBRANCH   1   2
BRANCH   1  13
ATOM     13  C   UNL     1      34.768  11.609  23.407  1.00  0.00     0.000 C 
BRANCH  13  14
ATOM     14  C   UNL     1      34.124  10.556  22.486  1.00  0.00     0.000 C 
BRANCH  14  15
ATOM     15  C   UNL     1      32.832  11.062  21.823  1.00  0.00     0.000 C 
BRANCH  15  16
ATOM     16  C   UNL     1      33.105  11.992  20.629  1.00  0.00     0.000 C 
BRANCH  16  17
ATOM     17  C   UNL     1      34.141  11.409  19.654  1.00  0.00     0.000 C 
BRANCH  17  18
ATOM     18  C   UNL     1      33.535  10.371  18.693  1.00  0.00     0.000 C 
BRANCH  18  19
ATOM     19  C   UNL     1      33.964   8.935  19.031  1.00  0.00     0.000 C 
BRANCH  19  20
ATOM     20  C   UNL     1      32.772   8.032  19.394  1.00  0.00     0.006 C 
BRANCH  20  21
ATOM     21  C   UNL     1      32.878   7.482  20.823  1.00  0.00     0.053 C 
BRANCH  21  22
ATOM     22  C   UNL     1      32.764   5.988  20.852  1.00  0.00     0.041 C 
ATOM     23  O   UNL     1      31.630   5.439  20.843  1.00  0.00    -0.550 OA
ATOM     24  O   UNL     1      33.908   5.202  20.905  1.00  0.00    -0.550 OA
ENDBRANCH  21  22
ENDBRANCH  20  21
ENDBRANCH  19  20
ENDBRANCH  18  19
ENDBRANCH  17  18
ENDBRANCH  16  17
ENDBRANCH  15  16
ENDBRANCH  14  15
ENDBRANCH  13  14
ENDBRANCH   1  13
TORSDOF 20
ENDMDL
MODEL 9
REMARK VINA RESULT:    -1.900      1.415      4.625
REMARK INTER + INTRA:          -7.721
REMARK INTER:                  -4.674
REMARK INTRA:                  -3.047
REMARK UNBOUND:                -3.600
REMARK SMILES CCCCCCCCCCCCCCCCCCCCCC(=O)[O-]
REMARK SMILES IDX 12 1 11 2 10 3 9 4 8 5 7 6 6 7 5 8 4 9 3 10 2 11 1 12 13 13
REMARK SMILES IDX 14 14 15 15 16 16 17 17 18 18 19 19 20 20 21 21 22 22 23 23
REMARK SMILES IDX 24 24
REMARK H PARENT
REMARK Flexibility Score: inf
ROOT
ATOM      1  C   UNL     1      34.274  11.227  20.919  1.00  0.00     0.000 C 
ENDROOT
BRANCH   1   2
ATOM      2  C   UNL     1      33.042  12.062  21.311  1.00  0.00     0.000 C 
BRANCH   2   3
ATOM      3  C   UNL     1      32.541  11.740  22.729  1.00  0.00     0.000 C 
BRANCH   3   4
ATOM      4  C   UNL     1      32.544  10.230  23.024  1.00  0.00    -0.000 C 
BRANCH   4   5
ATOM      5  C   UNL     1      31.174   9.577  22.777  1.00  0.00    -0.000 C 
BRANCH   5   6
ATOM      6  C   UNL     1      31.292   8.192  22.124  1.00  0.00    -0.000 C 
BRANCH   6   7
ATOM      7  C   UNL     1      32.424   8.167  21.088  1.00  0.00    -0.000 C 
BRANCH   7   8
ATOM      8  C   UNL     1      32.718   6.754  20.555  1.00  0.00    -0.000 C 
BRANCH   8   9
ATOM      9  C   UNL     1      32.067   5.631  21.390  1.00  0.00    -0.000 C 
BRANCH   9  10
ATOM     10  C   UNL     1      33.078   4.544  21.786  1.00  0.00    -0.000 C 
BRANCH  10  11
ATOM     11  C   UNL     1      34.138   4.353  20.696  1.00  0.00    -0.003 C 
ATOM     12  C   UNL     1      33.668   3.361  19.636  1.00  0.00     0.004 C 
ENDBRANCH  10  11
ENDBRANCH   9  10
ENDBRANCH   8   9
ENDBRANCH   7   8
ENDBRANCH   6   7
ENDBRANCH   5   6
ENDBRANCH   4   5
ENDBRANCH   3   4
ENDBRANCH   2   3
ENDBRANCH   1   2
BRANCH   1  13
ATOM     13  C   UNL     1      35.562  12.062  20.874  1.00  0.00     0.000 C 
BRANCH  13  14
ATOM     14  C   UNL     1      36.306  12.067  22.222  1.00  0.00     0.000 C 
BRANCH  14  15
ATOM     15  C   UNL     1      36.154  10.741  22.986  1.00  0.00     0.000 C 
BRANCH  15  16
ATOM     16  C   UNL     1      37.441   9.898  22.966  1.00  0.00     0.000 C 
BRANCH  16  17
ATOM     17  C   UNL     1      37.594   9.086  21.670  1.00  0.00     0.000 C 
BRANCH  17  18
ATOM     18  C   UNL     1      36.379   8.185  21.386  1.00  0.00     0.000 C 
BRANCH  18  19
ATOM     19  C   UNL     1      36.472   6.828  22.102  1.00  0.00     0.000 C 
BRANCH  19  20
ATOM     20  C   UNL     1      37.835   6.145  21.900  1.00  0.00     0.006 C 
BRANCH  20  21
ATOM     21  C   UNL     1      38.413   5.607  23.215  1.00  0.00     0.053 C 
BRANCH  21  22
ATOM     22  C   UNL     1      38.995   6.703  24.055  1.00  0.00     0.041 C 
ATOM     23  O   UNL     1      40.145   7.152  23.804  1.00  0.00    -0.550 OA
ATOM     24  O   UNL     1      38.274   7.219  25.125  1.00  0.00    -0.550 OA
ENDBRANCH  21  22
ENDBRANCH  20  21
ENDBRANCH  19  20
ENDBRANCH  18  19
ENDBRANCH  17  18
ENDBRANCH  16  17
ENDBRANCH  15  16
ENDBRANCH  14  15
ENDBRANCH  13  14
ENDBRANCH   1  13
TORSDOF 20
ENDMDL
