MODEL 1
REMARK VINA RESULT:    -4.765      0.000      0.000
REMARK INTER + INTRA:         -10.589
REMARK INTER:                  -8.386
REMARK INTRA:                  -2.203
REMARK UNBOUND:                -2.203
REMARK SMILES CCCCCCC=CCCCCCCCC(=O)[O-]
REMARK SMILES IDX 10 1 11 2 12 3 13 4 14 5 15 6 16 7 17 8 18 9 9 10 8 11 7 12
REMARK SMILES IDX 6 13 5 14 4 15 3 16 2 17 1 18
REMARK H PARENT
REMARK Flexibility Score: inf
ROOT
ATOM      1  C   UNL     1     -22.879  19.521 -21.656  1.00  0.00     0.004 C 
ENDROOT
BRANCH   1   2
ATOM      2  C   UNL     1     -23.251  20.920 -21.153  1.00  0.00     0.000 C 
BRANCH   2   3
ATOM      3  C   UNL     1     -24.055  21.691 -22.212  1.00  0.00     0.000 C 
BRANCH   3   4
ATOM      4  C   UNL     1     -23.180  22.634 -23.051  1.00  0.00     0.000 C 
BRANCH   4   5
ATOM      5  C   UNL     1     -23.131  22.235 -24.534  1.00  0.00     0.006 C 
BRANCH   5   6
ATOM      6  C   UNL     1     -21.694  21.955 -24.981  1.00  0.00     0.053 C 
BRANCH   6   7
ATOM      7  C   UNL     1     -21.026  23.219 -25.421  1.00  0.00     0.041 C 
ATOM      8  O   UNL     1     -21.052  23.561 -26.633  1.00  0.00    -0.550 OA
ATOM      9  O   UNL     1     -20.325  23.991 -24.503  1.00  0.00    -0.550 OA
ENDBRANCH   6   7
ENDBRANCH   5   6
ENDBRANCH   4   5
ENDBRANCH   3   4
ENDBRANCH   2   3
ENDBRANCH   1   2
BRANCH   1  10
ATOM     10  C   UNL     1     -24.123  18.757 -22.128  1.00  0.00     0.027 C 
BRANCH  10  11
ATOM     11  C   UNL     1     -23.844  17.983 -23.386  1.00  0.00    -0.031 C 
ATOM     12  C   UNL     1     -23.175  18.529 -24.413  1.00  0.00    -0.031 C 
BRANCH  12  13
ATOM     13  C   UNL     1     -22.843  17.741 -25.651  1.00  0.00     0.027 C 
BRANCH  13  14
ATOM     14  C   UNL     1     -21.462  17.082 -25.544  1.00  0.00     0.004 C 
BRANCH  14  15
ATOM     15  C   UNL     1     -20.472  17.937 -24.733  1.00  0.00     0.000 C 
BRANCH  15  16
ATOM     16  C   UNL     1     -19.839  17.148 -23.568  1.00  0.00    -0.000 C 
BRANCH  16  17
ATOM     17  C   UNL     1     -20.651  15.909 -23.152  1.00  0.00    -0.003 C 
ATOM     18  C   UNL     1     -21.260  16.034 -21.758  1.00  0.00     0.004 C 
ENDBRANCH  16  17
ENDBRANCH  15  16
ENDBRANCH  14  15
ENDBRANCH  13  14
ENDBRANCH  12  13
ENDBRANCH  10  11
ENDBRANCH   1  10
TORSDOF 13
ENDMDL
MODEL 2
REMARK VINA RESULT:    -4.598      3.448      6.500
REMARK INTER + INTRA:         -10.295
REMARK INTER:                  -8.188
REMARK INTRA:                  -2.107
REMARK UNBOUND:                -2.203
REMARK SMILES CCCCCCC=CCCCCCCCC(=O)[O-]
REMARK SMILES IDX 10 1 11 2 12 3 13 4 14 5 15 6 16 7 17 8 18 9 9 10 8 11 7 12
REMARK SMILES IDX 6 13 5 14 4 15 3 16 2 17 1 18
REMARK H PARENT
REMARK Flexibility Score: inf
ROOT
ATOM      1  C   UNL     1     -23.540  18.144 -24.672  1.00  0.00     0.004 C 
ENDROOT
BRANCH   1   2
ATOM      2  C   UNL     1     -22.290  17.385 -25.128  1.00  0.00     0.000 C 
BRANCH   2   3
ATOM      3  C   UNL     1     -21.013  18.155 -24.761  1.00  0.00     0.000 C 
BRANCH   3   4
ATOM      4  C   UNL     1     -20.033  17.316 -23.925  1.00  0.00     0.000 C 
BRANCH   4   5
ATOM      5  C   UNL     1     -20.710  16.115 -23.247  1.00  0.00     0.006 C 
BRANCH   5   6
ATOM      6  C   UNL     1     -21.010  16.410 -21.775  1.00  0.00     0.053 C 
BRANCH   6   7
ATOM      7  C   UNL     1     -21.581  15.202 -21.104  1.00  0.00     0.041 C 
ATOM      8  O   UNL     1     -20.831  14.243 -20.780  1.00  0.00    -0.550 OA
ATOM      9  O   UNL     1     -22.950  15.110 -20.886  1.00  0.00    -0.550 OA
ENDBRANCH   6   7
ENDBRANCH   5   6
ENDBRANCH   4   5
ENDBRANCH   3   4
ENDBRANCH   2   3
ENDBRANCH   1   2
BRANCH   1  10
ATOM     10  C   UNL     1     -23.972  17.700 -23.268  1.00  0.00     0.027 C 
BRANCH  10  11
ATOM     11  C   UNL     1     -24.103  18.876 -22.339  1.00  0.00    -0.031 C 
ATOM     12  C   UNL     1     -23.028  19.559 -21.916  1.00  0.00    -0.031 C 
BRANCH  12  13
ATOM     13  C   UNL     1     -23.158  20.771 -21.032  1.00  0.00     0.027 C 
BRANCH  13  14
ATOM     14  C   UNL     1     -24.005  21.862 -21.698  1.00  0.00     0.004 C 
BRANCH  14  15
ATOM     15  C   UNL     1     -23.140  22.985 -22.298  1.00  0.00     0.000 C 
BRANCH  15  16
ATOM     16  C   UNL     1     -23.415  23.191 -23.802  1.00  0.00    -0.000 C 
BRANCH  16  17
ATOM     17  C   UNL     1     -23.203  21.923 -24.645  1.00  0.00    -0.003 C 
ATOM     18  C   UNL     1     -21.754  21.732 -25.085  1.00  0.00     0.004 C 
ENDBRANCH  16  17
ENDBRANCH  15  16
ENDBRANCH  14  15
ENDBRANCH  13  14
ENDBRANCH  12  13
ENDBRANCH  10  11
ENDBRANCH   1  10
TORSDOF 13
ENDMDL
MODEL 3
REMARK VINA RESULT:    -4.454      1.380      2.782
REMARK INTER + INTRA:         -10.043
REMARK INTER:                  -8.234
REMARK INTRA:                  -1.809
REMARK UNBOUND:                -2.203
REMARK SMILES CCCCCCC=CCCCCCCCC(=O)[O-]
REMARK SMILES IDX 10 1 11 2 12 3 13 4 14 5 15 6 16 7 17 8 18 9 9 10 8 11 7 12
REMARK SMILES IDX 6 13 5 14 4 15 3 16 2 17 1 18
REMARK H PARENT
REMARK Flexibility Score: inf
ROOT
ATOM      1  C   UNL     1     -23.206  21.131 -22.218  1.00  0.00     0.004 C 
ENDROOT
BRANCH   1   2
ATOM      2  C   UNL     1     -22.796  20.796 -23.656  1.00  0.00     0.000 C 
BRANCH   2   3
ATOM      3  C   UNL     1     -22.909  22.032 -24.562  1.00  0.00     0.000 C 
BRANCH   3   4
ATOM      4  C   UNL     1     -21.632  22.290 -25.377  1.00  0.00     0.000 C 
BRANCH   4   5
ATOM      5  C   UNL     1     -20.900  23.569 -24.941  1.00  0.00     0.006 C 
BRANCH   5   6
ATOM      6  C   UNL     1     -21.809  24.794 -25.069  1.00  0.00     0.053 C 
BRANCH   6   7
ATOM      7  C   UNL     1     -21.996  25.160 -26.507  1.00  0.00     0.041 C 
ATOM      8  O   UNL     1     -23.142  25.448 -26.945  1.00  0.00    -0.550 OA
ATOM      9  O   UNL     1     -20.914  25.128 -27.379  1.00  0.00    -0.550 OA
ENDBRANCH   6   7
ENDBRANCH   5   6
ENDBRANCH   4   5
ENDBRANCH   3   4
ENDBRANCH   2   3
ENDBRANCH   1   2
BRANCH   1  10
ATOM     10  C   UNL     1     -23.627  19.867 -21.457  1.00  0.00     0.027 C 
BRANCH  10  11
ATOM     11  C   UNL     1     -22.657  18.741 -21.688  1.00  0.00    -0.031 C 
ATOM     12  C   UNL     1     -23.078  17.499 -21.973  1.00  0.00    -0.031 C 
BRANCH  12  13
ATOM     13  C   UNL     1     -22.111  16.382 -22.261  1.00  0.00     0.027 C 
BRANCH  13  14
ATOM     14  C   UNL     1     -20.702  16.918 -22.544  1.00  0.00     0.004 C 
BRANCH  14  15
ATOM     15  C   UNL     1     -20.334  16.828 -24.035  1.00  0.00     0.000 C 
BRANCH  15  16
ATOM     16  C   UNL     1     -20.217  18.219 -24.692  1.00  0.00    -0.000 C 
BRANCH  16  17
ATOM     17  C   UNL     1     -21.119  18.393 -25.925  1.00  0.00    -0.003 C 
ATOM     18  C   UNL     1     -22.490  17.742 -25.760  1.00  0.00     0.004 C 
ENDBRANCH  16  17
ENDBRANCH  15  16
ENDBRANCH  14  15
ENDBRANCH  13  14
ENDBRANCH  12  13
ENDBRANCH  10  11
ENDBRANCH   1  10
TORSDOF 13
ENDMDL
MODEL 4
REMARK VINA RESULT:    -4.441      3.692      6.789
REMARK INTER + INTRA:         -10.020
REMARK INTER:                  -8.056
REMARK INTRA:                  -1.964
REMARK UNBOUND:                -2.203
REMARK SMILES CCCCCCC=CCCCCCCCC(=O)[O-]
REMARK SMILES IDX 10 1 11 2 12 3 13 4 14 5 15 6 16 7 17 8 18 9 9 10 8 11 7 12
REMARK SMILES IDX 6 13 5 14 4 15 3 16 2 17 1 18
REMARK H PARENT
REMARK Flexibility Score: inf
ROOT
ATOM      1  C   UNL     1     -20.556  18.286 -25.136  1.00  0.00     0.004 C 
ENDROOT
BRANCH   1   2
ATOM      2  C   UNL     1     -21.281  16.956 -25.367  1.00  0.00     0.000 C 
BRANCH   2   3
ATOM      3  C   UNL     1     -21.115  16.021 -24.160  1.00  0.00     0.000 C 
BRANCH   3   4
ATOM      4  C   UNL     1     -20.463  16.717 -22.955  1.00  0.00     0.000 C 
BRANCH   4   5
ATOM      5  C   UNL     1     -21.414  16.839 -21.755  1.00  0.00     0.006 C 
BRANCH   5   6
ATOM      6  C   UNL     1     -22.842  16.448 -22.143  1.00  0.00     0.053 C 
BRANCH   6   7
ATOM      7  C   UNL     1     -23.407  15.475 -21.157  1.00  0.00     0.041 C 
ATOM      8  O   UNL     1     -22.982  14.290 -21.121  1.00  0.00    -0.550 OA
ATOM      9  O   UNL     1     -24.441  15.862 -20.314  1.00  0.00    -0.550 OA
ENDBRANCH   6   7
ENDBRANCH   5   6
ENDBRANCH   4   5
ENDBRANCH   3   4
ENDBRANCH   2   3
ENDBRANCH   1   2
BRANCH   1  10
ATOM     10  C   UNL     1     -21.354  19.458 -25.724  1.00  0.00     0.027 C 
BRANCH  10  11
ATOM     11  C   UNL     1     -22.524  19.816 -24.850  1.00  0.00    -0.031 C 
ATOM     12  C   UNL     1     -22.426  19.818 -23.511  1.00  0.00    -0.031 C 
BRANCH  12  13
ATOM     13  C   UNL     1     -23.577  20.231 -22.634  1.00  0.00     0.027 C 
BRANCH  13  14
ATOM     14  C   UNL     1     -23.139  20.388 -21.172  1.00  0.00     0.004 C 
BRANCH  14  15
ATOM     15  C   UNL     1     -23.273  21.839 -20.678  1.00  0.00     0.000 C 
BRANCH  15  16
ATOM     16  C   UNL     1     -23.824  22.779 -21.771  1.00  0.00    -0.000 C 
BRANCH  16  17
ATOM     17  C   UNL     1     -22.813  23.841 -22.235  1.00  0.00    -0.003 C 
ATOM     18  C   UNL     1     -22.405  23.680 -23.697  1.00  0.00     0.004 C 
ENDBRANCH  16  17
ENDBRANCH  15  16
ENDBRANCH  14  15
ENDBRANCH  13  14
ENDBRANCH  12  13
ENDBRANCH  10  11
ENDBRANCH   1  10
TORSDOF 13
ENDMDL
MODEL 5
REMARK VINA RESULT:    -4.403      1.562      3.056
REMARK INTER + INTRA:          -9.953
REMARK INTER:                  -8.357
REMARK INTRA:                  -1.596
REMARK UNBOUND:                -2.203
REMARK SMILES CCCCCCC=CCCCCCCCC(=O)[O-]
REMARK SMILES IDX 10 1 11 2 12 3 13 4 14 5 15 6 16 7 17 8 18 9 9 10 8 11 7 12
REMARK SMILES IDX 6 13 5 14 4 15 3 16 2 17 1 18
REMARK H PARENT
REMARK Flexibility Score: inf
ROOT
ATOM      1  C   UNL     1     -23.203  21.767 -23.079  1.00  0.00     0.004 C 
ENDROOT
BRANCH   1   2
ATOM      2  C   UNL     1     -22.672  21.150 -24.378  1.00  0.00     0.000 C 
BRANCH   2   3
ATOM      3  C   UNL     1     -21.891  22.186 -25.201  1.00  0.00     0.000 C 
BRANCH   3   4
ATOM      4  C   UNL     1     -21.613  23.479 -24.419  1.00  0.00     0.000 C 
BRANCH   4   5
ATOM      5  C   UNL     1     -20.816  24.506 -25.237  1.00  0.00     0.006 C 
BRANCH   5   6
ATOM      6  C   UNL     1     -20.714  24.081 -26.704  1.00  0.00     0.053 C 
BRANCH   6   7
ATOM      7  C   UNL     1     -20.200  25.208 -27.542  1.00  0.00     0.041 C 
ATOM      8  O   UNL     1     -18.983  25.255 -27.864  1.00  0.00    -0.550 OA
ATOM      9  O   UNL     1     -21.053  26.238 -27.920  1.00  0.00    -0.550 OA
ENDBRANCH   6   7
ENDBRANCH   5   6
ENDBRANCH   4   5
ENDBRANCH   3   4
ENDBRANCH   2   3
ENDBRANCH   1   2
BRANCH   1  10
ATOM     10  C   UNL     1     -23.235  20.730 -21.950  1.00  0.00     0.027 C 
BRANCH  10  11
ATOM     11  C   UNL     1     -22.850  19.365 -22.449  1.00  0.00    -0.031 C 
ATOM     12  C   UNL     1     -22.675  18.333 -21.609  1.00  0.00    -0.031 C 
BRANCH  12  13
ATOM     13  C   UNL     1     -22.347  16.951 -22.109  1.00  0.00     0.027 C 
BRANCH  13  14
ATOM     14  C   UNL     1     -20.838  16.775 -22.319  1.00  0.00     0.004 C 
BRANCH  14  15
ATOM     15  C   UNL     1     -20.475  16.596 -23.804  1.00  0.00     0.000 C 
BRANCH  15  16
ATOM     16  C   UNL     1     -19.957  17.904 -24.439  1.00  0.00    -0.000 C 
BRANCH  16  17
ATOM     17  C   UNL     1     -20.770  18.356 -25.664  1.00  0.00    -0.003 C 
ATOM     18  C   UNL     1     -22.127  17.664 -25.769  1.00  0.00     0.004 C 
ENDBRANCH  16  17
ENDBRANCH  15  16
ENDBRANCH  14  15
ENDBRANCH  13  14
ENDBRANCH  12  13
ENDBRANCH  10  11
ENDBRANCH   1  10
TORSDOF 13
ENDMDL
MODEL 6
REMARK VINA RESULT:    -4.400      2.775      4.208
REMARK INTER + INTRA:          -9.947
REMARK INTER:                  -8.260
REMARK INTRA:                  -1.686
REMARK UNBOUND:                -2.203
REMARK SMILES CCCCCCC=CCCCCCCCC(=O)[O-]
REMARK SMILES IDX 10 1 11 2 12 3 13 4 14 5 15 6 16 7 17 8 18 9 9 10 8 11 7 12
REMARK SMILES IDX 6 13 5 14 4 15 3 16 2 17 1 18
REMARK H PARENT
REMARK Flexibility Score: inf
ROOT
ATOM      1  C   UNL     1     -23.479  18.322 -22.379  1.00  0.00     0.004 C 
ENDROOT
BRANCH   1   2
ATOM      2  C   UNL     1     -23.303  19.793 -21.989  1.00  0.00     0.000 C 
BRANCH   2   3
ATOM      3  C   UNL     1     -22.837  20.629 -23.191  1.00  0.00     0.000 C 
BRANCH   3   4
ATOM      4  C   UNL     1     -22.808  19.824 -24.500  1.00  0.00     0.000 C 
BRANCH   4   5
ATOM      5  C   UNL     1     -21.513  20.037 -25.298  1.00  0.00     0.006 C 
BRANCH   5   6
ATOM      6  C   UNL     1     -20.696  18.744 -25.376  1.00  0.00     0.053 C 
BRANCH   6   7
ATOM      7  C   UNL     1     -21.338  17.776 -26.319  1.00  0.00     0.041 C 
ATOM      8  O   UNL     1     -21.818  16.694 -25.888  1.00  0.00    -0.550 OA
ATOM      9  O   UNL     1     -21.355  18.042 -27.683  1.00  0.00    -0.550 OA
ENDBRANCH   6   7
ENDBRANCH   5   6
ENDBRANCH   4   5
ENDBRANCH   3   4
ENDBRANCH   2   3
ENDBRANCH   1   2
BRANCH   1  10
ATOM     10  C   UNL     1     -24.711  17.715 -21.695  1.00  0.00     0.027 C 
BRANCH  10  11
ATOM     11  C   UNL     1     -24.631  16.213 -21.658  1.00  0.00    -0.031 C 
ATOM     12  C   UNL     1     -23.703  15.577 -20.928  1.00  0.00    -0.031 C 
BRANCH  12  13
ATOM     13  C   UNL     1     -23.655  14.075 -20.842  1.00  0.00     0.027 C 
BRANCH  13  14
ATOM     14  C   UNL     1     -22.386  13.594 -20.126  1.00  0.00     0.004 C 
BRANCH  14  15
ATOM     15  C   UNL     1     -21.147  14.413 -20.527  1.00  0.00     0.000 C 
BRANCH  15  16
ATOM     16  C   UNL     1     -20.543  13.939 -21.866  1.00  0.00    -0.000 C 
BRANCH  16  17
ATOM     17  C   UNL     1     -20.657  14.979 -22.993  1.00  0.00    -0.003 C 
ATOM     18  C   UNL     1     -20.331  16.398 -22.533  1.00  0.00     0.004 C 
ENDBRANCH  16  17
ENDBRANCH  15  16
ENDBRANCH  14  15
ENDBRANCH  13  14
ENDBRANCH  12  13
ENDBRANCH  10  11
ENDBRANCH   1  10
TORSDOF 13
ENDMDL
MODEL 7
REMARK VINA RESULT:    -4.391      1.532      4.200
REMARK INTER + INTRA:          -9.932
REMARK INTER:                  -8.052
REMARK INTRA:                  -1.880
REMARK UNBOUND:                -2.203
REMARK SMILES CCCCCCC=CCCCCCCCC(=O)[O-]
REMARK SMILES IDX 10 1 11 2 12 3 13 4 14 5 15 6 16 7 17 8 18 9 9 10 8 11 7 12
REMARK SMILES IDX 6 13 5 14 4 15 3 16 2 17 1 18
REMARK H PARENT
REMARK Flexibility Score: inf
ROOT
ATOM      1  C   UNL     1     -21.426  17.991 -26.461  1.00  0.00     0.004 C 
ENDROOT
BRANCH   1   2
ATOM      2  C   UNL     1     -20.904  19.054 -25.488  1.00  0.00     0.000 C 
BRANCH   2   3
ATOM      3  C   UNL     1     -21.544  20.421 -25.772  1.00  0.00     0.000 C 
BRANCH   3   4
ATOM      4  C   UNL     1     -22.207  21.036 -24.530  1.00  0.00     0.000 C 
BRANCH   4   5
ATOM      5  C   UNL     1     -22.820  22.417 -24.808  1.00  0.00     0.006 C 
BRANCH   5   6
ATOM      6  C   UNL     1     -21.808  23.533 -24.533  1.00  0.00     0.053 C 
BRANCH   6   7
ATOM      7  C   UNL     1     -21.567  24.338 -25.771  1.00  0.00     0.041 C 
ATOM      8  O   UNL     1     -22.051  25.495 -25.878  1.00  0.00    -0.550 OA
ATOM      9  O   UNL     1     -20.855  23.788 -26.829  1.00  0.00    -0.550 OA
ENDBRANCH   6   7
ENDBRANCH   5   6
ENDBRANCH   4   5
ENDBRANCH   3   4
ENDBRANCH   2   3
ENDBRANCH   1   2
BRANCH   1  10
ATOM     10  C   UNL     1     -22.148  16.864 -25.711  1.00  0.00     0.027 C 
BRANCH  10  11
ATOM     11  C   UNL     1     -22.427  17.249 -24.285  1.00  0.00    -0.031 C 
ATOM     12  C   UNL     1     -23.645  17.653 -23.892  1.00  0.00    -0.031 C 
BRANCH  12  13
ATOM     13  C   UNL     1     -23.945  17.983 -22.454  1.00  0.00     0.027 C 
BRANCH  13  14
ATOM     14  C   UNL     1     -22.716  18.566 -21.745  1.00  0.00     0.004 C 
BRANCH  14  15
ATOM     15  C   UNL     1     -22.952  20.007 -21.261  1.00  0.00     0.000 C 
BRANCH  15  16
ATOM     16  C   UNL     1     -24.439  20.413 -21.344  1.00  0.00    -0.000 C 
BRANCH  16  17
ATOM     17  C   UNL     1     -24.653  21.877 -21.764  1.00  0.00    -0.003 C 
ATOM     18  C   UNL     1     -23.699  22.845 -21.068  1.00  0.00     0.004 C 
ENDBRANCH  16  17
ENDBRANCH  15  16
ENDBRANCH  14  15
ENDBRANCH  13  14
ENDBRANCH  12  13
ENDBRANCH  10  11
ENDBRANCH   1  10
TORSDOF 13
ENDMDL
MODEL 8
REMARK VINA RESULT:    -4.387      2.190      3.601
REMARK INTER + INTRA:          -9.925
REMARK INTER:                  -8.222
REMARK INTRA:                  -1.702
REMARK UNBOUND:                -2.203
REMARK SMILES CCCCCCC=CCCCCCCCC(=O)[O-]
REMARK SMILES IDX 10 1 11 2 12 3 13 4 14 5 15 6 16 7 17 8 18 9 9 10 8 11 7 12
REMARK SMILES IDX 6 13 5 14 4 15 3 16 2 17 1 18
REMARK H PARENT
REMARK Flexibility Score: inf
ROOT
ATOM      1  C   UNL     1     -23.105  22.941 -23.120  1.00  0.00     0.004 C 
ENDROOT
BRANCH   1   2
ATOM      2  C   UNL     1     -22.483  24.334 -22.986  1.00  0.00     0.000 C 
BRANCH   2   3
ATOM      3  C   UNL     1     -21.212  24.454 -23.841  1.00  0.00     0.000 C 
BRANCH   3   4
ATOM      4  C   UNL     1     -21.151  25.769 -24.634  1.00  0.00     0.000 C 
BRANCH   4   5
ATOM      5  C   UNL     1     -22.185  25.825 -25.769  1.00  0.00     0.006 C 
BRANCH   5   6
ATOM      6  C   UNL     1     -21.709  25.028 -26.986  1.00  0.00     0.053 C 
BRANCH   6   7
ATOM      7  C   UNL     1     -22.042  25.753 -28.251  1.00  0.00     0.041 C 
ATOM      8  O   UNL     1     -23.156  25.572 -28.811  1.00  0.00    -0.550 OA
ATOM      9  O   UNL     1     -21.102  26.587 -28.842  1.00  0.00    -0.550 OA
ENDBRANCH   6   7
ENDBRANCH   5   6
ENDBRANCH   4   5
ENDBRANCH   3   4
ENDBRANCH   2   3
ENDBRANCH   1   2
BRANCH   1  10
ATOM     10  C   UNL     1     -23.206  22.521 -24.592  1.00  0.00     0.027 C 
BRANCH  10  11
ATOM     11  C   UNL     1     -22.804  21.085 -24.780  1.00  0.00    -0.031 C 
ATOM     12  C   UNL     1     -21.541  20.741 -25.075  1.00  0.00    -0.031 C 
BRANCH  12  13
ATOM     13  C   UNL     1     -21.122  19.302 -25.208  1.00  0.00     0.027 C 
BRANCH  13  14
ATOM     14  C   UNL     1     -22.324  18.355 -25.098  1.00  0.00     0.004 C 
BRANCH  14  15
ATOM     15  C   UNL     1     -22.059  17.190 -24.128  1.00  0.00     0.000 C 
BRANCH  15  16
ATOM     16  C   UNL     1     -21.740  17.682 -22.700  1.00  0.00    -0.000 C 
BRANCH  16  17
ATOM     17  C   UNL     1     -22.972  18.203 -21.940  1.00  0.00    -0.003 C 
ATOM     18  C   UNL     1     -22.794  19.626 -21.417  1.00  0.00     0.004 C 
ENDBRANCH  16  17
ENDBRANCH  15  16
ENDBRANCH  14  15
ENDBRANCH  13  14
ENDBRANCH  12  13
ENDBRANCH  10  11
ENDBRANCH   1  10
TORSDOF 13
ENDMDL
MODEL 9
REMARK VINA RESULT:    -4.300      3.171      4.937
REMARK INTER + INTRA:          -9.771
REMARK INTER:                  -7.866
REMARK INTRA:                  -1.905
REMARK UNBOUND:                -2.203
REMARK SMILES CCCCCCC=CCCCCCCCC(=O)[O-]
REMARK SMILES IDX 10 1 11 2 12 3 13 4 14 5 15 6 16 7 17 8 18 9 9 10 8 11 7 12
REMARK SMILES IDX 6 13 5 14 4 15 3 16 2 17 1 18
REMARK H PARENT
REMARK Flexibility Score: inf
ROOT
ATOM      1  C   UNL     1     -23.204  17.096 -22.542  1.00  0.00     0.004 C 
ENDROOT
BRANCH   1   2
ATOM      2  C   UNL     1     -23.851  18.469 -22.753  1.00  0.00     0.000 C 
BRANCH   2   3
ATOM      3  C   UNL     1     -22.805  19.513 -23.171  1.00  0.00     0.000 C 
BRANCH   3   4
ATOM      4  C   UNL     1     -22.687  19.658 -24.696  1.00  0.00     0.000 C 
BRANCH   4   5
ATOM      5  C   UNL     1     -21.232  19.816 -25.165  1.00  0.00     0.006 C 
BRANCH   5   6
ATOM      6  C   UNL     1     -20.543  18.454 -25.285  1.00  0.00     0.053 C 
BRANCH   6   7
ATOM      7  C   UNL     1     -21.307  17.559 -26.208  1.00  0.00     0.041 C 
ATOM      8  O   UNL     1     -21.433  17.860 -27.424  1.00  0.00    -0.550 OA
ATOM      9  O   UNL     1     -21.930  16.420 -25.713  1.00  0.00    -0.550 OA
ENDBRANCH   6   7
ENDBRANCH   5   6
ENDBRANCH   4   5
ENDBRANCH   3   4
ENDBRANCH   2   3
ENDBRANCH   1   2
BRANCH   1  10
ATOM     10  C   UNL     1     -21.758  17.239 -22.049  1.00  0.00     0.027 C 
BRANCH  10  11
ATOM     11  C   UNL     1     -21.233  15.938 -21.509  1.00  0.00    -0.031 C 
ATOM     12  C   UNL     1     -20.826  14.952 -22.324  1.00  0.00    -0.031 C 
BRANCH  12  13
ATOM     13  C   UNL     1     -20.246  13.670 -21.789  1.00  0.00     0.027 C 
BRANCH  13  14
ATOM     14  C   UNL     1     -21.076  13.125 -20.619  1.00  0.00     0.004 C 
BRANCH  14  15
ATOM     15  C   UNL     1     -22.384  12.467 -21.091  1.00  0.00     0.000 C 
BRANCH  15  16
ATOM     16  C   UNL     1     -23.591  12.883 -20.224  1.00  0.00    -0.000 C 
BRANCH  16  17
ATOM     17  C   UNL     1     -24.394  14.057 -20.810  1.00  0.00    -0.003 C 
ATOM     18  C   UNL     1     -24.704  15.141 -19.782  1.00  0.00     0.004 C 
ENDBRANCH  16  17
ENDBRANCH  15  16
ENDBRANCH  14  15
ENDBRANCH  13  14
ENDBRANCH  12  13
ENDBRANCH  10  11
ENDBRANCH   1  10
TORSDOF 13
ENDMDL
