MODEL 1
REMARK VINA RESULT:    -4.326      0.000      0.000
REMARK INTER + INTRA:         -14.748
REMARK INTER:                 -10.901
REMARK INTRA:                  -3.847
REMARK UNBOUND:                -3.847
REMARK SMILES CCCCCCCCCCCCCCCCCCCCCCCCCCCC(=O)[O-]
REMARK SMILES IDX 15 1 16 2 17 3 18 4 19 5 20 6 21 7 22 8 23 9 24 10 25 11
REMARK SMILES IDX 26 12 27 13 28 14 29 15 30 16 14 17 13 18 12 19 11 20 10 21
REMARK SMILES IDX 9 22 8 23 7 24 6 25 5 26 4 27 3 28 2 29 1 30
REMARK H PARENT
REMARK Flexibility Score: inf
ROOT
ATOM      1  C   UNL     1     -26.170 -22.766 -31.440  1.00  0.00     0.000 C 
ENDROOT
BRANCH   1   2
ATOM      2  C   UNL     1     -25.203 -22.907 -32.629  1.00  0.00     0.000 C 
BRANCH   2   3
ATOM      3  C   UNL     1     -24.053 -21.887 -32.578  1.00  0.00     0.000 C 
BRANCH   3   4
ATOM      4  C   UNL     1     -23.964 -21.039 -33.858  1.00  0.00     0.000 C 
BRANCH   4   5
ATOM      5  C   UNL     1     -22.802 -21.463 -34.769  1.00  0.00     0.000 C 
BRANCH   5   6
ATOM      6  C   UNL     1     -21.544 -21.869 -33.981  1.00  0.00     0.000 C 
BRANCH   6   7
ATOM      7  C   UNL     1     -20.620 -22.795 -34.789  1.00  0.00     0.000 C 
BRANCH   7   8
ATOM      8  C   UNL     1     -20.997 -24.280 -34.638  1.00  0.00     0.000 C 
BRANCH   8   9
ATOM      9  C   UNL     1     -21.215 -24.698 -33.173  1.00  0.00     0.000 C 
BRANCH   9  10
ATOM     10  C   UNL     1     -19.992 -25.343 -32.494  1.00  0.00     0.000 C 
BRANCH  10  11
ATOM     11  C   UNL     1     -18.757 -25.406 -33.412  1.00  0.00     0.000 C 
BRANCH  11  12
ATOM     12  C   UNL     1     -18.344 -26.844 -33.758  1.00  0.00     0.006 C 
BRANCH  12  13
ATOM     13  C   UNL     1     -19.520 -27.698 -34.251  1.00  0.00     0.053 C 
BRANCH  13  14
ATOM     14  C   UNL     1     -19.936 -28.698 -33.216  1.00  0.00     0.041 C 
ATOM     15  O   UNL     1     -19.082 -29.448 -32.673  1.00  0.00    -0.550 OA
ATOM     16  O   UNL     1     -21.277 -28.822 -32.871  1.00  0.00    -0.550 OA
ENDBRANCH  13  14
ENDBRANCH  12  13
ENDBRANCH  11  12
ENDBRANCH  10  11
ENDBRANCH   9  10
ENDBRANCH   8   9
ENDBRANCH   7   8
ENDBRANCH   6   7
ENDBRANCH   5   6
ENDBRANCH   4   5
ENDBRANCH   3   4
ENDBRANCH   2   3
ENDBRANCH   1   2
BRANCH   1  17
ATOM     17  C   UNL     1     -27.601 -23.212 -31.782  1.00  0.00     0.000 C 
BRANCH  17  18
ATOM     18  C   UNL     1     -28.525 -22.026 -32.103  1.00  0.00     0.000 C 
BRANCH  18  19
ATOM     19  C   UNL     1     -28.788 -21.876 -33.610  1.00  0.00     0.000 C 
BRANCH  19  20
ATOM     20  C   UNL     1     -27.696 -21.062 -34.325  1.00  0.00     0.000 C 
BRANCH  20  21
ATOM     21  C   UNL     1     -27.783 -19.554 -34.027  1.00  0.00     0.000 C 
BRANCH  21  22
ATOM     22  C   UNL     1     -26.686 -19.044 -33.070  1.00  0.00    -0.000 C 
BRANCH  22  23
ATOM     23  C   UNL     1     -27.193 -17.917 -32.157  1.00  0.00    -0.000 C 
BRANCH  23  24
ATOM     24  C   UNL     1     -28.697 -18.056 -31.894  1.00  0.00    -0.000 C 
BRANCH  24  25
ATOM     25  C   UNL     1     -28.982 -18.176 -30.389  1.00  0.00    -0.000 C 
BRANCH  25  26
ATOM     26  C   UNL     1     -28.456 -19.489 -29.789  1.00  0.00    -0.000 C 
BRANCH  26  27
ATOM     27  C   UNL     1     -27.940 -19.319 -28.350  1.00  0.00    -0.000 C 
BRANCH  27  28
ATOM     28  C   UNL     1     -26.419 -19.095 -28.283  1.00  0.00    -0.000 C 
BRANCH  28  29
ATOM     29  C   UNL     1     -25.626 -19.954 -29.289  1.00  0.00    -0.003 C 
ATOM     30  C   UNL     1     -24.547 -19.150 -30.014  1.00  0.00     0.004 C 
ENDBRANCH  28  29
ENDBRANCH  27  28
ENDBRANCH  26  27
ENDBRANCH  25  26
ENDBRANCH  24  25
ENDBRANCH  23  24
ENDBRANCH  22  23
ENDBRANCH  21  22
ENDBRANCH  20  21
ENDBRANCH  19  20
ENDBRANCH  18  19
ENDBRANCH  17  18
ENDBRANCH   1  17
TORSDOF 26
ENDMDL
MODEL 2
REMARK VINA RESULT:    -4.076     14.630     16.843
REMARK INTER + INTRA:         -14.119
REMARK INTER:                 -10.655
REMARK INTRA:                  -3.463
REMARK UNBOUND:                -3.847
REMARK SMILES CCCCCCCCCCCCCCCCCCCCCCCCCCCC(=O)[O-]
REMARK SMILES IDX 15 1 16 2 17 3 18 4 19 5 20 6 21 7 22 8 23 9 24 10 25 11
REMARK SMILES IDX 26 12 27 13 28 14 29 15 30 16 14 17 13 18 12 19 11 20 10 21
REMARK SMILES IDX 9 22 8 23 7 24 6 25 5 26 4 27 3 28 2 29 1 30
REMARK H PARENT
REMARK Flexibility Score: inf
ROOT
ATOM      1  C   UNL     1     -22.581 -25.475 -18.504  1.00  0.00     0.000 C 
ENDROOT
BRANCH   1   2
ATOM      2  C   UNL     1     -21.328 -26.146 -19.096  1.00  0.00     0.000 C 
BRANCH   2   3
ATOM      3  C   UNL     1     -20.219 -25.134 -19.430  1.00  0.00     0.000 C 
BRANCH   3   4
ATOM      4  C   UNL     1     -18.889 -25.818 -19.788  1.00  0.00     0.000 C 
BRANCH   4   5
ATOM      5  C   UNL     1     -18.040 -26.143 -18.550  1.00  0.00     0.000 C 
BRANCH   5   6
ATOM      6  C   UNL     1     -18.151 -27.617 -18.121  1.00  0.00     0.000 C 
BRANCH   6   7
ATOM      7  C   UNL     1     -18.552 -27.768 -16.644  1.00  0.00     0.000 C 
BRANCH   7   8
ATOM      8  C   UNL     1     -17.437 -27.324 -15.682  1.00  0.00     0.000 C 
BRANCH   8   9
ATOM      9  C   UNL     1     -16.090 -28.013 -15.965  1.00  0.00     0.000 C 
BRANCH   9  10
ATOM     10  C   UNL     1     -14.882 -27.062 -16.059  1.00  0.00     0.000 C 
BRANCH  10  11
ATOM     11  C   UNL     1     -14.759 -26.376 -17.433  1.00  0.00     0.000 C 
BRANCH  11  12
ATOM     12  C   UNL     1     -13.422 -26.667 -18.128  1.00  0.00     0.006 C 
BRANCH  12  13
ATOM     13  C   UNL     1     -12.513 -27.592 -17.306  1.00  0.00     0.053 C 
BRANCH  13  14
ATOM     14  C   UNL     1     -11.098 -27.099 -17.302  1.00  0.00     0.041 C 
ATOM     15  O   UNL     1     -10.550 -26.721 -18.373  1.00  0.00    -0.550 OA
ATOM     16  O   UNL     1     -10.373 -27.085 -16.117  1.00  0.00    -0.550 OA
ENDBRANCH  13  14
ENDBRANCH  12  13
ENDBRANCH  11  12
ENDBRANCH  10  11
ENDBRANCH   9  10
ENDBRANCH   8   9
ENDBRANCH   7   8
ENDBRANCH   6   7
ENDBRANCH   5   6
ENDBRANCH   4   5
ENDBRANCH   3   4
ENDBRANCH   2   3
ENDBRANCH   1   2
BRANCH   1  17
ATOM     17  C   UNL     1     -22.788 -25.810 -17.018  1.00  0.00     0.000 C 
BRANCH  17  18
ATOM     18  C   UNL     1     -21.466 -26.120 -16.296  1.00  0.00     0.000 C 
BRANCH  18  19
ATOM     19  C   UNL     1     -21.164 -25.121 -15.167  1.00  0.00     0.000 C 
BRANCH  19  20
ATOM     20  C   UNL     1     -19.781 -24.463 -15.311  1.00  0.00     0.000 C 
BRANCH  20  21
ATOM     21  C   UNL     1     -19.864 -22.979 -15.711  1.00  0.00     0.000 C 
BRANCH  21  22
ATOM     22  C   UNL     1     -20.328 -22.751 -17.165  1.00  0.00    -0.000 C 
BRANCH  22  23
ATOM     23  C   UNL     1     -21.282 -21.553 -17.285  1.00  0.00    -0.000 C 
BRANCH  23  24
ATOM     24  C   UNL     1     -21.745 -21.075 -15.904  1.00  0.00    -0.000 C 
BRANCH  24  25
ATOM     25  C   UNL     1     -23.112 -21.677 -15.544  1.00  0.00    -0.000 C 
BRANCH  25  26
ATOM     26  C   UNL     1     -24.056 -21.769 -16.753  1.00  0.00    -0.000 C 
BRANCH  26  27
ATOM     27  C   UNL     1     -24.628 -23.184 -16.953  1.00  0.00    -0.000 C 
BRANCH  27  28
ATOM     28  C   UNL     1     -26.070 -23.175 -17.489  1.00  0.00    -0.000 C 
BRANCH  28  29
ATOM     29  C   UNL     1     -26.490 -24.505 -18.147  1.00  0.00    -0.003 C 
ATOM     30  C   UNL     1     -27.961 -24.835 -17.898  1.00  0.00     0.004 C 
ENDBRANCH  28  29
ENDBRANCH  27  28
ENDBRANCH  26  27
ENDBRANCH  25  26
ENDBRANCH  24  25
ENDBRANCH  23  24
ENDBRANCH  22  23
ENDBRANCH  21  22
ENDBRANCH  20  21
ENDBRANCH  19  20
ENDBRANCH  18  19
ENDBRANCH  17  18
ENDBRANCH   1  17
TORSDOF 26
ENDMDL
MODEL 3
REMARK VINA RESULT:    -3.967     14.973     17.187
REMARK INTER + INTRA:         -13.845
REMARK INTER:                 -10.131
REMARK INTRA:                  -3.714
REMARK UNBOUND:                -3.847
REMARK SMILES CCCCCCCCCCCCCCCCCCCCCCCCCCCC(=O)[O-]
REMARK SMILES IDX 15 1 16 2 17 3 18 4 19 5 20 6 21 7 22 8 23 9 24 10 25 11
REMARK SMILES IDX 26 12 27 13 28 14 29 15 30 16 14 17 13 18 12 19 11 20 10 21
REMARK SMILES IDX 9 22 8 23 7 24 6 25 5 26 4 27 3 28 2 29 1 30
REMARK H PARENT
REMARK Flexibility Score: inf
ROOT
ATOM      1  C   UNL     1     -20.960 -26.160 -18.634  1.00  0.00     0.000 C 
ENDROOT
BRANCH   1   2
ATOM      2  C   UNL     1     -19.953 -24.996 -18.634  1.00  0.00     0.000 C 
BRANCH   2   3
ATOM      3  C   UNL     1     -18.613 -25.374 -17.983  1.00  0.00     0.000 C 
BRANCH   3   4
ATOM      4  C   UNL     1     -17.683 -26.128 -18.948  1.00  0.00     0.000 C 
BRANCH   4   5
ATOM      5  C   UNL     1     -16.623 -26.965 -18.215  1.00  0.00     0.000 C 
BRANCH   5   6
ATOM      6  C   UNL     1     -15.740 -26.122 -17.278  1.00  0.00     0.000 C 
BRANCH   6   7
ATOM      7  C   UNL     1     -15.902 -26.522 -15.802  1.00  0.00     0.000 C 
BRANCH   7   8
ATOM      8  C   UNL     1     -16.704 -27.824 -15.631  1.00  0.00     0.000 C 
BRANCH   8   9
ATOM      9  C   UNL     1     -15.844 -28.998 -15.126  1.00  0.00     0.000 C 
BRANCH   9  10
ATOM     10  C   UNL     1     -15.287 -29.915 -16.231  1.00  0.00     0.000 C 
BRANCH  10  11
ATOM     11  C   UNL     1     -13.749 -29.896 -16.310  1.00  0.00     0.000 C 
BRANCH  11  12
ATOM     12  C   UNL     1     -13.216 -28.882 -17.332  1.00  0.00     0.006 C 
BRANCH  12  13
ATOM     13  C   UNL     1     -12.440 -27.731 -16.676  1.00  0.00     0.053 C 
BRANCH  13  14
ATOM     14  C   UNL     1     -11.708 -26.917 -17.700  1.00  0.00     0.041 C 
ATOM     15  O   UNL     1     -10.453 -26.979 -17.787  1.00  0.00    -0.550 OA
ATOM     16  O   UNL     1     -12.414 -26.065 -18.541  1.00  0.00    -0.550 OA
ENDBRANCH  13  14
ENDBRANCH  12  13
ENDBRANCH  11  12
ENDBRANCH  10  11
ENDBRANCH   9  10
ENDBRANCH   8   9
ENDBRANCH   7   8
ENDBRANCH   6   7
ENDBRANCH   5   6
ENDBRANCH   4   5
ENDBRANCH   3   4
ENDBRANCH   2   3
ENDBRANCH   1   2
BRANCH   1  17
ATOM     17  C   UNL     1     -22.382 -25.716 -19.012  1.00  0.00     0.000 C 
BRANCH  17  18
ATOM     18  C   UNL     1     -23.069 -24.925 -17.888  1.00  0.00     0.000 C 
BRANCH  18  19
ATOM     19  C   UNL     1     -23.213 -25.744 -16.594  1.00  0.00     0.000 C 
BRANCH  19  20
ATOM     20  C   UNL     1     -23.395 -24.859 -15.349  1.00  0.00     0.000 C 
BRANCH  20  21
ATOM     21  C   UNL     1     -23.266 -23.357 -15.659  1.00  0.00     0.000 C 
BRANCH  21  22
ATOM     22  C   UNL     1     -22.091 -22.669 -14.934  1.00  0.00    -0.000 C 
BRANCH  22  23
ATOM     23  C   UNL     1     -20.730 -23.094 -15.506  1.00  0.00    -0.000 C 
BRANCH  23  24
ATOM     24  C   UNL     1     -20.076 -21.946 -16.283  1.00  0.00    -0.000 C 
BRANCH  24  25
ATOM     25  C   UNL     1     -19.651 -20.814 -15.336  1.00  0.00    -0.000 C 
BRANCH  25  26
ATOM     26  C   UNL     1     -19.361 -19.499 -16.077  1.00  0.00    -0.000 C 
BRANCH  26  27
ATOM     27  C   UNL     1     -20.162 -19.364 -17.383  1.00  0.00    -0.000 C 
BRANCH  27  28
ATOM     28  C   UNL     1     -21.487 -18.605 -17.195  1.00  0.00    -0.000 C 
BRANCH  28  29
ATOM     29  C   UNL     1     -22.736 -19.490 -17.386  1.00  0.00    -0.003 C 
ATOM     30  C   UNL     1     -23.592 -19.565 -16.122  1.00  0.00     0.004 C 
ENDBRANCH  28  29
ENDBRANCH  27  28
ENDBRANCH  26  27
ENDBRANCH  25  26
ENDBRANCH  24  25
ENDBRANCH  23  24
ENDBRANCH  22  23
ENDBRANCH  21  22
ENDBRANCH  20  21
ENDBRANCH  19  20
ENDBRANCH  18  19
ENDBRANCH  17  18
ENDBRANCH   1  17
TORSDOF 26
ENDMDL
MODEL 4
REMARK VINA RESULT:    -3.933     14.641     17.237
REMARK INTER + INTRA:         -13.758
REMARK INTER:                  -9.944
REMARK INTRA:                  -3.814
REMARK UNBOUND:                -3.847
REMARK SMILES CCCCCCCCCCCCCCCCCCCCCCCCCCCC(=O)[O-]
REMARK SMILES IDX 15 1 16 2 17 3 18 4 19 5 20 6 21 7 22 8 23 9 24 10 25 11
REMARK SMILES IDX 26 12 27 13 28 14 29 15 30 16 14 17 13 18 12 19 11 20 10 21
REMARK SMILES IDX 9 22 8 23 7 24 6 25 5 26 4 27 3 28 2 29 1 30
REMARK H PARENT
REMARK Flexibility Score: inf
ROOT
ATOM      1  C   UNL     1     -23.458 -24.035 -17.350  1.00  0.00     0.000 C 
ENDROOT
BRANCH   1   2
ATOM      2  C   UNL     1     -23.689 -25.367 -16.614  1.00  0.00     0.000 C 
BRANCH   2   3
ATOM      3  C   UNL     1     -23.056 -25.385 -15.214  1.00  0.00     0.000 C 
BRANCH   3   4
ATOM      4  C   UNL     1     -22.267 -26.678 -14.943  1.00  0.00     0.000 C 
BRANCH   4   5
ATOM      5  C   UNL     1     -20.941 -26.734 -15.716  1.00  0.00     0.000 C 
BRANCH   5   6
ATOM      6  C   UNL     1     -19.899 -27.649 -15.049  1.00  0.00     0.000 C 
BRANCH   6   7
ATOM      7  C   UNL     1     -18.459 -27.164 -15.281  1.00  0.00     0.000 C 
BRANCH   7   8
ATOM      8  C   UNL     1     -17.593 -28.214 -16.000  1.00  0.00     0.000 C 
BRANCH   8   9
ATOM      9  C   UNL     1     -16.398 -27.596 -16.749  1.00  0.00     0.000 C 
BRANCH   9  10
ATOM     10  C   UNL     1     -16.139 -28.180 -18.150  1.00  0.00     0.000 C 
BRANCH  10  11
ATOM     11  C   UNL     1     -14.949 -27.515 -18.869  1.00  0.00     0.000 C 
BRANCH  11  12
ATOM     12  C   UNL     1     -14.187 -26.528 -17.974  1.00  0.00     0.006 C 
BRANCH  12  13
ATOM     13  C   UNL     1     -12.717 -26.365 -18.387  1.00  0.00     0.053 C 
BRANCH  13  14
ATOM     14  C   UNL     1     -11.808 -27.126 -17.472  1.00  0.00     0.041 C 
ATOM     15  O   UNL     1     -10.557 -27.006 -17.568  1.00  0.00    -0.550 OA
ATOM     16  O   UNL     1     -12.343 -27.994 -16.528  1.00  0.00    -0.550 OA
ENDBRANCH  13  14
ENDBRANCH  12  13
ENDBRANCH  11  12
ENDBRANCH  10  11
ENDBRANCH   9  10
ENDBRANCH   8   9
ENDBRANCH   7   8
ENDBRANCH   6   7
ENDBRANCH   5   6
ENDBRANCH   4   5
ENDBRANCH   3   4
ENDBRANCH   2   3
ENDBRANCH   1   2
BRANCH   1  17
ATOM     17  C   UNL     1     -24.257 -22.872 -16.740  1.00  0.00     0.000 C 
BRANCH  17  18
ATOM     18  C   UNL     1     -23.362 -21.681 -16.359  1.00  0.00     0.000 C 
BRANCH  18  19
ATOM     19  C   UNL     1     -22.443 -21.993 -15.166  1.00  0.00     0.000 C 
BRANCH  19  20
ATOM     20  C   UNL     1     -20.955 -21.782 -15.492  1.00  0.00     0.000 C 
BRANCH  20  21
ATOM     21  C   UNL     1     -20.077 -22.975 -15.078  1.00  0.00     0.000 C 
BRANCH  21  22
ATOM     22  C   UNL     1     -19.414 -23.704 -16.266  1.00  0.00    -0.000 C 
BRANCH  22  23
ATOM     23  C   UNL     1     -20.073 -23.343 -17.605  1.00  0.00    -0.000 C 
BRANCH  23  24
ATOM     24  C   UNL     1     -20.249 -24.585 -18.487  1.00  0.00    -0.000 C 
BRANCH  24  25
ATOM     25  C   UNL     1     -19.001 -25.479 -18.431  1.00  0.00    -0.000 C 
BRANCH  25  26
ATOM     26  C   UNL     1     -19.238 -26.867 -19.047  1.00  0.00    -0.000 C 
BRANCH  26  27
ATOM     27  C   UNL     1     -20.486 -26.912 -19.946  1.00  0.00    -0.000 C 
BRANCH  27  28
ATOM     28  C   UNL     1     -20.181 -27.422 -21.365  1.00  0.00    -0.000 C 
BRANCH  28  29
ATOM     29  C   UNL     1     -20.971 -28.690 -21.747  1.00  0.00    -0.003 C 
ATOM     30  C   UNL     1     -20.861 -29.016 -23.236  1.00  0.00     0.004 C 
ENDBRANCH  28  29
ENDBRANCH  27  28
ENDBRANCH  26  27
ENDBRANCH  25  26
ENDBRANCH  24  25
ENDBRANCH  23  24
ENDBRANCH  22  23
ENDBRANCH  21  22
ENDBRANCH  20  21
ENDBRANCH  19  20
ENDBRANCH  18  19
ENDBRANCH  17  18
ENDBRANCH   1  17
TORSDOF 26
ENDMDL
MODEL 5
REMARK VINA RESULT:    -3.776     14.453     18.251
REMARK INTER + INTRA:         -13.362
REMARK INTER:                  -9.912
REMARK INTRA:                  -3.450
REMARK UNBOUND:                -3.847
REMARK SMILES CCCCCCCCCCCCCCCCCCCCCCCCCCCC(=O)[O-]
REMARK SMILES IDX 15 1 16 2 17 3 18 4 19 5 20 6 21 7 22 8 23 9 24 10 25 11
REMARK SMILES IDX 26 12 27 13 28 14 29 15 30 16 14 17 13 18 12 19 11 20 10 21
REMARK SMILES IDX 9 22 8 23 7 24 6 25 5 26 4 27 3 28 2 29 1 30
REMARK H PARENT
REMARK Flexibility Score: inf
ROOT
ATOM      1  C   UNL     1     -18.801 -25.198 -15.152  1.00  0.00     0.000 C 
ENDROOT
BRANCH   1   2
ATOM      2  C   UNL     1     -19.617 -24.045 -15.764  1.00  0.00     0.000 C 
BRANCH   2   3
ATOM      3  C   UNL     1     -19.624 -22.790 -14.875  1.00  0.00     0.000 C 
BRANCH   3   4
ATOM      4  C   UNL     1     -19.749 -21.493 -15.692  1.00  0.00     0.000 C 
BRANCH   4   5
ATOM      5  C   UNL     1     -20.916 -20.611 -15.225  1.00  0.00     0.000 C 
BRANCH   5   6
ATOM      6  C   UNL     1     -22.271 -21.340 -15.268  1.00  0.00     0.000 C 
BRANCH   6   7
ATOM      7  C   UNL     1     -22.868 -21.384 -16.685  1.00  0.00     0.000 C 
BRANCH   7   8
ATOM      8  C   UNL     1     -22.635 -22.736 -17.381  1.00  0.00     0.000 C 
BRANCH   8   9
ATOM      9  C   UNL     1     -23.271 -23.917 -16.626  1.00  0.00     0.000 C 
BRANCH   9  10
ATOM     10  C   UNL     1     -23.074 -25.293 -17.290  1.00  0.00     0.000 C 
BRANCH  10  11
ATOM     11  C   UNL     1     -23.887 -25.456 -18.588  1.00  0.00     0.000 C 
BRANCH  11  12
ATOM     12  C   UNL     1     -25.379 -25.712 -18.330  1.00  0.00     0.006 C 
BRANCH  12  13
ATOM     13  C   UNL     1     -26.180 -24.417 -18.135  1.00  0.00     0.053 C 
BRANCH  13  14
ATOM     14  C   UNL     1     -27.634 -24.705 -17.923  1.00  0.00     0.041 C 
ATOM     15  O   UNL     1     -28.269 -24.135 -16.994  1.00  0.00    -0.550 OA
ATOM     16  O   UNL     1     -28.285 -25.626 -18.735  1.00  0.00    -0.550 OA
ENDBRANCH  13  14
ENDBRANCH  12  13
ENDBRANCH  11  12
ENDBRANCH  10  11
ENDBRANCH   9  10
ENDBRANCH   8   9
ENDBRANCH   7   8
ENDBRANCH   6   7
ENDBRANCH   5   6
ENDBRANCH   4   5
ENDBRANCH   3   4
ENDBRANCH   2   3
ENDBRANCH   1   2
BRANCH   1  17
ATOM     17  C   UNL     1     -17.297 -24.891 -15.082  1.00  0.00     0.000 C 
BRANCH  17  18
ATOM     18  C   UNL     1     -16.440 -26.165 -15.014  1.00  0.00     0.000 C 
BRANCH  18  19
ATOM     19  C   UNL     1     -15.099 -26.013 -15.752  1.00  0.00     0.000 C 
BRANCH  19  20
ATOM     20  C   UNL     1     -14.439 -27.366 -16.069  1.00  0.00     0.000 C 
BRANCH  20  21
ATOM     21  C   UNL     1     -13.716 -27.374 -17.427  1.00  0.00     0.000 C 
BRANCH  21  22
ATOM     22  C   UNL     1     -14.665 -27.256 -18.638  1.00  0.00    -0.000 C 
BRANCH  22  23
ATOM     23  C   UNL     1     -15.834 -28.249 -18.556  1.00  0.00    -0.000 C 
BRANCH  23  24
ATOM     24  C   UNL     1     -17.153 -27.526 -18.257  1.00  0.00    -0.000 C 
BRANCH  24  25
ATOM     25  C   UNL     1     -17.197 -26.154 -18.948  1.00  0.00    -0.000 C 
BRANCH  25  26
ATOM     26  C   UNL     1     -18.630 -25.635 -19.144  1.00  0.00    -0.000 C 
BRANCH  26  27
ATOM     27  C   UNL     1     -19.686 -26.556 -18.508  1.00  0.00    -0.000 C 
BRANCH  27  28
ATOM     28  C   UNL     1     -20.719 -27.070 -19.526  1.00  0.00    -0.000 C 
BRANCH  28  29
ATOM     29  C   UNL     1     -20.119 -27.370 -20.915  1.00  0.00    -0.003 C 
ATOM     30  C   UNL     1     -20.835 -28.521 -21.619  1.00  0.00     0.004 C 
ENDBRANCH  28  29
ENDBRANCH  27  28
ENDBRANCH  26  27
ENDBRANCH  25  26
ENDBRANCH  24  25
ENDBRANCH  23  24
ENDBRANCH  22  23
ENDBRANCH  21  22
ENDBRANCH  20  21
ENDBRANCH  19  20
ENDBRANCH  18  19
ENDBRANCH  17  18
ENDBRANCH   1  17
TORSDOF 26
ENDMDL
MODEL 6
REMARK VINA RESULT:    -3.713     15.607     19.133
REMARK INTER + INTRA:         -13.203
REMARK INTER:                  -9.152
REMARK INTRA:                  -4.051
REMARK UNBOUND:                -3.847
REMARK SMILES CCCCCCCCCCCCCCCCCCCCCCCCCCCC(=O)[O-]
REMARK SMILES IDX 15 1 16 2 17 3 18 4 19 5 20 6 21 7 22 8 23 9 24 10 25 11
REMARK SMILES IDX 26 12 27 13 28 14 29 15 30 16 14 17 13 18 12 19 11 20 10 21
REMARK SMILES IDX 9 22 8 23 7 24 6 25 5 26 4 27 3 28 2 29 1 30
REMARK H PARENT
REMARK Flexibility Score: inf
ROOT
ATOM      1  C   UNL     1     -18.323 -26.139 -18.725  1.00  0.00     0.000 C 
ENDROOT
BRANCH   1   2
ATOM      2  C   UNL     1     -19.403 -25.718 -19.738  1.00  0.00     0.000 C 
BRANCH   2   3
ATOM      3  C   UNL     1     -20.653 -25.134 -19.059  1.00  0.00     0.000 C 
BRANCH   3   4
ATOM      4  C   UNL     1     -21.871 -26.067 -19.171  1.00  0.00     0.000 C 
BRANCH   4   5
ATOM      5  C   UNL     1     -23.156 -25.431 -18.620  1.00  0.00     0.000 C 
BRANCH   5   6
ATOM      6  C   UNL     1     -22.878 -24.271 -17.648  1.00  0.00     0.000 C 
BRANCH   6   7
ATOM      7  C   UNL     1     -23.419 -24.547 -16.235  1.00  0.00     0.000 C 
BRANCH   7   8
ATOM      8  C   UNL     1     -22.356 -24.325 -15.145  1.00  0.00     0.000 C 
BRANCH   8   9
ATOM      9  C   UNL     1     -21.790 -22.894 -15.139  1.00  0.00     0.000 C 
BRANCH   9  10
ATOM     10  C   UNL     1     -20.470 -22.715 -15.913  1.00  0.00     0.000 C 
BRANCH  10  11
ATOM     11  C   UNL     1     -19.941 -21.269 -15.876  1.00  0.00     0.000 C 
BRANCH  11  12
ATOM     12  C   UNL     1     -18.550 -21.159 -15.236  1.00  0.00     0.006 C 
BRANCH  12  13
ATOM     13  C   UNL     1     -17.883 -22.525 -15.024  1.00  0.00     0.053 C 
BRANCH  13  14
ATOM     14  C   UNL     1     -16.406 -22.453 -15.266  1.00  0.00     0.041 C 
ATOM     15  O   UNL     1     -15.710 -23.503 -15.288  1.00  0.00    -0.550 OA
ATOM     16  O   UNL     1     -15.792 -21.218 -15.439  1.00  0.00    -0.550 OA
ENDBRANCH  13  14
ENDBRANCH  12  13
ENDBRANCH  11  12
ENDBRANCH  10  11
ENDBRANCH   9  10
ENDBRANCH   8   9
ENDBRANCH   7   8
ENDBRANCH   6   7
ENDBRANCH   5   6
ENDBRANCH   4   5
ENDBRANCH   3   4
ENDBRANCH   2   3
ENDBRANCH   1   2
BRANCH   1  17
ATOM     17  C   UNL     1     -18.326 -25.271 -17.457  1.00  0.00     0.000 C 
BRANCH  17  18
ATOM     18  C   UNL     1     -19.036 -25.955 -16.278  1.00  0.00     0.000 C 
BRANCH  18  19
ATOM     19  C   UNL     1     -19.031 -27.489 -16.397  1.00  0.00     0.000 C 
BRANCH  19  20
ATOM     20  C   UNL     1     -18.115 -28.161 -15.360  1.00  0.00     0.000 C 
BRANCH  20  21
ATOM     21  C   UNL     1     -16.983 -27.239 -14.875  1.00  0.00     0.000 C 
BRANCH  21  22
ATOM     22  C   UNL     1     -15.569 -27.762 -15.204  1.00  0.00    -0.000 C 
BRANCH  22  23
ATOM     23  C   UNL     1     -15.563 -29.270 -15.492  1.00  0.00    -0.000 C 
BRANCH  23  24
ATOM     24  C   UNL     1     -15.020 -29.563 -16.895  1.00  0.00    -0.000 C 
BRANCH  24  25
ATOM     25  C   UNL     1     -15.772 -28.747 -17.957  1.00  0.00    -0.000 C 
BRANCH  25  26
ATOM     26  C   UNL     1     -14.828 -28.065 -18.959  1.00  0.00    -0.000 C 
BRANCH  26  27
ATOM     27  C   UNL     1     -14.627 -26.569 -18.663  1.00  0.00    -0.000 C 
BRANCH  27  28
ATOM     28  C   UNL     1     -13.242 -26.258 -18.070  1.00  0.00    -0.000 C 
BRANCH  28  29
ATOM     29  C   UNL     1     -12.362 -27.510 -17.871  1.00  0.00    -0.003 C 
ATOM     30  C   UNL     1     -11.745 -27.568 -16.475  1.00  0.00     0.004 C 
ENDBRANCH  28  29
ENDBRANCH  27  28
ENDBRANCH  26  27
ENDBRANCH  25  26
ENDBRANCH  24  25
ENDBRANCH  23  24
ENDBRANCH  22  23
ENDBRANCH  21  22
ENDBRANCH  20  21
ENDBRANCH  19  20
ENDBRANCH  18  19
ENDBRANCH  17  18
ENDBRANCH   1  17
TORSDOF 26
ENDMDL
MODEL 7
REMARK VINA RESULT:    -3.675     14.142     17.384
REMARK INTER + INTRA:         -13.109
REMARK INTER:                  -9.590
REMARK INTRA:                  -3.519
REMARK UNBOUND:                -3.847
REMARK SMILES CCCCCCCCCCCCCCCCCCCCCCCCCCCC(=O)[O-]
REMARK SMILES IDX 15 1 16 2 17 3 18 4 19 5 20 6 21 7 22 8 23 9 24 10 25 11
REMARK SMILES IDX 26 12 27 13 28 14 29 15 30 16 14 17 13 18 12 19 11 20 10 21
REMARK SMILES IDX 9 22 8 23 7 24 6 25 5 26 4 27 3 28 2 29 1 30
REMARK H PARENT
REMARK Flexibility Score: inf
ROOT
ATOM      1  C   UNL     1     -22.261 -21.293 -16.058  1.00  0.00     0.000 C 
ENDROOT
BRANCH   1   2
ATOM      2  C   UNL     1     -23.285 -22.089 -16.888  1.00  0.00     0.000 C 
BRANCH   2   3
ATOM      3  C   UNL     1     -24.107 -23.066 -16.031  1.00  0.00     0.000 C 
BRANCH   3   4
ATOM      4  C   UNL     1     -24.124 -24.489 -16.616  1.00  0.00     0.000 C 
BRANCH   4   5
ATOM      5  C   UNL     1     -23.235 -25.462 -15.827  1.00  0.00     0.000 C 
BRANCH   5   6
ATOM      6  C   UNL     1     -21.927 -25.804 -16.561  1.00  0.00     0.000 C 
BRANCH   6   7
ATOM      7  C   UNL     1     -21.873 -25.203 -17.975  1.00  0.00     0.000 C 
BRANCH   7   8
ATOM      8  C   UNL     1     -21.150 -26.119 -18.977  1.00  0.00     0.000 C 
BRANCH   8   9
ATOM      9  C   UNL     1     -19.877 -26.759 -18.395  1.00  0.00     0.000 C 
BRANCH   9  10
ATOM     10  C   UNL     1     -18.748 -27.001 -19.415  1.00  0.00     0.000 C 
BRANCH  10  11
ATOM     11  C   UNL     1     -18.253 -25.705 -20.084  1.00  0.00     0.000 C 
BRANCH  11  12
ATOM     12  C   UNL     1     -18.862 -25.482 -21.476  1.00  0.00     0.006 C 
BRANCH  12  13
ATOM     13  C   UNL     1     -17.799 -25.371 -22.578  1.00  0.00     0.053 C 
BRANCH  13  14
ATOM     14  C   UNL     1     -18.348 -25.796 -23.906  1.00  0.00     0.041 C 
ATOM     15  O   UNL     1     -18.215 -25.056 -24.918  1.00  0.00    -0.550 OA
ATOM     16  O   UNL     1     -19.032 -27.000 -24.020  1.00  0.00    -0.550 OA
ENDBRANCH  13  14
ENDBRANCH  12  13
ENDBRANCH  11  12
ENDBRANCH  10  11
ENDBRANCH   9  10
ENDBRANCH   8   9
ENDBRANCH   7   8
ENDBRANCH   6   7
ENDBRANCH   5   6
ENDBRANCH   4   5
ENDBRANCH   3   4
ENDBRANCH   2   3
ENDBRANCH   1   2
BRANCH   1  17
ATOM     17  C   UNL     1     -21.692 -22.101 -14.881  1.00  0.00     0.000 C 
BRANCH  17  18
ATOM     18  C   UNL     1     -20.454 -22.922 -15.277  1.00  0.00     0.000 C 
BRANCH  18  19
ATOM     19  C   UNL     1     -19.201 -22.049 -15.458  1.00  0.00     0.000 C 
BRANCH  19  20
ATOM     20  C   UNL     1     -17.911 -22.879 -15.570  1.00  0.00     0.000 C 
BRANCH  20  21
ATOM     21  C   UNL     1     -18.174 -24.342 -15.967  1.00  0.00     0.000 C 
BRANCH  21  22
ATOM     22  C   UNL     1     -17.738 -25.366 -14.898  1.00  0.00    -0.000 C 
BRANCH  22  23
ATOM     23  C   UNL     1     -17.960 -26.814 -15.360  1.00  0.00    -0.000 C 
BRANCH  23  24
ATOM     24  C   UNL     1     -16.629 -27.566 -15.479  1.00  0.00    -0.000 C 
BRANCH  24  25
ATOM     25  C   UNL     1     -16.236 -27.755 -16.952  1.00  0.00    -0.000 C 
BRANCH  25  26
ATOM     26  C   UNL     1     -15.537 -26.521 -17.543  1.00  0.00    -0.000 C 
BRANCH  26  27
ATOM     27  C   UNL     1     -14.624 -26.867 -18.731  1.00  0.00    -0.000 C 
BRANCH  27  28
ATOM     28  C   UNL     1     -13.187 -26.348 -18.552  1.00  0.00    -0.000 C 
BRANCH  28  29
ATOM     29  C   UNL     1     -12.336 -27.208 -17.594  1.00  0.00    -0.003 C 
ATOM     30  C   UNL     1     -10.851 -26.859 -17.667  1.00  0.00     0.004 C 
ENDBRANCH  28  29
ENDBRANCH  27  28
ENDBRANCH  26  27
ENDBRANCH  25  26
ENDBRANCH  24  25
ENDBRANCH  23  24
ENDBRANCH  22  23
ENDBRANCH  21  22
ENDBRANCH  20  21
ENDBRANCH  19  20
ENDBRANCH  18  19
ENDBRANCH  17  18
ENDBRANCH   1  17
TORSDOF 26
ENDMDL
MODEL 8
REMARK VINA RESULT:    -3.673     15.553     19.021
REMARK INTER + INTRA:         -13.104
REMARK INTER:                  -9.321
REMARK INTRA:                  -3.783
REMARK UNBOUND:                -3.847
REMARK SMILES CCCCCCCCCCCCCCCCCCCCCCCCCCCC(=O)[O-]
REMARK SMILES IDX 15 1 16 2 17 3 18 4 19 5 20 6 21 7 22 8 23 9 24 10 25 11
REMARK SMILES IDX 26 12 27 13 28 14 29 15 30 16 14 17 13 18 12 19 11 20 10 21
REMARK SMILES IDX 9 22 8 23 7 24 6 25 5 26 4 27 3 28 2 29 1 30
REMARK H PARENT
REMARK Flexibility Score: inf
ROOT
ATOM      1  C   UNL     1     -17.495 -25.636 -14.990  1.00  0.00     0.000 C 
ENDROOT
BRANCH   1   2
ATOM      2  C   UNL     1     -16.268 -25.041 -15.704  1.00  0.00     0.000 C 
BRANCH   2   3
ATOM      3  C   UNL     1     -15.701 -23.810 -14.977  1.00  0.00     0.000 C 
BRANCH   3   4
ATOM      4  C   UNL     1     -16.672 -22.618 -14.997  1.00  0.00     0.000 C 
BRANCH   4   5
ATOM      5  C   UNL     1     -15.951 -21.271 -15.160  1.00  0.00     0.000 C 
BRANCH   5   6
ATOM      6  C   UNL     1     -16.913 -20.116 -15.490  1.00  0.00     0.000 C 
BRANCH   6   7
ATOM      7  C   UNL     1     -18.386 -20.496 -15.263  1.00  0.00     0.000 C 
BRANCH   7   8
ATOM      8  C   UNL     1     -19.356 -19.550 -15.991  1.00  0.00     0.000 C 
BRANCH   8   9
ATOM      9  C   UNL     1     -20.357 -20.295 -16.893  1.00  0.00     0.000 C 
BRANCH   9  10
ATOM     10  C   UNL     1     -21.280 -21.285 -16.158  1.00  0.00     0.000 C 
BRANCH  10  11
ATOM     11  C   UNL     1     -20.772 -22.738 -16.216  1.00  0.00     0.000 C 
BRANCH  11  12
ATOM     12  C   UNL     1     -21.908 -23.763 -16.347  1.00  0.00     0.006 C 
BRANCH  12  13
ATOM     13  C   UNL     1     -22.630 -23.680 -17.700  1.00  0.00     0.053 C 
BRANCH  13  14
ATOM     14  C   UNL     1     -23.037 -25.039 -18.182  1.00  0.00     0.041 C 
ATOM     15  O   UNL     1     -22.549 -25.513 -19.243  1.00  0.00    -0.550 OA
ATOM     16  O   UNL     1     -23.980 -25.773 -17.472  1.00  0.00    -0.550 OA
ENDBRANCH  13  14
ENDBRANCH  12  13
ENDBRANCH  11  12
ENDBRANCH  10  11
ENDBRANCH   9  10
ENDBRANCH   8   9
ENDBRANCH   7   8
ENDBRANCH   6   7
ENDBRANCH   5   6
ENDBRANCH   4   5
ENDBRANCH   3   4
ENDBRANCH   2   3
ENDBRANCH   1   2
BRANCH   1  17
ATOM     17  C   UNL     1     -17.480 -27.172 -14.962  1.00  0.00     0.000 C 
BRANCH  17  18
ATOM     18  C   UNL     1     -18.813 -27.782 -15.426  1.00  0.00     0.000 C 
BRANCH  18  19
ATOM     19  C   UNL     1     -19.751 -26.737 -16.055  1.00  0.00     0.000 C 
BRANCH  19  20
ATOM     20  C   UNL     1     -19.728 -26.770 -17.593  1.00  0.00     0.000 C 
BRANCH  20  21
ATOM     21  C   UNL     1     -19.120 -25.498 -18.208  1.00  0.00     0.000 C 
BRANCH  21  22
ATOM     22  C   UNL     1     -17.910 -25.767 -19.127  1.00  0.00    -0.000 C 
BRANCH  22  23
ATOM     23  C   UNL     1     -17.212 -27.093 -18.790  1.00  0.00    -0.000 C 
BRANCH  23  24
ATOM     24  C   UNL     1     -15.692 -26.911 -18.704  1.00  0.00    -0.000 C 
BRANCH  24  25
ATOM     25  C   UNL     1     -14.995 -28.245 -18.395  1.00  0.00    -0.000 C 
BRANCH  25  26
ATOM     26  C   UNL     1     -15.270 -28.740 -16.967  1.00  0.00    -0.000 C 
BRANCH  26  27
ATOM     27  C   UNL     1     -14.006 -29.275 -16.271  1.00  0.00    -0.000 C 
BRANCH  27  28
ATOM     28  C   UNL     1     -12.716 -28.955 -17.047  1.00  0.00    -0.000 C 
BRANCH  28  29
ATOM     29  C   UNL     1     -12.018 -27.664 -16.574  1.00  0.00    -0.003 C 
ATOM     30  C   UNL     1     -11.480 -26.836 -17.740  1.00  0.00     0.004 C 
ENDBRANCH  28  29
ENDBRANCH  27  28
ENDBRANCH  26  27
ENDBRANCH  25  26
ENDBRANCH  24  25
ENDBRANCH  23  24
ENDBRANCH  22  23
ENDBRANCH  21  22
ENDBRANCH  20  21
ENDBRANCH  19  20
ENDBRANCH  18  19
ENDBRANCH  17  18
ENDBRANCH   1  17
TORSDOF 26
ENDMDL
MODEL 9
REMARK VINA RESULT:    -3.672     13.502     15.903
REMARK INTER + INTRA:         -13.101
REMARK INTER:                  -9.091
REMARK INTRA:                  -4.010
REMARK UNBOUND:                -3.847
REMARK SMILES CCCCCCCCCCCCCCCCCCCCCCCCCCCC(=O)[O-]
REMARK SMILES IDX 15 1 16 2 17 3 18 4 19 5 20 6 21 7 22 8 23 9 24 10 25 11
REMARK SMILES IDX 26 12 27 13 28 14 29 15 30 16 14 17 13 18 12 19 11 20 10 21
REMARK SMILES IDX 9 22 8 23 7 24 6 25 5 26 4 27 3 28 2 29 1 30
REMARK H PARENT
REMARK Flexibility Score: inf
ROOT
ATOM      1  C   UNL     1     -19.175 -24.357 -16.261  1.00  0.00     0.000 C 
ENDROOT
BRANCH   1   2
ATOM      2  C   UNL     1     -17.881 -23.622 -15.870  1.00  0.00     0.000 C 
BRANCH   2   3
ATOM      3  C   UNL     1     -16.943 -24.492 -15.017  1.00  0.00     0.000 C 
BRANCH   3   4
ATOM      4  C   UNL     1     -15.997 -25.350 -15.874  1.00  0.00     0.000 C 
BRANCH   4   5
ATOM      5  C   UNL     1     -16.309 -26.851 -15.774  1.00  0.00     0.000 C 
BRANCH   5   6
ATOM      6  C   UNL     1     -16.417 -27.531 -17.151  1.00  0.00     0.000 C 
BRANCH   6   7
ATOM      7  C   UNL     1     -17.638 -27.046 -17.950  1.00  0.00     0.000 C 
BRANCH   7   8
ATOM      8  C   UNL     1     -17.242 -26.234 -19.196  1.00  0.00     0.000 C 
BRANCH   8   9
ATOM      9  C   UNL     1     -18.456 -25.764 -20.018  1.00  0.00     0.000 C 
BRANCH   9  10
ATOM     10  C   UNL     1     -19.823 -26.011 -19.354  1.00  0.00     0.000 C 
BRANCH  10  11
ATOM     11  C   UNL     1     -20.544 -27.255 -19.906  1.00  0.00     0.000 C 
BRANCH  11  12
ATOM     12  C   UNL     1     -19.906 -27.793 -21.195  1.00  0.00     0.006 C 
BRANCH  12  13
ATOM     13  C   UNL     1     -20.879 -28.636 -22.032  1.00  0.00     0.053 C 
BRANCH  13  14
ATOM     14  C   UNL     1     -20.475 -28.658 -23.475  1.00  0.00     0.041 C 
ATOM     15  O   UNL     1     -20.826 -29.610 -24.223  1.00  0.00    -0.550 OA
ATOM     16  O   UNL     1     -19.684 -27.637 -23.989  1.00  0.00    -0.550 OA
ENDBRANCH  13  14
ENDBRANCH  12  13
ENDBRANCH  11  12
ENDBRANCH  10  11
ENDBRANCH   9  10
ENDBRANCH   8   9
ENDBRANCH   7   8
ENDBRANCH   6   7
ENDBRANCH   5   6
ENDBRANCH   4   5
ENDBRANCH   3   4
ENDBRANCH   2   3
ENDBRANCH   1   2
BRANCH   1  17
ATOM     17  C   UNL     1     -19.701 -25.271 -15.143  1.00  0.00     0.000 C 
BRANCH  17  18
ATOM     18  C   UNL     1     -20.578 -26.414 -15.682  1.00  0.00     0.000 C 
BRANCH  18  19
ATOM     19  C   UNL     1     -22.062 -26.022 -15.776  1.00  0.00     0.000 C 
BRANCH  19  20
ATOM     20  C   UNL     1     -22.509 -25.737 -17.220  1.00  0.00     0.000 C 
BRANCH  20  21
ATOM     21  C   UNL     1     -23.982 -25.301 -17.313  1.00  0.00     0.000 C 
BRANCH  21  22
ATOM     22  C   UNL     1     -24.375 -24.211 -16.295  1.00  0.00    -0.000 C 
BRANCH  22  23
ATOM     23  C   UNL     1     -24.024 -22.801 -16.793  1.00  0.00    -0.000 C 
BRANCH  23  24
ATOM     24  C   UNL     1     -22.721 -22.301 -16.158  1.00  0.00    -0.000 C 
BRANCH  24  25
ATOM     25  C   UNL     1     -21.665 -22.001 -17.234  1.00  0.00    -0.000 C 
BRANCH  25  26
ATOM     26  C   UNL     1     -20.875 -20.715 -16.947  1.00  0.00    -0.000 C 
BRANCH  26  27
ATOM     27  C   UNL     1     -21.525 -19.851 -15.853  1.00  0.00    -0.000 C 
BRANCH  27  28
ATOM     28  C   UNL     1     -22.109 -18.536 -16.398  1.00  0.00    -0.000 C 
BRANCH  28  29
ATOM     29  C   UNL     1     -22.825 -18.696 -17.755  1.00  0.00    -0.003 C 
ATOM     30  C   UNL     1     -24.274 -19.153 -17.595  1.00  0.00     0.004 C 
ENDBRANCH  28  29
ENDBRANCH  27  28
ENDBRANCH  26  27
ENDBRANCH  25  26
ENDBRANCH  24  25
ENDBRANCH  23  24
ENDBRANCH  22  23
ENDBRANCH  21  22
ENDBRANCH  20  21
ENDBRANCH  19  20
ENDBRANCH  18  19
ENDBRANCH  17  18
ENDBRANCH   1  17
TORSDOF 26
ENDMDL
