MODEL 1
REMARK VINA RESULT:    -3.603      0.000      0.000
REMARK INTER + INTRA:          -5.044
REMARK INTER:                  -4.656
REMARK INTRA:                  -0.388
REMARK UNBOUND:                -0.388
REMARK SMILES CCO[C@@H]1O[C@@H](CO)[C@@H](O)[C@@H](O)[C@@H]1O
REMARK SMILES IDX 4 1 13 2 11 3 9 4 6 5 5 6 3 7 2 8 1 9 14 10 12 12 7 14 8 15
REMARK SMILES IDX 10 17
REMARK H PARENT 14 11 12 13 8 16 10 18
REMARK Flexibility Score: inf
ROOT
ATOM      1  C   UNL     1       7.523   5.981   1.832  1.00  0.00     0.281 C 
ATOM      2  C   UNL     1       8.971   5.463   1.940  1.00  0.00     0.202 C 
ATOM      3  C   UNL     1       9.007   4.109   2.672  1.00  0.00     0.179 C 
ATOM      4  C   UNL     1       7.997   3.138   2.034  1.00  0.00     0.177 C 
ATOM      5  C   UNL     1       6.613   3.820   1.969  1.00  0.00     0.178 C 
ATOM      6  O   UNL     1       6.679   5.019   1.212  1.00  0.00    -0.341 OA
ENDROOT
BRANCH   1   7
ATOM      7  O   UNL     1       7.036   6.348   3.116  1.00  0.00    -0.350 OA
BRANCH   7   8
ATOM      8  C   UNL     1       6.268   7.535   3.049  1.00  0.00     0.160 C 
ATOM      9  C   UNL     1       6.761   8.416   1.906  1.00  0.00     0.035 C 
ENDBRANCH   7   8
ENDBRANCH   1   7
BRANCH   2  10
ATOM     10  O   UNL     1       9.753   6.406   2.625  1.00  0.00    -0.385 OA
ATOM     11  H   UNL     1      10.448   6.721   1.990  1.00  0.00     0.211 HD
ENDBRANCH   2  10
BRANCH   3  12
ATOM     12  O   UNL     1      10.303   3.573   2.607  1.00  0.00    -0.387 OA
ATOM     13  H   UNL     1      10.231   2.708   2.125  1.00  0.00     0.211 HD
ENDBRANCH   3  12
BRANCH   5  14
ATOM     14  C   UNL     1       5.563   2.892   1.341  1.00  0.00     0.191 C 
BRANCH  14  15
ATOM     15  O   UNL     1       5.319   3.261   0.011  1.00  0.00    -0.394 OA
ATOM     16  H   UNL     1       4.534   2.734  -0.292  1.00  0.00     0.210 HD
ENDBRANCH  14  15
ENDBRANCH   5  14
BRANCH   4  17
ATOM     17  O   UNL     1       8.436   2.786   0.743  1.00  0.00    -0.387 OA
ATOM     18  H   UNL     1       8.531   1.798   0.726  1.00  0.00     0.211 HD
ENDBRANCH   4  17
TORSDOF 7
ENDMDL
MODEL 2
REMARK VINA RESULT:    -3.016      3.595      5.395
REMARK INTER + INTRA:          -4.285
REMARK INTER:                  -3.800
REMARK INTRA:                  -0.485
REMARK UNBOUND:                -0.388
REMARK SMILES CCO[C@@H]1O[C@@H](CO)[C@@H](O)[C@@H](O)[C@@H]1O
REMARK SMILES IDX 4 1 13 2 11 3 9 4 6 5 5 6 3 7 2 8 1 9 14 10 12 12 7 14 8 15
REMARK SMILES IDX 10 17
REMARK H PARENT 14 11 12 13 8 16 10 18
REMARK Flexibility Score: inf
ROOT
ATOM      1  C   UNL     1      12.834   6.776   1.659  1.00  0.00     0.281 C 
ATOM      2  C   UNL     1      12.615   5.261   1.842  1.00  0.00     0.202 C 
ATOM      3  C   UNL     1      11.453   4.997   2.817  1.00  0.00     0.179 C 
ATOM      4  C   UNL     1      10.213   5.801   2.390  1.00  0.00     0.177 C 
ATOM      5  C   UNL     1      10.609   7.284   2.216  1.00  0.00     0.178 C 
ATOM      6  O   UNL     1      11.635   7.420   1.245  1.00  0.00    -0.341 OA
ENDROOT
BRANCH   1   7
ATOM      7  O   UNL     1      13.342   7.348   2.857  1.00  0.00    -0.350 OA
BRANCH   7   8
ATOM      8  C   UNL     1      14.275   8.374   2.575  1.00  0.00     0.160 C 
ATOM      9  C   UNL     1      15.325   7.874   1.589  1.00  0.00     0.035 C 
ENDBRANCH   7   8
ENDBRANCH   1   7
BRANCH   2  10
ATOM     10  O   UNL     1      13.797   4.676   2.325  1.00  0.00    -0.385 OA
ATOM     11  H   UNL     1      14.020   3.928   1.712  1.00  0.00     0.211 HD
ENDBRANCH   2  10
BRANCH   3  12
ATOM     12  O   UNL     1      11.158   3.624   2.836  1.00  0.00    -0.387 OA
ATOM     13  H   UNL     1      10.611   3.438   2.029  1.00  0.00     0.211 HD
ENDBRANCH   3  12
BRANCH   5  14
ATOM     14  C   UNL     1       9.404   8.137   1.791  1.00  0.00     0.191 C 
BRANCH  14  15
ATOM     15  O   UNL     1       9.178   8.009   0.414  1.00  0.00    -0.394 OA
ATOM     16  H   UNL     1       8.541   8.727   0.162  1.00  0.00     0.210 HD
ENDBRANCH  14  15
ENDBRANCH   5  14
BRANCH   4  17
ATOM     17  O   UNL     1       9.709   5.281   1.183  1.00  0.00    -0.387 OA
ATOM     18  H   UNL     1       9.676   4.293   1.281  1.00  0.00     0.211 HD
ENDBRANCH   4  17
TORSDOF 7
ENDMDL
MODEL 3
REMARK VINA RESULT:    -3.000      1.287      3.931
REMARK INTER + INTRA:          -4.264
REMARK INTER:                  -3.802
REMARK INTRA:                  -0.462
REMARK UNBOUND:                -0.388
REMARK SMILES CCO[C@@H]1O[C@@H](CO)[C@@H](O)[C@@H](O)[C@@H]1O
REMARK SMILES IDX 4 1 13 2 11 3 9 4 6 5 5 6 3 7 2 8 1 9 14 10 12 12 7 14 8 15
REMARK SMILES IDX 10 17
REMARK H PARENT 14 11 12 13 8 16 10 18
REMARK Flexibility Score: inf
ROOT
ATOM      1  C   UNL     1       7.273   4.431   2.340  1.00  0.00     0.281 C 
ATOM      2  C   UNL     1       8.813   4.357   2.355  1.00  0.00     0.202 C 
ATOM      3  C   UNL     1       9.416   5.453   1.457  1.00  0.00     0.179 C 
ATOM      4  C   UNL     1       8.811   6.821   1.816  1.00  0.00     0.177 C 
ATOM      5  C   UNL     1       7.270   6.715   1.789  1.00  0.00     0.178 C 
ATOM      6  O   UNL     1       6.819   5.728   2.705  1.00  0.00    -0.341 OA
ENDROOT
BRANCH   1   7
ATOM      7  O   UNL     1       6.776   4.047   1.065  1.00  0.00    -0.350 OA
BRANCH   7   8
ATOM      8  C   UNL     1       5.636   3.218   1.191  1.00  0.00     0.160 C 
ATOM      9  C   UNL     1       5.747   2.360   2.447  1.00  0.00     0.035 C 
ENDBRANCH   7   8
ENDBRANCH   1   7
BRANCH   2  10
ATOM     10  O   UNL     1       9.222   3.088   1.915  1.00  0.00    -0.385 OA
ATOM     11  H   UNL     1       9.073   2.459   2.669  1.00  0.00     0.211 HD
ENDBRANCH   2  10
BRANCH   3  12
ATOM     12  O   UNL     1      10.810   5.480   1.619  1.00  0.00    -0.387 OA
ATOM     13  H   UNL     1      10.986   5.868   2.516  1.00  0.00     0.211 HD
ENDBRANCH   3  12
BRANCH   5  14
ATOM     14  C   UNL     1       6.612   8.058   2.139  1.00  0.00     0.191 C 
BRANCH  14  15
ATOM     15  O   UNL     1       7.445   9.121   1.765  1.00  0.00    -0.394 OA
ATOM     16  H   UNL     1       7.494   9.110   0.774  1.00  0.00     0.210 HD
ENDBRANCH  14  15
ENDBRANCH   5  14
BRANCH   4  17
ATOM     17  O   UNL     1       9.256   7.210   3.093  1.00  0.00    -0.387 OA
ATOM     18  H   UNL     1       8.726   6.696   3.757  1.00  0.00     0.211 HD
ENDBRANCH   4  17
TORSDOF 7
ENDMDL
MODEL 4
REMARK VINA RESULT:    -2.951      1.526      3.380
REMARK INTER + INTRA:          -4.201
REMARK INTER:                  -3.817
REMARK INTRA:                  -0.385
REMARK UNBOUND:                -0.388
REMARK SMILES CCO[C@@H]1O[C@@H](CO)[C@@H](O)[C@@H](O)[C@@H]1O
REMARK SMILES IDX 4 1 13 2 11 3 9 4 6 5 5 6 3 7 2 8 1 9 14 10 12 12 7 14 8 15
REMARK SMILES IDX 10 17
REMARK H PARENT 14 11 12 13 8 16 10 18
REMARK Flexibility Score: inf
ROOT
ATOM      1  C   UNL     1       7.426   6.267   3.000  1.00  0.00     0.281 C 
ATOM      2  C   UNL     1       7.218   4.741   2.927  1.00  0.00     0.202 C 
ATOM      3  C   UNL     1       7.798   4.178   1.617  1.00  0.00     0.179 C 
ATOM      4  C   UNL     1       9.247   4.662   1.431  1.00  0.00     0.177 C 
ATOM      5  C   UNL     1       9.287   6.200   1.568  1.00  0.00     0.178 C 
ATOM      6  O   UNL     1       8.798   6.605   2.838  1.00  0.00    -0.341 OA
ENDROOT
BRANCH   1   7
ATOM      7  O   UNL     1       6.613   6.920   2.035  1.00  0.00    -0.350 OA
BRANCH   7   8
ATOM      8  C   UNL     1       6.432   8.285   2.361  1.00  0.00     0.160 C 
ATOM      9  C   UNL     1       6.371   9.125   1.090  1.00  0.00     0.035 C 
ENDBRANCH   7   8
ENDBRANCH   1   7
BRANCH   2  10
ATOM     10  O   UNL     1       5.846   4.454   3.014  1.00  0.00    -0.385 OA
ATOM     11  H   UNL     1       5.747   3.714   3.668  1.00  0.00     0.211 HD
ENDBRANCH   2  10
BRANCH   3  12
ATOM     12  O   UNL     1       7.755   2.775   1.648  1.00  0.00    -0.387 OA
ATOM     13  H   UNL     1       7.937   2.504   2.586  1.00  0.00     0.211 HD
ENDBRANCH   3  12
BRANCH   5  14
ATOM     14  C   UNL     1      10.713   6.739   1.387  1.00  0.00     0.191 C 
BRANCH  14  15
ATOM     15  O   UNL     1      11.439   5.916   0.516  1.00  0.00    -0.394 OA
ATOM     16  H   UNL     1      10.834   5.696  -0.239  1.00  0.00     0.210 HD
ENDBRANCH  14  15
ENDBRANCH   5  14
BRANCH   4  17
ATOM     17  O   UNL     1      10.071   4.059   2.401  1.00  0.00    -0.387 OA
ATOM     18  H   UNL     1      10.789   3.576   1.915  1.00  0.00     0.211 HD
ENDBRANCH   4  17
TORSDOF 7
ENDMDL
MODEL 5
REMARK VINA RESULT:    -2.851      2.018      4.344
REMARK INTER + INTRA:          -4.073
REMARK INTER:                  -3.680
REMARK INTRA:                  -0.392
REMARK UNBOUND:                -0.388
REMARK SMILES CCO[C@@H]1O[C@@H](CO)[C@@H](O)[C@@H](O)[C@@H]1O
REMARK SMILES IDX 4 1 13 2 11 3 9 4 6 5 5 6 3 7 2 8 1 9 14 10 12 12 7 14 8 15
REMARK SMILES IDX 10 17
REMARK H PARENT 14 11 12 13 8 16 10 18
REMARK Flexibility Score: inf
ROOT
ATOM      1  C   UNL     1       9.576   4.969   2.796  1.00  0.00     0.281 C 
ATOM      2  C   UNL     1      11.084   5.273   2.700  1.00  0.00     0.202 C 
ATOM      3  C   UNL     1      11.392   6.093   1.434  1.00  0.00     0.179 C 
ATOM      4  C   UNL     1      10.461   7.315   1.358  1.00  0.00     0.177 C 
ATOM      5  C   UNL     1       8.996   6.845   1.505  1.00  0.00     0.178 C 
ATOM      6  O   UNL     1       8.808   6.165   2.737  1.00  0.00    -0.341 OA
ENDROOT
BRANCH   1   7
ATOM      7  O   UNL     1       9.193   4.056   1.776  1.00  0.00    -0.350 OA
BRANCH   7   8
ATOM      8  C   UNL     1       7.952   3.447   2.078  1.00  0.00     0.160 C 
ATOM      9  C   UNL     1       6.963   3.679   0.941  1.00  0.00     0.035 C 
ENDBRANCH   7   8
ENDBRANCH   1   7
BRANCH   2  10
ATOM     10  O   UNL     1      11.801   4.065   2.683  1.00  0.00    -0.385 OA
ATOM     11  H   UNL     1      12.753   4.297   2.521  1.00  0.00     0.211 HD
ENDBRANCH   2  10
BRANCH   3  12
ATOM     12  O   UNL     1      12.733   6.505   1.454  1.00  0.00    -0.387 OA
ATOM     13  H   UNL     1      12.781   7.350   0.935  1.00  0.00     0.211 HD
ENDBRANCH   3  12
BRANCH   5  14
ATOM     14  C   UNL     1       8.020   8.028   1.434  1.00  0.00     0.191 C 
BRANCH  14  15
ATOM     15  O   UNL     1       8.492   8.996   0.536  1.00  0.00    -0.394 OA
ATOM     16  H   UNL     1       9.371   8.674   0.205  1.00  0.00     0.210 HD
ENDBRANCH  14  15
ENDBRANCH   5  14
BRANCH   4  17
ATOM     17  O   UNL     1      10.792   8.222   2.383  1.00  0.00    -0.387 OA
ATOM     18  H   UNL     1      10.631   9.135   2.029  1.00  0.00     0.211 HD
ENDBRANCH   4  17
TORSDOF 7
ENDMDL
MODEL 6
REMARK VINA RESULT:    -2.836      2.391      4.294
REMARK INTER + INTRA:          -4.053
REMARK INTER:                  -3.838
REMARK INTRA:                  -0.215
REMARK UNBOUND:                -0.388
REMARK SMILES CCO[C@@H]1O[C@@H](CO)[C@@H](O)[C@@H](O)[C@@H]1O
REMARK SMILES IDX 4 1 13 2 11 3 9 4 6 5 5 6 3 7 2 8 1 9 14 10 12 12 7 14 8 15
REMARK SMILES IDX 10 17
REMARK H PARENT 14 11 12 13 8 16 10 18
REMARK Flexibility Score: inf
ROOT
ATOM      1  C   UNL     1      10.900   6.023   2.589  1.00  0.00     0.281 C 
ATOM      2  C   UNL     1      10.067   7.246   3.021  1.00  0.00     0.202 C 
ATOM      3  C   UNL     1       8.938   7.516   2.010  1.00  0.00     0.179 C 
ATOM      4  C   UNL     1       8.141   6.225   1.752  1.00  0.00     0.177 C 
ATOM      5  C   UNL     1       9.122   5.096   1.366  1.00  0.00     0.178 C 
ATOM      6  O   UNL     1      10.073   4.882   2.397  1.00  0.00    -0.341 OA
ENDROOT
BRANCH   1   7
ATOM      7  O   UNL     1      11.646   6.327   1.418  1.00  0.00    -0.350 OA
BRANCH   7   8
ATOM      8  C   UNL     1      12.946   5.773   1.484  1.00  0.00     0.160 C 
ATOM      9  C   UNL     1      13.971   6.871   1.746  1.00  0.00     0.035 C 
ENDBRANCH   7   8
ENDBRANCH   1   7
BRANCH   2  10
ATOM     10  O   UNL     1      10.906   8.367   3.125  1.00  0.00    -0.385 OA
ATOM     11  H   UNL     1      10.775   8.743   4.034  1.00  0.00     0.211 HD
ENDBRANCH   2  10
BRANCH   3  12
ATOM     12  O   UNL     1       8.090   8.518   2.508  1.00  0.00    -0.387 OA
ATOM     13  H   UNL     1       8.633   9.069   3.131  1.00  0.00     0.211 HD
ENDBRANCH   3  12
BRANCH   5  14
ATOM     14  C   UNL     1       8.378   3.780   1.093  1.00  0.00     0.191 C 
BRANCH  14  15
ATOM     15  O   UNL     1       8.495   3.425  -0.258  1.00  0.00    -0.394 OA
ATOM     16  H   UNL     1       7.992   4.106  -0.776  1.00  0.00     0.210 HD
ENDBRANCH  14  15
ENDBRANCH   5  14
BRANCH   4  17
ATOM     17  O   UNL     1       7.421   5.878   2.911  1.00  0.00    -0.387 OA
ATOM     18  H   UNL     1       7.908   6.267   3.684  1.00  0.00     0.211 HD
ENDBRANCH   4  17
TORSDOF 7
ENDMDL
MODEL 7
REMARK VINA RESULT:    -2.822      2.560      3.968
REMARK INTER + INTRA:          -4.035
REMARK INTER:                  -3.590
REMARK INTRA:                  -0.444
REMARK UNBOUND:                -0.388
REMARK SMILES CCO[C@@H]1O[C@@H](CO)[C@@H](O)[C@@H](O)[C@@H]1O
REMARK SMILES IDX 4 1 13 2 11 3 9 4 6 5 5 6 3 7 2 8 1 9 14 10 12 12 7 14 8 15
REMARK SMILES IDX 10 17
REMARK H PARENT 14 11 12 13 8 16 10 18
REMARK Flexibility Score: inf
ROOT
ATOM      1  C   UNL     1      10.737   7.307   1.205  1.00  0.00     0.281 C 
ATOM      2  C   UNL     1      10.939   5.782   1.308  1.00  0.00     0.202 C 
ATOM      3  C   UNL     1      10.069   5.196   2.435  1.00  0.00     0.179 C 
ATOM      4  C   UNL     1       8.612   5.666   2.275  1.00  0.00     0.177 C 
ATOM      5  C   UNL     1       8.589   7.205   2.151  1.00  0.00     0.178 C 
ATOM      6  O   UNL     1       9.362   7.631   1.039  1.00  0.00    -0.341 OA
ENDROOT
BRANCH   1   7
ATOM      7  O   UNL     1      11.289   7.953   2.343  1.00  0.00    -0.350 OA
BRANCH   7   8
ATOM      8  C   UNL     1      12.012   9.111   1.971  1.00  0.00     0.160 C 
ATOM      9  C   UNL     1      13.511   8.836   2.030  1.00  0.00     0.035 C 
ENDBRANCH   7   8
ENDBRANCH   1   7
BRANCH   2  10
ATOM     10  O   UNL     1      12.295   5.508   1.548  1.00  0.00    -0.385 OA
ATOM     11  H   UNL     1      12.597   6.139   2.252  1.00  0.00     0.211 HD
ENDBRANCH   2  10
BRANCH   3  12
ATOM     12  O   UNL     1      10.134   3.795   2.400  1.00  0.00    -0.387 OA
ATOM     13  H   UNL     1       9.728   3.468   3.246  1.00  0.00     0.211 HD
ENDBRANCH   3  12
BRANCH   5  14
ATOM     14  C   UNL     1       7.155   7.730   1.991  1.00  0.00     0.191 C 
BRANCH  14  15
ATOM     15  O   UNL     1       6.250   6.881   2.642  1.00  0.00    -0.394 OA
ATOM     16  H   UNL     1       5.997   7.330   3.491  1.00  0.00     0.210 HD
ENDBRANCH  14  15
ENDBRANCH   5  14
BRANCH   4  17
ATOM     17  O   UNL     1       8.051   5.070   1.131  1.00  0.00    -0.387 OA
ATOM     18  H   UNL     1       7.128   5.426   1.038  1.00  0.00     0.211 HD
ENDBRANCH   4  17
TORSDOF 7
ENDMDL
MODEL 8
REMARK VINA RESULT:    -2.814      1.554      1.710
REMARK INTER + INTRA:          -4.025
REMARK INTER:                  -3.652
REMARK INTRA:                  -0.372
REMARK UNBOUND:                -0.388
REMARK SMILES CCO[C@@H]1O[C@@H](CO)[C@@H](O)[C@@H](O)[C@@H]1O
REMARK SMILES IDX 4 1 13 2 11 3 9 4 6 5 5 6 3 7 2 8 1 9 14 10 12 12 7 14 8 15
REMARK SMILES IDX 10 17
REMARK H PARENT 14 11 12 13 8 16 10 18
REMARK Flexibility Score: inf
ROOT
ATOM      1  C   UNL     1       8.629   6.782   1.551  1.00  0.00     0.281 C 
ATOM      2  C   UNL     1      10.041   6.166   1.510  1.00  0.00     0.202 C 
ATOM      3  C   UNL     1      10.236   5.182   2.679  1.00  0.00     0.179 C 
ATOM      4  C   UNL     1       9.072   4.177   2.723  1.00  0.00     0.177 C 
ATOM      5  C   UNL     1       7.735   4.953   2.724  1.00  0.00     0.178 C 
ATOM      6  O   UNL     1       7.629   5.771   1.569  1.00  0.00    -0.341 OA
ENDROOT
BRANCH   1   7
ATOM      7  O   UNL     1       8.505   7.653   2.668  1.00  0.00    -0.350 OA
BRANCH   7   8
ATOM      8  C   UNL     1       8.065   8.936   2.267  1.00  0.00     0.160 C 
ATOM      9  C   UNL     1       7.895   8.983   0.752  1.00  0.00     0.035 C 
ENDBRANCH   7   8
ENDBRANCH   1   7
BRANCH   2  10
ATOM     10  O   UNL     1      10.998   7.191   1.573  1.00  0.00    -0.385 OA
ATOM     11  H   UNL     1      10.895   7.733   0.748  1.00  0.00     0.211 HD
ENDBRANCH   2  10
BRANCH   3  12
ATOM     12  O   UNL     1      11.456   4.505   2.526  1.00  0.00    -0.387 OA
ATOM     13  H   UNL     1      11.262   3.679   2.011  1.00  0.00     0.211 HD
ENDBRANCH   3  12
BRANCH   5  14
ATOM     14  C   UNL     1       6.535   3.996   2.769  1.00  0.00     0.191 C 
BRANCH  14  15
ATOM     15  O   UNL     1       6.218   3.550   1.479  1.00  0.00    -0.394 OA
ATOM     16  H   UNL     1       6.638   2.657   1.374  1.00  0.00     0.210 HD
ENDBRANCH  14  15
ENDBRANCH   5  14
BRANCH   4  17
ATOM     17  O   UNL     1       9.146   3.324   1.605  1.00  0.00    -0.387 OA
ATOM     18  H   UNL     1       8.671   3.777   0.860  1.00  0.00     0.211 HD
ENDBRANCH   4  17
TORSDOF 7
ENDMDL
MODEL 9
REMARK VINA RESULT:    -2.776      2.167      4.706
REMARK INTER + INTRA:          -3.976
REMARK INTER:                  -3.494
REMARK INTRA:                  -0.482
REMARK UNBOUND:                -0.388
REMARK SMILES CCO[C@@H]1O[C@@H](CO)[C@@H](O)[C@@H](O)[C@@H]1O
REMARK SMILES IDX 4 1 13 2 11 3 9 4 6 5 5 6 3 7 2 8 1 9 14 10 12 12 7 14 8 15
REMARK SMILES IDX 10 17
REMARK H PARENT 14 11 12 13 8 16 10 18
REMARK Flexibility Score: inf
ROOT
ATOM      1  C   UNL     1       8.887   5.464   1.647  1.00  0.00     0.281 C 
ATOM      2  C   UNL     1       8.704   6.995   1.652  1.00  0.00     0.202 C 
ATOM      3  C   UNL     1       9.431   7.623   2.855  1.00  0.00     0.179 C 
ATOM      4  C   UNL     1      10.886   7.127   2.910  1.00  0.00     0.177 C 
ATOM      5  C   UNL     1      10.894   5.583   2.862  1.00  0.00     0.178 C 
ATOM      6  O   UNL     1      10.265   5.113   1.680  1.00  0.00    -0.341 OA
ENDROOT
BRANCH   1   7
ATOM      7  O   UNL     1       8.178   4.882   2.733  1.00  0.00    -0.350 OA
BRANCH   7   8
ATOM      8  C   UNL     1       7.579   3.658   2.352  1.00  0.00     0.160 C 
ATOM      9  C   UNL     1       7.067   3.747   0.919  1.00  0.00     0.035 C 
ENDBRANCH   7   8
ENDBRANCH   1   7
BRANCH   2  10
ATOM     10  O   UNL     1       7.334   7.299   1.698  1.00  0.00    -0.385 OA
ATOM     11  H   UNL     1       7.069   7.577   0.783  1.00  0.00     0.211 HD
ENDBRANCH   2  10
BRANCH   3  12
ATOM     12  O   UNL     1       9.399   9.022   2.745  1.00  0.00    -0.387 OA
ATOM     13  H   UNL     1      10.271   9.356   3.084  1.00  0.00     0.211 HD
ENDBRANCH   3  12
BRANCH   5  14
ATOM     14  C   UNL     1      12.326   5.031   2.918  1.00  0.00     0.191 C 
BRANCH  14  15
ATOM     15  O   UNL     1      12.889   5.007   1.634  1.00  0.00    -0.394 OA
ATOM     16  H   UNL     1      12.957   5.951   1.335  1.00  0.00     0.210 HD
ENDBRANCH  14  15
ENDBRANCH   5  14
BRANCH   4  17
ATOM     17  O   UNL     1      11.605   7.658   1.822  1.00  0.00    -0.387 OA
ATOM     18  H   UNL     1      12.268   8.297   2.194  1.00  0.00     0.211 HD
ENDBRANCH   4  17
TORSDOF 7
ENDMDL
