MODEL 1
REMARK VINA RESULT:    -5.369      0.000      0.000
REMARK INTER + INTRA:          -6.082
REMARK INTER:                  -5.997
REMARK INTRA:                  -0.085
REMARK UNBOUND:                -0.085
REMARK SMILES CCc1ccc(O)cc1O
REMARK SMILES IDX 3 1 9 2 8 3 6 4 5 5 4 6 2 7 1 8 10 9 7 11
REMARK H PARENT 10 10 7 12
REMARK Flexibility Score: inf
ROOT
ATOM      1  C   UNL     1       4.595   4.292 -30.987  1.00  0.00    -0.006 A 
ATOM      2  C   UNL     1       3.362   3.616 -31.087  1.00  0.00     0.122 A 
ATOM      3  C   UNL     1       2.193   4.222 -30.602  1.00  0.00     0.092 A 
ATOM      4  C   UNL     1       2.246   5.488 -30.006  1.00  0.00     0.119 A 
ATOM      5  C   UNL     1       3.471   6.151 -29.894  1.00  0.00     0.047 A 
ATOM      6  C   UNL     1       4.640   5.555 -30.375  1.00  0.00     0.011 A 
ENDROOT
BRANCH   1   7
ATOM      7  C   UNL     1       5.871   3.651 -31.473  1.00  0.00     0.036 C 
ATOM      8  C   UNL     1       6.903   4.712 -31.843  1.00  0.00     0.009 C 
ENDBRANCH   1   7
BRANCH   2   9
ATOM      9  O   UNL     1       3.300   2.349 -31.666  1.00  0.00    -0.508 OA
ATOM     10  H   UNL     1       3.688   1.534 -31.206  1.00  0.00     0.293 HD
ENDBRANCH   2   9
BRANCH   4  11
ATOM     11  O   UNL     1       1.090   6.095 -29.521  1.00  0.00    -0.508 OA
ATOM     12  H   UNL     1       0.697   6.917 -29.965  1.00  0.00     0.293 HD
ENDBRANCH   4  11
TORSDOF 3
ENDMDL
MODEL 2
REMARK VINA RESULT:    -5.337      1.797      3.694
REMARK INTER + INTRA:          -6.046
REMARK INTER:                  -5.975
REMARK INTRA:                  -0.071
REMARK UNBOUND:                -0.085
REMARK SMILES CCc1ccc(O)cc1O
REMARK SMILES IDX 3 1 9 2 8 3 6 4 5 5 4 6 2 7 1 8 10 9 7 11
REMARK H PARENT 10 10 7 12
REMARK Flexibility Score: inf
ROOT
ATOM      1  C   UNL     1       3.429   5.080 -30.143  1.00  0.00    -0.006 A 
ATOM      2  C   UNL     1       3.898   3.973 -30.878  1.00  0.00     0.122 A 
ATOM      3  C   UNL     1       5.151   4.033 -31.506  1.00  0.00     0.092 A 
ATOM      4  C   UNL     1       5.933   5.191 -31.418  1.00  0.00     0.119 A 
ATOM      5  C   UNL     1       5.461   6.294 -30.701  1.00  0.00     0.047 A 
ATOM      6  C   UNL     1       4.215   6.243 -30.072  1.00  0.00     0.011 A 
ENDROOT
BRANCH   1   7
ATOM      7  C   UNL     1       2.073   5.054 -29.483  1.00  0.00     0.036 C 
ATOM      8  C   UNL     1       0.978   5.419 -30.481  1.00  0.00     0.009 C 
ENDBRANCH   1   7
BRANCH   2   9
ATOM      9  O   UNL     1       3.122   2.820 -30.983  1.00  0.00    -0.508 OA
ATOM     10  H   UNL     1       2.764   2.343 -30.164  1.00  0.00     0.293 HD
ENDBRANCH   2   9
BRANCH   4  11
ATOM     11  O   UNL     1       7.178   5.258 -32.040  1.00  0.00    -0.508 OA
ATOM     12  H   UNL     1       7.614   4.437 -32.442  1.00  0.00     0.293 HD
ENDBRANCH   4  11
TORSDOF 3
ENDMDL
MODEL 3
REMARK VINA RESULT:    -5.293      1.939      4.362
REMARK INTER + INTRA:          -5.996
REMARK INTER:                  -5.904
REMARK INTRA:                  -0.092
REMARK UNBOUND:                -0.085
REMARK SMILES CCc1ccc(O)cc1O
REMARK SMILES IDX 3 1 9 2 8 3 6 4 5 5 4 6 2 7 1 8 10 9 7 11
REMARK H PARENT 10 10 7 12
REMARK Flexibility Score: inf
ROOT
ATOM      1  C   UNL     1       3.585   4.881 -30.333  1.00  0.00    -0.006 A 
ATOM      2  C   UNL     1       4.693   5.733 -30.512  1.00  0.00     0.122 A 
ATOM      3  C   UNL     1       5.771   5.317 -31.308  1.00  0.00     0.092 A 
ATOM      4  C   UNL     1       5.758   4.054 -31.914  1.00  0.00     0.119 A 
ATOM      5  C   UNL     1       4.666   3.205 -31.723  1.00  0.00     0.047 A 
ATOM      6  C   UNL     1       3.587   3.611 -30.933  1.00  0.00     0.011 A 
ENDROOT
BRANCH   1   7
ATOM      7  C   UNL     1       2.426   5.291 -29.458  1.00  0.00     0.036 C 
ATOM      8  C   UNL     1       1.119   5.268 -30.245  1.00  0.00     0.009 C 
ENDBRANCH   1   7
BRANCH   2   9
ATOM      9  O   UNL     1       4.722   6.986 -29.902  1.00  0.00    -0.508 OA
ATOM     10  H   UNL     1       3.894   7.568 -29.842  1.00  0.00     0.293 HD
ENDBRANCH   2   9
BRANCH   4  11
ATOM     11  O   UNL     1       6.825   3.634 -32.705  1.00  0.00    -0.508 OA
ATOM     12  H   UNL     1       6.690   3.005 -33.488  1.00  0.00     0.293 HD
ENDBRANCH   4  11
TORSDOF 3
ENDMDL
MODEL 4
REMARK VINA RESULT:    -5.233      1.633      2.348
REMARK INTER + INTRA:          -5.930
REMARK INTER:                  -5.842
REMARK INTRA:                  -0.087
REMARK UNBOUND:                -0.085
REMARK SMILES CCc1ccc(O)cc1O
REMARK SMILES IDX 3 1 9 2 8 3 6 4 5 5 4 6 2 7 1 8 10 9 7 11
REMARK H PARENT 10 10 7 12
REMARK Flexibility Score: inf
ROOT
ATOM      1  C   UNL     1       4.899   4.562 -31.103  1.00  0.00    -0.006 A 
ATOM      2  C   UNL     1       4.643   5.873 -30.653  1.00  0.00     0.122 A 
ATOM      3  C   UNL     1       3.392   6.189 -30.099  1.00  0.00     0.092 A 
ATOM      4  C   UNL     1       2.393   5.212 -30.004  1.00  0.00     0.119 A 
ATOM      5  C   UNL     1       2.643   3.917 -30.464  1.00  0.00     0.047 A 
ATOM      6  C   UNL     1       3.885   3.594 -31.016  1.00  0.00     0.011 A 
ENDROOT
BRANCH   1   7
ATOM      7  C   UNL     1       6.223   4.203 -31.731  1.00  0.00     0.036 C 
ATOM      8  C   UNL     1       6.045   3.121 -32.791  1.00  0.00     0.009 C 
ENDBRANCH   1   7
BRANCH   2   9
ATOM      9  O   UNL     1       5.626   6.856 -30.756  1.00  0.00    -0.508 OA
ATOM     10  H   UNL     1       5.961   7.181 -31.656  1.00  0.00     0.293 HD
ENDBRANCH   2   9
BRANCH   4  11
ATOM     11  O   UNL     1       1.150   5.519 -29.456  1.00  0.00    -0.508 OA
ATOM     12  H   UNL     1       1.044   6.242 -28.754  1.00  0.00     0.293 HD
ENDBRANCH   4  11
TORSDOF 3
ENDMDL
MODEL 5
REMARK VINA RESULT:    -4.890      1.711      3.379
REMARK INTER + INTRA:          -5.547
REMARK INTER:                  -5.462
REMARK INTRA:                  -0.085
REMARK UNBOUND:                -0.085
REMARK SMILES CCc1ccc(O)cc1O
REMARK SMILES IDX 3 1 9 2 8 3 6 4 5 5 4 6 2 7 1 8 10 9 7 11
REMARK H PARENT 10 10 7 12
REMARK Flexibility Score: inf
ROOT
ATOM      1  C   UNL     1       6.178   5.591 -31.625  1.00  0.00    -0.006 A 
ATOM      2  C   UNL     1       4.974   5.795 -30.922  1.00  0.00     0.122 A 
ATOM      3  C   UNL     1       4.035   4.756 -30.830  1.00  0.00     0.092 A 
ATOM      4  C   UNL     1       4.284   3.521 -31.443  1.00  0.00     0.119 A 
ATOM      5  C   UNL     1       5.471   3.325 -32.153  1.00  0.00     0.047 A 
ATOM      6  C   UNL     1       6.411   4.354 -32.249  1.00  0.00     0.011 A 
ENDROOT
BRANCH   1   7
ATOM      7  C   UNL     1       7.191   6.701 -31.766  1.00  0.00     0.036 C 
ATOM      8  C   UNL     1       8.531   6.154 -32.247  1.00  0.00     0.009 C 
ENDBRANCH   1   7
BRANCH   2   9
ATOM      9  O   UNL     1       4.711   7.025 -30.320  1.00  0.00    -0.508 OA
ATOM     10  H   UNL     1       4.049   7.681 -30.717  1.00  0.00     0.293 HD
ENDBRANCH   2   9
BRANCH   4  11
ATOM     11  O   UNL     1       3.356   2.485 -31.356  1.00  0.00    -0.508 OA
ATOM     12  H   UNL     1       3.090   1.943 -32.170  1.00  0.00     0.293 HD
ENDBRANCH   4  11
TORSDOF 3
ENDMDL
MODEL 6
REMARK VINA RESULT:    -4.839      2.176      3.816
REMARK INTER + INTRA:          -5.490
REMARK INTER:                  -5.404
REMARK INTRA:                  -0.086
REMARK UNBOUND:                -0.085
REMARK SMILES CCc1ccc(O)cc1O
REMARK SMILES IDX 3 1 9 2 8 3 6 4 5 5 4 6 2 7 1 8 10 9 7 11
REMARK H PARENT 10 10 7 12
REMARK Flexibility Score: inf
ROOT
ATOM      1  C   UNL     1       4.212   4.814 -30.636  1.00  0.00    -0.006 A 
ATOM      2  C   UNL     1       5.105   4.056 -31.422  1.00  0.00     0.122 A 
ATOM      3  C   UNL     1       6.344   4.601 -31.791  1.00  0.00     0.092 A 
ATOM      4  C   UNL     1       6.694   5.898 -31.394  1.00  0.00     0.119 A 
ATOM      5  C   UNL     1       5.802   6.654 -30.629  1.00  0.00     0.047 A 
ATOM      6  C   UNL     1       4.567   6.119 -30.256  1.00  0.00     0.011 A 
ENDROOT
BRANCH   1   7
ATOM      7  C   UNL     1       2.861   4.264 -30.251  1.00  0.00     0.036 C 
ATOM      8  C   UNL     1       2.019   5.332 -29.560  1.00  0.00     0.009 C 
ENDBRANCH   1   7
BRANCH   2   9
ATOM      9  O   UNL     1       4.761   2.770 -31.833  1.00  0.00    -0.508 OA
ATOM     10  H   UNL     1       3.882   2.578 -32.300  1.00  0.00     0.293 HD
ENDBRANCH   2   9
BRANCH   4  11
ATOM     11  O   UNL     1       7.922   6.446 -31.758  1.00  0.00    -0.508 OA
ATOM     12  H   UNL     1       8.750   5.870 -31.860  1.00  0.00     0.293 HD
ENDBRANCH   4  11
TORSDOF 3
ENDMDL
MODEL 7
REMARK VINA RESULT:    -4.837      1.574      2.046
REMARK INTER + INTRA:          -5.487
REMARK INTER:                  -5.402
REMARK INTRA:                  -0.085
REMARK UNBOUND:                -0.085
REMARK SMILES CCc1ccc(O)cc1O
REMARK SMILES IDX 3 1 9 2 8 3 6 4 5 5 4 6 2 7 1 8 10 9 7 11
REMARK H PARENT 10 10 7 12
REMARK Flexibility Score: inf
ROOT
ATOM      1  C   UNL     1       6.104   5.215 -31.415  1.00  0.00    -0.006 A 
ATOM      2  C   UNL     1       5.543   3.921 -31.414  1.00  0.00     0.122 A 
ATOM      3  C   UNL     1       4.276   3.711 -30.851  1.00  0.00     0.092 A 
ATOM      4  C   UNL     1       3.570   4.777 -30.277  1.00  0.00     0.119 A 
ATOM      5  C   UNL     1       4.133   6.055 -30.265  1.00  0.00     0.047 A 
ATOM      6  C   UNL     1       5.395   6.273 -30.824  1.00  0.00     0.011 A 
ENDROOT
BRANCH   1   7
ATOM      7  C   UNL     1       7.478   5.463 -31.987  1.00  0.00     0.036 C 
ATOM      8  C   UNL     1       7.626   6.916 -32.429  1.00  0.00     0.009 C 
ENDBRANCH   1   7
BRANCH   2   9
ATOM      9  O   UNL     1       6.243   2.852 -31.971  1.00  0.00    -0.508 OA
ATOM     10  H   UNL     1       6.790   2.219 -31.399  1.00  0.00     0.293 HD
ENDBRANCH   2   9
BRANCH   4  11
ATOM     11  O   UNL     1       2.311   4.575 -29.715  1.00  0.00    -0.508 OA
ATOM     12  H   UNL     1       1.654   3.913 -30.111  1.00  0.00     0.293 HD
ENDBRANCH   4  11
TORSDOF 3
ENDMDL
MODEL 8
REMARK VINA RESULT:    -4.469      2.543      4.520
REMARK INTER + INTRA:          -5.076
REMARK INTER:                  -4.986
REMARK INTRA:                  -0.090
REMARK UNBOUND:                -0.085
REMARK SMILES CCc1ccc(O)cc1O
REMARK SMILES IDX 3 1 9 2 8 3 6 4 5 5 4 6 2 7 1 8 10 9 7 11
REMARK H PARENT 10 10 7 12
REMARK Flexibility Score: inf
ROOT
ATOM      1  C   UNL     1       4.947   4.734 -30.979  1.00  0.00    -0.006 A 
ATOM      2  C   UNL     1       5.239   6.090 -30.726  1.00  0.00     0.122 A 
ATOM      3  C   UNL     1       6.432   6.648 -31.212  1.00  0.00     0.092 A 
ATOM      4  C   UNL     1       7.339   5.863 -31.934  1.00  0.00     0.119 A 
ATOM      5  C   UNL     1       7.055   4.515 -32.171  1.00  0.00     0.047 A 
ATOM      6  C   UNL     1       5.870   3.951 -31.692  1.00  0.00     0.011 A 
ENDROOT
BRANCH   1   7
ATOM      7  C   UNL     1       3.687   4.100 -30.443  1.00  0.00     0.036 C 
ATOM      8  C   UNL     1       2.535   4.268 -31.429  1.00  0.00     0.009 C 
ENDBRANCH   1   7
BRANCH   2   9
ATOM      9  O   UNL     1       4.349   6.876 -29.997  1.00  0.00    -0.508 OA
ATOM     10  H   UNL     1       4.390   7.889 -30.023  1.00  0.00     0.293 HD
ENDBRANCH   2   9
BRANCH   4  11
ATOM     11  O   UNL     1       8.525   6.411 -32.418  1.00  0.00    -0.508 OA
ATOM     12  H   UNL     1       8.650   6.618 -33.402  1.00  0.00     0.293 HD
ENDBRANCH   4  11
TORSDOF 3
ENDMDL
MODEL 9
REMARK VINA RESULT:    -4.447      1.925      4.050
REMARK INTER + INTRA:          -5.052
REMARK INTER:                  -4.966
REMARK INTRA:                  -0.086
REMARK UNBOUND:                -0.085
REMARK SMILES CCc1ccc(O)cc1O
REMARK SMILES IDX 3 1 9 2 8 3 6 4 5 5 4 6 2 7 1 8 10 9 7 11
REMARK H PARENT 10 10 7 12
REMARK Flexibility Score: inf
ROOT
ATOM      1  C   UNL     1       3.245   4.144 -31.297  1.00  0.00    -0.006 A 
ATOM      2  C   UNL     1       3.170   3.893 -32.682  1.00  0.00     0.122 A 
ATOM      3  C   UNL     1       4.302   3.428 -33.369  1.00  0.00     0.092 A 
ATOM      4  C   UNL     1       5.509   3.224 -32.688  1.00  0.00     0.119 A 
ATOM      5  C   UNL     1       5.586   3.487 -31.319  1.00  0.00     0.047 A 
ATOM      6  C   UNL     1       4.464   3.950 -30.627  1.00  0.00     0.011 A 
ENDROOT
BRANCH   1   7
ATOM      7  C   UNL     1       2.052   4.674 -30.540  1.00  0.00     0.036 C 
ATOM      8  C   UNL     1       2.492   5.370 -29.255  1.00  0.00     0.009 C 
ENDBRANCH   1   7
BRANCH   2   9
ATOM      9  O   UNL     1       1.977   4.106 -33.371  1.00  0.00    -0.508 OA
ATOM     10  H   UNL     1       1.858   3.808 -34.332  1.00  0.00     0.293 HD
ENDBRANCH   2   9
BRANCH   4  11
ATOM     11  O   UNL     1       6.636   2.763 -33.364  1.00  0.00    -0.508 OA
ATOM     12  H   UNL     1       6.657   1.847 -33.798  1.00  0.00     0.293 HD
ENDBRANCH   4  11
TORSDOF 3
ENDMDL
