MODEL 1
REMARK VINA RESULT:    -4.758      0.000      0.000
REMARK INTER + INTRA:          -6.511
REMARK INTER:                  -6.009
REMARK INTRA:                  -0.502
REMARK UNBOUND:                -0.502
REMARK SMILES Oc1ccc(CCc2cc(O)cc(O)c2)cc1
REMARK SMILES IDX 6 1 5 2 4 3 3 4 2 5 16 6 17 7 1 8 7 10 8 11 15 12 9 13 13 14
REMARK SMILES IDX 10 15 12 16 14 17 11 19
REMARK H PARENT 1 9 14 18 11 20
REMARK Flexibility Score: inf
ROOT
ATOM      1  C   UNL     1      13.250   5.059  -1.454  1.00  0.00     0.040 C 
ENDROOT
BRANCH   1   2
ATOM      2  C   UNL     1      13.958   3.782  -1.818  1.00  0.00    -0.047 A 
ATOM      3  C   UNL     1      13.432   2.937  -2.810  1.00  0.00     0.007 A 
ATOM      4  C   UNL     1      14.072   1.736  -3.125  1.00  0.00     0.046 A 
ATOM      5  C   UNL     1      15.236   1.360  -2.447  1.00  0.00     0.115 A 
ATOM      6  C   UNL     1      15.119   3.395  -1.131  1.00  0.00     0.007 A 
ATOM      7  C   UNL     1      15.758   2.192  -1.447  1.00  0.00     0.046 A 
BRANCH   5   8
ATOM      8  O   UNL     1      15.864   0.159  -2.770  1.00  0.00    -0.508 OA
ATOM      9  H   UNL     1      15.471  -0.477  -3.454  1.00  0.00     0.293 HD
ENDBRANCH   5   8
ENDBRANCH   1   2
BRANCH   1  10
ATOM     10  C   UNL     1      12.061   4.771  -0.533  1.00  0.00     0.040 C 
BRANCH  10  11
ATOM     11  C   UNL     1      10.803   5.386  -1.085  1.00  0.00    -0.040 A 
ATOM     12  C   UNL     1      10.542   6.754  -0.898  1.00  0.00     0.050 A 
ATOM     13  C   UNL     1       9.909   4.611  -1.841  1.00  0.00     0.050 A 
ATOM     14  C   UNL     1       9.387   7.335  -1.440  1.00  0.00     0.119 A 
ATOM     15  C   UNL     1       8.755   5.188  -2.384  1.00  0.00     0.119 A 
ATOM     16  C   UNL     1       8.495   6.550  -2.179  1.00  0.00     0.092 A 
BRANCH  14  17
ATOM     17  O   UNL     1       9.119   8.688  -1.254  1.00  0.00    -0.508 OA
ATOM     18  H   UNL     1       8.495   9.008  -0.522  1.00  0.00     0.293 HD
ENDBRANCH  14  17
BRANCH  15  19
ATOM     19  O   UNL     1       7.877   4.402  -3.124  1.00  0.00    -0.508 OA
ATOM     20  H   UNL     1       6.953   4.734  -3.379  1.00  0.00     0.293 HD
ENDBRANCH  15  19
ENDBRANCH  10  11
ENDBRANCH   1  10
TORSDOF 6
ENDMDL
MODEL 2
REMARK VINA RESULT:    -4.523      0.706      2.178
REMARK INTER + INTRA:          -6.215
REMARK INTER:                  -5.697
REMARK INTRA:                  -0.518
REMARK UNBOUND:                -0.502
REMARK SMILES Oc1ccc(CCc2cc(O)cc(O)c2)cc1
REMARK SMILES IDX 6 1 5 2 4 3 3 4 2 5 16 6 17 7 1 8 7 10 8 11 15 12 9 13 13 14
REMARK SMILES IDX 10 15 12 16 14 17 11 19
REMARK H PARENT 1 9 14 18 11 20
REMARK Flexibility Score: inf
ROOT
ATOM      1  C   UNL     1      12.799   5.045  -1.080  1.00  0.00     0.040 C 
ENDROOT
BRANCH   1   2
ATOM      2  C   UNL     1      13.585   3.864  -1.583  1.00  0.00    -0.047 A 
ATOM      3  C   UNL     1      13.118   3.117  -2.678  1.00  0.00     0.007 A 
ATOM      4  C   UNL     1      13.831   2.001  -3.125  1.00  0.00     0.046 A 
ATOM      5  C   UNL     1      15.009   1.613  -2.478  1.00  0.00     0.115 A 
ATOM      6  C   UNL     1      14.760   3.464  -0.928  1.00  0.00     0.007 A 
ATOM      7  C   UNL     1      15.471   2.347  -1.376  1.00  0.00     0.046 A 
BRANCH   5   8
ATOM      8  O   UNL     1      15.709   0.498  -2.932  1.00  0.00    -0.508 OA
ATOM      9  H   UNL     1      16.074  -0.196  -2.291  1.00  0.00     0.293 HD
ENDBRANCH   5   8
ENDBRANCH   1   2
BRANCH   1  10
ATOM     10  C   UNL     1      12.379   5.947  -2.244  1.00  0.00     0.040 C 
BRANCH  10  11
ATOM     11  C   UNL     1      10.893   6.184  -2.220  1.00  0.00    -0.040 A 
ATOM     12  C   UNL     1      10.006   5.151  -2.565  1.00  0.00     0.050 A 
ATOM     13  C   UNL     1      10.379   7.420  -1.796  1.00  0.00     0.050 A 
ATOM     14  C   UNL     1       8.620   5.360  -2.511  1.00  0.00     0.119 A 
ATOM     15  C   UNL     1       8.997   7.632  -1.740  1.00  0.00     0.119 A 
ATOM     16  C   UNL     1       8.120   6.601  -2.102  1.00  0.00     0.092 A 
BRANCH  14  17
ATOM     17  O   UNL     1       7.735   4.343  -2.859  1.00  0.00    -0.508 OA
ATOM     18  H   UNL     1       6.743   4.520  -2.967  1.00  0.00     0.293 HD
ENDBRANCH  14  17
BRANCH  15  19
ATOM     19  O   UNL     1       8.508   8.867  -1.324  1.00  0.00    -0.508 OA
ATOM     20  H   UNL     1       9.022   9.450  -0.674  1.00  0.00     0.293 HD
ENDBRANCH  15  19
ENDBRANCH  10  11
ENDBRANCH   1  10
TORSDOF 6
ENDMDL
MODEL 3
REMARK VINA RESULT:    -4.485      1.608      2.435
REMARK INTER + INTRA:          -6.167
REMARK INTER:                  -5.675
REMARK INTRA:                  -0.492
REMARK UNBOUND:                -0.502
REMARK SMILES Oc1ccc(CCc2cc(O)cc(O)c2)cc1
REMARK SMILES IDX 6 1 5 2 4 3 3 4 2 5 16 6 17 7 1 8 7 10 8 11 15 12 9 13 13 14
REMARK SMILES IDX 10 15 12 16 14 17 11 19
REMARK H PARENT 1 9 14 18 11 20
REMARK Flexibility Score: inf
ROOT
ATOM      1  C   UNL     1      12.483   3.815  -2.235  1.00  0.00     0.040 C 
ENDROOT
BRANCH   1   2
ATOM      2  C   UNL     1      13.856   3.202  -2.171  1.00  0.00    -0.047 A 
ATOM      3  C   UNL     1      14.249   2.244  -3.120  1.00  0.00     0.007 A 
ATOM      4  C   UNL     1      15.513   1.652  -3.042  1.00  0.00     0.046 A 
ATOM      5  C   UNL     1      16.390   2.001  -2.011  1.00  0.00     0.115 A 
ATOM      6  C   UNL     1      14.735   3.540  -1.130  1.00  0.00     0.007 A 
ATOM      7  C   UNL     1      15.998   2.946  -1.053  1.00  0.00     0.046 A 
BRANCH   5   8
ATOM      8  O   UNL     1      17.646   1.402  -1.944  1.00  0.00    -0.508 OA
ATOM      9  H   UNL     1      18.240   1.324  -2.761  1.00  0.00     0.293 HD
ENDBRANCH   5   8
ENDBRANCH   1   2
BRANCH   1  10
ATOM     10  C   UNL     1      12.212   4.659  -0.986  1.00  0.00     0.040 C 
BRANCH  10  11
ATOM     11  C   UNL     1      11.628   5.993  -1.366  1.00  0.00    -0.040 A 
ATOM     12  C   UNL     1      10.329   6.340  -0.956  1.00  0.00     0.050 A 
ATOM     13  C   UNL     1      12.396   6.925  -2.082  1.00  0.00     0.050 A 
ATOM     14  C   UNL     1       9.797   7.595  -1.281  1.00  0.00     0.119 A 
ATOM     15  C   UNL     1      11.868   8.179  -2.407  1.00  0.00     0.119 A 
ATOM     16  C   UNL     1      10.566   8.510  -2.008  1.00  0.00     0.092 A 
BRANCH  14  17
ATOM     17  O   UNL     1       8.508   7.944  -0.885  1.00  0.00    -0.508 OA
ATOM     18  H   UNL     1       8.142   7.675   0.021  1.00  0.00     0.293 HD
ENDBRANCH  14  17
BRANCH  15  19
ATOM     19  O   UNL     1      12.642   9.086  -3.124  1.00  0.00    -0.508 OA
ATOM     20  H   UNL     1      12.220   9.786  -3.725  1.00  0.00     0.293 HD
ENDBRANCH  15  19
ENDBRANCH  10  11
ENDBRANCH   1  10
TORSDOF 6
ENDMDL
MODEL 4
REMARK VINA RESULT:    -4.382      1.707      2.595
REMARK INTER + INTRA:          -6.037
REMARK INTER:                  -5.491
REMARK INTRA:                  -0.546
REMARK UNBOUND:                -0.502
REMARK SMILES Oc1ccc(CCc2cc(O)cc(O)c2)cc1
REMARK SMILES IDX 6 1 5 2 4 3 3 4 2 5 16 6 17 7 1 8 7 10 8 11 15 12 9 13 13 14
REMARK SMILES IDX 10 15 12 16 14 17 11 19
REMARK H PARENT 1 9 14 18 11 20
REMARK Flexibility Score: inf
ROOT
ATOM      1  C   UNL     1      12.263   3.936  -2.421  1.00  0.00     0.040 C 
ENDROOT
BRANCH   1   2
ATOM      2  C   UNL     1      13.612   3.305  -2.203  1.00  0.00    -0.047 A 
ATOM      3  C   UNL     1      14.403   3.685  -1.105  1.00  0.00     0.007 A 
ATOM      4  C   UNL     1      15.669   3.122  -0.921  1.00  0.00     0.046 A 
ATOM      5  C   UNL     1      16.163   2.186  -1.835  1.00  0.00     0.115 A 
ATOM      6  C   UNL     1      14.116   2.375  -3.125  1.00  0.00     0.007 A 
ATOM      7  C   UNL     1      15.383   1.814  -2.940  1.00  0.00     0.046 A 
BRANCH   5   8
ATOM      8  O   UNL     1      17.427   1.634  -1.641  1.00  0.00    -0.508 OA
ATOM      9  H   UNL     1      18.134   2.111  -1.094  1.00  0.00     0.293 HD
ENDBRANCH   5   8
ENDBRANCH   1   2
BRANCH   1  10
ATOM     10  C   UNL     1      11.806   4.678  -1.161  1.00  0.00     0.040 C 
BRANCH  10  11
ATOM     11  C   UNL     1      11.489   6.114  -1.479  1.00  0.00    -0.040 A 
ATOM     12  C   UNL     1      12.449   6.930  -2.101  1.00  0.00     0.050 A 
ATOM     13  C   UNL     1      10.213   6.635  -1.210  1.00  0.00     0.050 A 
ATOM     14  C   UNL     1      12.144   8.259  -2.428  1.00  0.00     0.119 A 
ATOM     15  C   UNL     1       9.905   7.960  -1.535  1.00  0.00     0.119 A 
ATOM     16  C   UNL     1      10.874   8.771  -2.141  1.00  0.00     0.092 A 
BRANCH  14  17
ATOM     17  O   UNL     1      13.092   9.075  -3.038  1.00  0.00    -0.508 OA
ATOM     18  H   UNL     1      14.078   8.840  -3.029  1.00  0.00     0.293 HD
ENDBRANCH  14  17
BRANCH  15  19
ATOM     19  O   UNL     1       8.637   8.460  -1.254  1.00  0.00    -0.508 OA
ATOM     20  H   UNL     1       7.832   7.849  -1.171  1.00  0.00     0.293 HD
ENDBRANCH  15  19
ENDBRANCH  10  11
ENDBRANCH   1  10
TORSDOF 6
ENDMDL
MODEL 5
REMARK VINA RESULT:    -4.288      1.650      2.637
REMARK INTER + INTRA:          -5.919
REMARK INTER:                  -5.369
REMARK INTRA:                  -0.550
REMARK UNBOUND:                -0.502
REMARK SMILES Oc1ccc(CCc2cc(O)cc(O)c2)cc1
REMARK SMILES IDX 6 1 5 2 4 3 3 4 2 5 16 6 17 7 1 8 7 10 8 11 15 12 9 13 13 14
REMARK SMILES IDX 10 15 12 16 14 17 11 19
REMARK H PARENT 1 9 14 18 11 20
REMARK Flexibility Score: inf
ROOT
ATOM      1  C   UNL     1      11.319   4.306  -2.274  1.00  0.00     0.040 C 
ENDROOT
BRANCH   1   2
ATOM      2  C   UNL     1      12.689   3.684  -2.228  1.00  0.00    -0.047 A 
ATOM      3  C   UNL     1      13.031   2.658  -3.125  1.00  0.00     0.007 A 
ATOM      4  C   UNL     1      14.292   2.058  -3.061  1.00  0.00     0.046 A 
ATOM      5  C   UNL     1      15.217   2.467  -2.096  1.00  0.00     0.115 A 
ATOM      6  C   UNL     1      13.615   4.082  -1.252  1.00  0.00     0.007 A 
ATOM      7  C   UNL     1      14.876   3.481  -1.189  1.00  0.00     0.046 A 
BRANCH   5   8
ATOM      8  O   UNL     1      16.470   1.860  -2.042  1.00  0.00    -0.508 OA
ATOM      9  H   UNL     1      16.716   1.217  -1.299  1.00  0.00     0.293 HD
ENDBRANCH   5   8
ENDBRANCH   1   2
BRANCH   1  10
ATOM     10  C   UNL     1      11.083   5.180  -1.039  1.00  0.00     0.040 C 
BRANCH  10  11
ATOM     11  C   UNL     1      10.830   6.608  -1.442  1.00  0.00    -0.040 A 
ATOM     12  C   UNL     1       9.551   7.170  -1.290  1.00  0.00     0.050 A 
ATOM     13  C   UNL     1      11.881   7.407  -1.919  1.00  0.00     0.050 A 
ATOM     14  C   UNL     1       9.321   8.510  -1.634  1.00  0.00     0.119 A 
ATOM     15  C   UNL     1      11.655   8.744  -2.263  1.00  0.00     0.119 A 
ATOM     16  C   UNL     1      10.373   9.292  -2.122  1.00  0.00     0.092 A 
BRANCH  14  17
ATOM     17  O   UNL     1       8.055   9.072  -1.492  1.00  0.00    -0.508 OA
ATOM     18  H   UNL     1       7.220   8.574  -1.779  1.00  0.00     0.293 HD
ENDBRANCH  14  17
BRANCH  15  19
ATOM     19  O   UNL     1      12.709   9.519  -2.741  1.00  0.00    -0.508 OA
ATOM     20  H   UNL     1      13.388   9.145  -3.394  1.00  0.00     0.293 HD
ENDBRANCH  15  19
ENDBRANCH  10  11
ENDBRANCH   1  10
TORSDOF 6
ENDMDL
MODEL 6
REMARK VINA RESULT:    -4.246      2.706      3.635
REMARK INTER + INTRA:          -5.865
REMARK INTER:                  -5.300
REMARK INTRA:                  -0.565
REMARK UNBOUND:                -0.502
REMARK SMILES Oc1ccc(CCc2cc(O)cc(O)c2)cc1
REMARK SMILES IDX 6 1 5 2 4 3 3 4 2 5 16 6 17 7 1 8 7 10 8 11 15 12 9 13 13 14
REMARK SMILES IDX 10 15 12 16 14 17 11 19
REMARK H PARENT 1 9 14 18 11 20
REMARK Flexibility Score: inf
ROOT
ATOM      1  C   UNL     1      11.488   5.263  -1.260  1.00  0.00     0.040 C 
ENDROOT
BRANCH   1   2
ATOM      2  C   UNL     1      12.474   4.233  -1.742  1.00  0.00    -0.047 A 
ATOM      3  C   UNL     1      12.091   3.280  -2.700  1.00  0.00     0.007 A 
ATOM      4  C   UNL     1      12.997   2.304  -3.125  1.00  0.00     0.046 A 
ATOM      5  C   UNL     1      14.289   2.263  -2.590  1.00  0.00     0.115 A 
ATOM      6  C   UNL     1      13.767   4.181  -1.198  1.00  0.00     0.007 A 
ATOM      7  C   UNL     1      14.672   3.204  -1.624  1.00  0.00     0.046 A 
BRANCH   5   8
ATOM      8  O   UNL     1      15.181   1.285  -3.021  1.00  0.00    -0.508 OA
ATOM      9  H   UNL     1      15.592   0.621  -2.375  1.00  0.00     0.293 HD
ENDBRANCH   5   8
ENDBRANCH   1   2
BRANCH   1  10
ATOM     10  C   UNL     1      11.070   6.187  -2.407  1.00  0.00     0.040 C 
BRANCH  10  11
ATOM     11  C   UNL     1      11.827   7.486  -2.343  1.00  0.00    -0.040 A 
ATOM     12  C   UNL     1      11.215   8.638  -1.822  1.00  0.00     0.050 A 
ATOM     13  C   UNL     1      13.170   7.543  -2.750  1.00  0.00     0.050 A 
ATOM     14  C   UNL     1      11.930   9.840  -1.732  1.00  0.00     0.119 A 
ATOM     15  C   UNL     1      13.886   8.742  -2.660  1.00  0.00     0.119 A 
ATOM     16  C   UNL     1      13.263   9.890  -2.154  1.00  0.00     0.092 A 
BRANCH  14  17
ATOM     17  O   UNL     1      11.327  10.988  -1.223  1.00  0.00    -0.508 OA
ATOM     18  H   UNL     1      10.386  11.253  -1.488  1.00  0.00     0.293 HD
ENDBRANCH  14  17
BRANCH  15  19
ATOM     19  O   UNL     1      15.215   8.781  -3.075  1.00  0.00    -0.508 OA
ATOM     20  H   UNL     1      15.970   8.487  -2.465  1.00  0.00     0.293 HD
ENDBRANCH  15  19
ENDBRANCH  10  11
ENDBRANCH   1  10
TORSDOF 6
ENDMDL
MODEL 7
REMARK VINA RESULT:    -4.157      2.960      4.316
REMARK INTER + INTRA:          -5.753
REMARK INTER:                  -5.246
REMARK INTRA:                  -0.508
REMARK UNBOUND:                -0.502
REMARK SMILES Oc1ccc(CCc2cc(O)cc(O)c2)cc1
REMARK SMILES IDX 6 1 5 2 4 3 3 4 2 5 16 6 17 7 1 8 7 10 8 11 15 12 9 13 13 14
REMARK SMILES IDX 10 15 12 16 14 17 11 19
REMARK H PARENT 1 9 14 18 11 20
REMARK Flexibility Score: inf
ROOT
ATOM      1  C   UNL     1      10.901   6.016  -1.021  1.00  0.00     0.040 C 
ENDROOT
BRANCH   1   2
ATOM      2  C   UNL     1      11.716   4.887  -1.594  1.00  0.00    -0.047 A 
ATOM      3  C   UNL     1      11.178   4.063  -2.596  1.00  0.00     0.007 A 
ATOM      4  C   UNL     1      11.922   2.995  -3.104  1.00  0.00     0.046 A 
ATOM      5  C   UNL     1      13.204   2.733  -2.610  1.00  0.00     0.115 A 
ATOM      6  C   UNL     1      12.997   4.613  -1.091  1.00  0.00     0.007 A 
ATOM      7  C   UNL     1      13.740   3.544  -1.601  1.00  0.00     0.046 A 
BRANCH   5   8
ATOM      8  O   UNL     1      13.935   1.664  -3.125  1.00  0.00    -0.508 OA
ATOM      9  H   UNL     1      13.516   0.753  -3.262  1.00  0.00     0.293 HD
ENDBRANCH   5   8
ENDBRANCH   1   2
BRANCH   1  10
ATOM     10  C   UNL     1      10.560   7.039  -2.109  1.00  0.00     0.040 C 
BRANCH  10  11
ATOM     11  C   UNL     1      11.567   8.158  -2.117  1.00  0.00    -0.040 A 
ATOM     12  C   UNL     1      12.867   7.937  -2.601  1.00  0.00     0.050 A 
ATOM     13  C   UNL     1      11.198   9.446  -1.696  1.00  0.00     0.050 A 
ATOM     14  C   UNL     1      13.795   8.986  -2.640  1.00  0.00     0.119 A 
ATOM     15  C   UNL     1      12.123  10.495  -1.734  1.00  0.00     0.119 A 
ATOM     16  C   UNL     1      13.422  10.262  -2.204  1.00  0.00     0.092 A 
BRANCH  14  17
ATOM     17  O   UNL     1      15.088   8.773  -3.113  1.00  0.00    -0.508 OA
ATOM     18  H   UNL     1      15.263   8.223  -3.945  1.00  0.00     0.293 HD
ENDBRANCH  14  17
BRANCH  15  19
ATOM     19  O   UNL     1      11.741  11.763  -1.305  1.00  0.00    -0.508 OA
ATOM     20  H   UNL     1      11.439  12.476  -1.959  1.00  0.00     0.293 HD
ENDBRANCH  15  19
ENDBRANCH  10  11
ENDBRANCH   1  10
TORSDOF 6
ENDMDL
MODEL 8
REMARK VINA RESULT:    -4.051      3.250      6.433
REMARK INTER + INTRA:          -5.619
REMARK INTER:                  -5.095
REMARK INTRA:                  -0.524
REMARK UNBOUND:                -0.502
REMARK SMILES Oc1ccc(CCc2cc(O)cc(O)c2)cc1
REMARK SMILES IDX 6 1 5 2 4 3 3 4 2 5 16 6 17 7 1 8 7 10 8 11 15 12 9 13 13 14
REMARK SMILES IDX 10 15 12 16 14 17 11 19
REMARK H PARENT 1 9 14 18 11 20
REMARK Flexibility Score: inf
ROOT
ATOM      1  C   UNL     1      10.712   7.646  -2.064  1.00  0.00     0.040 C 
ENDROOT
BRANCH   1   2
ATOM      2  C   UNL     1      11.702   8.755  -2.304  1.00  0.00    -0.047 A 
ATOM      3  C   UNL     1      12.973   8.469  -2.830  1.00  0.00     0.007 A 
ATOM      4  C   UNL     1      13.903   9.495  -3.022  1.00  0.00     0.046 A 
ATOM      5  C   UNL     1      13.578  10.812  -2.681  1.00  0.00     0.115 A 
ATOM      6  C   UNL     1      11.385  10.076  -1.951  1.00  0.00     0.007 A 
ATOM      7  C   UNL     1      12.316  11.100  -2.143  1.00  0.00     0.046 A 
BRANCH   5   8
ATOM      8  O   UNL     1      14.515  11.824  -2.876  1.00  0.00    -0.508 OA
ATOM      9  H   UNL     1      14.394  12.526  -3.597  1.00  0.00     0.293 HD
ENDBRANCH   5   8
ENDBRANCH   1   2
BRANCH   1  10
ATOM     10  C   UNL     1      11.214   6.705  -0.966  1.00  0.00     0.040 C 
BRANCH  10  11
ATOM     11  C   UNL     1      11.641   5.387  -1.553  1.00  0.00    -0.040 A 
ATOM     12  C   UNL     1      10.682   4.491  -2.055  1.00  0.00     0.050 A 
ATOM     13  C   UNL     1      13.004   5.066  -1.657  1.00  0.00     0.050 A 
ATOM     14  C   UNL     1      11.080   3.277  -2.632  1.00  0.00     0.119 A 
ATOM     15  C   UNL     1      13.405   3.855  -2.233  1.00  0.00     0.119 A 
ATOM     16  C   UNL     1      12.440   2.961  -2.717  1.00  0.00     0.092 A 
BRANCH  14  17
ATOM     17  O   UNL     1      10.135   2.382  -3.125  1.00  0.00    -0.508 OA
ATOM     18  H   UNL     1      10.184   1.392  -2.915  1.00  0.00     0.293 HD
ENDBRANCH  14  17
BRANCH  15  19
ATOM     19  O   UNL     1      14.761   3.551  -2.320  1.00  0.00    -0.508 OA
ATOM     20  H   UNL     1      15.101   2.604  -2.201  1.00  0.00     0.293 HD
ENDBRANCH  15  19
ENDBRANCH  10  11
ENDBRANCH   1  10
TORSDOF 6
ENDMDL
