MODEL 1
REMARK VINA RESULT:    -5.966      0.000      0.000
REMARK INTER + INTRA:          -7.462
REMARK INTER:                  -7.186
REMARK INTRA:                  -0.276
REMARK UNBOUND:                -0.276
REMARK SMILES O=c1c(O)c(-c2ccc(O)c(O)c2)oc2cc(O)cc(O)c12
REMARK SMILES IDX 5 1 3 2 2 3 1 4 22 5 20 6 19 7 17 8 16 9 15 10 14 11 6 12
REMARK SMILES IDX 7 13 8 14 9 15 13 16 11 17 10 18 12 20 4 22 21 24 18 26
REMARK H PARENT 10 19 12 21 4 23 21 25 18 27
REMARK Flexibility Score: inf
ROOT
ATOM      1  C   UNL     1      -1.189  26.262  36.968  1.00  0.00     0.180 A 
ATOM      2  C   UNL     1      -0.365  25.269  36.413  1.00  0.00     0.208 A 
ATOM      3  C   UNL     1       0.290  25.528  35.199  1.00  0.00     0.238 A 
ATOM      4  O   UNL     1       1.070  24.655  34.733  1.00  0.00    -0.285 OA
ATOM      5  C   UNL     1       0.102  26.770  34.547  1.00  0.00     0.111 A 
ATOM      6  C   UNL     1       0.684  27.126  33.293  1.00  0.00     0.134 A 
ATOM      7  C   UNL     1       0.533  28.429  32.807  1.00  0.00     0.093 A 
ATOM      8  C   UNL     1      -0.232  29.372  33.497  1.00  0.00     0.123 A 
ATOM      9  C   UNL     1      -0.854  29.018  34.691  1.00  0.00     0.094 A 
ATOM     10  C   UNL     1      -0.693  27.735  35.221  1.00  0.00     0.146 A 
ATOM     11  O   UNL     1      -1.293  27.442  36.367  1.00  0.00    -0.452 OA
ENDROOT
BRANCH   1  12
ATOM     12  C   UNL     1      -1.931  26.053  38.232  1.00  0.00     0.025 A 
ATOM     13  C   UNL     1      -1.520  26.725  39.394  1.00  0.00     0.016 A 
ATOM     14  C   UNL     1      -2.219  26.559  40.593  1.00  0.00     0.051 A 
ATOM     15  C   UNL     1      -3.349  25.732  40.644  1.00  0.00     0.157 A 
ATOM     16  C   UNL     1      -3.078  25.241  38.282  1.00  0.00     0.062 A 
ATOM     17  C   UNL     1      -3.782  25.073  39.481  1.00  0.00     0.158 A 
BRANCH  15  18
ATOM     18  O   UNL     1      -4.043  25.566  41.841  1.00  0.00    -0.504 OA
ATOM     19  H   UNL     1      -4.588  24.731  42.027  1.00  0.00     0.293 HD
ENDBRANCH  15  18
BRANCH  17  20
ATOM     20  O   UNL     1      -4.910  24.255  39.495  1.00  0.00    -0.504 OA
ATOM     21  H   UNL     1      -5.060  23.533  38.801  1.00  0.00     0.293 HD
ENDBRANCH  17  20
ENDBRANCH   1  12
BRANCH   2  22
ATOM     22  O   UNL     1      -0.174  24.057  37.083  1.00  0.00    -0.502 OA
ATOM     23  H   UNL     1      -0.287  23.160  36.628  1.00  0.00     0.293 HD
ENDBRANCH   2  22
BRANCH   6  24
ATOM     24  O   UNL     1       1.390  26.233  32.480  1.00  0.00    -0.507 OA
ATOM     25  H   UNL     1       2.392  26.120  32.488  1.00  0.00     0.293 HD
ENDBRANCH   6  24
BRANCH   8  26
ATOM     26  O   UNL     1      -0.390  30.664  32.998  1.00  0.00    -0.508 OA
ATOM     27  H   UNL     1       0.107  30.977  32.172  1.00  0.00     0.293 HD
ENDBRANCH   8  26
TORSDOF 6
ENDMDL
MODEL 2
REMARK VINA RESULT:    -5.817      4.635      7.865
REMARK INTER + INTRA:          -7.283
REMARK INTER:                  -6.997
REMARK INTRA:                  -0.286
REMARK UNBOUND:                -0.276
REMARK SMILES O=c1c(O)c(-c2ccc(O)c(O)c2)oc2cc(O)cc(O)c12
REMARK SMILES IDX 5 1 3 2 2 3 1 4 22 5 20 6 19 7 17 8 16 9 15 10 14 11 6 12
REMARK SMILES IDX 7 13 8 14 9 15 13 16 11 17 10 18 12 20 4 22 21 24 18 26
REMARK H PARENT 10 19 12 21 4 23 21 25 18 27
REMARK Flexibility Score: inf
ROOT
ATOM      1  C   UNL     1       1.900  26.683  30.763  1.00  0.00     0.180 A 
ATOM      2  C   UNL     1       1.339  26.422  29.501  1.00  0.00     0.208 A 
ATOM      3  C   UNL     1       2.140  25.836  28.508  1.00  0.00     0.238 A 
ATOM      4  O   UNL     1       1.618  25.555  27.397  1.00  0.00    -0.285 OA
ATOM      5  C   UNL     1       3.495  25.532  28.784  1.00  0.00     0.111 A 
ATOM      6  C   UNL     1       4.410  24.974  27.841  1.00  0.00     0.134 A 
ATOM      7  C   UNL     1       5.690  24.595  28.261  1.00  0.00     0.093 A 
ATOM      8  C   UNL     1       6.110  24.812  29.575  1.00  0.00     0.123 A 
ATOM      9  C   UNL     1       5.246  25.411  30.489  1.00  0.00     0.094 A 
ATOM     10  C   UNL     1       3.950  25.768  30.108  1.00  0.00     0.146 A 
ATOM     11  O   UNL     1       3.154  26.326  31.012  1.00  0.00    -0.452 OA
ENDROOT
BRANCH   1  12
ATOM     12  C   UNL     1       1.126  27.321  31.852  1.00  0.00     0.025 A 
ATOM     13  C   UNL     1       0.241  26.545  32.618  1.00  0.00     0.016 A 
ATOM     14  C   UNL     1      -0.484  27.122  33.664  1.00  0.00     0.051 A 
ATOM     15  C   UNL     1      -0.323  28.480  33.970  1.00  0.00     0.157 A 
ATOM     16  C   UNL     1       1.299  28.679  32.175  1.00  0.00     0.062 A 
ATOM     17  C   UNL     1       0.575  29.260  33.223  1.00  0.00     0.158 A 
BRANCH  15  18
ATOM     18  O   UNL     1      -1.050  29.054  35.012  1.00  0.00    -0.504 OA
ATOM     19  H   UNL     1      -0.608  29.312  35.887  1.00  0.00     0.293 HD
ENDBRANCH  15  18
BRANCH  17  20
ATOM     20  O   UNL     1       0.768  30.610  33.512  1.00  0.00    -0.504 OA
ATOM     21  H   UNL     1       1.672  31.056  33.420  1.00  0.00     0.293 HD
ENDBRANCH  17  20
ENDBRANCH   1  12
BRANCH   2  22
ATOM     22  O   UNL     1      -0.006  26.709  29.257  1.00  0.00    -0.502 OA
ATOM     23  H   UNL     1      -0.758  26.286  29.788  1.00  0.00     0.293 HD
ENDBRANCH   2  22
BRANCH   6  24
ATOM     24  O   UNL     1       4.121  24.800  26.484  1.00  0.00    -0.507 OA
ATOM     25  H   UNL     1       3.636  25.471  25.909  1.00  0.00     0.293 HD
ENDBRANCH   6  24
BRANCH   8  26
ATOM     26  O   UNL     1       7.391  24.445  29.982  1.00  0.00    -0.508 OA
ATOM     27  H   UNL     1       8.218  24.806  29.520  1.00  0.00     0.293 HD
ENDBRANCH   8  26
TORSDOF 6
ENDMDL
MODEL 3
REMARK VINA RESULT:    -5.782      1.740      7.126
REMARK INTER + INTRA:          -7.241
REMARK INTER:                  -6.931
REMARK INTRA:                  -0.310
REMARK UNBOUND:                -0.276
REMARK SMILES O=c1c(O)c(-c2ccc(O)c(O)c2)oc2cc(O)cc(O)c12
REMARK SMILES IDX 5 1 3 2 2 3 1 4 22 5 20 6 19 7 17 8 16 9 15 10 14 11 6 12
REMARK SMILES IDX 7 13 8 14 9 15 13 16 11 17 10 18 12 20 4 22 21 24 18 26
REMARK H PARENT 10 19 12 21 4 23 21 25 18 27
REMARK Flexibility Score: inf
ROOT
ATOM      1  C   UNL     1      -1.624  26.701  35.575  1.00  0.00     0.180 A 
ATOM      2  C   UNL     1      -2.992  26.478  35.344  1.00  0.00     0.208 A 
ATOM      3  C   UNL     1      -3.761  25.870  36.348  1.00  0.00     0.238 A 
ATOM      4  O   UNL     1      -4.997  25.722  36.157  1.00  0.00    -0.285 OA
ATOM      5  C   UNL     1      -3.151  25.477  37.563  1.00  0.00     0.111 A 
ATOM      6  C   UNL     1      -3.826  24.815  38.634  1.00  0.00     0.134 A 
ATOM      7  C   UNL     1      -3.153  24.591  39.840  1.00  0.00     0.093 A 
ATOM      8  C   UNL     1      -1.811  24.945  39.993  1.00  0.00     0.123 A 
ATOM      9  C   UNL     1      -1.126  25.537  38.935  1.00  0.00     0.094 A 
ATOM     10  C   UNL     1      -1.780  25.807  37.730  1.00  0.00     0.146 A 
ATOM     11  O   UNL     1      -1.095  26.382  36.750  1.00  0.00    -0.452 OA
ENDROOT
BRANCH   1  12
ATOM     12  C   UNL     1      -0.743  27.315  34.556  1.00  0.00     0.025 A 
ATOM     13  C   UNL     1      -0.018  26.490  33.682  1.00  0.00     0.016 A 
ATOM     14  C   UNL     1       0.804  27.047  32.698  1.00  0.00     0.051 A 
ATOM     15  C   UNL     1       0.899  28.439  32.563  1.00  0.00     0.157 A 
ATOM     16  C   UNL     1      -0.660  28.711  34.404  1.00  0.00     0.062 A 
ATOM     17  C   UNL     1       0.161  29.273  33.418  1.00  0.00     0.158 A 
BRANCH  15  18
ATOM     18  O   UNL     1       1.721  28.993  31.583  1.00  0.00    -0.504 OA
ATOM     19  H   UNL     1       2.630  28.599  31.367  1.00  0.00     0.293 HD
ENDBRANCH  15  18
BRANCH  17  20
ATOM     20  O   UNL     1       0.223  30.661  33.301  1.00  0.00    -0.504 OA
ATOM     21  H   UNL     1      -0.601  31.245  33.370  1.00  0.00     0.293 HD
ENDBRANCH  17  20
ENDBRANCH   1  12
BRANCH   2  22
ATOM     22  O   UNL     1      -3.579  26.895  34.146  1.00  0.00    -0.502 OA
ATOM     23  H   UNL     1      -4.526  26.642  33.888  1.00  0.00     0.293 HD
ENDBRANCH   2  22
BRANCH   6  24
ATOM     24  O   UNL     1      -5.138  24.338  38.552  1.00  0.00    -0.507 OA
ATOM     25  H   UNL     1      -5.390  23.384  38.343  1.00  0.00     0.293 HD
ENDBRANCH   6  24
BRANCH   8  26
ATOM     26  O   UNL     1      -1.144  24.705  41.193  1.00  0.00    -0.508 OA
ATOM     27  H   UNL     1      -0.931  25.455  41.840  1.00  0.00     0.293 HD
ENDBRANCH   8  26
TORSDOF 6
ENDMDL
MODEL 4
REMARK VINA RESULT:    -5.731      1.705      6.921
REMARK INTER + INTRA:          -7.179
REMARK INTER:                  -6.889
REMARK INTRA:                  -0.290
REMARK UNBOUND:                -0.276
REMARK SMILES O=c1c(O)c(-c2ccc(O)c(O)c2)oc2cc(O)cc(O)c12
REMARK SMILES IDX 5 1 3 2 2 3 1 4 22 5 20 6 19 7 17 8 16 9 15 10 14 11 6 12
REMARK SMILES IDX 7 13 8 14 9 15 13 16 11 17 10 18 12 20 4 22 21 24 18 26
REMARK H PARENT 10 19 12 21 4 23 21 25 18 27
REMARK Flexibility Score: inf
ROOT
ATOM      1  C   UNL     1      -1.524  26.648  36.038  1.00  0.00     0.180 A 
ATOM      2  C   UNL     1      -0.980  26.433  37.316  1.00  0.00     0.208 A 
ATOM      3  C   UNL     1      -1.783  25.848  38.308  1.00  0.00     0.238 A 
ATOM      4  O   UNL     1      -1.275  25.608  39.435  1.00  0.00    -0.285 OA
ATOM      5  C   UNL     1      -3.124  25.499  38.015  1.00  0.00     0.111 A 
ATOM      6  C   UNL     1      -4.040  24.938  38.954  1.00  0.00     0.134 A 
ATOM      7  C   UNL     1      -5.300  24.512  38.519  1.00  0.00     0.093 A 
ATOM      8  C   UNL     1      -5.702  24.687  37.193  1.00  0.00     0.123 A 
ATOM      9  C   UNL     1      -4.838  25.289  36.282  1.00  0.00     0.094 A 
ATOM     10  C   UNL     1      -3.560  25.692  36.677  1.00  0.00     0.146 A 
ATOM     11  O   UNL     1      -2.763  26.251  35.776  1.00  0.00    -0.452 OA
ENDROOT
BRANCH   1  12
ATOM     12  C   UNL     1      -0.747  27.283  34.949  1.00  0.00     0.025 A 
ATOM     13  C   UNL     1       0.160  26.511  34.207  1.00  0.00     0.016 A 
ATOM     14  C   UNL     1       0.889  27.084  33.161  1.00  0.00     0.051 A 
ATOM     15  C   UNL     1       0.708  28.433  32.831  1.00  0.00     0.157 A 
ATOM     16  C   UNL     1      -0.941  28.632  34.601  1.00  0.00     0.062 A 
ATOM     17  C   UNL     1      -0.214  29.209  33.553  1.00  0.00     0.158 A 
BRANCH  15  18
ATOM     18  O   UNL     1       1.437  29.004  31.789  1.00  0.00    -0.504 OA
ATOM     19  H   UNL     1       2.276  28.565  31.425  1.00  0.00     0.293 HD
ENDBRANCH  15  18
BRANCH  17  20
ATOM     20  O   UNL     1      -0.427  30.551  33.241  1.00  0.00    -0.504 OA
ATOM     21  H   UNL     1      -0.943  31.171  33.853  1.00  0.00     0.293 HD
ENDBRANCH  17  20
ENDBRANCH   1  12
BRANCH   2  22
ATOM     22  O   UNL     1       0.352  26.763  37.578  1.00  0.00    -0.502 OA
ATOM     23  H   UNL     1       1.075  26.713  36.870  1.00  0.00     0.293 HD
ENDBRANCH   2  22
BRANCH   6  24
ATOM     24  O   UNL     1      -3.772  24.803  40.320  1.00  0.00    -0.507 OA
ATOM     25  H   UNL     1      -2.949  25.158  40.781  1.00  0.00     0.293 HD
ENDBRANCH   6  24
BRANCH   8  26
ATOM     26  O   UNL     1      -6.965  24.275  36.772  1.00  0.00    -0.508 OA
ATOM     27  H   UNL     1      -7.434  24.719  35.991  1.00  0.00     0.293 HD
ENDBRANCH   8  26
TORSDOF 6
ENDMDL
MODEL 5
REMARK VINA RESULT:    -5.711      1.254      2.921
REMARK INTER + INTRA:          -7.156
REMARK INTER:                  -6.874
REMARK INTRA:                  -0.282
REMARK UNBOUND:                -0.276
REMARK SMILES O=c1c(O)c(-c2ccc(O)c(O)c2)oc2cc(O)cc(O)c12
REMARK SMILES IDX 5 1 3 2 2 3 1 4 22 5 20 6 19 7 17 8 16 9 15 10 14 11 6 12
REMARK SMILES IDX 7 13 8 14 9 15 13 16 11 17 10 18 12 20 4 22 21 24 18 26
REMARK H PARENT 10 19 12 21 4 23 21 25 18 27
REMARK Flexibility Score: inf
ROOT
ATOM      1  C   UNL     1      -1.159  26.930  36.428  1.00  0.00     0.180 A 
ATOM      2  C   UNL     1      -1.441  28.153  35.796  1.00  0.00     0.208 A 
ATOM      3  C   UNL     1      -0.797  28.458  34.587  1.00  0.00     0.238 A 
ATOM      4  O   UNL     1      -1.095  29.531  33.997  1.00  0.00    -0.285 OA
ATOM      5  C   UNL     1       0.133  27.546  34.033  1.00  0.00     0.111 A 
ATOM      6  C   UNL     1       0.874  27.770  32.833  1.00  0.00     0.134 A 
ATOM      7  C   UNL     1       1.668  26.743  32.311  1.00  0.00     0.093 A 
ATOM      8  C   UNL     1       1.799  25.523  32.978  1.00  0.00     0.123 A 
ATOM      9  C   UNL     1       1.128  25.316  34.180  1.00  0.00     0.094 A 
ATOM     10  C   UNL     1       0.299  26.308  34.709  1.00  0.00     0.146 A 
ATOM     11  O   UNL     1      -0.332  26.067  35.851  1.00  0.00    -0.452 OA
ENDROOT
BRANCH   1  12
ATOM     12  C   UNL     1      -1.779  26.549  37.717  1.00  0.00     0.025 A 
ATOM     13  C   UNL     1      -1.315  27.132  38.907  1.00  0.00     0.016 A 
ATOM     14  C   UNL     1      -1.899  26.802  40.133  1.00  0.00     0.051 A 
ATOM     15  C   UNL     1      -2.968  25.898  40.186  1.00  0.00     0.157 A 
ATOM     16  C   UNL     1      -2.865  25.657  37.773  1.00  0.00     0.062 A 
ATOM     17  C   UNL     1      -3.454  25.325  38.999  1.00  0.00     0.158 A 
BRANCH  15  18
ATOM     18  O   UNL     1      -3.548  25.569  41.409  1.00  0.00    -0.504 OA
ATOM     19  H   UNL     1      -3.586  26.233  42.175  1.00  0.00     0.293 HD
ENDBRANCH  15  18
BRANCH  17  20
ATOM     20  O   UNL     1      -4.525  24.433  39.015  1.00  0.00    -0.504 OA
ATOM     21  H   UNL     1      -5.206  24.423  39.765  1.00  0.00     0.293 HD
ENDBRANCH  17  20
ENDBRANCH   1  12
BRANCH   2  22
ATOM     22  O   UNL     1      -2.380  29.029  36.348  1.00  0.00    -0.502 OA
ATOM     23  H   UNL     1      -3.256  29.248  35.889  1.00  0.00     0.293 HD
ENDBRANCH   2  22
BRANCH   6  24
ATOM     24  O   UNL     1       0.885  28.984  32.139  1.00  0.00    -0.507 OA
ATOM     25  H   UNL     1       0.369  29.806  32.412  1.00  0.00     0.293 HD
ENDBRANCH   6  24
BRANCH   8  26
ATOM     26  O   UNL     1       2.604  24.511  32.458  1.00  0.00    -0.508 OA
ATOM     27  H   UNL     1       3.571  24.404  32.743  1.00  0.00     0.293 HD
ENDBRANCH   8  26
TORSDOF 6
ENDMDL
MODEL 6
REMARK VINA RESULT:    -5.506      3.106      5.627
REMARK INTER + INTRA:          -6.909
REMARK INTER:                  -6.739
REMARK INTRA:                  -0.170
REMARK UNBOUND:                -0.276
REMARK SMILES O=c1c(O)c(-c2ccc(O)c(O)c2)oc2cc(O)cc(O)c12
REMARK SMILES IDX 5 1 3 2 2 3 1 4 22 5 20 6 19 7 17 8 16 9 15 10 14 11 6 12
REMARK SMILES IDX 7 13 8 14 9 15 13 16 11 17 10 18 12 20 4 22 21 24 18 26
REMARK H PARENT 10 19 12 21 4 23 21 25 18 27
REMARK Flexibility Score: inf
ROOT
ATOM      1  C   UNL     1       0.284  27.208  32.603  1.00  0.00     0.180 A 
ATOM      2  C   UNL     1       1.121  28.213  32.089  1.00  0.00     0.208 A 
ATOM      3  C   UNL     1       1.626  28.078  30.786  1.00  0.00     0.238 A 
ATOM      4  O   UNL     1       2.331  29.006  30.311  1.00  0.00    -0.285 OA
ATOM      5  C   UNL     1       1.301  26.933  30.019  1.00  0.00     0.111 A 
ATOM      6  C   UNL     1       1.789  26.672  28.703  1.00  0.00     0.134 A 
ATOM      7  C   UNL     1       1.298  25.573  27.990  1.00  0.00     0.093 A 
ATOM      8  C   UNL     1       0.386  24.687  28.569  1.00  0.00     0.123 A 
ATOM      9  C   UNL     1      -0.051  24.899  29.874  1.00  0.00     0.094 A 
ATOM     10  C   UNL     1       0.393  26.008  30.599  1.00  0.00     0.146 A 
ATOM     11  O   UNL     1      -0.056  26.179  31.836  1.00  0.00    -0.452 OA
ENDROOT
BRANCH   1  12
ATOM     12  C   UNL     1      -0.267  27.268  33.976  1.00  0.00     0.025 A 
ATOM     13  C   UNL     1       0.176  26.348  34.939  1.00  0.00     0.016 A 
ATOM     14  C   UNL     1      -0.314  26.399  36.247  1.00  0.00     0.051 A 
ATOM     15  C   UNL     1      -1.242  27.382  36.615  1.00  0.00     0.157 A 
ATOM     16  C   UNL     1      -1.183  28.266  34.355  1.00  0.00     0.062 A 
ATOM     17  C   UNL     1      -1.676  28.321  35.665  1.00  0.00     0.158 A 
BRANCH  15  18
ATOM     18  O   UNL     1      -1.732  27.430  37.919  1.00  0.00    -0.504 OA
ATOM     19  H   UNL     1      -1.110  27.471  38.719  1.00  0.00     0.293 HD
ENDBRANCH  15  18
BRANCH  17  20
ATOM     20  O   UNL     1      -2.588  29.320  36.003  1.00  0.00    -0.504 OA
ATOM     21  H   UNL     1      -2.948  29.424  36.943  1.00  0.00     0.293 HD
ENDBRANCH  17  20
ENDBRANCH   1  12
BRANCH   2  22
ATOM     22  O   UNL     1       1.411  29.346  32.854  1.00  0.00    -0.502 OA
ATOM     23  H   UNL     1       1.211  30.285  32.532  1.00  0.00     0.293 HD
ENDBRANCH   2  22
BRANCH   6  24
ATOM     24  O   UNL     1       2.769  27.442  28.068  1.00  0.00    -0.507 OA
ATOM     25  H   UNL     1       3.082  27.304  27.119  1.00  0.00     0.293 HD
ENDBRANCH   6  24
BRANCH   8  26
ATOM     26  O   UNL     1      -0.086  23.586  27.858  1.00  0.00    -0.508 OA
ATOM     27  H   UNL     1      -0.951  23.123  28.111  1.00  0.00     0.293 HD
ENDBRANCH   8  26
TORSDOF 6
ENDMDL
MODEL 7
REMARK VINA RESULT:    -5.403      3.855      9.157
REMARK INTER + INTRA:          -6.785
REMARK INTER:                  -6.499
REMARK INTRA:                  -0.286
REMARK UNBOUND:                -0.276
REMARK SMILES O=c1c(O)c(-c2ccc(O)c(O)c2)oc2cc(O)cc(O)c12
REMARK SMILES IDX 5 1 3 2 2 3 1 4 22 5 20 6 19 7 17 8 16 9 15 10 14 11 6 12
REMARK SMILES IDX 7 13 8 14 9 15 13 16 11 17 10 18 12 20 4 22 21 24 18 26
REMARK H PARENT 10 19 12 21 4 23 21 25 18 27
REMARK Flexibility Score: inf
ROOT
ATOM      1  C   UNL     1       1.679  27.017  30.855  1.00  0.00     0.180 A 
ATOM      2  C   UNL     1       1.864  28.300  31.398  1.00  0.00     0.208 A 
ATOM      3  C   UNL     1       1.097  28.686  32.509  1.00  0.00     0.238 A 
ATOM      4  O   UNL     1       1.304  29.816  33.025  1.00  0.00    -0.285 OA
ATOM      5  C   UNL     1       0.144  27.791  33.053  1.00  0.00     0.111 A 
ATOM      6  C   UNL     1      -0.716  28.091  34.152  1.00  0.00     0.134 A 
ATOM      7  C   UNL     1      -1.527  27.085  34.689  1.00  0.00     0.093 A 
ATOM      8  C   UNL     1      -1.558  25.807  34.125  1.00  0.00     0.123 A 
ATOM      9  C   UNL     1      -0.767  25.521  33.015  1.00  0.00     0.094 A 
ATOM     10  C   UNL     1       0.080  26.494  32.479  1.00  0.00     0.146 A 
ATOM     11  O   UNL     1       0.825  26.177  31.428  1.00  0.00    -0.452 OA
ENDROOT
BRANCH   1  12
ATOM     12  C   UNL     1       2.433  26.548  29.670  1.00  0.00     0.025 A 
ATOM     13  C   UNL     1       2.062  26.998  28.393  1.00  0.00     0.016 A 
ATOM     14  C   UNL     1       2.772  26.585  27.262  1.00  0.00     0.051 A 
ATOM     15  C   UNL     1       3.873  25.729  27.394  1.00  0.00     0.157 A 
ATOM     16  C   UNL     1       3.551  25.705  29.799  1.00  0.00     0.062 A 
ATOM     17  C   UNL     1       4.266  25.291  28.669  1.00  0.00     0.158 A 
BRANCH  15  18
ATOM     18  O   UNL     1       4.579  25.316  26.265  1.00  0.00    -0.504 OA
ATOM     19  H   UNL     1       5.580  25.455  26.184  1.00  0.00     0.293 HD
ENDBRANCH  15  18
BRANCH  17  20
ATOM     20  O   UNL     1       5.366  24.450  28.835  1.00  0.00    -0.504 OA
ATOM     21  H   UNL     1       6.275  24.801  29.111  1.00  0.00     0.293 HD
ENDBRANCH  17  20
ENDBRANCH   1  12
BRANCH   2  22
ATOM     22  O   UNL     1       2.825  29.160  30.860  1.00  0.00    -0.502 OA
ATOM     23  H   UNL     1       3.771  29.212  31.221  1.00  0.00     0.293 HD
ENDBRANCH   2  22
BRANCH   6  24
ATOM     24  O   UNL     1      -0.830  29.360  34.730  1.00  0.00    -0.507 OA
ATOM     25  H   UNL     1      -1.064  29.532  35.695  1.00  0.00     0.293 HD
ENDBRANCH   6  24
BRANCH   8  26
ATOM     26  O   UNL     1      -2.380  24.815  34.656  1.00  0.00    -0.508 OA
ATOM     27  H   UNL     1      -2.003  23.932  34.981  1.00  0.00     0.293 HD
ENDBRANCH   8  26
TORSDOF 6
ENDMDL
MODEL 8
REMARK VINA RESULT:    -5.353      4.478      7.496
REMARK INTER + INTRA:          -6.724
REMARK INTER:                  -6.612
REMARK INTRA:                  -0.112
REMARK UNBOUND:                -0.276
REMARK SMILES O=c1c(O)c(-c2ccc(O)c(O)c2)oc2cc(O)cc(O)c12
REMARK SMILES IDX 5 1 3 2 2 3 1 4 22 5 20 6 19 7 17 8 16 9 15 10 14 11 6 12
REMARK SMILES IDX 7 13 8 14 9 15 13 16 11 17 10 18 12 20 4 22 21 24 18 26
REMARK H PARENT 10 19 12 21 4 23 21 25 18 27
REMARK Flexibility Score: inf
ROOT
ATOM      1  C   UNL     1       1.449  26.517  30.918  1.00  0.00     0.180 A 
ATOM      2  C   UNL     1       2.844  26.366  30.857  1.00  0.00     0.208 A 
ATOM      3  C   UNL     1       3.406  25.655  29.784  1.00  0.00     0.238 A 
ATOM      4  O   UNL     1       4.660  25.569  29.705  1.00  0.00    -0.285 OA
ATOM      5  C   UNL     1       2.565  25.089  28.796  1.00  0.00     0.111 A 
ATOM      6  C   UNL     1       3.022  24.314  27.688  1.00  0.00     0.134 A 
ATOM      7  C   UNL     1       2.112  23.916  26.702  1.00  0.00     0.093 A 
ATOM      8  C   UNL     1       0.751  24.208  26.817  1.00  0.00     0.123 A 
ATOM      9  C   UNL     1       0.285  24.912  27.925  1.00  0.00     0.094 A 
ATOM     10  C   UNL     1       1.174  25.355  28.907  1.00  0.00     0.146 A 
ATOM     11  O   UNL     1       0.691  26.032  29.941  1.00  0.00    -0.452 OA
ENDROOT
BRANCH   1  12
ATOM     12  C   UNL     1       0.782  27.233  32.030  1.00  0.00     0.025 A 
ATOM     13  C   UNL     1      -0.090  26.532  32.878  1.00  0.00     0.016 A 
ATOM     14  C   UNL     1      -0.714  27.182  33.946  1.00  0.00     0.051 A 
ATOM     15  C   UNL     1      -0.461  28.538  34.193  1.00  0.00     0.157 A 
ATOM     16  C   UNL     1       1.049  28.588  32.293  1.00  0.00     0.062 A 
ATOM     17  C   UNL     1       0.427  29.243  33.363  1.00  0.00     0.158 A 
BRANCH  15  18
ATOM     18  O   UNL     1      -1.086  29.185  35.258  1.00  0.00    -0.504 OA
ATOM     19  H   UNL     1      -1.595  28.670  35.967  1.00  0.00     0.293 HD
ENDBRANCH  15  18
BRANCH  17  20
ATOM     20  O   UNL     1       0.710  30.589  33.590  1.00  0.00    -0.504 OA
ATOM     21  H   UNL     1       0.483  31.047  34.464  1.00  0.00     0.293 HD
ENDBRANCH  17  20
ENDBRANCH   1  12
BRANCH   2  22
ATOM     22  O   UNL     1       3.659  26.952  31.830  1.00  0.00    -0.502 OA
ATOM     23  H   UNL     1       3.390  27.003  32.805  1.00  0.00     0.293 HD
ENDBRANCH   2  22
BRANCH   6  24
ATOM     24  O   UNL     1       4.344  23.890  27.526  1.00  0.00    -0.507 OA
ATOM     25  H   UNL     1       4.986  23.708  28.282  1.00  0.00     0.293 HD
ENDBRANCH   6  24
BRANCH   8  26
ATOM     26  O   UNL     1      -0.151  23.794  25.838  1.00  0.00    -0.508 OA
ATOM     27  H   UNL     1       0.114  23.130  25.120  1.00  0.00     0.293 HD
ENDBRANCH   8  26
TORSDOF 6
ENDMDL
MODEL 9
REMARK VINA RESULT:    -5.196      2.883      7.392
REMARK INTER + INTRA:          -6.535
REMARK INTER:                  -6.351
REMARK INTRA:                  -0.184
REMARK UNBOUND:                -0.276
REMARK SMILES O=c1c(O)c(-c2ccc(O)c(O)c2)oc2cc(O)cc(O)c12
REMARK SMILES IDX 5 1 3 2 2 3 1 4 22 5 20 6 19 7 17 8 16 9 15 10 14 11 6 12
REMARK SMILES IDX 7 13 8 14 9 15 13 16 11 17 10 18 12 20 4 22 21 24 18 26
REMARK H PARENT 10 19 12 21 4 23 21 25 18 27
REMARK Flexibility Score: inf
ROOT
ATOM      1  C   UNL     1      -1.002  25.215  39.042  1.00  0.00     0.180 A 
ATOM      2  C   UNL     1       0.190  24.702  39.581  1.00  0.00     0.208 A 
ATOM      3  C   UNL     1       0.118  23.784  40.641  1.00  0.00     0.238 A 
ATOM      4  O   UNL     1       1.187  23.286  41.084  1.00  0.00    -0.285 OA
ATOM      5  C   UNL     1      -1.142  23.402  41.159  1.00  0.00     0.111 A 
ATOM      6  C   UNL     1      -1.333  22.511  42.258  1.00  0.00     0.134 A 
ATOM      7  C   UNL     1      -2.626  22.103  42.600  1.00  0.00     0.093 A 
ATOM      8  C   UNL     1      -3.742  22.606  41.927  1.00  0.00     0.123 A 
ATOM      9  C   UNL     1      -3.571  23.523  40.893  1.00  0.00     0.094 A 
ATOM     10  C   UNL     1      -2.290  23.921  40.503  1.00  0.00     0.146 A 
ATOM     11  O   UNL     1      -2.171  24.787  39.506  1.00  0.00    -0.452 OA
ENDROOT
BRANCH   1  12
ATOM     12  C   UNL     1      -1.006  26.204  37.941  1.00  0.00     0.025 A 
ATOM     13  C   UNL     1      -0.593  25.813  36.658  1.00  0.00     0.016 A 
ATOM     14  C   UNL     1      -0.608  26.725  35.599  1.00  0.00     0.051 A 
ATOM     15  C   UNL     1      -1.054  28.037  35.804  1.00  0.00     0.157 A 
ATOM     16  C   UNL     1      -1.472  27.517  38.137  1.00  0.00     0.062 A 
ATOM     17  C   UNL     1      -1.490  28.433  37.079  1.00  0.00     0.158 A 
BRANCH  15  18
ATOM     18  O   UNL     1      -1.066  28.946  34.747  1.00  0.00    -0.504 OA
ATOM     19  H   UNL     1      -0.322  29.623  34.620  1.00  0.00     0.293 HD
ENDBRANCH  15  18
BRANCH  17  20
ATOM     20  O   UNL     1      -1.952  29.728  37.312  1.00  0.00    -0.504 OA
ATOM     21  H   UNL     1      -2.211  30.048  38.237  1.00  0.00     0.293 HD
ENDBRANCH  17  20
ENDBRANCH   1  12
BRANCH   2  22
ATOM     22  O   UNL     1       1.424  25.074  39.040  1.00  0.00    -0.502 OA
ATOM     23  H   UNL     1       2.049  24.408  38.603  1.00  0.00     0.293 HD
ENDBRANCH   2  22
BRANCH   6  24
ATOM     24  O   UNL     1      -0.292  22.022  43.054  1.00  0.00    -0.507 OA
ATOM     25  H   UNL     1       0.247  21.195  42.851  1.00  0.00     0.293 HD
ENDBRANCH   6  24
BRANCH   8  26
ATOM     26  O   UNL     1      -5.029  22.207  42.285  1.00  0.00    -0.508 OA
ATOM     27  H   UNL     1      -5.437  22.470  43.174  1.00  0.00     0.293 HD
ENDBRANCH   8  26
TORSDOF 6
ENDMDL
