MODEL 1
REMARK VINA RESULT:    -5.476      0.000      0.000
REMARK INTER + INTRA:         -10.670
REMARK INTER:                  -8.357
REMARK INTRA:                  -2.314
REMARK UNBOUND:                -2.314
REMARK SMILES CC(=O)CCC=C(C)CCC=C(C)CCC=C(C)C
REMARK SMILES IDX 10 1 11 2 12 3 13 4 14 5 15 6 16 7 18 8 17 9 19 10 9 11 7 12
REMARK SMILES IDX 6 13 8 14 5 15 4 16 2 17 3 18 1 19
REMARK H PARENT
REMARK Flexibility Score: inf
ROOT
ATOM      1  C   UNL     1      18.992 -31.376  21.317  1.00  0.00     0.032 C 
ENDROOT
BRANCH   1   2
ATOM      2  C   UNL     1      18.520 -32.493  20.420  1.00  0.00    -0.028 C 
ATOM      3  C   UNL     1      18.456 -33.794  20.788  1.00  0.00    -0.077 C 
ATOM      4  C   UNL     1      18.915 -34.261  22.149  1.00  0.00     0.039 C 
BRANCH   3   5
ATOM      5  C   UNL     1      17.930 -34.812  19.799  1.00  0.00     0.034 C 
BRANCH   5   6
ATOM      6  C   UNL     1      16.565 -35.348  20.245  1.00  0.00     0.032 C 
BRANCH   6   7
ATOM      7  C   UNL     1      15.481 -34.335  19.980  1.00  0.00    -0.028 C 
ATOM      8  C   UNL     1      15.181 -33.785  22.406  1.00  0.00     0.039 C 
ATOM      9  C   UNL     1      14.866 -33.606  20.939  1.00  0.00    -0.080 C 
ATOM     10  C   UNL     1      13.825 -32.600  20.520  1.00  0.00     0.039 C 
ENDBRANCH   6   7
ENDBRANCH   5   6
ENDBRANCH   3   5
ENDBRANCH   1   2
BRANCH   1  11
ATOM     11  C   UNL     1      17.969 -30.234  21.345  1.00  0.00     0.034 C 
BRANCH  11  12
ATOM     12  C   UNL     1      16.974 -30.430  22.470  1.00  0.00    -0.077 C 
ATOM     13  C   UNL     1      15.704 -29.995  22.301  1.00  0.00    -0.028 C 
ATOM     14  C   UNL     1      17.431 -31.090  23.749  1.00  0.00     0.039 C 
BRANCH  13  15
ATOM     15  C   UNL     1      14.619 -30.074  23.350  1.00  0.00     0.035 C 
BRANCH  15  16
ATOM     16  C   UNL     1      13.236 -29.806  22.748  1.00  0.00     0.079 C 
BRANCH  16  17
ATOM     17  C   UNL     1      12.462 -28.795  23.555  1.00  0.00     0.130 C 
ATOM     18  O   UNL     1      13.023 -28.180  24.448  1.00  0.00    -0.300 OA
ATOM     19  C   UNL     1      11.012 -28.527  23.281  1.00  0.00     0.087 C 
ENDBRANCH  16  17
ENDBRANCH  15  16
ENDBRANCH  13  15
ENDBRANCH  11  12
ENDBRANCH   1  11
TORSDOF 9
ENDMDL
MODEL 2
REMARK VINA RESULT:    -5.466      2.673      5.489
REMARK INTER + INTRA:         -10.656
REMARK INTER:                  -8.063
REMARK INTRA:                  -2.593
REMARK UNBOUND:                -2.314
REMARK SMILES CC(=O)CCC=C(C)CCC=C(C)CCC=C(C)C
REMARK SMILES IDX 10 1 11 2 12 3 13 4 14 5 15 6 16 7 18 8 17 9 19 10 9 11 7 12
REMARK SMILES IDX 6 13 8 14 5 15 4 16 2 17 3 18 1 19
REMARK H PARENT
REMARK Flexibility Score: inf
ROOT
ATOM      1  C   UNL     1      18.226 -32.555  24.214  1.00  0.00     0.032 C 
ENDROOT
BRANCH   1   2
ATOM      2  C   UNL     1      17.632 -31.254  23.731  1.00  0.00    -0.028 C 
ATOM      3  C   UNL     1      17.743 -30.786  22.467  1.00  0.00    -0.077 C 
ATOM      4  C   UNL     1      18.539 -31.519  21.412  1.00  0.00     0.039 C 
BRANCH   3   5
ATOM      5  C   UNL     1      17.069 -29.480  22.105  1.00  0.00     0.034 C 
BRANCH   5   6
ATOM      6  C   UNL     1      15.568 -29.540  22.411  1.00  0.00     0.032 C 
BRANCH   6   7
ATOM      7  C   UNL     1      14.863 -30.465  21.451  1.00  0.00    -0.028 C 
ATOM      8  C   UNL     1      12.745 -30.497  22.788  1.00  0.00     0.039 C 
ATOM      9  C   UNL     1      13.586 -30.884  21.594  1.00  0.00    -0.080 C 
ATOM     10  C   UNL     1      13.001 -31.779  20.531  1.00  0.00     0.039 C 
ENDBRANCH   6   7
ENDBRANCH   5   6
ENDBRANCH   3   5
ENDBRANCH   1   2
BRANCH   1  11
ATOM     11  C   UNL     1      17.140 -33.459  24.809  1.00  0.00     0.034 C 
BRANCH  11  12
ATOM     12  C   UNL     1      16.023 -33.686  23.813  1.00  0.00    -0.077 C 
ATOM     13  C   UNL     1      16.322 -34.217  22.605  1.00  0.00    -0.028 C 
ATOM     14  C   UNL     1      14.612 -33.300  24.190  1.00  0.00     0.039 C 
BRANCH  13  15
ATOM     15  C   UNL     1      15.324 -34.452  21.495  1.00  0.00     0.035 C 
BRANCH  15  16
ATOM     16  C   UNL     1      15.915 -34.101  20.125  1.00  0.00     0.079 C 
BRANCH  16  17
ATOM     17  C   UNL     1      16.901 -35.142  19.660  1.00  0.00     0.130 C 
ATOM     18  O   UNL     1      16.537 -36.300  19.524  1.00  0.00    -0.300 OA
ATOM     19  C   UNL     1      18.325 -34.782  19.358  1.00  0.00     0.087 C 
ENDBRANCH  16  17
ENDBRANCH  15  16
ENDBRANCH  13  15
ENDBRANCH  11  12
ENDBRANCH   1  11
TORSDOF 9
ENDMDL
MODEL 3
REMARK VINA RESULT:    -5.243      1.831      5.529
REMARK INTER + INTRA:         -10.315
REMARK INTER:                  -8.914
REMARK INTRA:                  -1.401
REMARK UNBOUND:                -2.314
REMARK SMILES CC(=O)CCC=C(C)CCC=C(C)CCC=C(C)C
REMARK SMILES IDX 10 1 11 2 12 3 13 4 14 5 15 6 16 7 18 8 17 9 19 10 9 11 7 12
REMARK SMILES IDX 6 13 8 14 5 15 4 16 2 17 3 18 1 19
REMARK H PARENT
REMARK Flexibility Score: inf
ROOT
ATOM      1  C   UNL     1      15.342 -34.290  20.026  1.00  0.00     0.032 C 
ENDROOT
BRANCH   1   2
ATOM      2  C   UNL     1      15.175 -33.722  21.414  1.00  0.00    -0.028 C 
ATOM      3  C   UNL     1      14.373 -32.677  21.721  1.00  0.00    -0.077 C 
ATOM      4  C   UNL     1      13.595 -31.931  20.662  1.00  0.00     0.039 C 
BRANCH   3   5
ATOM      5  C   UNL     1      14.271 -32.228  23.163  1.00  0.00     0.034 C 
BRANCH   5   6
ATOM      6  C   UNL     1      13.001 -31.398  23.385  1.00  0.00     0.032 C 
BRANCH   6   7
ATOM      7  C   UNL     1      13.349 -29.986  23.785  1.00  0.00    -0.028 C 
ATOM      8  C   UNL     1      11.191 -29.042  22.930  1.00  0.00     0.039 C 
ATOM      9  C   UNL     1      12.535 -28.921  23.610  1.00  0.00    -0.080 C 
ATOM     10  C   UNL     1      13.003 -27.573  24.096  1.00  0.00     0.039 C 
ENDBRANCH   6   7
ENDBRANCH   5   6
ENDBRANCH   3   5
ENDBRANCH   1   2
BRANCH   1  11
ATOM     11  C   UNL     1      16.647 -35.086  19.919  1.00  0.00     0.034 C 
BRANCH  11  12
ATOM     12  C   UNL     1      17.792 -34.333  20.561  1.00  0.00    -0.077 C 
ATOM     13  C   UNL     1      17.975 -33.030  20.246  1.00  0.00    -0.028 C 
ATOM     14  C   UNL     1      18.704 -35.059  21.522  1.00  0.00     0.039 C 
BRANCH  13  15
ATOM     15  C   UNL     1      19.101 -32.167  20.766  1.00  0.00     0.035 C 
BRANCH  15  16
ATOM     16  C   UNL     1      18.670 -31.364  21.999  1.00  0.00     0.079 C 
BRANCH  16  17
ATOM     17  C   UNL     1      18.102 -30.021  21.620  1.00  0.00     0.130 C 
ATOM     18  O   UNL     1      18.836 -29.169  21.143  1.00  0.00    -0.300 OA
ATOM     19  C   UNL     1      16.649 -29.709  21.816  1.00  0.00     0.087 C 
ENDBRANCH  16  17
ENDBRANCH  15  16
ENDBRANCH  13  15
ENDBRANCH  11  12
ENDBRANCH   1  11
TORSDOF 9
ENDMDL
MODEL 4
REMARK VINA RESULT:    -5.224      2.509      6.250
REMARK INTER + INTRA:         -10.286
REMARK INTER:                  -7.887
REMARK INTRA:                  -2.399
REMARK UNBOUND:                -2.314
REMARK SMILES CC(=O)CCC=C(C)CCC=C(C)CCC=C(C)C
REMARK SMILES IDX 10 1 11 2 12 3 13 4 14 5 15 6 16 7 18 8 17 9 19 10 9 11 7 12
REMARK SMILES IDX 6 13 8 14 5 15 4 16 2 17 3 18 1 19
REMARK H PARENT
REMARK Flexibility Score: inf
ROOT
ATOM      1  C   UNL     1      14.985 -33.927  23.822  1.00  0.00     0.032 C 
ENDROOT
BRANCH   1   2
ATOM      2  C   UNL     1      14.423 -32.539  23.640  1.00  0.00    -0.028 C 
ATOM      3  C   UNL     1      14.081 -32.003  22.446  1.00  0.00    -0.077 C 
ATOM      4  C   UNL     1      14.287 -32.749  21.148  1.00  0.00     0.039 C 
BRANCH   3   5
ATOM      5  C   UNL     1      13.494 -30.608  22.407  1.00  0.00     0.034 C 
BRANCH   5   6
ATOM      6  C   UNL     1      14.508 -29.577  22.914  1.00  0.00     0.032 C 
BRANCH   6   7
ATOM      7  C   UNL     1      15.702 -29.506  21.997  1.00  0.00    -0.028 C 
ATOM      8  C   UNL     1      17.278 -30.422  23.716  1.00  0.00     0.039 C 
ATOM      9  C   UNL     1      16.949 -29.906  22.335  1.00  0.00    -0.080 C 
ATOM     10  C   UNL     1      18.039 -29.811  21.298  1.00  0.00     0.039 C 
ENDBRANCH   6   7
ENDBRANCH   5   6
ENDBRANCH   3   5
ENDBRANCH   1   2
BRANCH   1  11
ATOM     11  C   UNL     1      16.413 -33.866  24.375  1.00  0.00     0.034 C 
BRANCH  11  12
ATOM     12  C   UNL     1      17.406 -34.403  23.367  1.00  0.00    -0.077 C 
ATOM     13  C   UNL     1      17.719 -33.644  22.290  1.00  0.00    -0.028 C 
ATOM     14  C   UNL     1      18.007 -35.771  23.583  1.00  0.00     0.039 C 
BRANCH  13  15
ATOM     15  C   UNL     1      18.650 -34.068  21.178  1.00  0.00     0.035 C 
BRANCH  15  16
ATOM     16  C   UNL     1      17.908 -34.196  19.843  1.00  0.00     0.079 C 
BRANCH  16  17
ATOM     17  C   UNL     1      17.092 -35.462  19.778  1.00  0.00     0.130 C 
ATOM     18  O   UNL     1      15.893 -35.395  19.555  1.00  0.00    -0.300 OA
ATOM     19  C   UNL     1      17.726 -36.806  19.980  1.00  0.00     0.087 C 
ENDBRANCH  16  17
ENDBRANCH  15  16
ENDBRANCH  13  15
ENDBRANCH  11  12
ENDBRANCH   1  11
TORSDOF 9
ENDMDL
MODEL 5
REMARK VINA RESULT:    -5.218      2.911      6.682
REMARK INTER + INTRA:         -10.277
REMARK INTER:                  -8.715
REMARK INTRA:                  -1.562
REMARK UNBOUND:                -2.314
REMARK SMILES CC(=O)CCC=C(C)CCC=C(C)CCC=C(C)C
REMARK SMILES IDX 10 1 11 2 12 3 13 4 14 5 15 6 16 7 18 8 17 9 19 10 9 11 7 12
REMARK SMILES IDX 6 13 8 14 5 15 4 16 2 17 3 18 1 19
REMARK H PARENT
REMARK Flexibility Score: inf
ROOT
ATOM      1  C   UNL     1      15.151 -33.922  24.159  1.00  0.00     0.032 C 
ENDROOT
BRANCH   1   2
ATOM      2  C   UNL     1      14.859 -32.574  23.547  1.00  0.00    -0.028 C 
ATOM      3  C   UNL     1      14.677 -32.358  22.225  1.00  0.00    -0.077 C 
ATOM      4  C   UNL     1      14.807 -33.469  21.209  1.00  0.00     0.039 C 
BRANCH   3   5
ATOM      5  C   UNL     1      14.355 -30.958  21.746  1.00  0.00     0.034 C 
BRANCH   5   6
ATOM      6  C   UNL     1      13.208 -30.354  22.564  1.00  0.00     0.032 C 
BRANCH   6   7
ATOM      7  C   UNL     1      13.641 -29.068  23.222  1.00  0.00    -0.028 C 
ATOM      8  C   UNL     1      11.294 -28.349  23.724  1.00  0.00     0.039 C 
ATOM      9  C   UNL     1      12.793 -28.169  23.770  1.00  0.00    -0.080 C 
ATOM     10  C   UNL     1      13.374 -26.944  24.429  1.00  0.00     0.039 C 
ENDBRANCH   6   7
ENDBRANCH   5   6
ENDBRANCH   3   5
ENDBRANCH   1   2
BRANCH   1  11
ATOM     11  C   UNL     1      16.561 -33.953  24.758  1.00  0.00     0.034 C 
BRANCH  11  12
ATOM     12  C   UNL     1      17.594 -34.250  23.691  1.00  0.00    -0.077 C 
ATOM     13  C   UNL     1      17.681 -35.507  23.199  1.00  0.00    -0.028 C 
ATOM     14  C   UNL     1      18.503 -33.140  23.219  1.00  0.00     0.039 C 
BRANCH  13  15
ATOM     15  C   UNL     1      18.692 -35.963  22.172  1.00  0.00     0.035 C 
BRANCH  15  16
ATOM     16  C   UNL     1      18.048 -36.858  21.108  1.00  0.00     0.079 C 
BRANCH  16  17
ATOM     17  C   UNL     1      17.405 -36.048  20.012  1.00  0.00     0.130 C 
ATOM     18  O   UNL     1      16.321 -36.389  19.566  1.00  0.00    -0.300 OA
ATOM     19  C   UNL     1      18.073 -34.826  19.456  1.00  0.00     0.087 C 
ENDBRANCH  16  17
ENDBRANCH  15  16
ENDBRANCH  13  15
ENDBRANCH  11  12
ENDBRANCH   1  11
TORSDOF 9
ENDMDL
MODEL 6
REMARK VINA RESULT:    -5.211      2.450      5.669
REMARK INTER + INTRA:         -10.266
REMARK INTER:                  -7.719
REMARK INTRA:                  -2.547
REMARK UNBOUND:                -2.314
REMARK SMILES CC(=O)CCC=C(C)CCC=C(C)CCC=C(C)C
REMARK SMILES IDX 10 1 11 2 12 3 13 4 14 5 15 6 16 7 18 8 17 9 19 10 9 11 7 12
REMARK SMILES IDX 6 13 8 14 5 15 4 16 2 17 3 18 1 19
REMARK H PARENT
REMARK Flexibility Score: inf
ROOT
ATOM      1  C   UNL     1      14.074 -30.277  22.653  1.00  0.00     0.032 C 
ENDROOT
BRANCH   1   2
ATOM      2  C   UNL     1      15.272 -29.785  21.878  1.00  0.00    -0.028 C 
ATOM      3  C   UNL     1      16.550 -29.870  22.312  1.00  0.00    -0.077 C 
ATOM      4  C   UNL     1      16.896 -30.432  23.671  1.00  0.00     0.039 C 
BRANCH   3   5
ATOM      5  C   UNL     1      17.664 -29.368  21.419  1.00  0.00     0.034 C 
BRANCH   5   6
ATOM      6  C   UNL     1      18.788 -30.405  21.316  1.00  0.00     0.032 C 
BRANCH   6   7
ATOM      7  C   UNL     1      18.314 -31.636  20.586  1.00  0.00    -0.028 C 
ATOM      8  C   UNL     1      19.738 -33.186  21.946  1.00  0.00     0.039 C 
ATOM      9  C   UNL     1      18.713 -32.895  20.875  1.00  0.00    -0.080 C 
ATOM     10  C   UNL     1      18.122 -34.034  20.083  1.00  0.00     0.039 C 
ENDBRANCH   6   7
ENDBRANCH   5   6
ENDBRANCH   3   5
ENDBRANCH   1   2
BRANCH   1  11
ATOM     11  C   UNL     1      13.373 -31.415  21.902  1.00  0.00     0.034 C 
BRANCH  11  12
ATOM     12  C   UNL     1      14.282 -32.620  21.778  1.00  0.00    -0.077 C 
ATOM     13  C   UNL     1      14.829 -33.144  22.900  1.00  0.00    -0.028 C 
ATOM     14  C   UNL     1      14.562 -33.191  20.409  1.00  0.00     0.039 C 
BRANCH  13  15
ATOM     15  C   UNL     1      15.791 -34.308  22.927  1.00  0.00     0.035 C 
BRANCH  15  16
ATOM     16  C   UNL     1      16.830 -34.152  24.043  1.00  0.00     0.079 C 
BRANCH  16  17
ATOM     17  C   UNL     1      17.387 -35.483  24.478  1.00  0.00     0.130 C 
ATOM     18  O   UNL     1      16.944 -36.023  25.480  1.00  0.00    -0.300 OA
ATOM     19  C   UNL     1      18.475 -36.161  23.702  1.00  0.00     0.087 C 
ENDBRANCH  16  17
ENDBRANCH  15  16
ENDBRANCH  13  15
ENDBRANCH  11  12
ENDBRANCH   1  11
TORSDOF 9
ENDMDL
MODEL 7
REMARK VINA RESULT:    -5.201      4.053      6.398
REMARK INTER + INTRA:         -10.250
REMARK INTER:                  -9.068
REMARK INTRA:                  -1.182
REMARK UNBOUND:                -2.314
REMARK SMILES CC(=O)CCC=C(C)CCC=C(C)CCC=C(C)C
REMARK SMILES IDX 10 1 11 2 12 3 13 4 14 5 15 6 16 7 18 8 17 9 19 10 9 11 7 12
REMARK SMILES IDX 6 13 8 14 5 15 4 16 2 17 3 18 1 19
REMARK H PARENT
REMARK Flexibility Score: inf
ROOT
ATOM      1  C   UNL     1      18.313 -31.247  21.509  1.00  0.00     0.032 C 
ENDROOT
BRANCH   1   2
ATOM      2  C   UNL     1      16.940 -31.855  21.365  1.00  0.00    -0.028 C 
ATOM      3  C   UNL     1      16.198 -32.320  22.397  1.00  0.00    -0.077 C 
ATOM      4  C   UNL     1      16.718 -32.322  23.816  1.00  0.00     0.039 C 
BRANCH   3   5
ATOM      5  C   UNL     1      14.818 -32.875  22.118  1.00  0.00     0.034 C 
BRANCH   5   6
ATOM      6  C   UNL     1      13.912 -31.799  21.509  1.00  0.00     0.032 C 
BRANCH   6   7
ATOM      7  C   UNL     1      13.166 -31.056  22.588  1.00  0.00    -0.028 C 
ATOM      8  C   UNL     1      14.743 -29.109  22.560  1.00  0.00     0.039 C 
ATOM      9  C   UNL     1      13.513 -29.835  23.053  1.00  0.00    -0.080 C 
ATOM     10  C   UNL     1      12.648 -29.196  24.109  1.00  0.00     0.039 C 
ENDBRANCH   6   7
ENDBRANCH   5   6
ENDBRANCH   3   5
ENDBRANCH   1   2
BRANCH   1  11
ATOM     11  C   UNL     1      18.313 -29.788  21.039  1.00  0.00     0.034 C 
BRANCH  11  12
ATOM     12  C   UNL     1      19.720 -29.230  21.013  1.00  0.00    -0.077 C 
ATOM     13  C   UNL     1      19.893 -27.906  20.791  1.00  0.00    -0.028 C 
ATOM     14  C   UNL     1      20.886 -30.166  21.220  1.00  0.00     0.039 C 
BRANCH  13  15
ATOM     15  C   UNL     1      21.234 -27.218  20.687  1.00  0.00     0.035 C 
BRANCH  15  16
ATOM     16  C   UNL     1      21.076 -25.719  20.407  1.00  0.00     0.079 C 
BRANCH  16  17
ATOM     17  C   UNL     1      22.410 -25.021  20.334  1.00  0.00     0.130 C 
ATOM     18  O   UNL     1      22.737 -24.251  21.223  1.00  0.00    -0.300 OA
ATOM     19  C   UNL     1      23.347 -25.256  19.187  1.00  0.00     0.087 C 
ENDBRANCH  16  17
ENDBRANCH  15  16
ENDBRANCH  13  15
ENDBRANCH  11  12
ENDBRANCH   1  11
TORSDOF 9
ENDMDL
MODEL 8
REMARK VINA RESULT:    -5.193      1.634      3.885
REMARK INTER + INTRA:         -10.239
REMARK INTER:                  -7.493
REMARK INTRA:                  -2.746
REMARK UNBOUND:                -2.314
REMARK SMILES CC(=O)CCC=C(C)CCC=C(C)CCC=C(C)C
REMARK SMILES IDX 10 1 11 2 12 3 13 4 14 5 15 6 16 7 18 8 17 9 19 10 9 11 7 12
REMARK SMILES IDX 6 13 8 14 5 15 4 16 2 17 3 18 1 19
REMARK H PARENT
REMARK Flexibility Score: inf
ROOT
ATOM      1  C   UNL     1      16.939 -34.097  19.503  1.00  0.00     0.032 C 
ENDROOT
BRANCH   1   2
ATOM      2  C   UNL     1      18.224 -33.914  20.272  1.00  0.00    -0.028 C 
ATOM      3  C   UNL     1      18.612 -32.753  20.847  1.00  0.00    -0.077 C 
ATOM      4  C   UNL     1      17.796 -31.488  20.719  1.00  0.00     0.039 C 
BRANCH   3   5
ATOM      5  C   UNL     1      19.912 -32.714  21.621  1.00  0.00     0.034 C 
BRANCH   5   6
ATOM      6  C   UNL     1      19.985 -33.875  22.619  1.00  0.00     0.032 C 
BRANCH   6   7
ATOM      7  C   UNL     1      19.106 -33.609  23.814  1.00  0.00    -0.028 C 
ATOM      8  C   UNL     1      18.003 -35.856  23.704  1.00  0.00     0.039 C 
ATOM      9  C   UNL     1      18.227 -34.499  24.329  1.00  0.00    -0.080 C 
ATOM     10  C   UNL     1      17.441 -34.105  25.554  1.00  0.00     0.039 C 
ENDBRANCH   6   7
ENDBRANCH   5   6
ENDBRANCH   3   5
ENDBRANCH   1   2
BRANCH   1  11
ATOM     11  C   UNL     1      15.878 -34.778  20.374  1.00  0.00     0.034 C 
BRANCH  11  12
ATOM     12  C   UNL     1      15.090 -33.755  21.163  1.00  0.00    -0.077 C 
ATOM     13  C   UNL     1      15.286 -33.667  22.499  1.00  0.00    -0.028 C 
ATOM     14  C   UNL     1      14.099 -32.873  20.441  1.00  0.00     0.039 C 
BRANCH  13  15
ATOM     15  C   UNL     1      14.538 -32.733  23.422  1.00  0.00     0.035 C 
BRANCH  15  16
ATOM     16  C   UNL     1      15.321 -31.437  23.664  1.00  0.00     0.079 C 
BRANCH  16  17
ATOM     17  C   UNL     1      14.613 -30.241  23.081  1.00  0.00     0.130 C 
ATOM     18  O   UNL     1      15.266 -29.335  22.587  1.00  0.00    -0.300 OA
ATOM     19  C   UNL     1      13.117 -30.141  23.096  1.00  0.00     0.087 C 
ENDBRANCH  16  17
ENDBRANCH  15  16
ENDBRANCH  13  15
ENDBRANCH  11  12
ENDBRANCH   1  11
TORSDOF 9
ENDMDL
MODEL 9
REMARK VINA RESULT:    -5.178      2.752      5.931
REMARK INTER + INTRA:         -10.215
REMARK INTER:                  -8.407
REMARK INTRA:                  -1.808
REMARK UNBOUND:                -2.314
REMARK SMILES CC(=O)CCC=C(C)CCC=C(C)CCC=C(C)C
REMARK SMILES IDX 10 1 11 2 12 3 13 4 14 5 15 6 16 7 18 8 17 9 19 10 9 11 7 12
REMARK SMILES IDX 6 13 8 14 5 15 4 16 2 17 3 18 1 19
REMARK H PARENT
REMARK Flexibility Score: inf
ROOT
ATOM      1  C   UNL     1      17.587 -31.215  23.844  1.00  0.00     0.032 C 
ENDROOT
BRANCH   1   2
ATOM      2  C   UNL     1      16.096 -31.258  23.618  1.00  0.00    -0.028 C 
ATOM      3  C   UNL     1      15.354 -32.390  23.624  1.00  0.00    -0.077 C 
ATOM      4  C   UNL     1      15.980 -33.753  23.809  1.00  0.00     0.039 C 
BRANCH   3   5
ATOM      5  C   UNL     1      13.858 -32.289  23.418  1.00  0.00     0.034 C 
BRANCH   5   6
ATOM      6  C   UNL     1      13.525 -31.235  22.356  1.00  0.00     0.032 C 
BRANCH   6   7
ATOM      7  C   UNL     1      12.374 -30.370  22.805  1.00  0.00    -0.028 C 
ATOM      8  C   UNL     1      13.852 -28.442  23.415  1.00  0.00     0.039 C 
ATOM      9  C   UNL     1      12.503 -29.104  23.260  1.00  0.00    -0.080 C 
ATOM     10  C   UNL     1      11.256 -28.346  23.637  1.00  0.00     0.039 C 
ENDBRANCH   6   7
ENDBRANCH   5   6
ENDBRANCH   3   5
ENDBRANCH   1   2
BRANCH   1  11
ATOM     11  C   UNL     1      18.322 -30.860  22.547  1.00  0.00     0.034 C 
BRANCH  11  12
ATOM     12  C   UNL     1      18.710 -32.110  21.787  1.00  0.00    -0.077 C 
ATOM     13  C   UNL     1      18.049 -32.413  20.646  1.00  0.00    -0.028 C 
ATOM     14  C   UNL     1      19.812 -32.989  22.331  1.00  0.00     0.039 C 
BRANCH  13  15
ATOM     15  C   UNL     1      18.290 -33.649  19.811  1.00  0.00     0.035 C 
BRANCH  15  16
ATOM     16  C   UNL     1      16.984 -34.399  19.529  1.00  0.00     0.079 C 
BRANCH  16  17
ATOM     17  C   UNL     1      17.007 -35.794  20.101  1.00  0.00     0.130 C 
ATOM     18  O   UNL     1      16.402 -36.689  19.531  1.00  0.00    -0.300 OA
ATOM     19  C   UNL     1      17.761 -36.105  21.359  1.00  0.00     0.087 C 
ENDBRANCH  16  17
ENDBRANCH  15  16
ENDBRANCH  13  15
ENDBRANCH  11  12
ENDBRANCH   1  11
TORSDOF 9
ENDMDL
