MODEL 1
REMARK VINA RESULT:    -3.356      0.000      0.000
REMARK INTER + INTRA:          -6.364
REMARK INTER:                  -5.122
REMARK INTRA:                  -1.242
REMARK UNBOUND:                -1.242
REMARK SMILES CCCCCCCCCCC(=O)[O-]
REMARK SMILES IDX 7 1 8 2 9 3 10 4 11 5 12 6 13 7 6 8 5 9 4 10 3 11 2 12 1 13
REMARK H PARENT
REMARK Flexibility Score: inf
ROOT
ATOM      1  C   UNL     1     152.489 152.199 159.917  1.00  0.00     0.000 C 
ENDROOT
BRANCH   1   2
ATOM      2  C   UNL     1     151.355 152.736 159.023  1.00  0.00     0.000 C 
BRANCH   2   3
ATOM      3  C   UNL     1     151.492 154.234 158.718  1.00  0.00     0.006 C 
BRANCH   3   4
ATOM      4  C   UNL     1     151.223 154.519 157.237  1.00  0.00     0.053 C 
BRANCH   4   5
ATOM      5  C   UNL     1     149.782 154.284 156.912  1.00  0.00     0.041 C 
ATOM      6  O   UNL     1     149.456 153.392 156.084  1.00  0.00    -0.550 OA
ATOM      7  O   UNL     1     148.801 155.082 157.486  1.00  0.00    -0.550 OA
ENDBRANCH   4   5
ENDBRANCH   3   4
ENDBRANCH   2   3
ENDBRANCH   1   2
BRANCH   1   8
ATOM      8  C   UNL     1     153.190 150.935 159.389  1.00  0.00     0.000 C 
BRANCH   8   9
ATOM      9  C   UNL     1     153.417 150.967 157.867  1.00  0.00    -0.000 C 
BRANCH   9  10
ATOM     10  C   UNL     1     154.812 151.505 157.500  1.00  0.00    -0.000 C 
BRANCH  10  11
ATOM     11  C   UNL     1     154.819 153.021 157.198  1.00  0.00    -0.000 C 
BRANCH  11  12
ATOM     12  C   UNL     1     155.422 153.867 158.332  1.00  0.00    -0.003 C 
ATOM     13  C   UNL     1     154.972 155.326 158.287  1.00  0.00     0.004 C 
ENDBRANCH  11  12
ENDBRANCH  10  11
ENDBRANCH   9  10
ENDBRANCH   8   9
ENDBRANCH   1   8
TORSDOF 9
ENDMDL
MODEL 2
REMARK VINA RESULT:    -3.323      3.233      4.748
REMARK INTER + INTRA:          -6.313
REMARK INTER:                  -5.015
REMARK INTRA:                  -1.298
REMARK UNBOUND:                -1.242
REMARK SMILES CCCCCCCCCCC(=O)[O-]
REMARK SMILES IDX 7 1 8 2 9 3 10 4 11 5 12 6 13 7 6 8 5 9 4 10 3 11 2 12 1 13
REMARK H PARENT
REMARK Flexibility Score: inf
ROOT
ATOM      1  C   UNL     1     155.226 152.664 157.887  1.00  0.00     0.000 C 
ENDROOT
BRANCH   1   2
ATOM      2  C   UNL     1     154.627 153.553 156.782  1.00  0.00     0.000 C 
BRANCH   2   3
ATOM      3  C   UNL     1     154.366 154.993 157.247  1.00  0.00     0.006 C 
BRANCH   3   4
ATOM      4  C   UNL     1     154.850 155.201 158.685  1.00  0.00     0.053 C 
BRANCH   4   5
ATOM      5  C   UNL     1     156.009 156.145 158.716  1.00  0.00     0.041 C 
ATOM      6  O   UNL     1     157.162 155.722 158.999  1.00  0.00    -0.550 OA
ATOM      7  O   UNL     1     155.811 157.499 158.482  1.00  0.00    -0.550 OA
ENDBRANCH   4   5
ENDBRANCH   3   4
ENDBRANCH   2   3
ENDBRANCH   1   2
BRANCH   1   8
ATOM      8  C   UNL     1     154.814 151.182 157.823  1.00  0.00     0.000 C 
BRANCH   8   9
ATOM      9  C   UNL     1     153.359 150.945 158.265  1.00  0.00    -0.000 C 
BRANCH   9  10
ATOM     10  C   UNL     1     153.089 151.481 159.681  1.00  0.00    -0.000 C 
BRANCH  10  11
ATOM     11  C   UNL     1     152.095 152.664 159.705  1.00  0.00    -0.000 C 
BRANCH  11  12
ATOM     12  C   UNL     1     151.306 152.826 158.395  1.00  0.00    -0.003 C 
ATOM     13  C   UNL     1     150.817 154.256 158.169  1.00  0.00     0.004 C 
ENDBRANCH  11  12
ENDBRANCH  10  11
ENDBRANCH   9  10
ENDBRANCH   8   9
ENDBRANCH   1   8
TORSDOF 9
ENDMDL
MODEL 3
REMARK VINA RESULT:    -3.119      8.831     10.900
REMARK INTER + INTRA:          -6.001
REMARK INTER:                  -4.963
REMARK INTRA:                  -1.039
REMARK UNBOUND:                -1.242
REMARK SMILES CCCCCCCCCCC(=O)[O-]
REMARK SMILES IDX 7 1 8 2 9 3 10 4 11 5 12 6 13 7 6 8 5 9 4 10 3 11 2 12 1 13
REMARK H PARENT
REMARK Flexibility Score: inf
ROOT
ATOM      1  C   UNL     1     150.455 155.755 146.804  1.00  0.00     0.000 C 
ENDROOT
BRANCH   1   2
ATOM      2  C   UNL     1     151.208 155.269 148.057  1.00  0.00     0.000 C 
BRANCH   2   3
ATOM      3  C   UNL     1     151.835 156.417 148.861  1.00  0.00     0.006 C 
BRANCH   3   4
ATOM      4  C   UNL     1     150.770 157.169 149.665  1.00  0.00     0.053 C 
BRANCH   4   5
ATOM      5  C   UNL     1     150.457 156.438 150.931  1.00  0.00     0.041 C 
ATOM      6  O   UNL     1     149.313 155.941 151.109  1.00  0.00    -0.550 OA
ATOM      7  O   UNL     1     151.411 156.347 151.936  1.00  0.00    -0.550 OA
ENDBRANCH   4   5
ENDBRANCH   3   4
ENDBRANCH   2   3
ENDBRANCH   1   2
BRANCH   1   8
ATOM      8  C   UNL     1     149.062 155.133 146.602  1.00  0.00     0.000 C 
BRANCH   8   9
ATOM      9  C   UNL     1     148.397 154.708 147.923  1.00  0.00    -0.000 C 
BRANCH   9  10
ATOM     10  C   UNL     1     147.935 153.241 147.895  1.00  0.00    -0.000 C 
BRANCH  10  11
ATOM     11  C   UNL     1     148.431 152.471 146.650  1.00  0.00    -0.000 C 
BRANCH  11  12
ATOM     12  C   UNL     1     149.327 151.269 146.990  1.00  0.00    -0.003 C 
ATOM     13  C   UNL     1     150.700 151.683 147.518  1.00  0.00     0.004 C 
ENDBRANCH  11  12
ENDBRANCH  10  11
ENDBRANCH   9  10
ENDBRANCH   8   9
ENDBRANCH   1   8
TORSDOF 9
ENDMDL
MODEL 4
REMARK VINA RESULT:    -3.101      2.560      4.081
REMARK INTER + INTRA:          -5.974
REMARK INTER:                  -4.702
REMARK INTRA:                  -1.272
REMARK UNBOUND:                -1.242
REMARK SMILES CCCCCCCCCCC(=O)[O-]
REMARK SMILES IDX 7 1 8 2 9 3 10 4 11 5 12 6 13 7 6 8 5 9 4 10 3 11 2 12 1 13
REMARK H PARENT
REMARK Flexibility Score: inf
ROOT
ATOM      1  C   UNL     1     154.238 153.443 159.277  1.00  0.00     0.000 C 
ENDROOT
BRANCH   1   2
ATOM      2  C   UNL     1     155.156 153.192 158.066  1.00  0.00     0.000 C 
BRANCH   2   3
ATOM      3  C   UNL     1     154.551 153.684 156.743  1.00  0.00     0.006 C 
BRANCH   3   4
ATOM      4  C   UNL     1     154.884 155.160 156.504  1.00  0.00     0.053 C 
BRANCH   4   5
ATOM      5  C   UNL     1     154.221 155.650 155.256  1.00  0.00     0.041 C 
ATOM      6  O   UNL     1     152.964 155.703 155.185  1.00  0.00    -0.550 OA
ATOM      7  O   UNL     1     154.988 156.003 154.154  1.00  0.00    -0.550 OA
ENDBRANCH   4   5
ENDBRANCH   3   4
ENDBRANCH   2   3
ENDBRANCH   1   2
BRANCH   1   8
ATOM      8  C   UNL     1     153.251 152.304 159.592  1.00  0.00     0.000 C 
BRANCH   8   9
ATOM      9  C   UNL     1     151.784 152.767 159.599  1.00  0.00    -0.000 C 
BRANCH   9  10
ATOM     10  C   UNL     1     151.187 152.824 158.182  1.00  0.00    -0.000 C 
BRANCH  10  11
ATOM     11  C   UNL     1     150.915 154.265 157.694  1.00  0.00    -0.000 C 
BRANCH  11  12
ATOM     12  C   UNL     1     150.983 155.314 158.816  1.00  0.00    -0.003 C 
ATOM     13  C   UNL     1     152.036 156.390 158.560  1.00  0.00     0.004 C 
ENDBRANCH  11  12
ENDBRANCH  10  11
ENDBRANCH   9  10
ENDBRANCH   8   9
ENDBRANCH   1   8
TORSDOF 9
ENDMDL
MODEL 5
REMARK VINA RESULT:    -3.094      1.445      3.324
REMARK INTER + INTRA:          -5.963
REMARK INTER:                  -4.927
REMARK INTRA:                  -1.036
REMARK UNBOUND:                -1.242
REMARK SMILES CCCCCCCCCCC(=O)[O-]
REMARK SMILES IDX 7 1 8 2 9 3 10 4 11 5 12 6 13 7 6 8 5 9 4 10 3 11 2 12 1 13
REMARK H PARENT
REMARK Flexibility Score: inf
ROOT
ATOM      1  C   UNL     1     155.364 153.677 158.507  1.00  0.00     0.000 C 
ENDROOT
BRANCH   1   2
ATOM      2  C   UNL     1     155.205 155.203 158.638  1.00  0.00     0.000 C 
BRANCH   2   3
ATOM      3  C   UNL     1     154.116 155.772 157.717  1.00  0.00     0.006 C 
BRANCH   3   4
ATOM      4  C   UNL     1     152.806 155.983 158.482  1.00  0.00     0.053 C 
BRANCH   4   5
ATOM      5  C   UNL     1     151.638 155.911 157.550  1.00  0.00     0.041 C 
ATOM      6  O   UNL     1     150.932 156.933 157.339  1.00  0.00    -0.550 OA
ATOM      7  O   UNL     1     151.298 154.704 156.954  1.00  0.00    -0.550 OA
ENDBRANCH   4   5
ENDBRANCH   3   4
ENDBRANCH   2   3
ENDBRANCH   1   2
BRANCH   1   8
ATOM      8  C   UNL     1     154.839 153.079 157.189  1.00  0.00     0.000 C 
BRANCH   8   9
ATOM      9  C   UNL     1     154.480 151.587 157.308  1.00  0.00    -0.000 C 
BRANCH   9  10
ATOM     10  C   UNL     1     153.125 151.370 158.004  1.00  0.00    -0.000 C 
BRANCH  10  11
ATOM     11  C   UNL     1     153.262 150.876 159.462  1.00  0.00    -0.000 C 
BRANCH  11  12
ATOM     12  C   UNL     1     152.813 151.914 160.504  1.00  0.00    -0.003 C 
ATOM     13  C   UNL     1     151.716 152.841 159.985  1.00  0.00     0.004 C 
ENDBRANCH  11  12
ENDBRANCH  10  11
ENDBRANCH   9  10
ENDBRANCH   8   9
ENDBRANCH   1   8
TORSDOF 9
ENDMDL
MODEL 6
REMARK VINA RESULT:    -3.092      1.433      2.026
REMARK INTER + INTRA:          -5.961
REMARK INTER:                  -4.856
REMARK INTRA:                  -1.106
REMARK UNBOUND:                -1.242
REMARK SMILES CCCCCCCCCCC(=O)[O-]
REMARK SMILES IDX 7 1 8 2 9 3 10 4 11 5 12 6 13 7 6 8 5 9 4 10 3 11 2 12 1 13
REMARK H PARENT
REMARK Flexibility Score: inf
ROOT
ATOM      1  C   UNL     1     151.771 152.664 159.534  1.00  0.00     0.000 C 
ENDROOT
BRANCH   1   2
ATOM      2  C   UNL     1     151.065 152.865 158.180  1.00  0.00     0.000 C 
BRANCH   2   3
ATOM      3  C   UNL     1     150.998 154.339 157.753  1.00  0.00     0.006 C 
BRANCH   3   4
ATOM      4  C   UNL     1     151.357 155.264 158.919  1.00  0.00     0.053 C 
BRANCH   4   5
ATOM      5  C   UNL     1     150.203 156.154 159.257  1.00  0.00     0.041 C 
ATOM      6  O   UNL     1     150.243 156.880 160.286  1.00  0.00    -0.550 OA
ATOM      7  O   UNL     1     149.064 156.146 158.463  1.00  0.00    -0.550 OA
ENDBRANCH   4   5
ENDBRANCH   3   4
ENDBRANCH   2   3
ENDBRANCH   1   2
BRANCH   1   8
ATOM      8  C   UNL     1     153.085 151.864 159.469  1.00  0.00     0.000 C 
BRANCH   8   9
ATOM      9  C   UNL     1     153.457 151.437 158.038  1.00  0.00    -0.000 C 
BRANCH   9  10
ATOM     10  C   UNL     1     154.702 152.176 157.518  1.00  0.00    -0.000 C 
BRANCH  10  11
ATOM     11  C   UNL     1     155.142 153.343 158.430  1.00  0.00    -0.000 C 
BRANCH  11  12
ATOM     12  C   UNL     1     154.867 154.730 157.826  1.00  0.00    -0.003 C 
ATOM     13  C   UNL     1     155.528 155.862 158.610  1.00  0.00     0.004 C 
ENDBRANCH  11  12
ENDBRANCH  10  11
ENDBRANCH   9  10
ENDBRANCH   8   9
ENDBRANCH   1   8
TORSDOF 9
ENDMDL
MODEL 7
REMARK VINA RESULT:    -3.084      2.833      4.384
REMARK INTER + INTRA:          -5.949
REMARK INTER:                  -4.928
REMARK INTRA:                  -1.021
REMARK UNBOUND:                -1.242
REMARK SMILES CCCCCCCCCCC(=O)[O-]
REMARK SMILES IDX 7 1 8 2 9 3 10 4 11 5 12 6 13 7 6 8 5 9 4 10 3 11 2 12 1 13
REMARK H PARENT
REMARK Flexibility Score: inf
ROOT
ATOM      1  C   UNL     1     155.307 154.064 158.269  1.00  0.00     0.000 C 
ENDROOT
BRANCH   1   2
ATOM      2  C   UNL     1     154.400 155.273 158.565  1.00  0.00     0.000 C 
BRANCH   2   3
ATOM      3  C   UNL     1     153.838 155.926 157.294  1.00  0.00     0.006 C 
BRANCH   3   4
ATOM      4  C   UNL     1     154.914 156.747 156.577  1.00  0.00     0.053 C 
BRANCH   4   5
ATOM      5  C   UNL     1     155.069 156.285 155.163  1.00  0.00     0.041 C 
ATOM      6  O   UNL     1     156.095 156.602 154.503  1.00  0.00    -0.550 OA
ATOM      7  O   UNL     1     154.061 155.547 154.557  1.00  0.00    -0.550 OA
ENDBRANCH   4   5
ENDBRANCH   3   4
ENDBRANCH   2   3
ENDBRANCH   1   2
BRANCH   1   8
ATOM      8  C   UNL     1     154.809 153.139 157.144  1.00  0.00     0.000 C 
BRANCH   8   9
ATOM      9  C   UNL     1     154.790 151.655 157.553  1.00  0.00    -0.000 C 
BRANCH   9  10
ATOM     10  C   UNL     1     153.387 151.189 157.978  1.00  0.00    -0.000 C 
BRANCH  10  11
ATOM     11  C   UNL     1     153.268 150.921 159.495  1.00  0.00    -0.000 C 
BRANCH  11  12
ATOM     12  C   UNL     1     152.618 152.078 160.272  1.00  0.00    -0.003 C 
ATOM     13  C   UNL     1     151.691 152.929 159.406  1.00  0.00     0.004 C 
ENDBRANCH  11  12
ENDBRANCH  10  11
ENDBRANCH   9  10
ENDBRANCH   8   9
ENDBRANCH   1   8
TORSDOF 9
ENDMDL
MODEL 8
REMARK VINA RESULT:    -2.991      4.113      5.785
REMARK INTER + INTRA:          -5.806
REMARK INTER:                  -4.832
REMARK INTRA:                  -0.975
REMARK UNBOUND:                -1.242
REMARK SMILES CCCCCCCCCCC(=O)[O-]
REMARK SMILES IDX 7 1 8 2 9 3 10 4 11 5 12 6 13 7 6 8 5 9 4 10 3 11 2 12 1 13
REMARK H PARENT
REMARK Flexibility Score: inf
ROOT
ATOM      1  C   UNL     1     154.603 153.757 156.760  1.00  0.00     0.000 C 
ENDROOT
BRANCH   1   2
ATOM      2  C   UNL     1     154.719 155.033 157.613  1.00  0.00     0.000 C 
BRANCH   2   3
ATOM      3  C   UNL     1     155.878 154.977 158.620  1.00  0.00     0.006 C 
BRANCH   3   4
ATOM      4  C   UNL     1     156.372 156.385 158.966  1.00  0.00     0.053 C 
BRANCH   4   5
ATOM      5  C   UNL     1     157.835 156.364 159.277  1.00  0.00     0.041 C 
ATOM      6  O   UNL     1     158.227 156.354 160.475  1.00  0.00    -0.550 OA
ATOM      7  O   UNL     1     158.765 156.406 158.248  1.00  0.00    -0.550 OA
ENDBRANCH   4   5
ENDBRANCH   3   4
ENDBRANCH   2   3
ENDBRANCH   1   2
BRANCH   1   8
ATOM      8  C   UNL     1     154.900 152.445 157.509  1.00  0.00     0.000 C 
BRANCH   8   9
ATOM      9  C   UNL     1     153.625 151.723 157.982  1.00  0.00    -0.000 C 
BRANCH   9  10
ATOM     10  C   UNL     1     153.286 152.046 159.448  1.00  0.00    -0.000 C 
BRANCH  10  11
ATOM     11  C   UNL     1     151.940 152.786 159.612  1.00  0.00    -0.000 C 
BRANCH  11  12
ATOM     12  C   UNL     1     151.188 152.990 158.286  1.00  0.00    -0.003 C 
ATOM     13  C   UNL     1     150.976 154.463 157.944  1.00  0.00     0.004 C 
ENDBRANCH  11  12
ENDBRANCH  10  11
ENDBRANCH   9  10
ENDBRANCH   8   9
ENDBRANCH   1   8
TORSDOF 9
ENDMDL
