MODEL 1
REMARK VINA RESULT:    -3.602      0.000      0.000
REMARK INTER + INTRA:          -6.571
REMARK INTER:                  -5.076
REMARK INTRA:                  -1.495
REMARK UNBOUND:                -1.495
REMARK SMILES C=CC(=C)CCC=C(C)CCC=C(C)C
REMARK SMILES IDX 8 1 7 2 9 3 10 4 11 5 12 6 14 7 13 8 15 9 6 10 5 11 3 12
REMARK SMILES IDX 4 13 2 14 1 15
REMARK H PARENT
REMARK Flexibility Score: inf
ROOT
ATOM      1  C   UNL     1     146.827 146.410 132.007  1.00  0.00    -0.077 C 
ATOM      2  C   UNL     1     147.521 145.310 132.374  1.00  0.00    -0.028 C 
ATOM      3  C   UNL     1     146.116 146.499 130.678  1.00  0.00     0.039 C 
ENDROOT
BRANCH   1   4
ATOM      4  C   UNL     1     146.765 147.591 132.956  1.00  0.00     0.034 C 
BRANCH   4   5
ATOM      5  C   UNL     1     145.329 148.101 133.142  1.00  0.00     0.032 C 
BRANCH   5   6
ATOM      6  C   UNL     1     144.461 147.084 133.845  1.00  0.00    -0.028 C 
ATOM      7  C   UNL     1     142.620 145.480 134.121  1.00  0.00     0.039 C 
ATOM      8  C   UNL     1     143.426 146.430 133.272  1.00  0.00    -0.080 C 
ATOM      9  C   UNL     1     143.072 146.610 131.815  1.00  0.00     0.039 C 
ENDBRANCH   5   6
ENDBRANCH   4   5
ENDBRANCH   1   4
BRANCH   2  10
ATOM     10  C   UNL     1     147.626 144.049 131.551  1.00  0.00     0.032 C 
BRANCH  10  11
ATOM     11  C   UNL     1     146.979 142.844 132.248  1.00  0.00     0.039 C 
BRANCH  11  12
ATOM     12  C   UNL     1     145.630 143.190 132.847  1.00  0.00    -0.055 C 
ATOM     13  C   UNL     1     145.578 143.597 134.122  1.00  0.00     0.012 C 
BRANCH  12  14
ATOM     14  C   UNL     1     144.362 143.137 132.070  1.00  0.00    -0.005 C 
ATOM     15  C   UNL     1     144.282 143.263 130.745  1.00  0.00     0.009 C 
ENDBRANCH  12  14
ENDBRANCH  11  12
ENDBRANCH  10  11
ENDBRANCH   2  10
TORSDOF 7
ENDMDL
MODEL 2
REMARK VINA RESULT:    -3.567      1.069      4.689
REMARK INTER + INTRA:          -6.522
REMARK INTER:                  -5.104
REMARK INTRA:                  -1.418
REMARK UNBOUND:                -1.495
REMARK SMILES C=CC(=C)CCC=C(C)CCC=C(C)C
REMARK SMILES IDX 8 1 7 2 9 3 10 4 11 5 12 6 14 7 13 8 15 9 6 10 5 11 3 12
REMARK SMILES IDX 4 13 2 14 1 15
REMARK H PARENT
REMARK Flexibility Score: inf
ROOT
ATOM      1  C   UNL     1     143.926 144.120 132.060  1.00  0.00    -0.077 C 
ATOM      2  C   UNL     1     143.296 145.240 132.477  1.00  0.00    -0.028 C 
ATOM      3  C   UNL     1     144.542 144.015 130.685  1.00  0.00     0.039 C 
ENDROOT
BRANCH   1   4
ATOM      4  C   UNL     1     144.015 142.933 132.999  1.00  0.00     0.034 C 
BRANCH   4   5
ATOM      5  C   UNL     1     145.470 142.569 133.326  1.00  0.00     0.032 C 
BRANCH   5   6
ATOM      6  C   UNL     1     146.237 143.755 133.862  1.00  0.00    -0.028 C 
ATOM      7  C   UNL     1     147.993 145.471 133.937  1.00  0.00     0.039 C 
ATOM      8  C   UNL     1     147.299 144.323 133.250  1.00  0.00    -0.080 C 
ATOM      9  C   UNL     1     147.794 143.853 131.903  1.00  0.00     0.039 C 
ENDBRANCH   5   6
ENDBRANCH   4   5
ENDBRANCH   1   4
BRANCH   2  10
ATOM     10  C   UNL     1     143.176 146.508 131.667  1.00  0.00     0.032 C 
BRANCH  10  11
ATOM     11  C   UNL     1     143.660 147.742 132.443  1.00  0.00     0.039 C 
BRANCH  11  12
ATOM     12  C   UNL     1     145.122 147.633 132.831  1.00  0.00    -0.055 C 
ATOM     13  C   UNL     1     145.435 147.495 134.125  1.00  0.00     0.012 C 
BRANCH  12  14
ATOM     14  C   UNL     1     146.225 147.632 131.832  1.00  0.00    -0.005 C 
ATOM     15  C   UNL     1     146.196 146.971 130.674  1.00  0.00     0.009 C 
ENDBRANCH  12  14
ENDBRANCH  11  12
ENDBRANCH  10  11
ENDBRANCH   2  10
TORSDOF 7
ENDMDL
MODEL 3
REMARK VINA RESULT:    -3.478      1.077      3.357
REMARK INTER + INTRA:          -6.396
REMARK INTER:                  -5.128
REMARK INTRA:                  -1.267
REMARK UNBOUND:                -1.495
REMARK SMILES C=CC(=C)CCC=C(C)CCC=C(C)C
REMARK SMILES IDX 8 1 7 2 9 3 10 4 11 5 12 6 14 7 13 8 15 9 6 10 5 11 3 12
REMARK SMILES IDX 4 13 2 14 1 15
REMARK H PARENT
REMARK Flexibility Score: inf
ROOT
ATOM      1  C   UNL     1     144.606 147.044 132.403  1.00  0.00    -0.077 C 
ATOM      2  C   UNL     1     144.828 146.347 131.266  1.00  0.00    -0.028 C 
ATOM      3  C   UNL     1     145.686 147.877 133.053  1.00  0.00     0.039 C 
ENDROOT
BRANCH   1   4
ATOM      4  C   UNL     1     143.235 146.985 133.046  1.00  0.00     0.034 C 
BRANCH   4   5
ATOM      5  C   UNL     1     142.752 145.540 133.235  1.00  0.00     0.032 C 
BRANCH   5   6
ATOM      6  C   UNL     1     143.812 144.677 133.879  1.00  0.00    -0.028 C 
ATOM      7  C   UNL     1     145.335 142.765 134.123  1.00  0.00     0.039 C 
ATOM      8  C   UNL     1     144.318 143.548 133.334  1.00  0.00    -0.080 C 
ATOM      9  C   UNL     1     143.909 143.067 131.963  1.00  0.00     0.039 C 
ENDBRANCH   5   6
ENDBRANCH   4   5
ENDBRANCH   1   4
BRANCH   2  10
ATOM     10  C   UNL     1     146.126 146.354 130.496  1.00  0.00     0.032 C 
BRANCH  10  11
ATOM     11  C   UNL     1     146.723 144.947 130.349  1.00  0.00     0.039 C 
BRANCH  11  12
ATOM     12  C   UNL     1     147.439 144.498 131.609  1.00  0.00    -0.055 C 
ATOM     13  C   UNL     1     147.925 143.252 131.661  1.00  0.00     0.012 C 
BRANCH  12  14
ATOM     14  C   UNL     1     147.661 145.394 132.776  1.00  0.00    -0.005 C 
ATOM     15  C   UNL     1     147.674 144.990 134.047  1.00  0.00     0.009 C 
ENDBRANCH  12  14
ENDBRANCH  11  12
ENDBRANCH  10  11
ENDBRANCH   2  10
TORSDOF 7
ENDMDL
MODEL 4
REMARK VINA RESULT:    -3.463      1.178      3.749
REMARK INTER + INTRA:          -6.375
REMARK INTER:                  -5.200
REMARK INTRA:                  -1.175
REMARK UNBOUND:                -1.495
REMARK SMILES C=CC(=C)CCC=C(C)CCC=C(C)C
REMARK SMILES IDX 8 1 7 2 9 3 10 4 11 5 12 6 14 7 13 8 15 9 6 10 5 11 3 12
REMARK SMILES IDX 4 13 2 14 1 15
REMARK H PARENT
REMARK Flexibility Score: inf
ROOT
ATOM      1  C   UNL     1     146.156 143.803 132.348  1.00  0.00    -0.077 C 
ATOM      2  C   UNL     1     145.944 144.507 131.215  1.00  0.00    -0.028 C 
ATOM      3  C   UNL     1     145.063 142.987 132.998  1.00  0.00     0.039 C 
ENDROOT
BRANCH   1   4
ATOM      4  C   UNL     1     147.529 143.835 132.989  1.00  0.00     0.034 C 
BRANCH   4   5
ATOM      5  C   UNL     1     148.002 145.271 133.257  1.00  0.00     0.032 C 
BRANCH   5   6
ATOM      6  C   UNL     1     146.915 146.110 133.885  1.00  0.00    -0.028 C 
ATOM      7  C   UNL     1     145.369 148.005 134.125  1.00  0.00     0.039 C 
ATOM      8  C   UNL     1     146.419 147.249 133.351  1.00  0.00    -0.080 C 
ATOM      9  C   UNL     1     146.873 147.769 132.008  1.00  0.00     0.039 C 
ENDBRANCH   5   6
ENDBRANCH   4   5
ENDBRANCH   1   4
BRANCH   2  10
ATOM     10  C   UNL     1     144.643 144.526 130.448  1.00  0.00     0.032 C 
BRANCH  10  11
ATOM     11  C   UNL     1     144.038 145.934 130.365  1.00  0.00     0.039 C 
BRANCH  11  12
ATOM     12  C   UNL     1     143.303 146.314 131.636  1.00  0.00    -0.055 C 
ATOM     13  C   UNL     1     142.762 147.535 131.725  1.00  0.00     0.012 C 
BRANCH  12  14
ATOM     14  C   UNL     1     143.121 145.375 132.776  1.00  0.00    -0.005 C 
ATOM     15  C   UNL     1     142.888 145.750 134.034  1.00  0.00     0.009 C 
ENDBRANCH  12  14
ENDBRANCH  11  12
ENDBRANCH  10  11
ENDBRANCH   2  10
TORSDOF 7
ENDMDL
MODEL 5
REMARK VINA RESULT:    -3.450      1.135      3.297
REMARK INTER + INTRA:          -6.357
REMARK INTER:                  -4.879
REMARK INTRA:                  -1.477
REMARK UNBOUND:                -1.495
REMARK SMILES C=CC(=C)CCC=C(C)CCC=C(C)C
REMARK SMILES IDX 8 1 7 2 9 3 10 4 11 5 12 6 14 7 13 8 15 9 6 10 5 11 3 12
REMARK SMILES IDX 4 13 2 14 1 15
REMARK H PARENT
REMARK Flexibility Score: inf
ROOT
ATOM      1  C   UNL     1     146.490 143.905 132.144  1.00  0.00    -0.077 C 
ATOM      2  C   UNL     1     145.365 143.283 132.560  1.00  0.00    -0.028 C 
ATOM      3  C   UNL     1     146.630 144.448 130.742  1.00  0.00     0.039 C 
ENDROOT
BRANCH   1   4
ATOM      4  C   UNL     1     147.647 144.058 133.112  1.00  0.00     0.034 C 
BRANCH   4   5
ATOM      5  C   UNL     1     148.027 145.530 133.321  1.00  0.00     0.032 C 
BRANCH   5   6
ATOM      6  C   UNL     1     146.856 146.346 133.815  1.00  0.00    -0.028 C 
ATOM      7  C   UNL     1     145.212 148.172 133.829  1.00  0.00     0.039 C 
ATOM      8  C   UNL     1     146.354 147.430 133.183  1.00  0.00    -0.080 C 
ATOM      9  C   UNL     1     146.891 147.902 131.853  1.00  0.00     0.039 C 
ENDBRANCH   5   6
ENDBRANCH   4   5
ENDBRANCH   1   4
BRANCH   2  10
ATOM     10  C   UNL     1     144.123 143.104 131.720  1.00  0.00     0.032 C 
BRANCH  10  11
ATOM     11  C   UNL     1     142.886 143.743 132.368  1.00  0.00     0.039 C 
BRANCH  11  12
ATOM     12  C   UNL     1     143.148 145.170 132.810  1.00  0.00    -0.055 C 
ATOM     13  C   UNL     1     143.408 145.404 134.102  1.00  0.00     0.012 C 
BRANCH  12  14
ATOM     14  C   UNL     1     143.169 146.319 131.864  1.00  0.00    -0.005 C 
ATOM     15  C   UNL     1     143.778 146.310 130.678  1.00  0.00     0.009 C 
ENDBRANCH  12  14
ENDBRANCH  11  12
ENDBRANCH  10  11
ENDBRANCH   2  10
TORSDOF 7
ENDMDL
MODEL 6
REMARK VINA RESULT:    -3.359      1.196      3.376
REMARK INTER + INTRA:          -6.228
REMARK INTER:                  -4.697
REMARK INTRA:                  -1.531
REMARK UNBOUND:                -1.495
REMARK SMILES C=CC(=C)CCC=C(C)CCC=C(C)C
REMARK SMILES IDX 8 1 7 2 9 3 10 4 11 5 12 6 14 7 13 8 15 9 6 10 5 11 3 12
REMARK SMILES IDX 4 13 2 14 1 15
REMARK H PARENT
REMARK Flexibility Score: inf
ROOT
ATOM      1  C   UNL     1     143.625 144.271 132.689  1.00  0.00    -0.077 C 
ATOM      2  C   UNL     1     144.479 144.254 133.737  1.00  0.00    -0.028 C 
ATOM      3  C   UNL     1     143.537 143.123 131.712  1.00  0.00     0.039 C 
ENDROOT
BRANCH   1   4
ATOM      4  C   UNL     1     142.733 145.480 132.487  1.00  0.00     0.034 C 
BRANCH   4   5
ATOM      5  C   UNL     1     143.394 146.770 132.991  1.00  0.00     0.032 C 
BRANCH   5   6
ATOM      6  C   UNL     1     144.593 147.149 132.154  1.00  0.00    -0.028 C 
ATOM      7  C   UNL     1     146.825 148.057 131.674  1.00  0.00     0.039 C 
ATOM      8  C   UNL     1     145.734 147.682 132.645  1.00  0.00    -0.080 C 
ATOM      9  C   UNL     1     145.949 147.894 134.124  1.00  0.00     0.039 C 
ENDBRANCH   5   6
ENDBRANCH   4   5
ENDBRANCH   1   4
BRANCH   2  10
ATOM     10  C   UNL     1     145.386 143.098 134.084  1.00  0.00     0.032 C 
BRANCH  10  11
ATOM     11  C   UNL     1     146.511 142.913 133.055  1.00  0.00     0.039 C 
BRANCH  11  12
ATOM     12  C   UNL     1     147.227 144.216 132.755  1.00  0.00    -0.055 C 
ATOM     13  C   UNL     1     147.828 144.866 133.759  1.00  0.00     0.012 C 
BRANCH  12  14
ATOM     14  C   UNL     1     147.326 144.787 131.384  1.00  0.00    -0.005 C 
ATOM     15  C   UNL     1     146.475 144.523 130.392  1.00  0.00     0.009 C 
ENDBRANCH  12  14
ENDBRANCH  11  12
ENDBRANCH  10  11
ENDBRANCH   2  10
TORSDOF 7
ENDMDL
MODEL 7
REMARK VINA RESULT:    -3.270      1.151      2.487
REMARK INTER + INTRA:          -6.103
REMARK INTER:                  -5.506
REMARK INTRA:                  -0.597
REMARK UNBOUND:                -1.495
REMARK SMILES C=CC(=C)CCC=C(C)CCC=C(C)C
REMARK SMILES IDX 8 1 7 2 9 3 10 4 11 5 12 6 14 7 13 8 15 9 6 10 5 11 3 12
REMARK SMILES IDX 4 13 2 14 1 15
REMARK H PARENT
REMARK Flexibility Score: inf
ROOT
ATOM      1  C   UNL     1     146.694 145.089 133.385  1.00  0.00    -0.077 C 
ATOM      2  C   UNL     1     145.649 144.384 133.872  1.00  0.00    -0.028 C 
ATOM      3  C   UNL     1     147.620 144.523 132.334  1.00  0.00     0.039 C 
ENDROOT
BRANCH   1   4
ATOM      4  C   UNL     1     146.947 146.488 133.911  1.00  0.00     0.034 C 
BRANCH   4   5
ATOM      5  C   UNL     1     145.640 147.265 134.125  1.00  0.00     0.032 C 
BRANCH   5   6
ATOM      6  C   UNL     1     144.812 147.323 132.863  1.00  0.00    -0.028 C 
ATOM      7  C   UNL     1     142.894 146.887 131.391  1.00  0.00     0.039 C 
ATOM      8  C   UNL     1     143.575 146.793 132.732  1.00  0.00    -0.080 C 
ATOM      9  C   UNL     1     142.860 146.131 133.885  1.00  0.00     0.039 C 
ENDBRANCH   5   6
ENDBRANCH   4   5
ENDBRANCH   1   4
BRANCH   2  10
ATOM     10  C   UNL     1     145.255 143.004 133.405  1.00  0.00     0.032 C 
BRANCH  10  11
ATOM     11  C   UNL     1     143.964 143.019 132.573  1.00  0.00     0.039 C 
BRANCH  11  12
ATOM     12  C   UNL     1     144.245 143.133 131.088  1.00  0.00    -0.055 C 
ATOM     13  C   UNL     1     143.532 142.381 130.240  1.00  0.00     0.012 C 
BRANCH  12  14
ATOM     14  C   UNL     1     145.253 144.072 130.525  1.00  0.00    -0.005 C 
ATOM     15  C   UNL     1     144.967 145.084 129.704  1.00  0.00     0.009 C 
ENDBRANCH  12  14
ENDBRANCH  11  12
ENDBRANCH  10  11
ENDBRANCH   2  10
TORSDOF 7
ENDMDL
MODEL 8
REMARK VINA RESULT:    -3.260      1.042      3.764
REMARK INTER + INTRA:          -6.089
REMARK INTER:                  -4.426
REMARK INTRA:                  -1.662
REMARK UNBOUND:                -1.495
REMARK SMILES C=CC(=C)CCC=C(C)CCC=C(C)C
REMARK SMILES IDX 8 1 7 2 9 3 10 4 11 5 12 6 14 7 13 8 15 9 6 10 5 11 3 12
REMARK SMILES IDX 4 13 2 14 1 15
REMARK H PARENT
REMARK Flexibility Score: inf
ROOT
ATOM      1  C   UNL     1     147.225 146.442 132.662  1.00  0.00    -0.077 C 
ATOM      2  C   UNL     1     146.221 146.418 133.566  1.00  0.00    -0.028 C 
ATOM      3  C   UNL     1     147.590 147.698 131.906  1.00  0.00     0.039 C 
ENDROOT
BRANCH   1   4
ATOM      4  C   UNL     1     148.006 145.170 132.395  1.00  0.00     0.034 C 
BRANCH   4   5
ATOM      5  C   UNL     1     147.308 143.935 132.983  1.00  0.00     0.032 C 
BRANCH   5   6
ATOM      6  C   UNL     1     146.125 143.510 132.146  1.00  0.00    -0.028 C 
ATOM      7  C   UNL     1     143.855 142.691 131.682  1.00  0.00     0.039 C 
ATOM      8  C   UNL     1     144.924 143.140 132.645  1.00  0.00    -0.080 C 
ATOM      9  C   UNL     1     144.625 143.179 134.124  1.00  0.00     0.039 C 
ENDBRANCH   5   6
ENDBRANCH   4   5
ENDBRANCH   1   4
BRANCH   2  10
ATOM     10  C   UNL     1     145.396 147.618 133.963  1.00  0.00     0.032 C 
BRANCH  10  11
ATOM     11  C   UNL     1     144.286 147.922 132.947  1.00  0.00     0.039 C 
BRANCH  11  12
ATOM     12  C   UNL     1     143.530 146.672 132.539  1.00  0.00    -0.055 C 
ATOM     13  C   UNL     1     142.801 146.033 133.462  1.00  0.00     0.012 C 
BRANCH  12  14
ATOM     14  C   UNL     1     143.529 146.145 131.148  1.00  0.00    -0.005 C 
ATOM     15  C   UNL     1     144.595 146.124 130.347  1.00  0.00     0.009 C 
ENDBRANCH  12  14
ENDBRANCH  11  12
ENDBRANCH  10  11
ENDBRANCH   2  10
TORSDOF 7
ENDMDL
MODEL 9
REMARK VINA RESULT:    -3.235      1.240      2.410
REMARK INTER + INTRA:          -6.053
REMARK INTER:                  -4.648
REMARK INTRA:                  -1.405
REMARK UNBOUND:                -1.495
REMARK SMILES C=CC(=C)CCC=C(C)CCC=C(C)C
REMARK SMILES IDX 8 1 7 2 9 3 10 4 11 5 12 6 14 7 13 8 15 9 6 10 5 11 3 12
REMARK SMILES IDX 4 13 2 14 1 15
REMARK H PARENT
REMARK Flexibility Score: inf
ROOT
ATOM      1  C   UNL     1     146.145 146.966 133.394  1.00  0.00    -0.077 C 
ATOM      2  C   UNL     1     146.594 145.861 134.029  1.00  0.00    -0.028 C 
ATOM      3  C   UNL     1     146.943 147.641 132.303  1.00  0.00     0.039 C 
ENDROOT
BRANCH   1   4
ATOM      4  C   UNL     1     144.803 147.549 133.791  1.00  0.00     0.034 C 
BRANCH   4   5
ATOM      5  C   UNL     1     143.646 146.590 133.475  1.00  0.00     0.032 C 
BRANCH   5   6
ATOM      6  C   UNL     1     142.759 147.126 132.377  1.00  0.00    -0.028 C 
ATOM      7  C   UNL     1     142.019 147.572 130.077  1.00  0.00     0.039 C 
ATOM      8  C   UNL     1     142.966 146.927 131.056  1.00  0.00    -0.080 C 
ATOM      9  C   UNL     1     144.099 146.071 130.543  1.00  0.00     0.039 C 
ENDBRANCH   5   6
ENDBRANCH   4   5
ENDBRANCH   1   4
BRANCH   2  10
ATOM     10  C   UNL     1     147.885 145.151 133.703  1.00  0.00     0.032 C 
BRANCH  10  11
ATOM     11  C   UNL     1     147.647 143.790 133.032  1.00  0.00     0.039 C 
BRANCH  11  12
ATOM     12  C   UNL     1     146.674 143.889 131.874  1.00  0.00    -0.055 C 
ATOM     13  C   UNL     1     147.120 144.349 130.698  1.00  0.00     0.012 C 
BRANCH  12  14
ATOM     14  C   UNL     1     145.253 143.461 131.972  1.00  0.00    -0.005 C 
ATOM     15  C   UNL     1     144.671 143.023 133.090  1.00  0.00     0.009 C 
ENDBRANCH  12  14
ENDBRANCH  11  12
ENDBRANCH  10  11
ENDBRANCH   2  10
TORSDOF 7
ENDMDL
