MODEL 1
REMARK VINA RESULT:    -4.160      0.000      0.000
REMARK INTER + INTRA:          -6.657
REMARK INTER:                  -6.349
REMARK INTRA:                  -0.308
REMARK UNBOUND:                -0.308
REMARK SMILES CC1=CCC[C@H](C)C(=O)C[C@H](C(C)C)C(=O)C1
REMARK SMILES IDX 8 1 9 2 6 3 7 4 5 5 4 6 3 7 2 8 1 9 10 11 11 12 15 13 16 14
REMARK SMILES IDX 17 15 12 17 13 18 14 19
REMARK H PARENT
REMARK Flexibility Score: 70.00
ROOT
ATOM      1  C   UNL     1      -6.364 -27.904 -18.660  1.00  0.00     0.136 C 
ATOM      2  O   UNL     1      -5.689 -28.925 -18.639  1.00  0.00    -0.299 OA
ENDROOT
BRANCH   1   3
ATOM      3  C   UNL     1      -5.828 -26.643 -17.976  1.00  0.00     0.053 C 
ATOM      4  C   UNL     1      -4.432 -26.867 -17.367  1.00  0.00     0.016 C 
BRANCH   3   5
ATOM      5  C   UNL     1      -5.792 -25.418 -18.933  1.00  0.00     0.015 C 
BRANCH   5   6
ATOM      6  C   UNL     1      -6.781 -24.277 -18.613  1.00  0.00     0.028 C 
BRANCH   6   7
ATOM      7  C   UNL     1      -7.713 -24.438 -17.429  1.00  0.00    -0.028 C 
ATOM      8  C   UNL     1      -8.962 -24.967 -17.423  1.00  0.00    -0.070 CG0
ATOM      9  C   UNL     1      -9.760 -24.853 -16.147  1.00  0.00     0.039 C 
ATOM     10  G   UNL     1      -9.570 -25.757 -18.571  1.00  0.00     0.000 G0
ENDBRANCH   6   7
ENDBRANCH   5   6
ENDBRANCH   3   5
ENDBRANCH   1   3
BRANCH   1  11
ATOM     11  C   UNL     1      -7.750 -27.988 -19.291  1.00  0.00     0.087 C 
BRANCH  11  12
ATOM     12  C   UNL     1      -8.899 -28.308 -18.300  1.00  0.00     0.066 C 
BRANCH  12  13
ATOM     13  C   UNL     1      -9.896 -27.166 -18.183  1.00  0.00     0.140 C 
ATOM     14  O   UNL     1     -11.035 -27.433 -17.827  1.00  0.00    -0.299 OA
BRANCH  13  15
ATOM     15  C   UNL     1      -9.560 -25.739 -18.589  1.00  0.00     0.106 CG0
ATOM     16  G   UNL     1      -8.979 -24.956 -17.423  1.00  0.00     0.000 G0
ENDBRANCH  13  15
ENDBRANCH  12  13
BRANCH  12  17
ATOM     17  C   UNL     1      -9.639 -29.639 -18.652  1.00  0.00    -0.006 C 
ATOM     18  C   UNL     1      -8.936 -30.855 -18.020  1.00  0.00     0.008 C 
ATOM     19  C   UNL     1      -9.750 -29.866 -20.171  1.00  0.00     0.008 C 
ENDBRANCH  12  17
ENDBRANCH  11  12
ENDBRANCH   1  11
TORSDOF 1
ENDMDL
MODEL 2
REMARK VINA RESULT:    -3.991      3.512      6.450
REMARK INTER + INTRA:          -6.400
REMARK INTER:                  -6.208
REMARK INTRA:                  -0.191
REMARK UNBOUND:                -0.308
REMARK SMILES CC1=CCC[C@H](C)C(=O)C[C@H](C(C)C)C(=O)C1
REMARK SMILES IDX 8 1 9 2 6 3 7 4 5 5 4 6 3 7 2 8 1 9 10 11 11 12 15 13 16 14
REMARK SMILES IDX 17 15 12 17 13 18 14 19
REMARK H PARENT
REMARK Flexibility Score: 70.00
ROOT
ATOM      1  C   UNL     1      -8.500 -23.098 -16.428  1.00  0.00     0.136 C 
ATOM      2  O   UNL     1      -8.613 -22.461 -15.389  1.00  0.00    -0.299 OA
ENDROOT
BRANCH   1   3
ATOM      3  C   UNL     1      -8.712 -24.614 -16.397  1.00  0.00     0.053 C 
ATOM      4  C   UNL     1      -9.923 -25.009 -15.533  1.00  0.00     0.016 C 
BRANCH   3   5
ATOM      5  C   UNL     1      -8.864 -25.221 -17.822  1.00  0.00     0.015 C 
BRANCH   5   6
ATOM      6  C   UNL     1      -7.551 -25.512 -18.580  1.00  0.00     0.028 C 
BRANCH   6   7
ATOM      7  C   UNL     1      -6.304 -25.814 -17.775  1.00  0.00    -0.028 C 
ATOM      8  C   UNL     1      -5.171 -25.072 -17.692  1.00  0.00    -0.070 CG0
ATOM      9  C   UNL     1      -3.995 -25.675 -16.962  1.00  0.00     0.039 C 
ATOM     10  G   UNL     1      -5.040 -23.640 -18.186  1.00  0.00     0.000 G0
ENDBRANCH   6   7
ENDBRANCH   5   6
ENDBRANCH   3   5
ENDBRANCH   1   3
BRANCH   1  11
ATOM     11  C   UNL     1      -8.055 -22.340 -17.674  1.00  0.00     0.087 C 
BRANCH  11  12
ATOM     12  C   UNL     1      -6.674 -21.645 -17.556  1.00  0.00     0.066 C 
BRANCH  12  13
ATOM     13  C   UNL     1      -5.563 -22.621 -17.198  1.00  0.00     0.140 C 
ATOM     14  O   UNL     1      -5.038 -22.514 -16.099  1.00  0.00    -0.299 OA
BRANCH  13  15
ATOM     15  C   UNL     1      -5.019 -23.641 -18.187  1.00  0.00     0.106 CG0
ATOM     16  G   UNL     1      -5.202 -25.059 -17.672  1.00  0.00     0.000 G0
ENDBRANCH  13  15
ENDBRANCH  12  13
BRANCH  12  17
ATOM     17  C   UNL     1      -6.295 -20.844 -18.844  1.00  0.00    -0.006 C 
ATOM     18  C   UNL     1      -5.094 -19.913 -18.591  1.00  0.00     0.008 C 
ATOM     19  C   UNL     1      -7.469 -20.002 -19.379  1.00  0.00     0.008 C 
ENDBRANCH  12  17
ENDBRANCH  11  12
ENDBRANCH   1  11
TORSDOF 1
ENDMDL
MODEL 3
REMARK VINA RESULT:    -3.982      1.759      3.969
REMARK INTER + INTRA:          -6.384
REMARK INTER:                  -6.080
REMARK INTRA:                  -0.305
REMARK UNBOUND:                -0.308
REMARK SMILES CC1=CCC[C@H](C)C(=O)C[C@H](C(C)C)C(=O)C1
REMARK SMILES IDX 8 1 9 2 6 3 7 4 5 5 4 6 3 7 2 8 1 9 10 11 11 12 15 13 16 14
REMARK SMILES IDX 17 15 12 17 13 18 14 19
REMARK H PARENT
REMARK Flexibility Score: 70.00
ROOT
ATOM      1  C   UNL     1      -8.127 -29.485 -18.617  1.00  0.00     0.136 C 
ATOM      2  O   UNL     1      -8.403 -30.559 -18.099  1.00  0.00    -0.299 OA
ENDROOT
BRANCH   1   3
ATOM      3  C   UNL     1      -9.227 -28.701 -19.338  1.00  0.00     0.053 C 
ATOM      4  C   UNL     1     -10.293 -29.630 -19.945  1.00  0.00     0.016 C 
BRANCH   3   5
ATOM      5  C   UNL     1      -9.910 -27.652 -18.414  1.00  0.00     0.015 C 
BRANCH   5   6
ATOM      6  C   UNL     1      -9.558 -26.174 -18.688  1.00  0.00     0.028 C 
BRANCH   6   7
ATOM      7  C   UNL     1      -8.862 -25.383 -17.599  1.00  0.00    -0.028 C 
ATOM      8  C   UNL     1      -7.541 -25.086 -17.505  1.00  0.00    -0.070 CG0
ATOM      9  C   UNL     1      -7.063 -24.435 -16.230  1.00  0.00     0.039 C 
ATOM     10  G   UNL     1      -6.535 -25.264 -18.631  1.00  0.00     0.000 G0
ENDBRANCH   6   7
ENDBRANCH   5   6
ENDBRANCH   3   5
ENDBRANCH   1   3
BRANCH   1  11
ATOM     11  C   UNL     1      -6.666 -29.046 -18.592  1.00  0.00     0.087 C 
BRANCH  11  12
ATOM     12  C   UNL     1      -6.350 -27.788 -19.443  1.00  0.00     0.066 C 
BRANCH  12  13
ATOM     13  C   UNL     1      -5.860 -26.624 -18.595  1.00  0.00     0.140 C 
ATOM     14  O   UNL     1      -4.954 -26.834 -17.801  1.00  0.00    -0.299 OA
BRANCH  13  15
ATOM     15  C   UNL     1      -6.521 -25.255 -18.624  1.00  0.00     0.106 CG0
ATOM     16  G   UNL     1      -7.536 -25.108 -17.501  1.00  0.00     0.000 G0
ENDBRANCH  13  15
ENDBRANCH  12  13
BRANCH  12  17
ATOM     17  C   UNL     1      -5.333 -28.085 -20.592  1.00  0.00    -0.006 C 
ATOM     18  C   UNL     1      -4.926 -26.794 -21.327  1.00  0.00     0.008 C 
ATOM     19  C   UNL     1      -5.887 -29.086 -21.623  1.00  0.00     0.008 C 
ENDBRANCH  12  17
ENDBRANCH  11  12
ENDBRANCH   1  11
TORSDOF 1
ENDMDL
MODEL 4
REMARK VINA RESULT:    -3.969      3.031      5.278
REMARK INTER + INTRA:          -6.365
REMARK INTER:                  -6.012
REMARK INTRA:                  -0.353
REMARK UNBOUND:                -0.308
REMARK SMILES CC1=CCC[C@H](C)C(=O)C[C@H](C(C)C)C(=O)C1
REMARK SMILES IDX 8 1 9 2 6 3 7 4 5 5 4 6 3 7 2 8 1 9 10 11 11 12 15 13 16 14
REMARK SMILES IDX 17 15 12 17 13 18 14 19
REMARK H PARENT
REMARK Flexibility Score: 70.00
ROOT
ATOM      1  C   UNL     1      -5.108 -24.221 -16.829  1.00  0.00     0.136 C 
ATOM      2  O   UNL     1      -4.814 -24.898 -15.853  1.00  0.00    -0.299 OA
ENDROOT
BRANCH   1   3
ATOM      3  C   UNL     1      -4.922 -24.813 -18.230  1.00  0.00     0.053 C 
ATOM      4  C   UNL     1      -3.482 -25.305 -18.460  1.00  0.00     0.016 C 
BRANCH   3   5
ATOM      5  C   UNL     1      -5.924 -25.965 -18.525  1.00  0.00     0.015 C 
BRANCH   5   6
ATOM      6  C   UNL     1      -7.390 -25.547 -18.763  1.00  0.00     0.028 C 
BRANCH   6   7
ATOM      7  C   UNL     1      -8.392 -25.752 -17.645  1.00  0.00    -0.028 C 
ATOM      8  C   UNL     1      -9.090 -24.802 -16.972  1.00  0.00    -0.070 CG0
ATOM      9  C   UNL     1      -9.896 -25.247 -15.775  1.00  0.00     0.039 C 
ATOM     10  G   UNL     1      -9.202 -23.348 -17.402  1.00  0.00     0.000 G0
ENDBRANCH   6   7
ENDBRANCH   5   6
ENDBRANCH   3   5
ENDBRANCH   1   3
BRANCH   1  11
ATOM     11  C   UNL     1      -5.555 -22.784 -16.581  1.00  0.00     0.087 C 
BRANCH  11  12
ATOM     12  C   UNL     1      -6.744 -22.311 -17.457  1.00  0.00     0.066 C 
BRANCH  12  13
ATOM     13  C   UNL     1      -8.085 -22.507 -16.766  1.00  0.00     0.140 C 
ATOM     14  O   UNL     1      -8.224 -22.045 -15.642  1.00  0.00    -0.299 OA
BRANCH  13  15
ATOM     15  C   UNL     1      -9.206 -23.337 -17.373  1.00  0.00     0.106 CG0
ATOM     16  G   UNL     1      -9.089 -24.798 -16.972  1.00  0.00     0.000 G0
ENDBRANCH  13  15
ENDBRANCH  12  13
BRANCH  12  17
ATOM     17  C   UNL     1      -6.589 -20.829 -17.927  1.00  0.00    -0.006 C 
ATOM     18  C   UNL     1      -7.710 -20.431 -18.906  1.00  0.00     0.008 C 
ATOM     19  C   UNL     1      -5.228 -20.564 -18.598  1.00  0.00     0.008 C 
ENDBRANCH  12  17
ENDBRANCH  11  12
ENDBRANCH   1  11
TORSDOF 1
ENDMDL
MODEL 5
REMARK VINA RESULT:    -3.892      2.310      3.592
REMARK INTER + INTRA:          -6.248
REMARK INTER:                  -5.795
REMARK INTRA:                  -0.453
REMARK UNBOUND:                -0.308
REMARK SMILES CC1=CCC[C@H](C)C(=O)C[C@H](C(C)C)C(=O)C1
REMARK SMILES IDX 8 1 9 2 6 3 7 4 5 5 4 6 3 7 2 8 1 9 10 11 11 12 15 13 16 14
REMARK SMILES IDX 17 15 12 17 13 18 14 19
REMARK H PARENT
REMARK Flexibility Score: 70.00
ROOT
ATOM      1  C   UNL     1      -5.229 -23.680 -18.399  1.00  0.00     0.136 C 
ATOM      2  O   UNL     1      -4.053 -24.013 -18.321  1.00  0.00    -0.299 OA
ENDROOT
BRANCH   1   3
ATOM      3  C   UNL     1      -5.670 -22.354 -17.772  1.00  0.00     0.053 C 
ATOM      4  C   UNL     1      -6.514 -21.511 -18.744  1.00  0.00     0.016 C 
BRANCH   3   5
ATOM      5  C   UNL     1      -6.448 -22.557 -16.440  1.00  0.00     0.015 C 
BRANCH   5   6
ATOM      6  C   UNL     1      -7.981 -22.399 -16.518  1.00  0.00     0.028 C 
BRANCH   6   7
ATOM      7  C   UNL     1      -8.851 -23.503 -15.953  1.00  0.00    -0.028 C 
ATOM      8  C   UNL     1      -9.430 -24.530 -16.626  1.00  0.00    -0.070 CG0
ATOM      9  C   UNL     1     -10.400 -25.402 -15.866  1.00  0.00     0.039 C 
ATOM     10  G   UNL     1      -9.089 -24.925 -18.054  1.00  0.00     0.000 G0
ENDBRANCH   6   7
ENDBRANCH   5   6
ENDBRANCH   3   5
ENDBRANCH   1   3
BRANCH   1  11
ATOM     11  C   UNL     1      -6.199 -24.667 -19.038  1.00  0.00     0.087 C 
BRANCH  11  12
ATOM     12  C   UNL     1      -6.606 -25.860 -18.134  1.00  0.00     0.066 C 
BRANCH  12  13
ATOM     13  C   UNL     1      -8.110 -26.083 -18.111  1.00  0.00     0.140 C 
ATOM     14  O   UNL     1      -8.522 -27.229 -18.228  1.00  0.00    -0.299 OA
BRANCH  13  15
ATOM     15  C   UNL     1      -9.108 -24.936 -18.057  1.00  0.00     0.106 CG0
ATOM     16  G   UNL     1      -9.410 -24.536 -16.622  1.00  0.00     0.000 G0
ENDBRANCH  13  15
ENDBRANCH  12  13
BRANCH  12  17
ATOM     17  C   UNL     1      -5.868 -27.183 -18.521  1.00  0.00    -0.006 C 
ATOM     18  C   UNL     1      -4.569 -27.357 -17.713  1.00  0.00     0.008 C 
ATOM     19  C   UNL     1      -5.531 -27.249 -20.023  1.00  0.00     0.008 C 
ENDBRANCH  12  17
ENDBRANCH  11  12
ENDBRANCH   1  11
TORSDOF 1
ENDMDL
MODEL 6
REMARK VINA RESULT:    -3.814      2.028      4.556
REMARK INTER + INTRA:          -6.129
REMARK INTER:                  -5.916
REMARK INTRA:                  -0.213
REMARK UNBOUND:                -0.308
REMARK SMILES CC1=CCC[C@H](C)C(=O)C[C@H](C(C)C)C(=O)C1
REMARK SMILES IDX 8 1 9 2 6 3 7 4 5 5 4 6 3 7 2 8 1 9 10 11 11 12 15 13 16 14
REMARK SMILES IDX 17 15 12 17 13 18 14 19
REMARK H PARENT
REMARK Flexibility Score: 70.00
ROOT
ATOM      1  C   UNL     1      -6.711 -24.633 -18.758  1.00  0.00     0.136 C 
ATOM      2  O   UNL     1      -6.366 -23.499 -19.062  1.00  0.00    -0.299 OA
ENDROOT
BRANCH   1   3
ATOM      3  C   UNL     1      -7.843 -24.820 -17.742  1.00  0.00     0.053 C 
ATOM      4  C   UNL     1      -8.109 -23.537 -16.935  1.00  0.00     0.016 C 
BRANCH   3   5
ATOM      5  C   UNL     1      -9.162 -25.306 -18.406  1.00  0.00     0.015 C 
BRANCH   5   6
ATOM      6  C   UNL     1      -9.759 -26.617 -17.852  1.00  0.00     0.028 C 
BRANCH   6   7
ATOM      7  C   UNL     1     -10.003 -27.763 -18.812  1.00  0.00    -0.028 C 
ATOM      8  C   UNL     1      -9.123 -28.721 -19.201  1.00  0.00    -0.070 CG0
ATOM      9  C   UNL     1      -9.554 -29.653 -20.308  1.00  0.00     0.039 C 
ATOM     10  G   UNL     1      -7.785 -28.986 -18.531  1.00  0.00     0.000 G0
ENDBRANCH   6   7
ENDBRANCH   5   6
ENDBRANCH   3   5
ENDBRANCH   1   3
BRANCH   1  11
ATOM     11  C   UNL     1      -5.916 -25.794 -19.346  1.00  0.00     0.087 C 
BRANCH  11  12
ATOM     12  C   UNL     1      -5.920 -27.087 -18.490  1.00  0.00     0.066 C 
BRANCH  12  13
ATOM     13  C   UNL     1      -6.639 -28.236 -19.182  1.00  0.00     0.140 C 
ATOM     14  O   UNL     1      -6.335 -28.488 -20.339  1.00  0.00    -0.299 OA
BRANCH  13  15
ATOM     15  C   UNL     1      -7.779 -29.001 -18.528  1.00  0.00     0.106 CG0
ATOM     16  G   UNL     1      -9.103 -28.715 -19.218  1.00  0.00     0.000 G0
ENDBRANCH  13  15
ENDBRANCH  12  13
BRANCH  12  17
ATOM     17  C   UNL     1      -4.483 -27.527 -18.063  1.00  0.00    -0.006 C 
ATOM     18  C   UNL     1      -4.529 -28.680 -17.043  1.00  0.00     0.008 C 
ATOM     19  C   UNL     1      -3.667 -26.367 -17.462  1.00  0.00     0.008 C 
ENDBRANCH  12  17
ENDBRANCH  11  12
ENDBRANCH   1  11
TORSDOF 1
ENDMDL
MODEL 7
REMARK VINA RESULT:    -3.810      3.564      5.973
REMARK INTER + INTRA:          -6.123
REMARK INTER:                  -5.668
REMARK INTRA:                  -0.455
REMARK UNBOUND:                -0.308
REMARK SMILES CC1=CCC[C@H](C)C(=O)C[C@H](C(C)C)C(=O)C1
REMARK SMILES IDX 8 1 9 2 6 3 7 4 5 5 4 6 3 7 2 8 1 9 10 11 11 12 15 13 16 14
REMARK SMILES IDX 17 15 12 17 13 18 14 19
REMARK H PARENT
REMARK Flexibility Score: 70.00
ROOT
ATOM      1  C   UNL     1      -8.636 -21.934 -18.344  1.00  0.00     0.136 C 
ATOM      2  O   UNL     1      -9.783 -22.211 -18.666  1.00  0.00    -0.299 OA
ENDROOT
BRANCH   1   3
ATOM      3  C   UNL     1      -7.753 -21.157 -19.325  1.00  0.00     0.053 C 
ATOM      4  C   UNL     1      -8.517 -20.768 -20.603  1.00  0.00     0.016 C 
BRANCH   3   5
ATOM      5  C   UNL     1      -7.126 -19.888 -18.682  1.00  0.00     0.015 C 
BRANCH   5   6
ATOM      6  C   UNL     1      -5.616 -19.959 -18.370  1.00  0.00     0.028 C 
BRANCH   6   7
ATOM      7  C   UNL     1      -4.866 -21.231 -18.712  1.00  0.00    -0.028 C 
ATOM      8  C   UNL     1      -4.519 -22.240 -17.874  1.00  0.00    -0.070 CG0
ATOM      9  C   UNL     1      -3.616 -23.320 -18.421  1.00  0.00     0.039 C 
ATOM     10  G   UNL     1      -5.058 -22.414 -16.463  1.00  0.00     0.000 G0
ENDBRANCH   6   7
ENDBRANCH   5   6
ENDBRANCH   3   5
ENDBRANCH   1   3
BRANCH   1  11
ATOM     11  C   UNL     1      -8.129 -22.473 -17.010  1.00  0.00     0.087 C 
BRANCH  11  12
ATOM     12  C   UNL     1      -7.288 -23.773 -17.109  1.00  0.00     0.066 C 
BRANCH  12  13
ATOM     13  C   UNL     1      -5.968 -23.666 -16.362  1.00  0.00     0.140 C 
ATOM     14  O   UNL     1      -5.666 -24.573 -15.599  1.00  0.00    -0.299 OA
BRANCH  13  15
ATOM     15  C   UNL     1      -5.075 -22.438 -16.448  1.00  0.00     0.106 CG0
ATOM     16  G   UNL     1      -4.527 -22.251 -17.853  1.00  0.00     0.000 G0
ENDBRANCH  13  15
ENDBRANCH  12  13
BRANCH  12  17
ATOM     17  C   UNL     1      -8.079 -25.034 -16.633  1.00  0.00    -0.006 C 
ATOM     18  C   UNL     1      -8.451 -25.942 -17.820  1.00  0.00     0.008 C 
ATOM     19  C   UNL     1      -9.365 -24.668 -15.868  1.00  0.00     0.008 C 
ENDBRANCH  12  17
ENDBRANCH  11  12
ENDBRANCH   1  11
TORSDOF 1
ENDMDL
MODEL 8
REMARK VINA RESULT:    -3.741      2.055      4.776
REMARK INTER + INTRA:          -6.018
REMARK INTER:                  -5.776
REMARK INTRA:                  -0.242
REMARK UNBOUND:                -0.308
REMARK SMILES CC1=CCC[C@H](C)C(=O)C[C@H](C(C)C)C(=O)C1
REMARK SMILES IDX 8 1 9 2 6 3 7 4 5 5 4 6 3 7 2 8 1 9 10 11 11 12 15 13 16 14
REMARK SMILES IDX 17 15 12 17 13 18 14 19
REMARK H PARENT
REMARK Flexibility Score: 70.00
ROOT
ATOM      1  C   UNL     1      -8.950 -27.373 -18.451  1.00  0.00     0.136 C 
ATOM      2  O   UNL     1     -10.146 -27.449 -18.203  1.00  0.00    -0.299 OA
ENDROOT
BRANCH   1   3
ATOM      3  C   UNL     1      -8.135 -28.663 -18.591  1.00  0.00     0.053 C 
ATOM      4  C   UNL     1      -9.013 -29.917 -18.438  1.00  0.00     0.016 C 
BRANCH   3   5
ATOM      5  C   UNL     1      -7.355 -28.728 -19.935  1.00  0.00     0.015 C 
BRANCH   5   6
ATOM      6  C   UNL     1      -5.991 -28.006 -19.965  1.00  0.00     0.028 C 
BRANCH   6   7
ATOM      7  C   UNL     1      -5.196 -27.907 -18.678  1.00  0.00    -0.028 C 
ATOM      8  C   UNL     1      -4.849 -26.783 -18.002  1.00  0.00    -0.070 CG0
ATOM      9  C   UNL     1      -3.901 -26.936 -16.838  1.00  0.00     0.039 C 
ATOM     10  G   UNL     1      -5.430 -25.403 -18.267  1.00  0.00     0.000 G0
ENDBRANCH   6   7
ENDBRANCH   5   6
ENDBRANCH   3   5
ENDBRANCH   1   3
BRANCH   1  11
ATOM     11  C   UNL     1      -8.329 -25.981 -18.509  1.00  0.00     0.087 C 
BRANCH  11  12
ATOM     12  C   UNL     1      -7.864 -25.418 -17.140  1.00  0.00     0.066 C 
BRANCH  12  13
ATOM     13  C   UNL     1      -6.406 -24.986 -17.158  1.00  0.00     0.140 C 
ATOM     14  O   UNL     1      -6.029 -24.206 -16.294  1.00  0.00    -0.299 OA
BRANCH  13  15
ATOM     15  C   UNL     1      -5.442 -25.399 -18.259  1.00  0.00     0.106 CG0
ATOM     16  G   UNL     1      -4.858 -26.777 -17.991  1.00  0.00     0.000 G0
ENDBRANCH  13  15
ENDBRANCH  12  13
BRANCH  12  17
ATOM     17  C   UNL     1      -8.769 -24.248 -16.637  1.00  0.00    -0.006 C 
ATOM     18  C   UNL     1     -10.056 -24.779 -15.977  1.00  0.00     0.008 C 
ATOM     19  C   UNL     1      -9.158 -23.276 -17.767  1.00  0.00     0.008 C 
ENDBRANCH  12  17
ENDBRANCH  11  12
ENDBRANCH   1  11
TORSDOF 1
ENDMDL
MODEL 9
REMARK VINA RESULT:    -3.514      4.452      6.791
REMARK INTER + INTRA:          -5.671
REMARK INTER:                  -5.104
REMARK INTRA:                  -0.567
REMARK UNBOUND:                -0.308
REMARK SMILES CC1=CCC[C@H](C)C(=O)C[C@H](C(C)C)C(=O)C1
REMARK SMILES IDX 8 1 9 2 6 3 7 4 5 5 4 6 3 7 2 8 1 9 10 11 11 12 15 13 16 14
REMARK SMILES IDX 17 15 12 17 13 18 14 19
REMARK H PARENT
REMARK Flexibility Score: 70.00
ROOT
ATOM      1  C   UNL     1      -7.541 -22.484 -16.761  1.00  0.00     0.136 C 
ATOM      2  O   UNL     1      -8.357 -22.230 -15.885  1.00  0.00    -0.299 OA
ENDROOT
BRANCH   1   3
ATOM      3  C   UNL     1      -8.042 -22.910 -18.144  1.00  0.00     0.053 C 
ATOM      4  C   UNL     1      -9.023 -24.093 -18.061  1.00  0.00     0.016 C 
BRANCH   3   5
ATOM      5  C   UNL     1      -8.698 -21.737 -18.925  1.00  0.00     0.015 C 
BRANCH   5   6
ATOM      6  C   UNL     1      -7.770 -20.560 -19.291  1.00  0.00     0.028 C 
BRANCH   6   7
ATOM      7  C   UNL     1      -6.600 -20.823 -20.217  1.00  0.00    -0.028 C 
ATOM      8  C   UNL     1      -5.277 -20.701 -19.938  1.00  0.00    -0.070 CG0
ATOM      9  C   UNL     1      -4.308 -20.849 -21.086  1.00  0.00     0.039 C 
ATOM     10  G   UNL     1      -4.702 -20.534 -18.541  1.00  0.00     0.000 G0
ENDBRANCH   6   7
ENDBRANCH   5   6
ENDBRANCH   3   5
ENDBRANCH   1   3
BRANCH   1  11
ATOM     11  C   UNL     1      -6.064 -22.451 -16.380  1.00  0.00     0.087 C 
BRANCH  11  12
ATOM     12  C   UNL     1      -5.094 -22.937 -17.488  1.00  0.00     0.066 C 
BRANCH  12  13
ATOM     13  C   UNL     1      -4.169 -21.832 -17.972  1.00  0.00     0.140 C 
ATOM     14  O   UNL     1      -2.965 -21.983 -17.816  1.00  0.00    -0.299 OA
BRANCH  13  15
ATOM     15  C   UNL     1      -4.687 -20.519 -18.538  1.00  0.00     0.106 CG0
ATOM     16  G   UNL     1      -5.274 -20.710 -19.927  1.00  0.00     0.000 G0
ENDBRANCH  13  15
ENDBRANCH  12  13
BRANCH  12  17
ATOM     17  C   UNL     1      -4.263 -24.186 -17.049  1.00  0.00    -0.006 C 
ATOM     18  C   UNL     1      -4.307 -25.293 -18.120  1.00  0.00     0.008 C 
ATOM     19  C   UNL     1      -4.746 -24.773 -15.710  1.00  0.00     0.008 C 
ENDBRANCH  12  17
ENDBRANCH  11  12
ENDBRANCH   1  11
TORSDOF 1
ENDMDL
