MODEL 1
REMARK VINA RESULT:    -2.439      0.000      0.000
REMARK INTER + INTRA:          -2.439
REMARK INTER:                  -2.439
REMARK INTRA:                   0.000
REMARK UNBOUND:                 0.000
REMARK SMILES CC(=O)[O-]
REMARK SMILES IDX 1 1 2 2 3 3 4 4
REMARK H PARENT
REMARK Flexibility Score: inf
ROOT
ATOM      1  C   UNL     1      36.888  25.211 223.381  1.00  0.00     0.063 C 
ATOM      2  C   UNL     1      36.223  24.905 224.680  1.00  0.00     0.038 C 
ATOM      3  O   UNL     1      36.226  23.729 225.129  1.00  0.00    -0.550 OA
ATOM      4  O   UNL     1      35.643  25.925 225.423  1.00  0.00    -0.550 OA
ENDROOT
TORSDOF 0
ENDMDL
MODEL 2
REMARK VINA RESULT:    -2.431      5.758      6.347
REMARK INTER + INTRA:          -2.431
REMARK INTER:                  -2.431
REMARK INTRA:                   0.000
REMARK UNBOUND:                 0.000
REMARK SMILES CC(=O)[O-]
REMARK SMILES IDX 1 1 2 2 3 3 4 4
REMARK H PARENT
REMARK Flexibility Score: inf
ROOT
ATOM      1  C   UNL     1      36.406  18.051 227.125  1.00  0.00     0.063 C 
ATOM      2  C   UNL     1      35.752  19.053 226.235  1.00  0.00     0.038 C 
ATOM      3  O   UNL     1      35.469  18.752 225.045  1.00  0.00    -0.550 OA
ATOM      4  O   UNL     1      35.405  20.303 226.730  1.00  0.00    -0.550 OA
ENDROOT
TORSDOF 0
ENDMDL
MODEL 3
REMARK VINA RESULT:    -2.418      5.740      6.469
REMARK INTER + INTRA:          -2.418
REMARK INTER:                  -2.418
REMARK INTRA:                   0.000
REMARK UNBOUND:                 0.000
REMARK SMILES CC(=O)[O-]
REMARK SMILES IDX 1 1 2 2 3 3 4 4
REMARK H PARENT
REMARK Flexibility Score: inf
ROOT
ATOM      1  C   UNL     1      36.255  18.118 227.204  1.00  0.00     0.063 C 
ATOM      2  C   UNL     1      35.660  19.130 226.284  1.00  0.00     0.038 C 
ATOM      3  O   UNL     1      35.385  20.283 226.707  1.00  0.00    -0.550 OA
ATOM      4  O   UNL     1      35.456  18.820 224.946  1.00  0.00    -0.550 OA
ENDROOT
TORSDOF 0
ENDMDL
MODEL 4
REMARK VINA RESULT:    -2.395     10.182     10.441
REMARK INTER + INTRA:          -2.395
REMARK INTER:                  -2.395
REMARK INTRA:                   0.000
REMARK UNBOUND:                 0.000
REMARK SMILES CC(=O)[O-]
REMARK SMILES IDX 1 1 2 2 3 3 4 4
REMARK H PARENT
REMARK Flexibility Score: inf
ROOT
ATOM      1  C   UNL     1      30.674  23.830 233.705  1.00  0.00     0.063 C 
ATOM      2  C   UNL     1      29.841  23.310 232.583  1.00  0.00     0.038 C 
ATOM      3  O   UNL     1      29.549  22.087 232.527  1.00  0.00    -0.550 OA
ATOM      4  O   UNL     1      29.341  24.182 231.624  1.00  0.00    -0.550 OA
ENDROOT
TORSDOF 0
ENDMDL
MODEL 5
REMARK VINA RESULT:    -2.392      0.617      1.733
REMARK INTER + INTRA:          -2.392
REMARK INTER:                  -2.392
REMARK INTRA:                   0.000
REMARK UNBOUND:                 0.000
REMARK SMILES CC(=O)[O-]
REMARK SMILES IDX 1 1 2 2 3 3 4 4
REMARK H PARENT
REMARK Flexibility Score: inf
ROOT
ATOM      1  C   UNL     1      37.532  25.679 224.212  1.00  0.00     0.063 C 
ATOM      2  C   UNL     1      36.367  25.157 224.982  1.00  0.00     0.038 C 
ATOM      3  O   UNL     1      35.536  25.955 225.489  1.00  0.00    -0.550 OA
ATOM      4  O   UNL     1      36.167  23.787 225.099  1.00  0.00    -0.550 OA
ENDROOT
TORSDOF 0
ENDMDL
MODEL 6
REMARK VINA RESULT:    -2.334      1.528      1.804
REMARK INTER + INTRA:          -2.334
REMARK INTER:                  -2.334
REMARK INTRA:                   0.000
REMARK UNBOUND:                 0.000
REMARK SMILES CC(=O)[O-]
REMARK SMILES IDX 1 1 2 2 3 3 4 4
REMARK H PARENT
REMARK Flexibility Score: inf
ROOT
ATOM      1  C   UNL     1      36.856  23.951 225.477  1.00  0.00     0.063 C 
ATOM      2  C   UNL     1      36.276  25.264 225.073  1.00  0.00     0.038 C 
ATOM      3  O   UNL     1      36.868  25.982 224.225  1.00  0.00    -0.550 OA
ATOM      4  O   UNL     1      35.054  25.675 225.592  1.00  0.00    -0.550 OA
ENDROOT
TORSDOF 0
ENDMDL
MODEL 7
REMARK VINA RESULT:    -2.211      1.610      2.153
REMARK INTER + INTRA:          -2.211
REMARK INTER:                  -2.211
REMARK INTRA:                   0.000
REMARK UNBOUND:                 0.000
REMARK SMILES CC(=O)[O-]
REMARK SMILES IDX 1 1 2 2 3 3 4 4
REMARK H PARENT
REMARK Flexibility Score: inf
ROOT
ATOM      1  C   UNL     1      35.712  23.681 222.348  1.00  0.00     0.063 C 
ATOM      2  C   UNL     1      36.222  24.247 223.630  1.00  0.00     0.038 C 
ATOM      3  O   UNL     1      36.516  25.469 223.709  1.00  0.00    -0.550 OA
ATOM      4  O   UNL     1      36.325  23.439 224.756  1.00  0.00    -0.550 OA
ENDROOT
TORSDOF 0
ENDMDL
MODEL 8
REMARK VINA RESULT:    -2.099      4.425      5.232
REMARK INTER + INTRA:          -2.099
REMARK INTER:                  -2.099
REMARK INTRA:                   0.000
REMARK UNBOUND:                 0.000
REMARK SMILES CC(=O)[O-]
REMARK SMILES IDX 1 1 2 2 3 3 4 4
REMARK H PARENT
REMARK Flexibility Score: inf
ROOT
ATOM      1  C   UNL     1      37.625  20.128 227.614  1.00  0.00     0.063 C 
ATOM      2  C   UNL     1      36.483  20.700 226.846  1.00  0.00     0.038 C 
ATOM      3  O   UNL     1      36.524  21.894 226.448  1.00  0.00    -0.550 OA
ATOM      4  O   UNL     1      35.393  19.903 226.520  1.00  0.00    -0.550 OA
ENDROOT
TORSDOF 0
ENDMDL
MODEL 9
REMARK VINA RESULT:    -2.094      6.881      6.988
REMARK INTER + INTRA:          -2.094
REMARK INTER:                  -2.094
REMARK INTRA:                   0.000
REMARK UNBOUND:                 0.000
REMARK SMILES CC(=O)[O-]
REMARK SMILES IDX 1 1 2 2 3 3 4 4
REMARK H PARENT
REMARK Flexibility Score: inf
ROOT
ATOM      1  C   UNL     1      38.022  18.482 225.984  1.00  0.00     0.063 C 
ATOM      2  C   UNL     1      36.559  18.288 226.197  1.00  0.00     0.038 C 
ATOM      3  O   UNL     1      35.779  18.225 225.210  1.00  0.00    -0.550 OA
ATOM      4  O   UNL     1      36.058  18.122 227.482  1.00  0.00    -0.550 OA
ENDROOT
TORSDOF 0
ENDMDL
