MODEL 1
REMARK VINA RESULT:    -7.361      0.000      0.000
REMARK INTER + INTRA:          -8.948
REMARK INTER:                  -8.652
REMARK INTRA:                  -0.296
REMARK UNBOUND:                -0.296
REMARK SMILES O=c1c(O)c(-c2ccc(O)cc2)oc2cc(O)cc(O)c12
REMARK SMILES IDX 5 1 3 2 2 3 1 4 21 5 19 6 18 7 16 8 15 9 14 10 13 11 6 12
REMARK SMILES IDX 7 13 8 14 9 15 12 16 11 17 10 18 4 20 20 22 17 24
REMARK H PARENT 10 19 4 21 20 23 17 25
REMARK Flexibility Score: inf
ROOT
ATOM      1  C   UNL     1     125.082  22.924   0.174  1.00  0.00     0.180 A 
ATOM      2  C   UNL     1     125.579  23.685   1.245  1.00  0.00     0.208 A 
ATOM      3  C   UNL     1     124.682  24.442   2.016  1.00  0.00     0.238 A 
ATOM      4  O   UNL     1     125.123  25.061   3.019  1.00  0.00    -0.285 OA
ATOM      5  C   UNL     1     123.309  24.474   1.672  1.00  0.00     0.111 A 
ATOM      6  C   UNL     1     122.317  25.242   2.356  1.00  0.00     0.134 A 
ATOM      7  C   UNL     1     120.972  25.112   1.992  1.00  0.00     0.093 A 
ATOM      8  C   UNL     1     120.587  24.294   0.931  1.00  0.00     0.123 A 
ATOM      9  C   UNL     1     121.553  23.581   0.220  1.00  0.00     0.094 A 
ATOM     10  C   UNL     1     122.901  23.660   0.583  1.00  0.00     0.146 A 
ATOM     11  O   UNL     1     123.784  22.948  -0.106  1.00  0.00    -0.452 OA
ENDROOT
BRANCH   1  12
ATOM     12  C   UNL     1     125.962  22.090  -0.676  1.00  0.00     0.021 A 
ATOM     13  C   UNL     1     126.515  22.638  -1.845  1.00  0.00     0.016 A 
ATOM     14  C   UNL     1     127.330  21.861  -2.675  1.00  0.00     0.047 A 
ATOM     15  C   UNL     1     127.591  20.525  -2.354  1.00  0.00     0.115 A 
ATOM     16  C   UNL     1     126.212  20.739  -0.370  1.00  0.00     0.016 A 
ATOM     17  C   UNL     1     127.027  19.965  -1.201  1.00  0.00     0.047 A 
BRANCH  15  18
ATOM     18  O   UNL     1     128.406  19.764  -3.189  1.00  0.00    -0.508 OA
ATOM     19  H   UNL     1     128.613  18.793  -2.985  1.00  0.00     0.293 HD
ENDBRANCH  15  18
ENDBRANCH   1  12
BRANCH   2  20
ATOM     20  O   UNL     1     126.949  23.701   1.522  1.00  0.00    -0.502 OA
ATOM     21  H   UNL     1     127.362  23.144   2.260  1.00  0.00     0.293 HD
ENDBRANCH   2  20
BRANCH   6  22
ATOM     22  O   UNL     1     122.601  26.158   3.373  1.00  0.00    -0.507 OA
ATOM     23  H   UNL     1     121.977  26.395   4.129  1.00  0.00     0.293 HD
ENDBRANCH   6  22
BRANCH   8  24
ATOM     24  O   UNL     1     119.241  24.203   0.586  1.00  0.00    -0.508 OA
ATOM     25  H   UNL     1     118.943  23.746  -0.268  1.00  0.00     0.293 HD
ENDBRANCH   8  24
TORSDOF 5
ENDMDL
MODEL 2
REMARK VINA RESULT:    -7.138      9.499     11.420
REMARK INTER + INTRA:          -8.686
REMARK INTER:                  -8.414
REMARK INTRA:                  -0.272
REMARK UNBOUND:                -0.296
REMARK SMILES O=c1c(O)c(-c2ccc(O)cc2)oc2cc(O)cc(O)c12
REMARK SMILES IDX 5 1 3 2 2 3 1 4 21 5 19 6 18 7 16 8 15 9 14 10 13 11 6 12
REMARK SMILES IDX 7 13 8 14 9 15 12 16 11 17 10 18 4 20 20 22 17 24
REMARK H PARENT 10 19 4 21 20 23 17 25
REMARK Flexibility Score: inf
ROOT
ATOM      1  C   UNL     1     126.982  33.892   3.664  1.00  0.00     0.180 A 
ATOM      2  C   UNL     1     126.558  34.852   4.599  1.00  0.00     0.208 A 
ATOM      3  C   UNL     1     125.258  34.767   5.120  1.00  0.00     0.238 A 
ATOM      4  O   UNL     1     124.911  35.584   6.012  1.00  0.00    -0.285 OA
ATOM      5  C   UNL     1     124.378  33.758   4.660  1.00  0.00     0.111 A 
ATOM      6  C   UNL     1     123.023  33.604   5.086  1.00  0.00     0.134 A 
ATOM      7  C   UNL     1     122.280  32.503   4.641  1.00  0.00     0.093 A 
ATOM      8  C   UNL     1     122.818  31.588   3.738  1.00  0.00     0.123 A 
ATOM      9  C   UNL     1     124.122  31.759   3.272  1.00  0.00     0.094 A 
ATOM     10  C   UNL     1     124.902  32.825   3.727  1.00  0.00     0.146 A 
ATOM     11  O   UNL     1     126.145  32.938   3.275  1.00  0.00    -0.452 OA
ENDROOT
BRANCH   1  12
ATOM     12  C   UNL     1     128.342  33.907   3.080  1.00  0.00     0.021 A 
ATOM     13  C   UNL     1     128.526  34.380   1.770  1.00  0.00     0.016 A 
ATOM     14  C   UNL     1     129.799  34.381   1.189  1.00  0.00     0.047 A 
ATOM     15  C   UNL     1     130.899  33.898   1.905  1.00  0.00     0.115 A 
ATOM     16  C   UNL     1     129.450  33.404   3.787  1.00  0.00     0.016 A 
ATOM     17  C   UNL     1     130.721  33.406   3.204  1.00  0.00     0.047 A 
BRANCH  15  18
ATOM     18  O   UNL     1     132.160  33.908   1.314  1.00  0.00    -0.508 OA
ATOM     19  H   UNL     1     132.729  34.747   1.294  1.00  0.00     0.293 HD
ENDBRANCH  15  18
ENDBRANCH   1  12
BRANCH   2  20
ATOM     20  O   UNL     1     127.416  35.887   4.984  1.00  0.00    -0.502 OA
ATOM     21  H   UNL     1     127.320  36.373   5.867  1.00  0.00     0.293 HD
ENDBRANCH   2  20
BRANCH   6  22
ATOM     22  O   UNL     1     122.356  34.508   5.918  1.00  0.00    -0.507 OA
ATOM     23  H   UNL     1     122.253  35.495   5.735  1.00  0.00     0.293 HD
ENDBRANCH   6  22
BRANCH   8  24
ATOM     24  O   UNL     1     122.043  30.515   3.303  1.00  0.00    -0.508 OA
ATOM     25  H   UNL     1     122.450  29.602   3.136  1.00  0.00     0.293 HD
ENDBRANCH   8  24
TORSDOF 5
ENDMDL
MODEL 3
REMARK VINA RESULT:    -7.107     11.640     14.146
REMARK INTER + INTRA:          -8.650
REMARK INTER:                  -8.364
REMARK INTRA:                  -0.286
REMARK UNBOUND:                -0.296
REMARK SMILES O=c1c(O)c(-c2ccc(O)cc2)oc2cc(O)cc(O)c12
REMARK SMILES IDX 5 1 3 2 2 3 1 4 21 5 19 6 18 7 16 8 15 9 14 10 13 11 6 12
REMARK SMILES IDX 7 13 8 14 9 15 12 16 11 17 10 18 4 20 20 22 17 24
REMARK H PARENT 10 19 4 21 20 23 17 25
REMARK Flexibility Score: inf
ROOT
ATOM      1  C   UNL     1     131.449  24.446  10.406  1.00  0.00     0.180 A 
ATOM      2  C   UNL     1     131.223  23.517  11.435  1.00  0.00     0.208 A 
ATOM      3  C   UNL     1     132.239  23.280  12.374  1.00  0.00     0.238 A 
ATOM      4  O   UNL     1     132.003  22.504  13.336  1.00  0.00    -0.285 OA
ATOM      5  C   UNL     1     133.489  23.932  12.240  1.00  0.00     0.111 A 
ATOM      6  C   UNL     1     134.606  23.735  13.108  1.00  0.00     0.134 A 
ATOM      7  C   UNL     1     135.757  24.515  12.941  1.00  0.00     0.093 A 
ATOM      8  C   UNL     1     135.857  25.439  11.902  1.00  0.00     0.123 A 
ATOM      9  C   UNL     1     134.793  25.601  11.015  1.00  0.00     0.094 A 
ATOM     10  C   UNL     1     133.616  24.865  11.177  1.00  0.00     0.146 A 
ATOM     11  O   UNL     1     132.620  25.067  10.324  1.00  0.00    -0.452 OA
ENDROOT
BRANCH   1  12
ATOM     12  C   UNL     1     130.422  24.760   9.387  1.00  0.00     0.021 A 
ATOM     13  C   UNL     1     130.337  23.972   8.226  1.00  0.00     0.016 A 
ATOM     14  C   UNL     1     129.390  24.264   7.239  1.00  0.00     0.047 A 
ATOM     15  C   UNL     1     128.527  25.354   7.393  1.00  0.00     0.115 A 
ATOM     16  C   UNL     1     129.564  25.866   9.525  1.00  0.00     0.016 A 
ATOM     17  C   UNL     1     128.619  26.157   8.537  1.00  0.00     0.047 A 
BRANCH  15  18
ATOM     18  O   UNL     1     127.588  25.632   6.403  1.00  0.00    -0.508 OA
ATOM     19  H   UNL     1     126.606  25.759   6.625  1.00  0.00     0.293 HD
ENDBRANCH  15  18
ENDBRANCH   1  12
BRANCH   2  20
ATOM     20  O   UNL     1     130.010  22.826  11.506  1.00  0.00    -0.502 OA
ATOM     21  H   UNL     1     129.219  23.168  12.037  1.00  0.00     0.293 HD
ENDBRANCH   2  20
BRANCH   6  22
ATOM     22  O   UNL     1     134.647  22.776  14.125  1.00  0.00    -0.507 OA
ATOM     23  H   UNL     1     134.152  21.897  14.112  1.00  0.00     0.293 HD
ENDBRANCH   6  22
BRANCH   8  24
ATOM     24  O   UNL     1     137.024  26.185  11.756  1.00  0.00    -0.508 OA
ATOM     25  H   UNL     1     136.999  27.191  11.643  1.00  0.00     0.293 HD
ENDBRANCH   8  24
TORSDOF 5
ENDMDL
MODEL 4
REMARK VINA RESULT:    -7.106     10.628     12.672
REMARK INTER + INTRA:          -8.649
REMARK INTER:                  -8.434
REMARK INTRA:                  -0.216
REMARK UNBOUND:                -0.296
REMARK SMILES O=c1c(O)c(-c2ccc(O)cc2)oc2cc(O)cc(O)c12
REMARK SMILES IDX 5 1 3 2 2 3 1 4 21 5 19 6 18 7 16 8 15 9 14 10 13 11 6 12
REMARK SMILES IDX 7 13 8 14 9 15 12 16 11 17 10 18 4 20 20 22 17 24
REMARK H PARENT 10 19 4 21 20 23 17 25
REMARK Flexibility Score: inf
ROOT
ATOM      1  C   UNL     1     132.227  23.890   8.466  1.00  0.00     0.180 A 
ATOM      2  C   UNL     1     131.986  24.933   9.374  1.00  0.00     0.208 A 
ATOM      3  C   UNL     1     132.301  24.743  10.730  1.00  0.00     0.238 A 
ATOM      4  O   UNL     1     132.154  25.707  11.524  1.00  0.00    -0.285 OA
ATOM      5  C   UNL     1     132.800  23.493  11.169  1.00  0.00     0.111 A 
ATOM      6  C   UNL     1     133.112  23.173  12.525  1.00  0.00     0.134 A 
ATOM      7  C   UNL     1     133.700  21.939  12.826  1.00  0.00     0.093 A 
ATOM      8  C   UNL     1     133.930  20.988  11.833  1.00  0.00     0.123 A 
ATOM      9  C   UNL     1     133.579  21.268  10.512  1.00  0.00     0.094 A 
ATOM     10  C   UNL     1     133.025  22.506  10.173  1.00  0.00     0.146 A 
ATOM     11  O   UNL     1     132.726  22.739   8.901  1.00  0.00    -0.452 OA
ENDROOT
BRANCH   1  12
ATOM     12  C   UNL     1     131.935  24.020   7.020  1.00  0.00     0.021 A 
ATOM     13  C   UNL     1     130.894  23.264   6.455  1.00  0.00     0.016 A 
ATOM     14  C   UNL     1     130.615  23.353   5.088  1.00  0.00     0.047 A 
ATOM     15  C   UNL     1     131.381  24.186   4.266  1.00  0.00     0.115 A 
ATOM     16  C   UNL     1     132.714  24.840   6.184  1.00  0.00     0.016 A 
ATOM     17  C   UNL     1     132.434  24.927   4.817  1.00  0.00     0.047 A 
BRANCH  15  18
ATOM     18  O   UNL     1     131.090  24.265   2.906  1.00  0.00    -0.508 OA
ATOM     19  H   UNL     1     131.167  23.456   2.301  1.00  0.00     0.293 HD
ENDBRANCH  15  18
ENDBRANCH   1  12
BRANCH   2  20
ATOM     20  O   UNL     1     131.421  26.134   8.935  1.00  0.00    -0.502 OA
ATOM     21  H   UNL     1     130.723  26.635   9.469  1.00  0.00     0.293 HD
ENDBRANCH   2  20
BRANCH   6  22
ATOM     22  O   UNL     1     132.843  24.014  13.609  1.00  0.00    -0.507 OA
ATOM     23  H   UNL     1     133.331  23.995  14.492  1.00  0.00     0.293 HD
ENDBRANCH   6  22
BRANCH   8  24
ATOM     24  O   UNL     1     134.500  19.763  12.172  1.00  0.00    -0.508 OA
ATOM     25  H   UNL     1     134.140  18.891  11.804  1.00  0.00     0.293 HD
ENDBRANCH   8  24
TORSDOF 5
ENDMDL
MODEL 5
REMARK VINA RESULT:    -7.011     11.060     13.232
REMARK INTER + INTRA:          -8.536
REMARK INTER:                  -8.267
REMARK INTRA:                  -0.269
REMARK UNBOUND:                -0.296
REMARK SMILES O=c1c(O)c(-c2ccc(O)cc2)oc2cc(O)cc(O)c12
REMARK SMILES IDX 5 1 3 2 2 3 1 4 21 5 19 6 18 7 16 8 15 9 14 10 13 11 6 12
REMARK SMILES IDX 7 13 8 14 9 15 12 16 11 17 10 18 4 20 20 22 17 24
REMARK H PARENT 10 19 4 21 20 23 17 25
REMARK Flexibility Score: inf
ROOT
ATOM      1  C   UNL     1     131.989  24.837   9.117  1.00  0.00     0.180 A 
ATOM      2  C   UNL     1     131.105  25.508   9.978  1.00  0.00     0.208 A 
ATOM      3  C   UNL     1     131.535  25.836  11.274  1.00  0.00     0.238 A 
ATOM      4  O   UNL     1     130.767  26.504  12.014  1.00  0.00    -0.285 OA
ATOM      5  C   UNL     1     132.822  25.439  11.712  1.00  0.00     0.111 A 
ATOM      6  C   UNL     1     133.346  25.678  13.019  1.00  0.00     0.134 A 
ATOM      7  C   UNL     1     134.672  25.334  13.305  1.00  0.00     0.093 A 
ATOM      8  C   UNL     1     135.474  24.701  12.356  1.00  0.00     0.123 A 
ATOM      9  C   UNL     1     134.955  24.413  11.093  1.00  0.00     0.094 A 
ATOM     10  C   UNL     1     133.647  24.779  10.764  1.00  0.00     0.146 A 
ATOM     11  O   UNL     1     133.201  24.505   9.544  1.00  0.00    -0.452 OA
ENDROOT
BRANCH   1  12
ATOM     12  C   UNL     1     131.613  24.470   7.733  1.00  0.00     0.021 A 
ATOM     13  C   UNL     1     131.289  23.135   7.435  1.00  0.00     0.016 A 
ATOM     14  C   UNL     1     130.954  22.761   6.130  1.00  0.00     0.047 A 
ATOM     15  C   UNL     1     130.953  23.712   5.104  1.00  0.00     0.115 A 
ATOM     16  C   UNL     1     131.630  25.416   6.692  1.00  0.00     0.016 A 
ATOM     17  C   UNL     1     131.295  25.040   5.388  1.00  0.00     0.047 A 
BRANCH  15  18
ATOM     18  O   UNL     1     130.616  23.325   3.809  1.00  0.00    -0.508 OA
ATOM     19  H   UNL     1     130.500  22.348   3.563  1.00  0.00     0.293 HD
ENDBRANCH  15  18
ENDBRANCH   1  12
BRANCH   2  20
ATOM     20  O   UNL     1     129.811  25.825   9.554  1.00  0.00    -0.502 OA
ATOM     21  H   UNL     1     129.122  25.117   9.334  1.00  0.00     0.293 HD
ENDBRANCH   2  20
BRANCH   6  22
ATOM     22  O   UNL     1     132.605  26.224  14.072  1.00  0.00    -0.507 OA
ATOM     23  H   UNL     1     132.987  26.780  14.821  1.00  0.00     0.293 HD
ENDBRANCH   6  22
BRANCH   8  24
ATOM     24  O   UNL     1     136.784  24.356  12.682  1.00  0.00    -0.508 OA
ATOM     25  H   UNL     1     137.006  23.885  13.550  1.00  0.00     0.293 HD
ENDBRANCH   8  24
TORSDOF 5
ENDMDL
MODEL 6
REMARK VINA RESULT:    -6.984     10.852     13.363
REMARK INTER + INTRA:          -8.506
REMARK INTER:                  -8.217
REMARK INTRA:                  -0.289
REMARK UNBOUND:                -0.296
REMARK SMILES O=c1c(O)c(-c2ccc(O)cc2)oc2cc(O)cc(O)c12
REMARK SMILES IDX 5 1 3 2 2 3 1 4 21 5 19 6 18 7 16 8 15 9 14 10 13 11 6 12
REMARK SMILES IDX 7 13 8 14 9 15 12 16 11 17 10 18 4 20 20 22 17 24
REMARK H PARENT 10 19 4 21 20 23 17 25
REMARK Flexibility Score: inf
ROOT
ATOM      1  C   UNL     1     131.100  24.749   9.871  1.00  0.00     0.180 A 
ATOM      2  C   UNL     1     131.196  25.385  11.120  1.00  0.00     0.208 A 
ATOM      3  C   UNL     1     132.028  24.829  12.105  1.00  0.00     0.238 A 
ATOM      4  O   UNL     1     132.169  25.444  13.194  1.00  0.00    -0.285 OA
ATOM      5  C   UNL     1     132.708  23.613  11.849  1.00  0.00     0.111 A 
ATOM      6  C   UNL     1     133.543  22.935  12.789  1.00  0.00     0.134 A 
ATOM      7  C   UNL     1     134.250  21.795  12.389  1.00  0.00     0.093 A 
ATOM      8  C   UNL     1     134.105  21.271  11.105  1.00  0.00     0.123 A 
ATOM      9  C   UNL     1     133.251  21.894  10.195  1.00  0.00     0.094 A 
ATOM     10  C   UNL     1     132.560  23.055  10.552  1.00  0.00     0.146 A 
ATOM     11  O   UNL     1     131.774  23.628   9.649  1.00  0.00    -0.452 OA
ENDROOT
BRANCH   1  12
ATOM     12  C   UNL     1     130.255  25.282   8.778  1.00  0.00     0.021 A 
ATOM     13  C   UNL     1     128.981  24.732   8.558  1.00  0.00     0.016 A 
ATOM     14  C   UNL     1     128.175  25.204   7.516  1.00  0.00     0.047 A 
ATOM     15  C   UNL     1     128.638  26.220   6.675  1.00  0.00     0.115 A 
ATOM     16  C   UNL     1     130.722  26.291   7.915  1.00  0.00     0.016 A 
ATOM     17  C   UNL     1     129.915  26.761   6.874  1.00  0.00     0.047 A 
BRANCH  15  18
ATOM     18  O   UNL     1     127.824  26.681   5.643  1.00  0.00    -0.508 OA
ATOM     19  H   UNL     1     127.311  27.553   5.723  1.00  0.00     0.293 HD
ENDBRANCH  15  18
ENDBRANCH   1  12
BRANCH   2  20
ATOM     20  O   UNL     1     130.457  26.543  11.380  1.00  0.00    -0.502 OA
ATOM     21  H   UNL     1     129.936  26.675  12.238  1.00  0.00     0.293 HD
ENDBRANCH   2  20
BRANCH   6  22
ATOM     22  O   UNL     1     133.691  23.321  14.125  1.00  0.00    -0.507 OA
ATOM     23  H   UNL     1     133.277  24.143  14.539  1.00  0.00     0.293 HD
ENDBRANCH   6  22
BRANCH   8  24
ATOM     24  O   UNL     1     134.811  20.125  10.747  1.00  0.00    -0.508 OA
ATOM     25  H   UNL     1     134.531  19.207  11.072  1.00  0.00     0.293 HD
ENDBRANCH   8  24
TORSDOF 5
ENDMDL
MODEL 7
REMARK VINA RESULT:    -6.971      6.579      9.377
REMARK INTER + INTRA:          -8.490
REMARK INTER:                  -8.202
REMARK INTRA:                  -0.287
REMARK UNBOUND:                -0.296
REMARK SMILES O=c1c(O)c(-c2ccc(O)cc2)oc2cc(O)cc(O)c12
REMARK SMILES IDX 5 1 3 2 2 3 1 4 21 5 19 6 18 7 16 8 15 9 14 10 13 11 6 12
REMARK SMILES IDX 7 13 8 14 9 15 12 16 11 17 10 18 4 20 20 22 17 24
REMARK H PARENT 10 19 4 21 20 23 17 25
REMARK Flexibility Score: inf
ROOT
ATOM      1  C   UNL     1     123.244  30.426   2.010  1.00  0.00     0.180 A 
ATOM      2  C   UNL     1     123.616  31.202   3.120  1.00  0.00     0.208 A 
ATOM      3  C   UNL     1     124.502  32.275   2.935  1.00  0.00     0.238 A 
ATOM      4  O   UNL     1     124.771  33.012   3.919  1.00  0.00    -0.285 OA
ATOM      5  C   UNL     1     125.049  32.525   1.653  1.00  0.00     0.111 A 
ATOM      6  C   UNL     1     125.990  33.557   1.357  1.00  0.00     0.134 A 
ATOM      7  C   UNL     1     126.381  33.777   0.031  1.00  0.00     0.093 A 
ATOM      8  C   UNL     1     125.916  32.964  -1.002  1.00  0.00     0.123 A 
ATOM      9  C   UNL     1     125.039  31.918  -0.718  1.00  0.00     0.094 A 
ATOM     10  C   UNL     1     124.600  31.696   0.591  1.00  0.00     0.146 A 
ATOM     11  O   UNL     1     123.748  30.703   0.813  1.00  0.00    -0.452 OA
ENDROOT
BRANCH   1  12
ATOM     12  C   UNL     1     122.304  29.287   2.123  1.00  0.00     0.021 A 
ATOM     13  C   UNL     1     120.921  29.522   2.037  1.00  0.00     0.016 A 
ATOM     14  C   UNL     1     120.014  28.465   2.165  1.00  0.00     0.047 A 
ATOM     15  C   UNL     1     120.476  27.165   2.394  1.00  0.00     0.115 A 
ATOM     16  C   UNL     1     122.761  27.980   2.373  1.00  0.00     0.016 A 
ATOM     17  C   UNL     1     121.852  26.926   2.501  1.00  0.00     0.047 A 
BRANCH  15  18
ATOM     18  O   UNL     1     119.561  26.122   2.517  1.00  0.00    -0.508 OA
ATOM     19  H   UNL     1     119.329  25.526   1.730  1.00  0.00     0.293 HD
ENDBRANCH  15  18
ENDBRANCH   1  12
BRANCH   2  20
ATOM     20  O   UNL     1     123.125  30.893   4.392  1.00  0.00    -0.502 OA
ATOM     21  H   UNL     1     122.431  30.172   4.548  1.00  0.00     0.293 HD
ENDBRANCH   2  20
BRANCH   6  22
ATOM     22  O   UNL     1     126.587  34.372   2.324  1.00  0.00    -0.507 OA
ATOM     23  H   UNL     1     127.579  34.528   2.418  1.00  0.00     0.293 HD
ENDBRANCH   6  22
BRANCH   8  24
ATOM     24  O   UNL     1     126.340  33.201  -2.307  1.00  0.00    -0.508 OA
ATOM     25  H   UNL     1     126.001  32.645  -3.083  1.00  0.00     0.293 HD
ENDBRANCH   8  24
TORSDOF 5
ENDMDL
MODEL 8
REMARK VINA RESULT:    -6.924     10.377     12.324
REMARK INTER + INTRA:          -8.435
REMARK INTER:                  -8.146
REMARK INTRA:                  -0.289
REMARK UNBOUND:                -0.296
REMARK SMILES O=c1c(O)c(-c2ccc(O)cc2)oc2cc(O)cc(O)c12
REMARK SMILES IDX 5 1 3 2 2 3 1 4 21 5 19 6 18 7 16 8 15 9 14 10 13 11 6 12
REMARK SMILES IDX 7 13 8 14 9 15 12 16 11 17 10 18 4 20 20 22 17 24
REMARK H PARENT 10 19 4 21 20 23 17 25
REMARK Flexibility Score: inf
ROOT
ATOM      1  C   UNL     1     131.240  24.176   9.115  1.00  0.00     0.180 A 
ATOM      2  C   UNL     1     131.375  22.912   9.713  1.00  0.00     0.208 A 
ATOM      3  C   UNL     1     131.377  22.818  11.114  1.00  0.00     0.238 A 
ATOM      4  O   UNL     1     131.422  21.677  11.642  1.00  0.00    -0.285 OA
ATOM      5  C   UNL     1     131.302  23.994  11.899  1.00  0.00     0.111 A 
ATOM      6  C   UNL     1     131.340  24.022  13.327  1.00  0.00     0.134 A 
ATOM      7  C   UNL     1     131.150  25.235  13.999  1.00  0.00     0.093 A 
ATOM      8  C   UNL     1     130.987  26.430  13.299  1.00  0.00     0.123 A 
ATOM      9  C   UNL     1     131.002  26.423  11.904  1.00  0.00     0.094 A 
ATOM     10  C   UNL     1     131.151  25.223  11.203  1.00  0.00     0.146 A 
ATOM     11  O   UNL     1     131.138  25.258   9.877  1.00  0.00    -0.452 OA
ENDROOT
BRANCH   1  12
ATOM     12  C   UNL     1     131.214  24.354   7.645  1.00  0.00     0.021 A 
ATOM     13  C   UNL     1     129.992  24.257   6.958  1.00  0.00     0.016 A 
ATOM     14  C   UNL     1     129.947  24.398   5.567  1.00  0.00     0.047 A 
ATOM     15  C   UNL     1     131.124  24.623   4.845  1.00  0.00     0.115 A 
ATOM     16  C   UNL     1     132.396  24.561   6.910  1.00  0.00     0.016 A 
ATOM     17  C   UNL     1     132.349  24.701   5.520  1.00  0.00     0.047 A 
BRANCH  15  18
ATOM     18  O   UNL     1     131.063  24.763   3.461  1.00  0.00    -0.508 OA
ATOM     19  H   UNL     1     131.353  25.621   3.003  1.00  0.00     0.293 HD
ENDBRANCH  15  18
ENDBRANCH   1  12
BRANCH   2  20
ATOM     20  O   UNL     1     131.525  21.770   8.920  1.00  0.00    -0.502 OA
ATOM     21  H   UNL     1     131.639  21.815   7.916  1.00  0.00     0.293 HD
ENDBRANCH   2  20
BRANCH   6  22
ATOM     22  O   UNL     1     131.586  22.901  14.125  1.00  0.00    -0.507 OA
ATOM     23  H   UNL     1     131.993  22.037  13.800  1.00  0.00     0.293 HD
ENDBRANCH   6  22
BRANCH   8  24
ATOM     24  O   UNL     1     130.818  27.621  14.002  1.00  0.00    -0.508 OA
ATOM     25  H   UNL     1     131.533  27.972  14.627  1.00  0.00     0.293 HD
ENDBRANCH   8  24
TORSDOF 5
ENDMDL
MODEL 9
REMARK VINA RESULT:    -6.872     10.746     13.017
REMARK INTER + INTRA:          -8.374
REMARK INTER:                  -8.310
REMARK INTRA:                  -0.064
REMARK UNBOUND:                -0.296
REMARK SMILES O=c1c(O)c(-c2ccc(O)cc2)oc2cc(O)cc(O)c12
REMARK SMILES IDX 5 1 3 2 2 3 1 4 21 5 19 6 18 7 16 8 15 9 14 10 13 11 6 12
REMARK SMILES IDX 7 13 8 14 9 15 12 16 11 17 10 18 4 20 20 22 17 24
REMARK H PARENT 10 19 4 21 20 23 17 25
REMARK Flexibility Score: inf
ROOT
ATOM      1  C   UNL     1     131.016  24.203   9.543  1.00  0.00     0.180 A 
ATOM      2  C   UNL     1     131.727  23.027   9.833  1.00  0.00     0.208 A 
ATOM      3  C   UNL     1     132.558  22.995  10.965  1.00  0.00     0.238 A 
ATOM      4  O   UNL     1     133.133  21.916  11.261  1.00  0.00    -0.285 OA
ATOM      5  C   UNL     1     132.711  24.157  11.760  1.00  0.00     0.111 A 
ATOM      6  C   UNL     1     133.561  24.253  12.904  1.00  0.00     0.134 A 
ATOM      7  C   UNL     1     133.550  25.421  13.677  1.00  0.00     0.093 A 
ATOM      8  C   UNL     1     132.771  26.518  13.313  1.00  0.00     0.123 A 
ATOM      9  C   UNL     1     131.979  26.456  12.167  1.00  0.00     0.094 A 
ATOM     10  C   UNL     1     131.938  25.291  11.396  1.00  0.00     0.146 A 
ATOM     11  O   UNL     1     131.154  25.267  10.325  1.00  0.00    -0.452 OA
ENDROOT
BRANCH   1  12
ATOM     12  C   UNL     1     130.110  24.309   8.377  1.00  0.00     0.021 A 
ATOM     13  C   UNL     1     130.627  24.137   7.082  1.00  0.00     0.016 A 
ATOM     14  C   UNL     1     129.795  24.255   5.964  1.00  0.00     0.047 A 
ATOM     15  C   UNL     1     128.440  24.562   6.126  1.00  0.00     0.115 A 
ATOM     16  C   UNL     1     128.750  24.637   8.531  1.00  0.00     0.016 A 
ATOM     17  C   UNL     1     127.920  24.755   7.412  1.00  0.00     0.047 A 
BRANCH  15  18
ATOM     18  O   UNL     1     127.623  24.675   5.004  1.00  0.00    -0.508 OA
ATOM     19  H   UNL     1     126.615  24.745   5.088  1.00  0.00     0.293 HD
ENDBRANCH  15  18
ENDBRANCH   1  12
BRANCH   2  20
ATOM     20  O   UNL     1     131.623  21.915   8.993  1.00  0.00    -0.502 OA
ATOM     21  H   UNL     1     130.849  21.264   9.045  1.00  0.00     0.293 HD
ENDBRANCH   2  20
BRANCH   6  22
ATOM     22  O   UNL     1     134.446  23.249  13.308  1.00  0.00    -0.507 OA
ATOM     23  H   UNL     1     134.785  23.120  14.249  1.00  0.00     0.293 HD
ENDBRANCH   6  22
BRANCH   8  24
ATOM     24  O   UNL     1     132.799  27.670  14.096  1.00  0.00    -0.508 OA
ATOM     25  H   UNL     1     131.955  28.190  14.304  1.00  0.00     0.293 HD
ENDBRANCH   8  24
TORSDOF 5
ENDMDL
