MODEL 1
REMARK VINA RESULT:    -6.777      0.000      0.000
REMARK INTER + INTRA:          -8.366
REMARK INTER:                  -7.768
REMARK INTRA:                  -0.598
REMARK UNBOUND:                -0.598
REMARK SMILES C=C(C)[C@@H]1CC[C@]2(C(=O)[O-])CC[C@@]3(C)[C@@H](CC[C@H]4[C@]5(C)CC[C@@H](O)C(C)(C)[C@H]5CC[C@]43C)[C@H]12
REMARK SMILES IDX 7 1 6 2 33 3 11 4 5 5 15 6 4 7 12 8 16 9 13 10 17 11 31 12
REMARK SMILES IDX 14 13 18 14 30 15 32 16 19 17 29 18 21 19 20 20 28 21 22 22
REMARK SMILES IDX 25 23 23 24 26 25 27 26 8 27 9 28 10 29 2 30 3 31 1 32 24 33
REMARK H PARENT 24 34
REMARK Flexibility Score: inf
ROOT
ATOM      1  C   UNL     1      33.167   7.463 -18.981  1.00  0.00     0.014 C 
ATOM      2  C   UNL     1      33.430   7.681 -20.508  1.00  0.00     0.014 C 
ATOM      3  C   UNL     1      33.827   8.703 -18.300  1.00  0.00     0.012 C 
ATOM      4  C   UNL     1      31.634   7.350 -18.701  1.00  0.00     0.014 C 
ATOM      5  C   UNL     1      34.488   8.780 -20.631  1.00  0.00     0.009 C 
ATOM      6  C   UNL     1      32.756   9.860 -18.164  1.00  0.00     0.000 C 
ATOM      7  C   UNL     1      35.047   8.950 -19.227  1.00  0.00     0.018 C 
ATOM      8  C   UNL     1      31.252   7.935 -17.337  1.00  0.00     0.008 C 
ATOM      9  C   UNL     1      33.333  11.240 -17.823  1.00  0.00     0.005 C 
ATOM     10  C   UNL     1      31.601   9.468 -17.164  1.00  0.00    -0.024 C 
ATOM     11  C   UNL     1      32.308  12.286 -17.347  1.00  0.00     0.005 C 
ATOM     12  C   UNL     1      30.336  10.446 -17.418  1.00  0.00    -0.024 C 
ATOM     13  C   UNL     1      32.098   9.592 -15.679  1.00  0.00     0.012 C 
ATOM     14  C   UNL     1      30.784  11.985 -17.575  1.00  0.00     0.002 C 
ATOM     15  C   UNL     1      29.546   9.999 -18.691  1.00  0.00     0.008 C 
ATOM     16  C   UNL     1      29.333  10.323 -16.219  1.00  0.00     0.012 C 
ATOM     17  C   UNL     1      30.136  12.810 -18.788  1.00  0.00    -0.026 C 
ATOM     18  C   UNL     1      28.379  10.909 -19.101  1.00  0.00     0.005 C 
ATOM     19  C   UNL     1      30.238  14.342 -18.467  1.00  0.00     0.010 C 
ATOM     20  C   UNL     1      30.886  12.522 -20.127  1.00  0.00     0.012 C 
ATOM     21  C   UNL     1      28.609  12.430 -18.858  1.00  0.00     0.003 C 
ATOM     22  C   UNL     1      29.374  15.239 -19.356  1.00  0.00     0.033 C 
ATOM     23  C   UNL     1      27.653  13.371 -19.717  1.00  0.00    -0.006 C 
ATOM     24  C   UNL     1      27.892  14.868 -19.290  1.00  0.00     0.120 C 
ATOM     25  C   UNL     1      27.835  13.219 -21.254  1.00  0.00     0.014 C 
ATOM     26  C   UNL     1      26.180  12.985 -19.386  1.00  0.00     0.014 C 
ENDROOT
BRANCH   1  27
ATOM     27  C   UNL     1      33.863   6.192 -18.483  1.00  0.00     0.048 C 
ATOM     28  O   UNL     1      34.219   6.090 -17.279  1.00  0.00    -0.550 OA
ATOM     29  O   UNL     1      34.207   5.168 -19.363  1.00  0.00    -0.550 OA
ENDBRANCH   1  27
BRANCH   7  30
ATOM     30  C   UNL     1      35.935  10.166 -18.964  1.00  0.00    -0.077 C 
ATOM     31  C   UNL     1      36.248  11.207 -20.018  1.00  0.00     0.039 C 
ATOM     32  C   UNL     1      36.576  10.251 -17.787  1.00  0.00     0.008 C 
ENDBRANCH   7  30
BRANCH  24  33
ATOM     33  O   UNL     1      27.200  15.816 -20.074  1.00  0.00    -0.393 OA
ATOM     34  H   UNL     1      26.805  16.504 -19.485  1.00  0.00     0.210 HD
ENDBRANCH  24  33
TORSDOF 3
ENDMDL
MODEL 2
REMARK VINA RESULT:    -5.977      1.649      7.941
REMARK INTER + INTRA:          -7.448
REMARK INTER:                  -6.839
REMARK INTRA:                  -0.610
REMARK UNBOUND:                -0.598
REMARK SMILES C=C(C)[C@@H]1CC[C@]2(C(=O)[O-])CC[C@@]3(C)[C@@H](CC[C@H]4[C@]5(C)CC[C@@H](O)C(C)(C)[C@H]5CC[C@]43C)[C@H]12
REMARK SMILES IDX 7 1 6 2 33 3 11 4 5 5 15 6 4 7 12 8 16 9 13 10 17 11 31 12
REMARK SMILES IDX 14 13 18 14 30 15 32 16 19 17 29 18 21 19 20 20 28 21 22 22
REMARK SMILES IDX 25 23 23 24 26 25 27 26 8 27 9 28 10 29 2 30 3 31 1 32 24 33
REMARK H PARENT 24 34
REMARK Flexibility Score: inf
ROOT
ATOM      1  C   UNL     1      27.705  14.837 -18.280  1.00  0.00     0.014 C 
ATOM      2  C   UNL     1      28.254  15.449 -19.611  1.00  0.00     0.014 C 
ATOM      3  C   UNL     1      27.106  13.462 -18.711  1.00  0.00     0.012 C 
ATOM      4  C   UNL     1      28.850  14.706 -17.226  1.00  0.00     0.014 C 
ATOM      5  C   UNL     1      27.664  14.630 -20.762  1.00  0.00     0.009 C 
ATOM      6  C   UNL     1      28.217  12.343 -18.590  1.00  0.00     0.000 C 
ATOM      7  C   UNL     1      26.564  13.794 -20.128  1.00  0.00     0.018 C 
ATOM      8  C   UNL     1      28.665  13.483 -16.320  1.00  0.00     0.008 C 
ATOM      9  C   UNL     1      27.881  11.017 -19.286  1.00  0.00     0.005 C 
ATOM     10  C   UNL     1      28.637  12.101 -17.088  1.00  0.00    -0.024 C 
ATOM     11  C   UNL     1      28.768   9.821 -18.894  1.00  0.00     0.005 C 
ATOM     12  C   UNL     1      30.057  11.325 -17.062  1.00  0.00    -0.024 C 
ATOM     13  C   UNL     1      27.540  11.260 -16.343  1.00  0.00     0.012 C 
ATOM     14  C   UNL     1      30.104  10.112 -18.121  1.00  0.00     0.002 C 
ATOM     15  C   UNL     1      31.230  12.318 -17.353  1.00  0.00     0.008 C 
ATOM     16  C   UNL     1      30.316  10.760 -15.622  1.00  0.00     0.012 C 
ATOM     17  C   UNL     1      31.417   9.994 -19.032  1.00  0.00    -0.026 C 
ATOM     18  C   UNL     1      32.625  11.685 -17.458  1.00  0.00     0.005 C 
ATOM     19  C   UNL     1      31.530   8.522 -19.564  1.00  0.00     0.010 C 
ATOM     20  C   UNL     1      31.347  10.968 -20.249  1.00  0.00     0.012 C 
ATOM     21  C   UNL     1      32.663  10.271 -18.108  1.00  0.00     0.003 C 
ATOM     22  C   UNL     1      32.890   8.162 -20.164  1.00  0.00     0.033 C 
ATOM     23  C   UNL     1      34.098   9.853 -18.659  1.00  0.00    -0.006 C 
ATOM     24  C   UNL     1      34.035   8.365 -19.170  1.00  0.00     0.120 C 
ATOM     25  C   UNL     1      34.635  10.783 -19.783  1.00  0.00     0.014 C 
ATOM     26  C   UNL     1      35.105   9.932 -17.473  1.00  0.00     0.014 C 
ENDROOT
BRANCH   1  27
ATOM     27  C   UNL     1      26.586  15.708 -17.700  1.00  0.00     0.048 C 
ATOM     28  O   UNL     1      26.677  16.965 -17.729  1.00  0.00    -0.550 OA
ATOM     29  O   UNL     1      25.497  15.139 -17.045  1.00  0.00    -0.550 OA
ENDBRANCH   1  27
BRANCH   7  30
ATOM     30  C   UNL     1      25.962  12.666 -20.965  1.00  0.00    -0.077 C 
ATOM     31  C   UNL     1      26.569  12.187 -22.267  1.00  0.00     0.039 C 
ATOM     32  C   UNL     1      24.770  12.163 -20.606  1.00  0.00     0.008 C 
ENDBRANCH   7  30
BRANCH  24  33
ATOM     33  O   UNL     1      35.212   7.918 -19.808  1.00  0.00    -0.393 OA
ATOM     34  H   UNL     1      35.978   8.464 -19.505  1.00  0.00     0.210 HD
ENDBRANCH  24  33
TORSDOF 3
ENDMDL
MODEL 3
REMARK VINA RESULT:    -5.635      4.204      8.372
REMARK INTER + INTRA:          -7.057
REMARK INTER:                  -6.899
REMARK INTRA:                  -0.158
REMARK UNBOUND:                -0.598
REMARK SMILES C=C(C)[C@@H]1CC[C@]2(C(=O)[O-])CC[C@@]3(C)[C@@H](CC[C@H]4[C@]5(C)CC[C@@H](O)C(C)(C)[C@H]5CC[C@]43C)[C@H]12
REMARK SMILES IDX 7 1 6 2 33 3 11 4 5 5 15 6 4 7 12 8 16 9 13 10 17 11 31 12
REMARK SMILES IDX 14 13 18 14 30 15 32 16 19 17 29 18 21 19 20 20 28 21 22 22
REMARK SMILES IDX 25 23 23 24 26 25 27 26 8 27 9 28 10 29 2 30 3 31 1 32 24 33
REMARK H PARENT 24 34
REMARK Flexibility Score: inf
ROOT
ATOM      1  C   UNL     1      27.313  16.248 -18.024  1.00  0.00     0.014 C 
ATOM      2  C   UNL     1      25.812  16.268 -18.468  1.00  0.00     0.014 C 
ATOM      3  C   UNL     1      27.394  15.067 -17.009  1.00  0.00     0.012 C 
ATOM      4  C   UNL     1      28.246  16.062 -19.263  1.00  0.00     0.014 C 
ATOM      5  C   UNL     1      25.039  15.391 -17.481  1.00  0.00     0.009 C 
ATOM      6  C   UNL     1      27.763  13.735 -17.780  1.00  0.00     0.000 C 
ATOM      7  C   UNL     1      26.001  15.148 -16.330  1.00  0.00     0.018 C 
ATOM      8  C   UNL     1      29.505  15.257 -18.921  1.00  0.00     0.008 C 
ATOM      9  C   UNL     1      27.555  12.443 -16.979  1.00  0.00     0.005 C 
ATOM     10  C   UNL     1      29.219  13.797 -18.383  1.00  0.00    -0.024 C 
ATOM     11  C   UNL     1      28.224  11.186 -17.565  1.00  0.00     0.005 C 
ATOM     12  C   UNL     1      29.362  12.656 -19.522  1.00  0.00    -0.024 C 
ATOM     13  C   UNL     1      30.289  13.579 -17.253  1.00  0.00     0.012 C 
ATOM     14  C   UNL     1      28.741  11.247 -19.047  1.00  0.00     0.002 C 
ATOM     15  C   UNL     1      28.667  13.113 -20.846  1.00  0.00     0.008 C 
ATOM     16  C   UNL     1      30.877  12.456 -19.874  1.00  0.00     0.012 C 
ATOM     17  C   UNL     1      27.800  10.479 -20.093  1.00  0.00    -0.026 C 
ATOM     18  C   UNL     1      28.643  12.073 -21.976  1.00  0.00     0.005 C 
ATOM     19  C   UNL     1      27.753   8.959 -19.707  1.00  0.00     0.010 C 
ATOM     20  C   UNL     1      26.349  11.052 -20.070  1.00  0.00     0.012 C 
ATOM     21  C   UNL     1      28.473  10.596 -21.513  1.00  0.00     0.003 C 
ATOM     22  C   UNL     1      27.177   8.042 -20.788  1.00  0.00     0.033 C 
ATOM     23  C   UNL     1      27.955   9.617 -22.658  1.00  0.00    -0.006 C 
ATOM     24  C   UNL     1      27.948   8.143 -22.104  1.00  0.00     0.120 C 
ATOM     25  C   UNL     1      26.551   9.986 -23.214  1.00  0.00     0.014 C 
ATOM     26  C   UNL     1      28.959   9.701 -23.847  1.00  0.00     0.014 C 
ENDROOT
BRANCH   1  27
ATOM     27  C   UNL     1      27.685  17.549 -17.306  1.00  0.00     0.048 C 
ATOM     28  O   UNL     1      28.816  18.076 -17.487  1.00  0.00    -0.550 OA
ATOM     29  O   UNL     1      26.831  18.125 -16.369  1.00  0.00    -0.550 OA
ENDBRANCH   1  27
BRANCH   7  30
ATOM     30  C   UNL     1      25.621  14.080 -15.305  1.00  0.00    -0.077 C 
ATOM     31  C   UNL     1      24.582  13.010 -15.570  1.00  0.00     0.039 C 
ATOM     32  C   UNL     1      26.130  14.167 -14.065  1.00  0.00     0.008 C 
ENDBRANCH   7  30
BRANCH  24  33
ATOM     33  O   UNL     1      27.381   7.194 -22.982  1.00  0.00    -0.393 OA
ATOM     34  H   UNL     1      28.006   7.022 -23.728  1.00  0.00     0.210 HD
ENDBRANCH  24  33
TORSDOF 3
ENDMDL
MODEL 4
REMARK VINA RESULT:    -5.541      1.835      2.815
REMARK INTER + INTRA:          -6.949
REMARK INTER:                  -6.662
REMARK INTRA:                  -0.287
REMARK UNBOUND:                -0.598
REMARK SMILES C=C(C)[C@@H]1CC[C@]2(C(=O)[O-])CC[C@@]3(C)[C@@H](CC[C@H]4[C@]5(C)CC[C@@H](O)C(C)(C)[C@H]5CC[C@]43C)[C@H]12
REMARK SMILES IDX 7 1 6 2 33 3 11 4 5 5 15 6 4 7 12 8 16 9 13 10 17 11 31 12
REMARK SMILES IDX 14 13 18 14 30 15 32 16 19 17 29 18 21 19 20 20 28 21 22 22
REMARK SMILES IDX 25 23 23 24 26 25 27 26 8 27 9 28 10 29 2 30 3 31 1 32 24 33
REMARK H PARENT 24 34
REMARK Flexibility Score: inf
ROOT
ATOM      1  C   UNL     1      32.900   8.789 -16.608  1.00  0.00     0.014 C 
ATOM      2  C   UNL     1      32.549   7.542 -17.485  1.00  0.00     0.014 C 
ATOM      3  C   UNL     1      33.306   9.882 -17.644  1.00  0.00     0.012 C 
ATOM      4  C   UNL     1      31.678   9.199 -15.726  1.00  0.00     0.014 C 
ATOM      5  C   UNL     1      33.083   7.816 -18.893  1.00  0.00     0.009 C 
ATOM      6  C   UNL     1      32.027  10.720 -18.052  1.00  0.00     0.000 C 
ATOM      7  C   UNL     1      33.991   9.026 -18.743  1.00  0.00     0.018 C 
ATOM      8  C   UNL     1      31.606  10.714 -15.508  1.00  0.00     0.008 C 
ATOM      9  C   UNL     1      32.200  11.602 -19.296  1.00  0.00     0.005 C 
ATOM     10  C   UNL     1      31.470  11.559 -16.838  1.00  0.00    -0.024 C 
ATOM     11  C   UNL     1      31.112  12.671 -19.504  1.00  0.00     0.005 C 
ATOM     12  C   UNL     1      29.948  12.002 -17.164  1.00  0.00    -0.024 C 
ATOM     13  C   UNL     1      32.368  12.825 -16.591  1.00  0.00     0.012 C 
ATOM     14  C   UNL     1      29.787  12.552 -18.669  1.00  0.00     0.002 C 
ATOM     15  C   UNL     1      28.969  10.804 -16.937  1.00  0.00     0.008 C 
ATOM     16  C   UNL     1      29.504  13.121 -16.159  1.00  0.00     0.012 C 
ATOM     17  C   UNL     1      28.538  12.004 -19.512  1.00  0.00    -0.026 C 
ATOM     18  C   UNL     1      27.503  11.065 -17.311  1.00  0.00     0.005 C 
ATOM     19  C   UNL     1      28.234  13.013 -20.675  1.00  0.00     0.010 C 
ATOM     20  C   UNL     1      28.845  10.602 -20.126  1.00  0.00     0.012 C 
ATOM     21  C   UNL     1      27.290  11.982 -18.552  1.00  0.00     0.003 C 
ATOM     22  C   UNL     1      26.880  12.812 -21.357  1.00  0.00     0.033 C 
ATOM     23  C   UNL     1      25.849  11.841 -19.217  1.00  0.00    -0.006 C 
ATOM     24  C   UNL     1      25.714  12.904 -20.371  1.00  0.00     0.120 C 
ATOM     25  C   UNL     1      25.544  10.418 -19.762  1.00  0.00     0.014 C 
ATOM     26  C   UNL     1      24.786  12.154 -18.122  1.00  0.00     0.014 C 
ENDROOT
BRANCH   1  27
ATOM     27  C   UNL     1      34.098   8.495 -15.699  1.00  0.00     0.048 C 
ATOM     28  O   UNL     1      33.924   7.983 -14.560  1.00  0.00    -0.550 OA
ATOM     29  O   UNL     1      35.389   8.874 -16.063  1.00  0.00    -0.550 OA
ENDBRANCH   1  27
BRANCH   7  30
ATOM     30  C   UNL     1      34.467   9.716 -20.021  1.00  0.00    -0.077 C 
ATOM     31  C   UNL     1      34.055   9.265 -21.407  1.00  0.00     0.039 C 
ATOM     32  C   UNL     1      35.395  10.682 -19.924  1.00  0.00     0.008 C 
ENDBRANCH   7  30
BRANCH  24  33
ATOM     33  O   UNL     1      24.529  12.792 -21.130  1.00  0.00    -0.393 OA
ATOM     34  H   UNL     1      23.755  13.047 -20.571  1.00  0.00     0.210 HD
ENDBRANCH  24  33
TORSDOF 3
ENDMDL
MODEL 5
REMARK VINA RESULT:    -5.506      1.752      3.027
REMARK INTER + INTRA:          -6.909
REMARK INTER:                  -6.306
REMARK INTRA:                  -0.603
REMARK UNBOUND:                -0.598
REMARK SMILES C=C(C)[C@@H]1CC[C@]2(C(=O)[O-])CC[C@@]3(C)[C@@H](CC[C@H]4[C@]5(C)CC[C@@H](O)C(C)(C)[C@H]5CC[C@]43C)[C@H]12
REMARK SMILES IDX 7 1 6 2 33 3 11 4 5 5 15 6 4 7 12 8 16 9 13 10 17 11 31 12
REMARK SMILES IDX 14 13 18 14 30 15 32 16 19 17 29 18 21 19 20 20 28 21 22 22
REMARK SMILES IDX 25 23 23 24 26 25 27 26 8 27 9 28 10 29 2 30 3 31 1 32 24 33
REMARK H PARENT 24 34
REMARK Flexibility Score: inf
ROOT
ATOM      1  C   UNL     1      33.840   8.296 -21.047  1.00  0.00     0.014 C 
ATOM      2  C   UNL     1      35.040   9.284 -20.867  1.00  0.00     0.014 C 
ATOM      3  C   UNL     1      33.412   7.945 -19.588  1.00  0.00     0.012 C 
ATOM      4  C   UNL     1      32.701   8.966 -21.880  1.00  0.00     0.014 C 
ATOM      5  C   UNL     1      35.482   9.194 -19.404  1.00  0.00     0.009 C 
ATOM      6  C   UNL     1      32.302   8.965 -19.107  1.00  0.00     0.000 C 
ATOM      7  C   UNL     1      34.780   7.963 -18.854  1.00  0.00     0.018 C 
ATOM      8  C   UNL     1      31.311   8.493 -21.440  1.00  0.00     0.008 C 
ATOM      9  C   UNL     1      32.024   8.956 -17.598  1.00  0.00     0.005 C 
ATOM     10  C   UNL     1      30.965   8.799 -19.928  1.00  0.00    -0.024 C 
ATOM     11  C   UNL     1      30.732   9.668 -17.159  1.00  0.00     0.005 C 
ATOM     12  C   UNL     1      30.065  10.130 -19.733  1.00  0.00    -0.024 C 
ATOM     13  C   UNL     1      30.179   7.529 -19.440  1.00  0.00     0.012 C 
ATOM     14  C   UNL     1      30.016  10.608 -18.195  1.00  0.00     0.002 C 
ATOM     15  C   UNL     1      30.606  11.294 -20.625  1.00  0.00     0.008 C 
ATOM     16  C   UNL     1      28.603   9.848 -20.228  1.00  0.00     0.012 C 
ATOM     17  C   UNL     1      30.239  12.170 -17.913  1.00  0.00    -0.026 C 
ATOM     18  C   UNL     1      29.898  12.645 -20.454  1.00  0.00     0.005 C 
ATOM     19  C   UNL     1      29.630  12.520 -16.510  1.00  0.00     0.010 C 
ATOM     20  C   UNL     1      31.757  12.530 -17.911  1.00  0.00     0.012 C 
ATOM     21  C   UNL     1      29.431  12.969 -19.004  1.00  0.00     0.003 C 
ATOM     22  C   UNL     1      29.462  14.017 -16.243  1.00  0.00     0.033 C 
ATOM     23  C   UNL     1      29.170  14.519 -18.742  1.00  0.00    -0.006 C 
ATOM     24  C   UNL     1      28.583  14.699 -17.292  1.00  0.00     0.120 C 
ATOM     25  C   UNL     1      30.432  15.408 -18.922  1.00  0.00     0.014 C 
ATOM     26  C   UNL     1      28.110  15.005 -19.775  1.00  0.00     0.014 C 
ENDROOT
BRANCH   1  27
ATOM     27  C   UNL     1      34.292   7.014 -21.755  1.00  0.00     0.048 C 
ATOM     28  O   UNL     1      33.583   5.974 -21.703  1.00  0.00    -0.550 OA
ATOM     29  O   UNL     1      35.532   6.938 -22.385  1.00  0.00    -0.550 OA
ENDBRANCH   1  27
BRANCH   7  30
ATOM     30  C   UNL     1      34.802   7.755 -17.340  1.00  0.00    -0.077 C 
ATOM     31  C   UNL     1      35.394   8.761 -16.375  1.00  0.00     0.039 C 
ATOM     32  C   UNL     1      34.400   6.572 -16.847  1.00  0.00     0.008 C 
ENDBRANCH   7  30
BRANCH  24  33
ATOM     33  O   UNL     1      28.433  16.043 -16.887  1.00  0.00    -0.393 OA
ATOM     34  H   UNL     1      28.720  16.136 -15.946  1.00  0.00     0.210 HD
ENDBRANCH  24  33
TORSDOF 3
ENDMDL
MODEL 6
REMARK VINA RESULT:    -5.505      3.477      7.090
REMARK INTER + INTRA:          -6.908
REMARK INTER:                  -6.363
REMARK INTRA:                  -0.546
REMARK UNBOUND:                -0.598
REMARK SMILES C=C(C)[C@@H]1CC[C@]2(C(=O)[O-])CC[C@@]3(C)[C@@H](CC[C@H]4[C@]5(C)CC[C@@H](O)C(C)(C)[C@H]5CC[C@]43C)[C@H]12
REMARK SMILES IDX 7 1 6 2 33 3 11 4 5 5 15 6 4 7 12 8 16 9 13 10 17 11 31 12
REMARK SMILES IDX 14 13 18 14 30 15 32 16 19 17 29 18 21 19 20 20 28 21 22 22
REMARK SMILES IDX 25 23 23 24 26 25 27 26 8 27 9 28 10 29 2 30 3 31 1 32 24 33
REMARK H PARENT 24 34
REMARK Flexibility Score: inf
ROOT
ATOM      1  C   UNL     1      28.242  12.349 -20.246  1.00  0.00     0.014 C 
ATOM      2  C   UNL     1      26.770  12.783 -19.944  1.00  0.00     0.014 C 
ATOM      3  C   UNL     1      29.113  13.403 -19.495  1.00  0.00     0.012 C 
ATOM      4  C   UNL     1      28.490  10.885 -19.761  1.00  0.00     0.014 C 
ATOM      5  C   UNL     1      26.827  14.201 -19.370  1.00  0.00     0.009 C 
ATOM      6  C   UNL     1      29.421  12.883 -18.032  1.00  0.00     0.000 C 
ATOM      7  C   UNL     1      28.244  14.681 -19.641  1.00  0.00     0.018 C 
ATOM      8  C   UNL     1      29.926  10.676 -19.267  1.00  0.00     0.008 C 
ATOM      9  C   UNL     1      29.978  13.942 -17.071  1.00  0.00     0.005 C 
ATOM     10  C   UNL     1      30.339  11.600 -18.052  1.00  0.00    -0.024 C 
ATOM     11  C   UNL     1      30.604  13.396 -15.776  1.00  0.00     0.005 C 
ATOM     12  C   UNL     1      30.232  10.859 -16.617  1.00  0.00    -0.024 C 
ATOM     13  C   UNL     1      31.829  12.000 -18.352  1.00  0.00     0.012 C 
ATOM     14  C   UNL     1      30.321  11.900 -15.390  1.00  0.00     0.002 C 
ATOM     15  C   UNL     1      28.900  10.047 -16.518  1.00  0.00     0.008 C 
ATOM     16  C   UNL     1      31.390   9.810 -16.485  1.00  0.00     0.012 C 
ATOM     17  C   UNL     1      29.247  11.726 -14.213  1.00  0.00    -0.026 C 
ATOM     18  C   UNL     1      28.629   9.379 -15.163  1.00  0.00     0.005 C 
ATOM     19  C   UNL     1      29.805  12.415 -12.918  1.00  0.00     0.010 C 
ATOM     20  C   UNL     1      27.886  12.389 -14.591  1.00  0.00     0.012 C 
ATOM     21  C   UNL     1      29.108  10.185 -13.920  1.00  0.00     0.003 C 
ATOM     22  C   UNL     1      29.062  12.052 -11.631  1.00  0.00     0.033 C 
ATOM     23  C   UNL     1      28.400   9.753 -12.560  1.00  0.00    -0.006 C 
ATOM     24  C   UNL     1      29.059  10.545 -11.368  1.00  0.00     0.120 C 
ATOM     25  C   UNL     1      26.861   9.966 -12.557  1.00  0.00     0.014 C 
ATOM     26  C   UNL     1      28.657   8.231 -12.351  1.00  0.00     0.014 C 
ENDROOT
BRANCH   1  27
ATOM     27  C   UNL     1      28.539  12.436 -21.747  1.00  0.00     0.048 C 
ATOM     28  O   UNL     1      27.626  12.740 -22.561  1.00  0.00    -0.550 OA
ATOM     29  O   UNL     1      29.789  12.090 -22.255  1.00  0.00    -0.550 OA
ENDBRANCH   1  27
BRANCH   7  30
ATOM     30  C   UNL     1      28.701  15.962 -18.946  1.00  0.00    -0.077 C 
ATOM     31  C   UNL     1      27.864  16.688 -17.914  1.00  0.00     0.039 C 
ATOM     32  C   UNL     1      29.836  16.549 -19.359  1.00  0.00     0.008 C 
ENDBRANCH   7  30
BRANCH  24  33
ATOM     33  O   UNL     1      28.428  10.351 -10.121  1.00  0.00    -0.393 OA
ATOM     34  H   UNL     1      27.773  11.075  -9.967  1.00  0.00     0.210 HD
ENDBRANCH  24  33
TORSDOF 3
ENDMDL
MODEL 7
REMARK VINA RESULT:    -5.388      3.589      7.882
REMARK INTER + INTRA:          -6.773
REMARK INTER:                  -6.159
REMARK INTRA:                  -0.614
REMARK UNBOUND:                -0.598
REMARK SMILES C=C(C)[C@@H]1CC[C@]2(C(=O)[O-])CC[C@@]3(C)[C@@H](CC[C@H]4[C@]5(C)CC[C@@H](O)C(C)(C)[C@H]5CC[C@]43C)[C@H]12
REMARK SMILES IDX 7 1 6 2 33 3 11 4 5 5 15 6 4 7 12 8 16 9 13 10 17 11 31 12
REMARK SMILES IDX 14 13 18 14 30 15 32 16 19 17 29 18 21 19 20 20 28 21 22 22
REMARK SMILES IDX 25 23 23 24 26 25 27 26 8 27 9 28 10 29 2 30 3 31 1 32 24 33
REMARK H PARENT 24 34
REMARK Flexibility Score: inf
ROOT
ATOM      1  C   UNL     1      27.261  12.225 -20.098  1.00  0.00     0.014 C 
ATOM      2  C   UNL     1      25.962  11.527 -19.575  1.00  0.00     0.014 C 
ATOM      3  C   UNL     1      27.425  13.470 -19.171  1.00  0.00     0.012 C 
ATOM      4  C   UNL     1      28.474  11.243 -20.032  1.00  0.00     0.014 C 
ATOM      5  C   UNL     1      25.252  12.525 -18.657  1.00  0.00     0.009 C 
ATOM      6  C   UNL     1      28.319  13.081 -17.924  1.00  0.00     0.000 C 
ATOM      7  C   UNL     1      25.944  13.855 -18.908  1.00  0.00     0.018 C 
ATOM      8  C   UNL     1      29.789  11.970 -19.728  1.00  0.00     0.008 C 
ATOM      9  C   UNL     1      28.295  14.091 -16.769  1.00  0.00     0.005 C 
ATOM     10  C   UNL     1      29.800  12.749 -18.352  1.00  0.00    -0.024 C 
ATOM     11  C   UNL     1      29.404  13.918 -15.716  1.00  0.00     0.005 C 
ATOM     12  C   UNL     1      30.517  11.927 -17.157  1.00  0.00    -0.024 C 
ATOM     13  C   UNL     1      30.591  14.072 -18.657  1.00  0.00     0.012 C 
ATOM     14  C   UNL     1      30.218  12.575 -15.712  1.00  0.00     0.002 C 
ATOM     15  C   UNL     1      30.055  10.433 -17.165  1.00  0.00     0.008 C 
ATOM     16  C   UNL     1      32.067  11.903 -17.397  1.00  0.00     0.012 C 
ATOM     17  C   UNL     1      29.800  11.568 -14.537  1.00  0.00    -0.026 C 
ATOM     18  C   UNL     1      30.587   9.568 -16.013  1.00  0.00     0.005 C 
ATOM     19  C   UNL     1      30.086  12.258 -13.157  1.00  0.00     0.010 C 
ATOM     20  C   UNL     1      28.284  11.208 -14.618  1.00  0.00     0.012 C 
ATOM     21  C   UNL     1      30.728  10.300 -14.646  1.00  0.00     0.003 C 
ATOM     22  C   UNL     1      30.058  11.314 -11.954  1.00  0.00     0.033 C 
ATOM     23  C   UNL     1      30.787   9.319 -13.393  1.00  0.00    -0.006 C 
ATOM     24  C   UNL     1      31.059  10.166 -12.094  1.00  0.00     0.120 C 
ATOM     25  C   UNL     1      29.508   8.455 -13.209  1.00  0.00     0.014 C 
ATOM     26  C   UNL     1      31.979   8.339 -13.610  1.00  0.00     0.014 C 
ENDROOT
BRANCH   1  27
ATOM     27  C   UNL     1      27.078  12.702 -21.543  1.00  0.00     0.048 C 
ATOM     28  O   UNL     1      27.656  13.746 -21.948  1.00  0.00    -0.550 OA
ATOM     29  O   UNL     1      26.200  12.055 -22.409  1.00  0.00    -0.550 OA
ENDBRANCH   1  27
BRANCH   7  30
ATOM     30  C   UNL     1      25.645  15.001 -17.942  1.00  0.00    -0.077 C 
ATOM     31  C   UNL     1      24.861  14.818 -16.659  1.00  0.00     0.039 C 
ATOM     32  C   UNL     1      25.973  16.251 -18.305  1.00  0.00     0.008 C 
ENDBRANCH   7  30
BRANCH  24  33
ATOM     33  O   UNL     1      31.000   9.426 -10.893  1.00  0.00    -0.393 OA
ATOM     34  H   UNL     1      30.079   9.095 -10.756  1.00  0.00     0.210 HD
ENDBRANCH  24  33
TORSDOF 3
ENDMDL
MODEL 8
REMARK VINA RESULT:    -5.340      1.975      7.614
REMARK INTER + INTRA:          -6.718
REMARK INTER:                  -6.128
REMARK INTRA:                  -0.590
REMARK UNBOUND:                -0.598
REMARK SMILES C=C(C)[C@@H]1CC[C@]2(C(=O)[O-])CC[C@@]3(C)[C@@H](CC[C@H]4[C@]5(C)CC[C@@H](O)C(C)(C)[C@H]5CC[C@]43C)[C@H]12
REMARK SMILES IDX 7 1 6 2 33 3 11 4 5 5 15 6 4 7 12 8 16 9 13 10 17 11 31 12
REMARK SMILES IDX 14 13 18 14 30 15 32 16 19 17 29 18 21 19 20 20 28 21 22 22
REMARK SMILES IDX 25 23 23 24 26 25 27 26 8 27 9 28 10 29 2 30 3 31 1 32 24 33
REMARK H PARENT 24 34
REMARK Flexibility Score: inf
ROOT
ATOM      1  C   UNL     1      26.292  11.626 -19.521  1.00  0.00     0.014 C 
ATOM      2  C   UNL     1      26.080  11.685 -17.972  1.00  0.00     0.014 C 
ATOM      3  C   UNL     1      27.341  12.745 -19.805  1.00  0.00     0.012 C 
ATOM      4  C   UNL     1      26.774  10.204 -19.953  1.00  0.00     0.014 C 
ATOM      5  C   UNL     1      26.695  12.998 -17.482  1.00  0.00     0.009 C 
ATOM      6  C   UNL     1      28.797  12.130 -19.736  1.00  0.00     0.000 C 
ATOM      7  C   UNL     1      26.953  13.808 -18.743  1.00  0.00     0.018 C 
ATOM      8  C   UNL     1      27.728  10.258 -21.152  1.00  0.00     0.008 C 
ATOM      9  C   UNL     1      29.934  13.159 -19.665  1.00  0.00     0.005 C 
ATOM     10  C   UNL     1      29.047  11.094 -20.899  1.00  0.00    -0.024 C 
ATOM     11  C   UNL     1      31.343  12.608 -19.947  1.00  0.00     0.005 C 
ATOM     12  C   UNL     1      30.324  10.176 -20.516  1.00  0.00    -0.024 C 
ATOM     13  C   UNL     1      29.300  11.846 -22.255  1.00  0.00     0.012 C 
ATOM     14  C   UNL     1      31.545  11.051 -19.936  1.00  0.00     0.002 C 
ATOM     15  C   UNL     1      29.920   9.084 -19.472  1.00  0.00     0.008 C 
ATOM     16  C   UNL     1      30.809   9.399 -21.789  1.00  0.00     0.012 C 
ATOM     17  C   UNL     1      32.268  10.501 -18.614  1.00  0.00    -0.026 C 
ATOM     18  C   UNL     1      31.069   8.210 -18.948  1.00  0.00     0.005 C 
ATOM     19  C   UNL     1      33.703  11.130 -18.527  1.00  0.00     0.010 C 
ATOM     20  C   UNL     1      31.466  10.888 -17.333  1.00  0.00     0.012 C 
ATOM     21  C   UNL     1      32.432   8.943 -18.776  1.00  0.00     0.003 C 
ATOM     22  C   UNL     1      34.635  10.456 -17.518  1.00  0.00     0.033 C 
ATOM     23  C   UNL     1      33.443   8.201 -17.793  1.00  0.00    -0.006 C 
ATOM     24  C   UNL     1      34.819   8.965 -17.805  1.00  0.00     0.120 C 
ATOM     25  C   UNL     1      32.918   8.067 -16.336  1.00  0.00     0.014 C 
ATOM     26  C   UNL     1      33.666   6.759 -18.338  1.00  0.00     0.014 C 
ENDROOT
BRANCH   1  27
ATOM     27  C   UNL     1      24.993  11.962 -20.262  1.00  0.00     0.048 C 
ATOM     28  O   UNL     1      23.876  11.767 -19.710  1.00  0.00    -0.550 OA
ATOM     29  O   UNL     1      25.010  12.393 -21.586  1.00  0.00    -0.550 OA
ENDBRANCH   1  27
BRANCH   7  30
ATOM     30  C   UNL     1      27.815  15.063 -18.611  1.00  0.00    -0.077 C 
ATOM     31  C   UNL     1      28.426  15.515 -17.302  1.00  0.00     0.039 C 
ATOM     32  C   UNL     1      27.931  15.878 -19.672  1.00  0.00     0.008 C 
ENDBRANCH   7  30
BRANCH  24  33
ATOM     33  O   UNL     1      35.761   8.484 -16.869  1.00  0.00    -0.393 OA
ATOM     34  H   UNL     1      36.532   8.096 -17.349  1.00  0.00     0.210 HD
ENDBRANCH  24  33
TORSDOF 3
ENDMDL
