MODEL 1
REMARK VINA RESULT:    -6.030      0.000      0.000
REMARK INTER + INTRA:          -7.383
REMARK INTER:                  -7.088
REMARK INTRA:                  -0.295
REMARK UNBOUND:                -0.295
REMARK SMILES O=c1cc(-c2ccc(O)c(O)c2)oc2cc(O)cc(O)c12
REMARK SMILES IDX 4 1 3 2 2 3 1 4 21 5 19 6 18 7 16 8 15 9 14 10 13 11 5 12
REMARK SMILES IDX 6 13 7 14 8 15 12 16 10 17 9 18 11 20 20 22 17 24
REMARK H PARENT 9 19 11 21 20 23 17 25
REMARK Flexibility Score: inf
ROOT
ATOM      1  C   UNL     1      42.670  12.993  23.907  1.00  0.00     0.138 A 
ATOM      2  C   UNL     1      44.023  12.851  23.565  1.00  0.00     0.100 A 
ATOM      3  C   UNL     1      44.613  13.762  22.688  1.00  0.00     0.197 A 
ATOM      4  O   UNL     1      45.842  13.639  22.446  1.00  0.00    -0.289 OA
ATOM      5  C   UNL     1      43.835  14.800  22.123  1.00  0.00     0.107 A 
ATOM      6  C   UNL     1      44.321  15.767  21.192  1.00  0.00     0.134 A 
ATOM      7  C   UNL     1      43.482  16.808  20.776  1.00  0.00     0.093 A 
ATOM      8  C   UNL     1      42.157  16.885  21.214  1.00  0.00     0.123 A 
ATOM      9  C   UNL     1      41.659  15.919  22.084  1.00  0.00     0.094 A 
ATOM     10  C   UNL     1      42.481  14.887  22.544  1.00  0.00     0.146 A 
ATOM     11  O   UNL     1      41.971  13.996  23.387  1.00  0.00    -0.456 OA
ENDROOT
BRANCH   1  12
ATOM     12  C   UNL     1      41.991  12.052  24.832  1.00  0.00     0.021 A 
ATOM     13  C   UNL     1      40.641  12.212  25.191  1.00  0.00     0.016 A 
ATOM     14  C   UNL     1      40.027  11.304  26.056  1.00  0.00     0.051 A 
ATOM     15  C   UNL     1      40.737  10.217  26.575  1.00  0.00     0.157 A 
ATOM     16  C   UNL     1      42.700  10.952  25.342  1.00  0.00     0.062 A 
ATOM     17  C   UNL     1      42.092  10.036  26.211  1.00  0.00     0.158 A 
BRANCH  15  18
ATOM     18  O   UNL     1      40.063   9.348  27.436  1.00  0.00    -0.504 OA
ATOM     19  H   UNL     1      39.431   9.652  28.163  1.00  0.00     0.293 HD
ENDBRANCH  15  18
BRANCH  17  20
ATOM     20  O   UNL     1      42.864   8.973  26.683  1.00  0.00    -0.504 OA
ATOM     21  H   UNL     1      43.725   8.666  26.255  1.00  0.00     0.293 HD
ENDBRANCH  17  20
ENDBRANCH   1  12
BRANCH   6  22
ATOM     22  O   UNL     1      45.601  15.739  20.629  1.00  0.00    -0.507 OA
ATOM     23  H   UNL     1      46.398  16.251  20.974  1.00  0.00     0.293 HD
ENDBRANCH   6  22
BRANCH   8  24
ATOM     24  O   UNL     1      41.325  17.916  20.784  1.00  0.00    -0.508 OA
ATOM     25  H   UNL     1      40.456  18.129  21.260  1.00  0.00     0.293 HD
ENDBRANCH   8  24
TORSDOF 5
ENDMDL
MODEL 2
REMARK VINA RESULT:    -5.964      4.105      5.130
REMARK INTER + INTRA:          -7.305
REMARK INTER:                  -7.012
REMARK INTRA:                  -0.293
REMARK UNBOUND:                -0.295
REMARK SMILES O=c1cc(-c2ccc(O)c(O)c2)oc2cc(O)cc(O)c12
REMARK SMILES IDX 4 1 3 2 2 3 1 4 21 5 19 6 18 7 16 8 15 9 14 10 13 11 5 12
REMARK SMILES IDX 6 13 7 14 8 15 12 16 10 17 9 18 11 20 20 22 17 24
REMARK H PARENT 9 19 11 21 20 23 17 25
REMARK Flexibility Score: inf
ROOT
ATOM      1  C   UNL     1      45.647  13.317  23.066  1.00  0.00     0.138 A 
ATOM      2  C   UNL     1      45.800  14.244  22.024  1.00  0.00     0.100 A 
ATOM      3  C   UNL     1      45.841  15.608  22.314  1.00  0.00     0.197 A 
ATOM      4  O   UNL     1      46.035  16.409  21.363  1.00  0.00    -0.289 OA
ATOM      5  C   UNL     1      45.694  16.049  23.651  1.00  0.00     0.107 A 
ATOM      6  C   UNL     1      45.688  17.416  24.062  1.00  0.00     0.134 A 
ATOM      7  C   UNL     1      45.634  17.727  25.426  1.00  0.00     0.093 A 
ATOM      8  C   UNL     1      45.529  16.721  26.391  1.00  0.00     0.123 A 
ATOM      9  C   UNL     1      45.485  15.387  25.998  1.00  0.00     0.094 A 
ATOM     10  C   UNL     1      45.571  15.043  24.646  1.00  0.00     0.146 A 
ATOM     11  O   UNL     1      45.544  13.756  24.316  1.00  0.00    -0.456 OA
ENDROOT
BRANCH   1  12
ATOM     12  C   UNL     1      45.593  11.855  22.815  1.00  0.00     0.021 A 
ATOM     13  C   UNL     1      45.699  10.920  23.860  1.00  0.00     0.016 A 
ATOM     14  C   UNL     1      45.635   9.551  23.593  1.00  0.00     0.051 A 
ATOM     15  C   UNL     1      45.457   9.084  22.287  1.00  0.00     0.157 A 
ATOM     16  C   UNL     1      45.401  11.386  21.504  1.00  0.00     0.062 A 
ATOM     17  C   UNL     1      45.335  10.014  21.228  1.00  0.00     0.158 A 
BRANCH  15  18
ATOM     18  O   UNL     1      45.404   7.703  22.089  1.00  0.00    -0.504 OA
ATOM     19  H   UNL     1      45.917   7.033  22.645  1.00  0.00     0.293 HD
ENDBRANCH  15  18
BRANCH  17  20
ATOM     20  O   UNL     1      45.151   9.624  19.900  1.00  0.00    -0.504 OA
ATOM     21  H   UNL     1      45.319   8.689  19.557  1.00  0.00     0.293 HD
ENDBRANCH  17  20
ENDBRANCH   1  12
BRANCH   6  22
ATOM     22  O   UNL     1      45.708  18.500  23.178  1.00  0.00    -0.507 OA
ATOM     23  H   UNL     1      46.412  19.221  23.160  1.00  0.00     0.293 HD
ENDBRANCH   6  22
BRANCH   8  24
ATOM     24  O   UNL     1      45.461  17.041  27.745  1.00  0.00    -0.508 OA
ATOM     25  H   UNL     1      46.097  17.709  28.165  1.00  0.00     0.293 HD
ENDBRANCH   8  24
TORSDOF 5
ENDMDL
MODEL 3
REMARK VINA RESULT:    -5.880      4.900      9.482
REMARK INTER + INTRA:          -7.206
REMARK INTER:                  -6.912
REMARK INTRA:                  -0.294
REMARK UNBOUND:                -0.295
REMARK SMILES O=c1cc(-c2ccc(O)c(O)c2)oc2cc(O)cc(O)c12
REMARK SMILES IDX 4 1 3 2 2 3 1 4 21 5 19 6 18 7 16 8 15 9 14 10 13 11 5 12
REMARK SMILES IDX 6 13 7 14 8 15 12 16 10 17 9 18 11 20 20 22 17 24
REMARK H PARENT 9 19 11 21 20 23 17 25
REMARK Flexibility Score: inf
ROOT
ATOM      1  C   UNL     1      37.908  12.499  27.871  1.00  0.00     0.138 A 
ATOM      2  C   UNL     1      37.012  12.612  28.944  1.00  0.00     0.100 A 
ATOM      3  C   UNL     1      36.006  11.658  29.107  1.00  0.00     0.197 A 
ATOM      4  O   UNL     1      35.254  11.757  30.110  1.00  0.00    -0.289 OA
ATOM      5  C   UNL     1      35.876  10.605  28.171  1.00  0.00     0.107 A 
ATOM      6  C   UNL     1      34.870   9.594  28.217  1.00  0.00     0.134 A 
ATOM      7  C   UNL     1      34.902   8.545  27.290  1.00  0.00     0.093 A 
ATOM      8  C   UNL     1      35.870   8.501  26.283  1.00  0.00     0.123 A 
ATOM      9  C   UNL     1      36.827   9.509  26.199  1.00  0.00     0.094 A 
ATOM     10  C   UNL     1      36.842  10.551  27.130  1.00  0.00     0.146 A 
ATOM     11  O   UNL     1      37.784  11.482  27.025  1.00  0.00    -0.456 OA
ENDROOT
BRANCH   1  12
ATOM     12  C   UNL     1      38.994  13.487  27.647  1.00  0.00     0.021 A 
ATOM     13  C   UNL     1      39.996  13.279  26.684  1.00  0.00     0.016 A 
ATOM     14  C   UNL     1      41.000  14.231  26.491  1.00  0.00     0.051 A 
ATOM     15  C   UNL     1      41.022  15.410  27.243  1.00  0.00     0.157 A 
ATOM     16  C   UNL     1      39.009  14.677  28.394  1.00  0.00     0.062 A 
ATOM     17  C   UNL     1      40.011  15.638  28.206  1.00  0.00     0.158 A 
BRANCH  15  18
ATOM     18  O   UNL     1      42.054  16.319  27.001  1.00  0.00    -0.504 OA
ATOM     19  H   UNL     1      43.001  16.198  27.330  1.00  0.00     0.293 HD
ENDBRANCH  15  18
BRANCH  17  20
ATOM     20  O   UNL     1      39.965  16.791  28.991  1.00  0.00    -0.504 OA
ATOM     21  H   UNL     1      40.501  17.626  28.802  1.00  0.00     0.293 HD
ENDBRANCH  17  20
ENDBRANCH   1  12
BRANCH   6  22
ATOM     22  O   UNL     1      33.810   9.584  29.130  1.00  0.00    -0.507 OA
ATOM     23  H   UNL     1      32.854   9.817  28.911  1.00  0.00     0.293 HD
ENDBRANCH   6  22
BRANCH   8  24
ATOM     24  O   UNL     1      35.884   7.462  25.356  1.00  0.00    -0.508 OA
ATOM     25  H   UNL     1      35.025   7.064  24.993  1.00  0.00     0.293 HD
ENDBRANCH   8  24
TORSDOF 5
ENDMDL
MODEL 4
REMARK VINA RESULT:    -5.863      3.643      7.526
REMARK INTER + INTRA:          -7.186
REMARK INTER:                  -6.891
REMARK INTRA:                  -0.295
REMARK UNBOUND:                -0.295
REMARK SMILES O=c1cc(-c2ccc(O)c(O)c2)oc2cc(O)cc(O)c12
REMARK SMILES IDX 4 1 3 2 2 3 1 4 21 5 19 6 18 7 16 8 15 9 14 10 13 11 5 12
REMARK SMILES IDX 6 13 7 14 8 15 12 16 10 17 9 18 11 20 20 22 17 24
REMARK H PARENT 9 19 11 21 20 23 17 25
REMARK Flexibility Score: inf
ROOT
ATOM      1  C   UNL     1      45.615  12.795  23.092  1.00  0.00     0.138 A 
ATOM      2  C   UNL     1      45.530  12.138  21.856  1.00  0.00     0.100 A 
ATOM      3  C   UNL     1      45.540  10.743  21.813  1.00  0.00     0.197 A 
ATOM      4  O   UNL     1      45.407  10.185  20.693  1.00  0.00    -0.289 OA
ATOM      5  C   UNL     1      45.672  10.003  23.011  1.00  0.00     0.107 A 
ATOM      6  C   UNL     1      45.728   8.578  23.087  1.00  0.00     0.134 A 
ATOM      7  C   UNL     1      45.759   7.953  24.339  1.00  0.00     0.093 A 
ATOM      8  C   UNL     1      45.795   8.703  25.518  1.00  0.00     0.123 A 
ATOM      9  C   UNL     1      45.790  10.094  25.454  1.00  0.00     0.094 A 
ATOM     10  C   UNL     1      45.725  10.747  24.220  1.00  0.00     0.146 A 
ATOM     11  O   UNL     1      45.704  12.075  24.206  1.00  0.00    -0.456 OA
ENDROOT
BRANCH   1  12
ATOM     12  C   UNL     1      45.611  14.275  23.197  1.00  0.00     0.021 A 
ATOM     13  C   UNL     1      45.799  14.931  24.426  1.00  0.00     0.016 A 
ATOM     14  C   UNL     1      45.800  16.326  24.491  1.00  0.00     0.051 A 
ATOM     15  C   UNL     1      45.622  17.096  23.337  1.00  0.00     0.157 A 
ATOM     16  C   UNL     1      45.447  15.049  22.036  1.00  0.00     0.062 A 
ATOM     17  C   UNL     1      45.446  16.449  22.092  1.00  0.00     0.158 A 
BRANCH  15  18
ATOM     18  O   UNL     1      45.632  18.486  23.473  1.00  0.00    -0.504 OA
ATOM     19  H   UNL     1      46.389  19.007  23.891  1.00  0.00     0.293 HD
ENDBRANCH  15  18
BRANCH  17  20
ATOM     20  O   UNL     1      45.269  17.150  20.897  1.00  0.00    -0.504 OA
ATOM     21  H   UNL     1      45.767  17.995  20.658  1.00  0.00     0.293 HD
ENDBRANCH  17  20
ENDBRANCH   1  12
BRANCH   6  22
ATOM     22  O   UNL     1      45.778   7.736  21.971  1.00  0.00    -0.507 OA
ATOM     23  H   UNL     1      45.672   8.034  21.014  1.00  0.00     0.293 HD
ENDBRANCH   6  22
BRANCH   8  24
ATOM     24  O   UNL     1      45.842   8.073  26.760  1.00  0.00    -0.508 OA
ATOM     25  H   UNL     1      46.029   7.080  26.843  1.00  0.00     0.293 HD
ENDBRANCH   8  24
TORSDOF 5
ENDMDL
MODEL 5
REMARK VINA RESULT:    -5.831      4.188      8.359
REMARK INTER + INTRA:          -7.149
REMARK INTER:                  -6.867
REMARK INTRA:                  -0.282
REMARK UNBOUND:                -0.295
REMARK SMILES O=c1cc(-c2ccc(O)c(O)c2)oc2cc(O)cc(O)c12
REMARK SMILES IDX 4 1 3 2 2 3 1 4 21 5 19 6 18 7 16 8 15 9 14 10 13 11 5 12
REMARK SMILES IDX 6 13 7 14 8 15 12 16 10 17 9 18 11 20 20 22 17 24
REMARK H PARENT 9 19 11 21 20 23 17 25
REMARK Flexibility Score: inf
ROOT
ATOM      1  C   UNL     1      38.522  11.545  26.940  1.00  0.00     0.138 A 
ATOM      2  C   UNL     1      37.776  10.389  27.210  1.00  0.00     0.100 A 
ATOM      3  C   UNL     1      36.574  10.490  27.912  1.00  0.00     0.197 A 
ATOM      4  O   UNL     1      35.902   9.442  28.090  1.00  0.00    -0.289 OA
ATOM      5  C   UNL     1      36.135  11.753  28.377  1.00  0.00     0.107 A 
ATOM      6  C   UNL     1      34.943  11.974  29.132  1.00  0.00     0.134 A 
ATOM      7  C   UNL     1      34.561  13.282  29.451  1.00  0.00     0.093 A 
ATOM      8  C   UNL     1      35.356  14.374  29.093  1.00  0.00     0.123 A 
ATOM      9  C   UNL     1      36.546  14.165  28.400  1.00  0.00     0.094 A 
ATOM     10  C   UNL     1      36.938  12.874  28.037  1.00  0.00     0.146 A 
ATOM     11  O   UNL     1      38.071  12.722  27.360  1.00  0.00    -0.456 OA
ENDROOT
BRANCH   1  12
ATOM     12  C   UNL     1      39.808  11.495  26.201  1.00  0.00     0.021 A 
ATOM     13  C   UNL     1      40.198  12.521  25.324  1.00  0.00     0.016 A 
ATOM     14  C   UNL     1      41.419  12.450  24.649  1.00  0.00     0.051 A 
ATOM     15  C   UNL     1      42.278  11.363  24.838  1.00  0.00     0.157 A 
ATOM     16  C   UNL     1      40.678  10.409  26.401  1.00  0.00     0.062 A 
ATOM     17  C   UNL     1      41.904  10.330  25.729  1.00  0.00     0.158 A 
BRANCH  15  18
ATOM     18  O   UNL     1      43.483  11.353  24.132  1.00  0.00    -0.504 OA
ATOM     19  H   UNL     1      44.390  11.461  24.561  1.00  0.00     0.293 HD
ENDBRANCH  15  18
BRANCH  17  20
ATOM     20  O   UNL     1      42.711   9.217  25.972  1.00  0.00    -0.504 OA
ATOM     21  H   UNL     1      43.256   8.747  25.263  1.00  0.00     0.293 HD
ENDBRANCH  17  20
ENDBRANCH   1  12
BRANCH   6  22
ATOM     22  O   UNL     1      34.117  10.951  29.609  1.00  0.00    -0.507 OA
ATOM     23  H   UNL     1      34.065  10.020  29.224  1.00  0.00     0.293 HD
ENDBRANCH   6  22
BRANCH   8  24
ATOM     24  O   UNL     1      34.976  15.671  29.429  1.00  0.00    -0.508 OA
ATOM     25  H   UNL     1      34.211  16.138  28.956  1.00  0.00     0.293 HD
ENDBRANCH   8  24
TORSDOF 5
ENDMDL
MODEL 6
REMARK VINA RESULT:    -5.830      3.748      7.139
REMARK INTER + INTRA:          -7.148
REMARK INTER:                  -6.830
REMARK INTRA:                  -0.318
REMARK UNBOUND:                -0.295
REMARK SMILES O=c1cc(-c2ccc(O)c(O)c2)oc2cc(O)cc(O)c12
REMARK SMILES IDX 4 1 3 2 2 3 1 4 21 5 19 6 18 7 16 8 15 9 14 10 13 11 5 12
REMARK SMILES IDX 6 13 7 14 8 15 12 16 10 17 9 18 11 20 20 22 17 24
REMARK H PARENT 9 19 11 21 20 23 17 25
REMARK Flexibility Score: inf
ROOT
ATOM      1  C   UNL     1      45.650  13.650  23.994  1.00  0.00     0.138 A 
ATOM      2  C   UNL     1      45.803  12.890  25.162  1.00  0.00     0.100 A 
ATOM      3  C   UNL     1      45.761  11.497  25.091  1.00  0.00     0.197 A 
ATOM      4  O   UNL     1      45.956  10.844  26.148  1.00  0.00    -0.289 OA
ATOM      5  C   UNL     1      45.529  10.863  23.847  1.00  0.00     0.107 A 
ATOM      6  C   UNL     1      45.433   9.450  23.659  1.00  0.00     0.134 A 
ATOM      7  C   UNL     1      45.300   8.934  22.364  1.00  0.00     0.093 A 
ATOM      8  C   UNL     1      45.203   9.781  21.256  1.00  0.00     0.123 A 
ATOM      9  C   UNL     1      45.246  11.161  21.435  1.00  0.00     0.094 A 
ATOM     10  C   UNL     1      45.412  11.706  22.711  1.00  0.00     0.146 A 
ATOM     11  O   UNL     1      45.467  13.028  22.834  1.00  0.00    -0.456 OA
ENDROOT
BRANCH   1  12
ATOM     12  C   UNL     1      45.684  15.134  24.012  1.00  0.00     0.021 A 
ATOM     13  C   UNL     1      45.750  15.858  25.215  1.00  0.00     0.016 A 
ATOM     14  C   UNL     1      45.790  17.254  25.199  1.00  0.00     0.051 A 
ATOM     15  C   UNL     1      45.771  17.957  23.990  1.00  0.00     0.157 A 
ATOM     16  C   UNL     1      45.679  15.840  22.797  1.00  0.00     0.062 A 
ATOM     17  C   UNL     1      45.718  17.240  22.772  1.00  0.00     0.158 A 
BRANCH  15  18
ATOM     18  O   UNL     1      45.811  19.351  24.046  1.00  0.00    -0.504 OA
ATOM     19  H   UNL     1      46.432  19.921  23.489  1.00  0.00     0.293 HD
ENDBRANCH  15  18
BRANCH  17  20
ATOM     20  O   UNL     1      45.702  17.871  21.527  1.00  0.00    -0.504 OA
ATOM     21  H   UNL     1      45.968  18.834  21.378  1.00  0.00     0.293 HD
ENDBRANCH  17  20
ENDBRANCH   1  12
BRANCH   6  22
ATOM     22  O   UNL     1      45.438   8.519  24.702  1.00  0.00    -0.507 OA
ATOM     23  H   UNL     1      44.621   8.059  25.073  1.00  0.00     0.293 HD
ENDBRANCH   6  22
BRANCH   8  24
ATOM     24  O   UNL     1      45.055   9.259  19.973  1.00  0.00    -0.508 OA
ATOM     25  H   UNL     1      44.169   9.303  19.482  1.00  0.00     0.293 HD
ENDBRANCH   8  24
TORSDOF 5
ENDMDL
MODEL 7
REMARK VINA RESULT:    -5.760      3.918      8.866
REMARK INTER + INTRA:          -7.065
REMARK INTER:                  -6.755
REMARK INTRA:                  -0.310
REMARK UNBOUND:                -0.295
REMARK SMILES O=c1cc(-c2ccc(O)c(O)c2)oc2cc(O)cc(O)c12
REMARK SMILES IDX 4 1 3 2 2 3 1 4 21 5 19 6 18 7 16 8 15 9 14 10 13 11 5 12
REMARK SMILES IDX 6 13 7 14 8 15 12 16 10 17 9 18 11 20 20 22 17 24
REMARK H PARENT 9 19 11 21 20 23 17 25
REMARK Flexibility Score: inf
ROOT
ATOM      1  C   UNL     1      38.709  11.884  26.697  1.00  0.00     0.138 A 
ATOM      2  C   UNL     1      38.696  10.524  26.355  1.00  0.00     0.100 A 
ATOM      3  C   UNL     1      37.689   9.696  26.854  1.00  0.00     0.197 A 
ATOM      4  O   UNL     1      37.674   8.494  26.484  1.00  0.00    -0.289 OA
ATOM      5  C   UNL     1      36.712  10.226  27.730  1.00  0.00     0.107 A 
ATOM      6  C   UNL     1      35.658   9.470  28.327  1.00  0.00     0.134 A 
ATOM      7  C   UNL     1      34.690  10.124  29.099  1.00  0.00     0.093 A 
ATOM      8  C   UNL     1      34.770  11.498  29.342  1.00  0.00     0.123 A 
ATOM      9  C   UNL     1      35.822  12.236  28.805  1.00  0.00     0.094 A 
ATOM     10  C   UNL     1      36.784  11.618  28.002  1.00  0.00     0.146 A 
ATOM     11  O   UNL     1      37.760  12.363  27.495  1.00  0.00    -0.456 OA
ENDROOT
BRANCH   1  12
ATOM     12  C   UNL     1      39.757  12.809  26.198  1.00  0.00     0.021 A 
ATOM     13  C   UNL     1      40.451  12.564  25.000  1.00  0.00     0.016 A 
ATOM     14  C   UNL     1      41.425  13.458  24.551  1.00  0.00     0.051 A 
ATOM     15  C   UNL     1      41.724  14.615  25.278  1.00  0.00     0.157 A 
ATOM     16  C   UNL     1      40.048  13.978  26.921  1.00  0.00     0.062 A 
ATOM     17  C   UNL     1      41.024  14.881  26.478  1.00  0.00     0.158 A 
BRANCH  15  18
ATOM     18  O   UNL     1      42.710  15.466  24.774  1.00  0.00    -0.504 OA
ATOM     19  H   UNL     1      43.484  15.157  24.204  1.00  0.00     0.293 HD
ENDBRANCH  15  18
BRANCH  17  20
ATOM     20  O   UNL     1      41.263  16.016  27.254  1.00  0.00    -0.504 OA
ATOM     21  H   UNL     1      42.178  16.298  27.576  1.00  0.00     0.293 HD
ENDBRANCH  17  20
ENDBRANCH   1  12
BRANCH   6  22
ATOM     22  O   UNL     1      35.528   8.082  28.214  1.00  0.00    -0.507 OA
ATOM     23  H   UNL     1      36.211   7.467  27.798  1.00  0.00     0.293 HD
ENDBRANCH   6  22
BRANCH   8  24
ATOM     24  O   UNL     1      33.812  12.138  30.125  1.00  0.00    -0.508 OA
ATOM     25  H   UNL     1      33.379  13.006  29.828  1.00  0.00     0.293 HD
ENDBRANCH   8  24
TORSDOF 5
ENDMDL
MODEL 8
REMARK VINA RESULT:    -5.736      3.427      5.729
REMARK INTER + INTRA:          -7.037
REMARK INTER:                  -6.740
REMARK INTRA:                  -0.297
REMARK UNBOUND:                -0.295
REMARK SMILES O=c1cc(-c2ccc(O)c(O)c2)oc2cc(O)cc(O)c12
REMARK SMILES IDX 4 1 3 2 2 3 1 4 21 5 19 6 18 7 16 8 15 9 14 10 13 11 5 12
REMARK SMILES IDX 6 13 7 14 8 15 12 16 10 17 9 18 11 20 20 22 17 24
REMARK H PARENT 9 19 11 21 20 23 17 25
REMARK Flexibility Score: inf
ROOT
ATOM      1  C   UNL     1      43.102  11.788  25.208  1.00  0.00     0.138 A 
ATOM      2  C   UNL     1      43.786  10.927  26.078  1.00  0.00     0.100 A 
ATOM      3  C   UNL     1      44.596   9.918  25.556  1.00  0.00     0.197 A 
ATOM      4  O   UNL     1      45.240   9.199  26.363  1.00  0.00    -0.289 OA
ATOM      5  C   UNL     1      44.694   9.748  24.155  1.00  0.00     0.107 A 
ATOM      6  C   UNL     1      45.463   8.733  23.509  1.00  0.00     0.134 A 
ATOM      7  C   UNL     1      45.561   8.725  22.112  1.00  0.00     0.093 A 
ATOM      8  C   UNL     1      44.873   9.661  21.335  1.00  0.00     0.123 A 
ATOM      9  C   UNL     1      44.081  10.624  21.953  1.00  0.00     0.094 A 
ATOM     10  C   UNL     1      43.989  10.680  23.347  1.00  0.00     0.146 A 
ATOM     11  O   UNL     1      43.237  11.627  23.896  1.00  0.00    -0.456 OA
ENDROOT
BRANCH   1  12
ATOM     12  C   UNL     1      42.225  12.876  25.708  1.00  0.00     0.021 A 
ATOM     13  C   UNL     1      41.372  12.691  26.811  1.00  0.00     0.016 A 
ATOM     14  C   UNL     1      40.565  13.738  27.264  1.00  0.00     0.051 A 
ATOM     15  C   UNL     1      40.594  14.987  26.637  1.00  0.00     0.157 A 
ATOM     16  C   UNL     1      42.264  14.136  25.087  1.00  0.00     0.062 A 
ATOM     17  C   UNL     1      41.458  15.190  25.535  1.00  0.00     0.158 A 
BRANCH  15  18
ATOM     18  O   UNL     1      39.761  15.989  27.140  1.00  0.00    -0.504 OA
ATOM     19  H   UNL     1      39.328  15.957  28.051  1.00  0.00     0.293 HD
ENDBRANCH  15  18
BRANCH  17  20
ATOM     20  O   UNL     1      41.546  16.410  24.862  1.00  0.00    -0.504 OA
ATOM     21  H   UNL     1      42.354  17.015  24.891  1.00  0.00     0.293 HD
ENDBRANCH  17  20
ENDBRANCH   1  12
BRANCH   6  22
ATOM     22  O   UNL     1      46.125   7.703  24.184  1.00  0.00    -0.507 OA
ATOM     23  H   UNL     1      46.480   6.862  23.756  1.00  0.00     0.293 HD
ENDBRANCH   6  22
BRANCH   8  24
ATOM     24  O   UNL     1      44.964   9.635  19.945  1.00  0.00    -0.508 OA
ATOM     25  H   UNL     1      44.428  10.272  19.367  1.00  0.00     0.293 HD
ENDBRANCH   8  24
TORSDOF 5
ENDMDL
MODEL 9
REMARK VINA RESULT:    -4.993     14.681     18.228
REMARK INTER + INTRA:          -6.163
REMARK INTER:                  -5.869
REMARK INTRA:                  -0.294
REMARK UNBOUND:                -0.295
REMARK SMILES O=c1cc(-c2ccc(O)c(O)c2)oc2cc(O)cc(O)c12
REMARK SMILES IDX 4 1 3 2 2 3 1 4 21 5 19 6 18 7 16 8 15 9 14 10 13 11 5 12
REMARK SMILES IDX 6 13 7 14 8 15 12 16 10 17 9 18 11 20 20 22 17 24
REMARK H PARENT 9 19 11 21 20 23 17 25
REMARK Flexibility Score: inf
ROOT
ATOM      1  C   UNL     1      31.551  20.664  12.835  1.00  0.00     0.138 A 
ATOM      2  C   UNL     1      31.751  19.395  12.272  1.00  0.00     0.100 A 
ATOM      3  C   UNL     1      30.767  18.841  11.451  1.00  0.00     0.197 A 
ATOM      4  O   UNL     1      31.000  17.726  10.917  1.00  0.00    -0.289 OA
ATOM      5  C   UNL     1      29.563  19.548  11.222  1.00  0.00     0.107 A 
ATOM      6  C   UNL     1      28.475  19.068  10.429  1.00  0.00     0.134 A 
ATOM      7  C   UNL     1      27.374  19.900  10.193  1.00  0.00     0.093 A 
ATOM      8  C   UNL     1      27.294  21.171  10.767  1.00  0.00     0.123 A 
ATOM      9  C   UNL     1      28.326  21.629  11.582  1.00  0.00     0.094 A 
ATOM     10  C   UNL     1      29.455  20.836  11.809  1.00  0.00     0.146 A 
ATOM     11  O   UNL     1      30.425  21.319  12.577  1.00  0.00    -0.456 OA
ENDROOT
BRANCH   1  12
ATOM     12  C   UNL     1      32.562  21.298  13.718  1.00  0.00     0.021 A 
ATOM     13  C   UNL     1      32.301  22.502  14.396  1.00  0.00     0.016 A 
ATOM     14  C   UNL     1      33.269  23.070  15.227  1.00  0.00     0.051 A 
ATOM     15  C   UNL     1      34.510  22.451  15.407  1.00  0.00     0.157 A 
ATOM     16  C   UNL     1      33.804  20.670  13.910  1.00  0.00     0.062 A 
ATOM     17  C   UNL     1      34.781  21.233  14.742  1.00  0.00     0.158 A 
BRANCH  15  18
ATOM     18  O   UNL     1      35.433  23.073  16.250  1.00  0.00    -0.504 OA
ATOM     19  H   UNL     1      35.301  23.187  17.245  1.00  0.00     0.293 HD
ENDBRANCH  15  18
BRANCH  17  20
ATOM     20  O   UNL     1      35.993  20.554  14.876  1.00  0.00    -0.504 OA
ATOM     21  H   UNL     1      36.762  20.877  15.445  1.00  0.00     0.293 HD
ENDBRANCH  17  20
ENDBRANCH   1  12
BRANCH   6  22
ATOM     22  O   UNL     1      28.416  17.786   9.875  1.00  0.00    -0.507 OA
ATOM     23  H   UNL     1      27.605  17.187   9.885  1.00  0.00     0.293 HD
ENDBRANCH   6  22
BRANCH   8  24
ATOM     24  O   UNL     1      26.186  21.985  10.540  1.00  0.00    -0.508 OA
ATOM     25  H   UNL     1      25.483  21.743   9.851  1.00  0.00     0.293 HD
ENDBRANCH   8  24
TORSDOF 5
ENDMDL
