MODEL 1
REMARK VINA RESULT:    -3.054      0.000      0.000
REMARK INTER + INTRA:          -3.434
REMARK INTER:                  -3.411
REMARK INTRA:                  -0.023
REMARK UNBOUND:                -0.023
REMARK SMILES CCCC(=O)[O-]
REMARK SMILES IDX 3 1 4 2 5 3 6 4 2 5 1 6
REMARK H PARENT
REMARK Flexibility Score: inf
ROOT
ATOM      1  C   UNL     1      -1.775 -14.239 -26.491  1.00  0.00     0.052 C 
ENDROOT
BRANCH   1   2
ATOM      2  C   UNL     1      -1.478 -15.692 -26.703  1.00  0.00     0.041 C 
ATOM      3  O   UNL     1      -0.620 -16.046 -27.554  1.00  0.00    -0.550 OA
ATOM      4  O   UNL     1      -2.124 -16.654 -25.938  1.00  0.00    -0.550 OA
ENDBRANCH   1   2
BRANCH   1   5
ATOM      5  C   UNL     1      -1.400 -13.397 -27.718  1.00  0.00     0.003 C 
ATOM      6  C   UNL     1      -0.766 -12.060 -27.333  1.00  0.00     0.004 C 
ENDBRANCH   1   5
TORSDOF 2
ENDMDL
MODEL 2
REMARK VINA RESULT:    -3.033      1.358      1.612
REMARK INTER + INTRA:          -3.410
REMARK INTER:                  -3.372
REMARK INTRA:                  -0.038
REMARK UNBOUND:                -0.023
REMARK SMILES CCCC(=O)[O-]
REMARK SMILES IDX 3 1 4 2 5 3 6 4 2 5 1 6
REMARK H PARENT
REMARK Flexibility Score: inf
ROOT
ATOM      1  C   UNL     1      -0.228 -14.155 -27.961  1.00  0.00     0.052 C 
ENDROOT
BRANCH   1   2
ATOM      2  C   UNL     1      -0.754 -14.978 -26.824  1.00  0.00     0.041 C 
ATOM      3  O   UNL     1      -1.007 -14.437 -25.715  1.00  0.00    -0.550 OA
ATOM      4  O   UNL     1      -0.995 -16.334 -26.999  1.00  0.00    -0.550 OA
ENDBRANCH   1   2
BRANCH   1   5
ATOM      5  C   UNL     1      -1.011 -12.845 -28.125  1.00  0.00     0.003 C 
ATOM      6  C   UNL     1      -0.173 -11.619 -27.765  1.00  0.00     0.004 C 
ENDBRANCH   1   5
TORSDOF 2
ENDMDL
MODEL 3
REMARK VINA RESULT:    -2.978      2.278      3.234
REMARK INTER + INTRA:          -3.349
REMARK INTER:                  -3.307
REMARK INTRA:                  -0.042
REMARK UNBOUND:                -0.023
REMARK SMILES CCCC(=O)[O-]
REMARK SMILES IDX 3 1 4 2 5 3 6 4 2 5 1 6
REMARK H PARENT
REMARK Flexibility Score: inf
ROOT
ATOM      1  C   UNL     1      -0.462 -14.622 -26.883  1.00  0.00     0.052 C 
ENDROOT
BRANCH   1   2
ATOM      2  C   UNL     1      -1.190 -13.319 -27.001  1.00  0.00     0.041 C 
ATOM      3  O   UNL     1      -1.294 -12.750 -28.120  1.00  0.00    -0.550 OA
ATOM      4  O   UNL     1      -1.784 -12.748 -25.883  1.00  0.00    -0.550 OA
ENDBRANCH   1   2
BRANCH   1   5
ATOM      5  C   UNL     1      -1.384 -15.817 -27.166  1.00  0.00     0.003 C 
ATOM      6  C   UNL     1      -2.125 -16.288 -25.915  1.00  0.00     0.004 C 
ENDBRANCH   1   5
TORSDOF 2
ENDMDL
MODEL 4
REMARK VINA RESULT:    -2.950      1.866      2.464
REMARK INTER + INTRA:          -3.317
REMARK INTER:                  -3.304
REMARK INTRA:                  -0.013
REMARK UNBOUND:                -0.023
REMARK SMILES CCCC(=O)[O-]
REMARK SMILES IDX 3 1 4 2 5 3 6 4 2 5 1 6
REMARK H PARENT
REMARK Flexibility Score: inf
ROOT
ATOM      1  C   UNL     1      -1.026 -16.539 -26.603  1.00  0.00     0.052 C 
ENDROOT
BRANCH   1   2
ATOM      2  C   UNL     1      -1.167 -17.784 -25.783  1.00  0.00     0.041 C 
ATOM      3  O   UNL     1      -0.399 -18.763 -25.980  1.00  0.00    -0.550 OA
ATOM      4  O   UNL     1      -2.125 -17.854 -24.779  1.00  0.00    -0.550 OA
ENDBRANCH   1   2
BRANCH   1   5
ATOM      5  C   UNL     1      -2.103 -15.502 -26.253  1.00  0.00     0.003 C 
ATOM      6  C   UNL     1      -1.626 -14.068 -26.482  1.00  0.00     0.004 C 
ENDBRANCH   1   5
TORSDOF 2
ENDMDL
MODEL 5
REMARK VINA RESULT:    -2.932      1.996      3.678
REMARK INTER + INTRA:          -3.297
REMARK INTER:                  -3.278
REMARK INTRA:                  -0.019
REMARK UNBOUND:                -0.023
REMARK SMILES CCCC(=O)[O-]
REMARK SMILES IDX 3 1 4 2 5 3 6 4 2 5 1 6
REMARK H PARENT
REMARK Flexibility Score: inf
ROOT
ATOM      1  C   UNL     1      -1.197 -15.782 -26.891  1.00  0.00     0.052 C 
ENDROOT
BRANCH   1   2
ATOM      2  C   UNL     1      -1.067 -14.312 -26.630  1.00  0.00     0.041 C 
ATOM      3  O   UNL     1      -1.352 -13.843 -25.497  1.00  0.00    -0.550 OA
ATOM      4  O   UNL     1      -0.600 -13.466 -27.627  1.00  0.00    -0.550 OA
ENDBRANCH   1   2
BRANCH   1   5
ATOM      5  C   UNL     1      -2.125 -16.461 -25.875  1.00  0.00     0.003 C 
ATOM      6  C   UNL     1      -1.674 -17.881 -25.534  1.00  0.00     0.004 C 
ENDBRANCH   1   5
TORSDOF 2
ENDMDL
MODEL 6
REMARK VINA RESULT:    -2.917      2.033      2.881
REMARK INTER + INTRA:          -3.280
REMARK INTER:                  -3.269
REMARK INTRA:                  -0.011
REMARK UNBOUND:                -0.023
REMARK SMILES CCCC(=O)[O-]
REMARK SMILES IDX 3 1 4 2 5 3 6 4 2 5 1 6
REMARK H PARENT
REMARK Flexibility Score: inf
ROOT
ATOM      1  C   UNL     1      -1.015 -16.721 -26.568  1.00  0.00     0.052 C 
ENDROOT
BRANCH   1   2
ATOM      2  C   UNL     1      -1.188 -17.941 -25.717  1.00  0.00     0.041 C 
ATOM      3  O   UNL     1      -2.124 -18.000 -24.876  1.00  0.00    -0.550 OA
ATOM      4  O   UNL     1      -0.336 -19.026 -25.873  1.00  0.00    -0.550 OA
ENDBRANCH   1   2
BRANCH   1   5
ATOM      5  C   UNL     1      -2.039 -15.632 -26.217  1.00  0.00     0.003 C 
ATOM      6  C   UNL     1      -1.984 -14.449 -27.184  1.00  0.00     0.004 C 
ENDBRANCH   1   5
TORSDOF 2
ENDMDL
MODEL 7
REMARK VINA RESULT:    -2.724      4.026      5.899
REMARK INTER + INTRA:          -3.065
REMARK INTER:                  -3.045
REMARK INTRA:                  -0.020
REMARK UNBOUND:                -0.023
REMARK SMILES CCCC(=O)[O-]
REMARK SMILES IDX 3 1 4 2 5 3 6 4 2 5 1 6
REMARK H PARENT
REMARK Flexibility Score: inf
ROOT
ATOM      1  C   UNL     1      -0.015 -19.305 -25.892  1.00  0.00     0.052 C 
ENDROOT
BRANCH   1   2
ATOM      2  C   UNL     1      -1.086 -18.259 -25.832  1.00  0.00     0.041 C 
ATOM      3  O   UNL     1      -2.079 -18.411 -25.072  1.00  0.00    -0.550 OA
ATOM      4  O   UNL     1      -0.971 -17.099 -26.588  1.00  0.00    -0.550 OA
ENDBRANCH   1   2
BRANCH   1   5
ATOM      5  C   UNL     1      -0.604 -20.714 -26.039  1.00  0.00     0.003 C 
ATOM      6  C   UNL     1       0.183 -21.759 -25.248  1.00  0.00     0.004 C 
ENDBRANCH   1   5
TORSDOF 2
ENDMDL
MODEL 8
REMARK VINA RESULT:    -2.364      4.036      5.149
REMARK INTER + INTRA:          -2.664
REMARK INTER:                  -2.650
REMARK INTRA:                  -0.014
REMARK UNBOUND:                -0.023
REMARK SMILES CCCC(=O)[O-]
REMARK SMILES IDX 3 1 4 2 5 3 6 4 2 5 1 6
REMARK H PARENT
REMARK Flexibility Score: inf
ROOT
ATOM      1  C   UNL     1      -0.174 -19.101 -25.930  1.00  0.00     0.052 C 
ENDROOT
BRANCH   1   2
ATOM      2  C   UNL     1      -0.492 -20.564 -25.977  1.00  0.00     0.041 C 
ATOM      3  O   UNL     1      -1.325 -21.004 -26.813  1.00  0.00    -0.550 OA
ATOM      4  O   UNL     1       0.154 -21.446 -25.121  1.00  0.00    -0.550 OA
ENDBRANCH   1   2
BRANCH   1   5
ATOM      5  C   UNL     1      -1.413 -18.259 -25.599  1.00  0.00     0.003 C 
ATOM      6  C   UNL     1      -1.375 -16.882 -26.262  1.00  0.00     0.004 C 
ENDBRANCH   1   5
TORSDOF 2
ENDMDL
MODEL 9
REMARK VINA RESULT:    -1.552     16.883     17.473
REMARK INTER + INTRA:          -1.756
REMARK INTER:                  -1.911
REMARK INTRA:                   0.155
REMARK UNBOUND:                -0.023
REMARK SMILES CCCC(=O)[O-]
REMARK SMILES IDX 3 1 4 2 5 3 6 4 2 5 1 6
REMARK H PARENT
REMARK Flexibility Score: inf
ROOT
ATOM      1  C   UNL     1       5.174 -23.525 -15.000  1.00  0.00     0.052 C 
ENDROOT
BRANCH   1   2
ATOM      2  C   UNL     1       5.596 -23.340 -13.575  1.00  0.00     0.041 C 
ATOM      3  O   UNL     1       4.946 -23.888 -12.645  1.00  0.00    -0.550 OA
ATOM      4  O   UNL     1       6.726 -22.591 -13.274  1.00  0.00    -0.550 OA
ENDBRANCH   1   2
BRANCH   1   5
ATOM      5  C   UNL     1       5.275 -24.993 -15.438  1.00  0.00     0.003 C 
ATOM      6  C   UNL     1       4.080 -25.823 -14.968  1.00  0.00     0.004 C 
ENDBRANCH   1   5
TORSDOF 2
ENDMDL
