MODEL 1
REMARK VINA RESULT:    -3.623      0.000      0.000
REMARK INTER + INTRA:          -5.281
REMARK INTER:                  -4.894
REMARK INTRA:                  -0.387
REMARK UNBOUND:                -0.387
REMARK SMILES CCCCCCCC(=O)[O-]
REMARK SMILES IDX 5 1 6 2 7 3 8 4 9 5 10 6 4 7 3 8 2 9 1 10
REMARK H PARENT
REMARK Flexibility Score: inf
ROOT
ATOM      1  C   UNL     1     -34.106 -11.954   0.951  1.00  0.00     0.000 C 
ENDROOT
BRANCH   1   2
ATOM      2  C   UNL     1     -35.403 -11.179   1.206  1.00  0.00     0.006 C 
BRANCH   2   3
ATOM      3  C   UNL     1     -35.300 -10.340   2.483  1.00  0.00     0.053 C 
BRANCH   3   4
ATOM      4  C   UNL     1     -36.662  -9.975   2.982  1.00  0.00     0.041 C 
ATOM      5  O   UNL     1     -37.164  -8.856   2.692  1.00  0.00    -0.550 OA
ATOM      6  O   UNL     1     -37.357 -10.847   3.809  1.00  0.00    -0.550 OA
ENDBRANCH   3   4
ENDBRANCH   2   3
ENDBRANCH   1   2
BRANCH   1   7
ATOM      7  C   UNL     1     -33.301 -12.124   2.245  1.00  0.00     0.000 C 
BRANCH   7   8
ATOM      8  C   UNL     1     -31.795 -12.018   1.975  1.00  0.00    -0.000 C 
BRANCH   8   9
ATOM      9  C   UNL     1     -31.110 -11.136   3.026  1.00  0.00    -0.003 C 
ATOM     10  C   UNL     1     -32.029 -10.883   4.218  1.00  0.00     0.004 C 
ENDBRANCH   8   9
ENDBRANCH   7   8
ENDBRANCH   1   7
TORSDOF 6
ENDMDL
MODEL 2
REMARK VINA RESULT:    -3.595      1.508      2.141
REMARK INTER + INTRA:          -5.242
REMARK INTER:                  -4.914
REMARK INTRA:                  -0.328
REMARK UNBOUND:                -0.387
REMARK SMILES CCCCCCCC(=O)[O-]
REMARK SMILES IDX 5 1 6 2 7 3 8 4 9 5 10 6 4 7 3 8 2 9 1 10
REMARK H PARENT
REMARK Flexibility Score: inf
ROOT
ATOM      1  C   UNL     1     -34.627 -11.424   1.408  1.00  0.00     0.000 C 
ENDROOT
BRANCH   1   2
ATOM      2  C   UNL     1     -35.612 -10.822   2.415  1.00  0.00     0.006 C 
BRANCH   2   3
ATOM      3  C   UNL     1     -35.784  -9.318   2.187  1.00  0.00     0.053 C 
BRANCH   3   4
ATOM      4  C   UNL     1     -36.631  -9.064   0.980  1.00  0.00     0.041 C 
ATOM      5  O   UNL     1     -37.778  -9.578   0.891  1.00  0.00    -0.550 OA
ATOM      6  O   UNL     1     -36.136  -8.301  -0.069  1.00  0.00    -0.550 OA
ENDBRANCH   3   4
ENDBRANCH   2   3
ENDBRANCH   1   2
BRANCH   1   7
ATOM      7  C   UNL     1     -33.333 -11.870   2.100  1.00  0.00     0.000 C 
BRANCH   7   8
ATOM      8  C   UNL     1     -33.343 -11.487   3.585  1.00  0.00    -0.000 C 
BRANCH   8   9
ATOM      9  C   UNL     1     -31.973 -10.956   4.025  1.00  0.00    -0.003 C 
ATOM     10  C   UNL     1     -30.952 -11.066   2.896  1.00  0.00     0.004 C 
ENDBRANCH   8   9
ENDBRANCH   7   8
ENDBRANCH   1   7
TORSDOF 6
ENDMDL
MODEL 3
REMARK VINA RESULT:    -3.521      2.427      3.280
REMARK INTER + INTRA:          -5.143
REMARK INTER:                  -4.911
REMARK INTRA:                  -0.231
REMARK UNBOUND:                -0.387
REMARK SMILES CCCCCCCC(=O)[O-]
REMARK SMILES IDX 5 1 6 2 7 3 8 4 9 5 10 6 4 7 3 8 2 9 1 10
REMARK H PARENT
REMARK Flexibility Score: inf
ROOT
ATOM      1  C   UNL     1     -35.493  -9.881   2.587  1.00  0.00     0.000 C 
ENDROOT
BRANCH   1   2
ATOM      2  C   UNL     1     -36.272  -9.175   1.473  1.00  0.00     0.006 C 
BRANCH   2   3
ATOM      3  C   UNL     1     -36.000  -9.827   0.114  1.00  0.00     0.053 C 
BRANCH   3   4
ATOM      4  C   UNL     1     -36.281  -8.864  -0.996  1.00  0.00     0.041 C 
ATOM      5  O   UNL     1     -36.285  -9.259  -2.192  1.00  0.00    -0.550 OA
ATOM      6  O   UNL     1     -36.489  -7.519  -0.714  1.00  0.00    -0.550 OA
ENDBRANCH   3   4
ENDBRANCH   2   3
ENDBRANCH   1   2
BRANCH   1   7
ATOM      7  C   UNL     1     -34.766 -11.121   2.053  1.00  0.00     0.000 C 
BRANCH   7   8
ATOM      8  C   UNL     1     -33.673 -11.581   3.024  1.00  0.00    -0.000 C 
BRANCH   8   9
ATOM      9  C   UNL     1     -32.367 -11.882   2.279  1.00  0.00    -0.003 C 
ATOM     10  C   UNL     1     -31.189 -11.146   2.911  1.00  0.00     0.004 C 
ENDBRANCH   8   9
ENDBRANCH   7   8
ENDBRANCH   1   7
TORSDOF 6
ENDMDL
MODEL 4
REMARK VINA RESULT:    -3.509     17.554     18.625
REMARK INTER + INTRA:          -5.126
REMARK INTER:                  -4.732
REMARK INTRA:                  -0.394
REMARK UNBOUND:                -0.387
REMARK SMILES CCCCCCCC(=O)[O-]
REMARK SMILES IDX 5 1 6 2 7 3 8 4 9 5 10 6 4 7 3 8 2 9 1 10
REMARK H PARENT
REMARK Flexibility Score: inf
ROOT
ATOM      1  C   UNL     1     -31.522   8.116   5.747  1.00  0.00     0.000 C 
ENDROOT
BRANCH   1   2
ATOM      2  C   UNL     1     -30.857   6.820   6.223  1.00  0.00     0.006 C 
BRANCH   2   3
ATOM      3  C   UNL     1     -29.469   6.652   5.597  1.00  0.00     0.053 C 
BRANCH   3   4
ATOM      4  C   UNL     1     -28.575   5.871   6.507  1.00  0.00     0.041 C 
ATOM      5  O   UNL     1     -27.439   5.497   6.110  1.00  0.00    -0.550 OA
ATOM      6  O   UNL     1     -29.014   5.511   7.774  1.00  0.00    -0.550 OA
ENDBRANCH   3   4
ENDBRANCH   2   3
ENDBRANCH   1   2
BRANCH   1   7
ATOM      7  C   UNL     1     -32.840   7.826   5.020  1.00  0.00     0.000 C 
BRANCH   7   8
ATOM      8  C   UNL     1     -32.884   6.378   4.516  1.00  0.00    -0.000 C 
BRANCH   8   9
ATOM      9  C   UNL     1     -32.713   6.322   2.993  1.00  0.00    -0.003 C 
ATOM     10  C   UNL     1     -31.337   5.781   2.613  1.00  0.00     0.004 C 
ENDBRANCH   8   9
ENDBRANCH   7   8
ENDBRANCH   1   7
TORSDOF 6
ENDMDL
MODEL 5
REMARK VINA RESULT:    -3.406     19.113     20.867
REMARK INTER + INTRA:          -4.988
REMARK INTER:                  -4.707
REMARK INTRA:                  -0.281
REMARK UNBOUND:                -0.387
REMARK SMILES CCCCCCCC(=O)[O-]
REMARK SMILES IDX 5 1 6 2 7 3 8 4 9 5 10 6 4 7 3 8 2 9 1 10
REMARK H PARENT
REMARK Flexibility Score: inf
ROOT
ATOM      1  C   UNL     1     -21.774   4.260  11.343  1.00  0.00     0.000 C 
ENDROOT
BRANCH   1   2
ATOM      2  C   UNL     1     -22.782   3.181  10.936  1.00  0.00     0.006 C 
BRANCH   2   3
ATOM      3  C   UNL     1     -22.069   1.917  10.446  1.00  0.00     0.053 C 
BRANCH   3   4
ATOM      4  C   UNL     1     -21.981   1.910   8.952  1.00  0.00     0.041 C 
ATOM      5  O   UNL     1     -22.869   1.336   8.269  1.00  0.00    -0.550 OA
ATOM      6  O   UNL     1     -20.892   2.492   8.317  1.00  0.00    -0.550 OA
ENDBRANCH   3   4
ENDBRANCH   2   3
ENDBRANCH   1   2
BRANCH   1   7
ATOM      7  C   UNL     1     -22.474   5.440  12.028  1.00  0.00     0.000 C 
BRANCH   7   8
ATOM      8  C   UNL     1     -23.905   5.070  12.434  1.00  0.00    -0.000 C 
BRANCH   8   9
ATOM      9  C   UNL     1     -24.860   6.250  12.218  1.00  0.00    -0.003 C 
ATOM     10  C   UNL     1     -26.288   5.767  11.977  1.00  0.00     0.004 C 
ENDBRANCH   8   9
ENDBRANCH   7   8
ENDBRANCH   1   7
TORSDOF 6
ENDMDL
MODEL 6
REMARK VINA RESULT:    -3.378     20.118     21.237
REMARK INTER + INTRA:          -4.949
REMARK INTER:                  -4.732
REMARK INTRA:                  -0.217
REMARK UNBOUND:                -0.387
REMARK SMILES CCCCCCCC(=O)[O-]
REMARK SMILES IDX 5 1 6 2 7 3 8 4 9 5 10 6 4 7 3 8 2 9 1 10
REMARK H PARENT
REMARK Flexibility Score: inf
ROOT
ATOM      1  C   UNL     1     -20.165   5.299  -4.198  1.00  0.00     0.000 C 
ENDROOT
BRANCH   1   2
ATOM      2  C   UNL     1     -20.703   4.896  -2.821  1.00  0.00     0.006 C 
BRANCH   2   3
ATOM      3  C   UNL     1     -22.232   4.818  -2.829  1.00  0.00     0.053 C 
BRANCH   3   4
ATOM      4  C   UNL     1     -22.778   5.079  -1.461  1.00  0.00     0.041 C 
ATOM      5  O   UNL     1     -22.787   6.249  -0.995  1.00  0.00    -0.550 OA
ATOM      6  O   UNL     1     -23.230   4.023  -0.680  1.00  0.00    -0.550 OA
ENDBRANCH   3   4
ENDBRANCH   2   3
ENDBRANCH   1   2
BRANCH   1   7
ATOM      7  C   UNL     1     -19.085   4.321  -4.676  1.00  0.00     0.000 C 
BRANCH   7   8
ATOM      8  C   UNL     1     -19.104   3.031  -3.847  1.00  0.00    -0.000 C 
BRANCH   8   9
ATOM      9  C   UNL     1     -17.876   2.164  -4.151  1.00  0.00    -0.003 C 
ATOM     10  C   UNL     1     -18.277   0.717  -4.424  1.00  0.00     0.004 C 
ENDBRANCH   8   9
ENDBRANCH   7   8
ENDBRANCH   1   7
TORSDOF 6
ENDMDL
MODEL 7
REMARK VINA RESULT:    -3.264     19.713     21.443
REMARK INTER + INTRA:          -4.796
REMARK INTER:                  -4.489
REMARK INTRA:                  -0.307
REMARK UNBOUND:                -0.387
REMARK SMILES CCCCCCCC(=O)[O-]
REMARK SMILES IDX 5 1 6 2 7 3 8 4 9 5 10 6 4 7 3 8 2 9 1 10
REMARK H PARENT
REMARK Flexibility Score: inf
ROOT
ATOM      1  C   UNL     1     -22.505   4.973  12.558  1.00  0.00     0.000 C 
ENDROOT
BRANCH   1   2
ATOM      2  C   UNL     1     -21.812   4.269  11.386  1.00  0.00     0.006 C 
BRANCH   2   3
ATOM      3  C   UNL     1     -22.673   3.122  10.847  1.00  0.00     0.053 C 
BRANCH   3   4
ATOM      4  C   UNL     1     -21.933   2.362   9.791  1.00  0.00     0.041 C 
ATOM      5  O   UNL     1     -21.177   2.969   8.987  1.00  0.00    -0.550 OA
ATOM      6  O   UNL     1     -22.117   0.992   9.663  1.00  0.00    -0.550 OA
ENDBRANCH   3   4
ENDBRANCH   2   3
ENDBRANCH   1   2
BRANCH   1   7
ATOM      7  C   UNL     1     -22.717   6.462  12.259  1.00  0.00     0.000 C 
BRANCH   7   8
ATOM      8  C   UNL     1     -24.208   6.819  12.268  1.00  0.00    -0.000 C 
BRANCH   8   9
ATOM      9  C   UNL     1     -25.075   5.555  12.314  1.00  0.00    -0.003 C 
ATOM     10  C   UNL     1     -26.518   5.862  11.924  1.00  0.00     0.004 C 
ENDBRANCH   8   9
ENDBRANCH   7   8
ENDBRANCH   1   7
TORSDOF 6
ENDMDL
MODEL 8
REMARK VINA RESULT:    -3.256      5.823      7.355
REMARK INTER + INTRA:          -4.784
REMARK INTER:                  -4.581
REMARK INTRA:                  -0.204
REMARK UNBOUND:                -0.387
REMARK SMILES CCCCCCCC(=O)[O-]
REMARK SMILES IDX 5 1 6 2 7 3 8 4 9 5 10 6 4 7 3 8 2 9 1 10
REMARK H PARENT
REMARK Flexibility Score: inf
ROOT
ATOM      1  C   UNL     1     -38.125  -6.687  -1.079  1.00  0.00     0.000 C 
ENDROOT
BRANCH   1   2
ATOM      2  C   UNL     1     -38.111  -5.215  -0.655  1.00  0.00     0.006 C 
BRANCH   2   3
ATOM      3  C   UNL     1     -37.058  -4.427  -1.440  1.00  0.00     0.053 C 
BRANCH   3   4
ATOM      4  C   UNL     1     -37.029  -3.000  -0.992  1.00  0.00     0.041 C 
ATOM      5  O   UNL     1     -37.396  -2.694   0.173  1.00  0.00    -0.550 OA
ATOM      6  O   UNL     1     -36.646  -2.001  -1.878  1.00  0.00    -0.550 OA
ENDBRANCH   3   4
ENDBRANCH   2   3
ENDBRANCH   1   2
BRANCH   1   7
ATOM      7  C   UNL     1     -36.793  -7.370  -0.746  1.00  0.00     0.000 C 
BRANCH   7   8
ATOM      8  C   UNL     1     -36.993  -8.508   0.262  1.00  0.00    -0.000 C 
BRANCH   8   9
ATOM      9  C   UNL     1     -36.109  -9.712  -0.086  1.00  0.00    -0.003 C 
ATOM     10  C   UNL     1     -35.958  -9.867  -1.597  1.00  0.00     0.004 C 
ENDBRANCH   8   9
ENDBRANCH   7   8
ENDBRANCH   1   7
TORSDOF 6
ENDMDL
