MODEL 1
REMARK VINA RESULT:    -5.253      0.000      0.000
REMARK INTER + INTRA:          -8.427
REMARK INTER:                  -8.017
REMARK INTRA:                  -0.410
REMARK UNBOUND:                -0.410
REMARK SMILES CC(=O)CCC=C(C)CCC=C(C)CCC=C(C)C
REMARK SMILES IDX 10 1 11 2 12 3 13 4 14 5 15 6 16 7 18 8 17 9 19 10 9 11 7 12
REMARK SMILES IDX 6 13 8 14 5 15 4 16 2 17 3 18 1 19
REMARK H PARENT
REMARK Flexibility Score: inf
ROOT
ATOM      1  C   UNL     1      99.938  34.018  62.982  1.00  0.00     0.032 C 
ENDROOT
BRANCH   1   2
ATOM      2  C   UNL     1      99.658  33.864  61.509  1.00  0.00    -0.028 C 
ATOM      3  C   UNL     1     100.574  33.487  60.587  1.00  0.00    -0.077 C 
ATOM      4  C   UNL     1     100.143  33.385  59.147  1.00  0.00     0.039 C 
BRANCH   3   5
ATOM      5  C   UNL     1     101.994  33.096  60.949  1.00  0.00     0.034 C 
BRANCH   5   6
ATOM      6  C   UNL     1     102.876  33.039  59.698  1.00  0.00     0.032 C 
BRANCH   6   7
ATOM      7  C   UNL     1     104.330  32.915  60.075  1.00  0.00    -0.028 C 
ATOM      8  C   UNL     1     106.765  32.925  59.740  1.00  0.00     0.039 C 
ATOM      9  C   UNL     1     105.358  33.018  59.204  1.00  0.00    -0.080 C 
ATOM     10  C   UNL     1     105.137  33.209  57.722  1.00  0.00     0.039 C 
ENDBRANCH   6   7
ENDBRANCH   5   6
ENDBRANCH   3   5
ENDBRANCH   1   2
BRANCH   1  11
ATOM     11  C   UNL     1      98.832  33.362  63.817  1.00  0.00     0.034 C 
BRANCH  11  12
ATOM     12  C   UNL     1      97.560  34.182  63.780  1.00  0.00    -0.077 C 
ATOM     13  C   UNL     1      97.463  35.274  64.573  1.00  0.00    -0.028 C 
ATOM     14  C   UNL     1      96.446  33.777  62.844  1.00  0.00     0.039 C 
BRANCH  13  15
ATOM     15  C   UNL     1      96.290  36.222  64.580  1.00  0.00     0.035 C 
BRANCH  15  16
ATOM     16  C   UNL     1      95.134  35.636  65.396  1.00  0.00     0.079 C 
BRANCH  16  17
ATOM     17  C   UNL     1      95.647  34.978  66.649  1.00  0.00     0.130 C 
ATOM     18  O   UNL     1      95.923  35.667  67.621  1.00  0.00    -0.300 OA
ATOM     19  C   UNL     1      95.835  33.491  66.731  1.00  0.00     0.087 C 
ENDBRANCH  16  17
ENDBRANCH  15  16
ENDBRANCH  13  15
ENDBRANCH  11  12
ENDBRANCH   1  11
TORSDOF 9
ENDMDL
MODEL 2
REMARK VINA RESULT:    -4.780      4.842     10.882
REMARK INTER + INTRA:          -7.705
REMARK INTER:                  -7.626
REMARK INTRA:                  -0.079
REMARK UNBOUND:                -0.410
REMARK SMILES CC(=O)CCC=C(C)CCC=C(C)CCC=C(C)C
REMARK SMILES IDX 10 1 11 2 12 3 13 4 14 5 15 6 16 7 18 8 17 9 19 10 9 11 7 12
REMARK SMILES IDX 6 13 8 14 5 15 4 16 2 17 3 18 1 19
REMARK H PARENT
REMARK Flexibility Score: inf
ROOT
ATOM      1  C   UNL     1     104.271  33.933  60.164  1.00  0.00     0.032 C 
ENDROOT
BRANCH   1   2
ATOM      2  C   UNL     1     103.018  33.540  59.424  1.00  0.00    -0.028 C 
ATOM      3  C   UNL     1     101.831  33.265  60.014  1.00  0.00    -0.077 C 
ATOM      4  C   UNL     1     100.668  32.877  59.139  1.00  0.00     0.039 C 
BRANCH   3   5
ATOM      5  C   UNL     1     101.603  33.401  61.507  1.00  0.00     0.034 C 
BRANCH   5   6
ATOM      6  C   UNL     1     100.201  33.948  61.792  1.00  0.00     0.032 C 
BRANCH   6   7
ATOM      7  C   UNL     1      99.860  33.808  63.254  1.00  0.00    -0.028 C 
ATOM      8  C   UNL     1      98.499  34.002  65.291  1.00  0.00     0.039 C 
ATOM      9  C   UNL     1      98.723  34.264  63.823  1.00  0.00    -0.080 C 
ATOM     10  C   UNL     1      97.686  35.032  63.037  1.00  0.00     0.039 C 
ENDBRANCH   6   7
ENDBRANCH   5   6
ENDBRANCH   3   5
ENDBRANCH   1   2
BRANCH   1  11
ATOM     11  C   UNL     1     105.377  32.893  59.950  1.00  0.00     0.034 C 
BRANCH  11  12
ATOM     12  C   UNL     1     105.963  32.997  58.557  1.00  0.00    -0.077 C 
ATOM     13  C   UNL     1     107.309  33.001  58.413  1.00  0.00    -0.028 C 
ATOM     14  C   UNL     1     105.035  33.065  57.368  1.00  0.00     0.039 C 
BRANCH  13  15
ATOM     15  C   UNL     1     108.024  33.022  57.085  1.00  0.00     0.035 C 
BRANCH  15  16
ATOM     16  C   UNL     1     109.530  33.200  57.292  1.00  0.00     0.079 C 
BRANCH  16  17
ATOM     17  C   UNL     1     110.164  33.824  56.077  1.00  0.00     0.130 C 
ATOM     18  O   UNL     1     110.777  34.876  56.191  1.00  0.00    -0.300 OA
ATOM     19  C   UNL     1     110.055  33.185  54.723  1.00  0.00     0.087 C 
ENDBRANCH  16  17
ENDBRANCH  15  16
ENDBRANCH  13  15
ENDBRANCH  11  12
ENDBRANCH   1  11
TORSDOF 9
ENDMDL
MODEL 3
REMARK VINA RESULT:    -4.616     16.211     17.602
REMARK INTER + INTRA:          -7.455
REMARK INTER:                  -6.822
REMARK INTRA:                  -0.632
REMARK UNBOUND:                -0.410
REMARK SMILES CC(=O)CCC=C(C)CCC=C(C)CCC=C(C)C
REMARK SMILES IDX 10 1 11 2 12 3 13 4 14 5 15 6 16 7 18 8 17 9 19 10 9 11 7 12
REMARK SMILES IDX 6 13 8 14 5 15 4 16 2 17 3 18 1 19
REMARK H PARENT
REMARK Flexibility Score: inf
ROOT
ATOM      1  C   UNL     1     104.652  48.287  59.973  1.00  0.00     0.032 C 
ENDROOT
BRANCH   1   2
ATOM      2  C   UNL     1     106.079  47.804  60.024  1.00  0.00    -0.028 C 
ATOM      3  C   UNL     1     106.900  47.941  61.091  1.00  0.00    -0.077 C 
ATOM      4  C   UNL     1     108.307  47.413  60.987  1.00  0.00     0.039 C 
BRANCH   3   5
ATOM      5  C   UNL     1     106.444  48.537  62.410  1.00  0.00     0.034 C 
BRANCH   5   6
ATOM      6  C   UNL     1     107.477  48.272  63.509  1.00  0.00     0.032 C 
BRANCH   6   7
ATOM      7  C   UNL     1     108.275  49.517  63.803  1.00  0.00    -0.028 C 
ATOM      8  C   UNL     1     108.785  51.690  64.831  1.00  0.00     0.039 C 
ATOM      9  C   UNL     1     107.851  50.531  64.587  1.00  0.00    -0.080 C 
ATOM     10  C   UNL     1     106.474  50.542  65.209  1.00  0.00     0.039 C 
ENDBRANCH   6   7
ENDBRANCH   5   6
ENDBRANCH   3   5
ENDBRANCH   1   2
BRANCH   1  11
ATOM     11  C   UNL     1     103.882  47.587  58.847  1.00  0.00     0.034 C 
BRANCH  11  12
ATOM     12  C   UNL     1     103.752  48.485  57.635  1.00  0.00    -0.077 C 
ATOM     13  C   UNL     1     104.399  48.143  56.495  1.00  0.00    -0.028 C 
ATOM     14  C   UNL     1     102.886  49.719  57.717  1.00  0.00     0.039 C 
BRANCH  13  15
ATOM     15  C   UNL     1     104.295  48.901  55.196  1.00  0.00     0.035 C 
BRANCH  15  16
ATOM     16  C   UNL     1     104.354  47.936  54.008  1.00  0.00     0.079 C 
BRANCH  16  17
ATOM     17  C   UNL     1     102.968  47.543  53.572  1.00  0.00     0.130 C 
ATOM     18  O   UNL     1     102.535  47.950  52.503  1.00  0.00    -0.300 OA
ATOM     19  C   UNL     1     102.099  46.666  54.426  1.00  0.00     0.087 C 
ENDBRANCH  16  17
ENDBRANCH  15  16
ENDBRANCH  13  15
ENDBRANCH  11  12
ENDBRANCH   1  11
TORSDOF 9
ENDMDL
MODEL 4
REMARK VINA RESULT:    -4.495     15.393     16.814
REMARK INTER + INTRA:          -7.270
REMARK INTER:                  -6.848
REMARK INTRA:                  -0.422
REMARK UNBOUND:                -0.410
REMARK SMILES CC(=O)CCC=C(C)CCC=C(C)CCC=C(C)C
REMARK SMILES IDX 10 1 11 2 12 3 13 4 14 5 15 6 16 7 18 8 17 9 19 10 9 11 7 12
REMARK SMILES IDX 6 13 8 14 5 15 4 16 2 17 3 18 1 19
REMARK H PARENT
REMARK Flexibility Score: inf
ROOT
ATOM      1  C   UNL     1     105.234  47.868  59.271  1.00  0.00     0.032 C 
ENDROOT
BRANCH   1   2
ATOM      2  C   UNL     1     105.264  48.298  60.715  1.00  0.00    -0.028 C 
ATOM      3  C   UNL     1     106.361  48.263  61.506  1.00  0.00    -0.077 C 
ATOM      4  C   UNL     1     106.231  48.719  62.936  1.00  0.00     0.039 C 
BRANCH   3   5
ATOM      5  C   UNL     1     107.730  47.852  60.997  1.00  0.00     0.034 C 
BRANCH   5   6
ATOM      6  C   UNL     1     108.748  47.829  62.141  1.00  0.00     0.032 C 
BRANCH   6   7
ATOM      7  C   UNL     1     108.699  46.511  62.872  1.00  0.00    -0.028 C 
ATOM      8  C   UNL     1     108.427  44.991  64.784  1.00  0.00     0.039 C 
ATOM      9  C   UNL     1     108.504  46.380  64.203  1.00  0.00    -0.080 C 
ATOM     10  C   UNL     1     108.377  47.577  65.115  1.00  0.00     0.039 C 
ENDBRANCH   6   7
ENDBRANCH   5   6
ENDBRANCH   3   5
ENDBRANCH   1   2
BRANCH   1  11
ATOM     11  C   UNL     1     103.797  47.856  58.737  1.00  0.00     0.034 C 
BRANCH  11  12
ATOM     12  C   UNL     1     103.688  48.635  57.443  1.00  0.00    -0.077 C 
ATOM     13  C   UNL     1     104.380  48.206  56.362  1.00  0.00    -0.028 C 
ATOM     14  C   UNL     1     102.793  49.850  57.384  1.00  0.00     0.039 C 
BRANCH  13  15
ATOM     15  C   UNL     1     104.303  48.838  54.995  1.00  0.00     0.035 C 
BRANCH  15  16
ATOM     16  C   UNL     1     104.262  47.760  53.908  1.00  0.00     0.079 C 
BRANCH  16  17
ATOM     17  C   UNL     1     102.843  47.346  53.623  1.00  0.00     0.130 C 
ATOM     18  O   UNL     1     102.335  47.640  52.550  1.00  0.00    -0.300 OA
ATOM     19  C   UNL     1     102.033  46.585  54.631  1.00  0.00     0.087 C 
ENDBRANCH  16  17
ENDBRANCH  15  16
ENDBRANCH  13  15
ENDBRANCH  11  12
ENDBRANCH   1  11
TORSDOF 9
ENDMDL
MODEL 5
REMARK VINA RESULT:    -4.078     16.084     17.374
REMARK INTER + INTRA:          -6.634
REMARK INTER:                  -5.364
REMARK INTRA:                  -1.270
REMARK UNBOUND:                -0.410
REMARK SMILES CC(=O)CCC=C(C)CCC=C(C)CCC=C(C)C
REMARK SMILES IDX 10 1 11 2 12 3 13 4 14 5 15 6 16 7 18 8 17 9 19 10 9 11 7 12
REMARK SMILES IDX 6 13 8 14 5 15 4 16 2 17 3 18 1 19
REMARK H PARENT
REMARK Flexibility Score: inf
ROOT
ATOM      1  C   UNL     1     108.154  48.225  62.115  1.00  0.00     0.032 C 
ENDROOT
BRANCH   1   2
ATOM      2  C   UNL     1     108.609  47.060  62.957  1.00  0.00    -0.028 C 
ATOM      3  C   UNL     1     108.162  46.792  64.205  1.00  0.00    -0.077 C 
ATOM      4  C   UNL     1     108.720  45.593  64.926  1.00  0.00     0.039 C 
BRANCH   3   5
ATOM      5  C   UNL     1     107.073  47.603  64.881  1.00  0.00     0.034 C 
BRANCH   5   6
ATOM      6  C   UNL     1     107.649  48.423  66.040  1.00  0.00     0.032 C 
BRANCH   6   7
ATOM      7  C   UNL     1     108.352  49.654  65.525  1.00  0.00    -0.028 C 
ATOM      8  C   UNL     1     108.563  51.928  64.617  1.00  0.00     0.039 C 
ATOM      9  C   UNL     1     107.724  50.751  65.049  1.00  0.00    -0.080 C 
ATOM     10  C   UNL     1     106.220  50.824  64.926  1.00  0.00     0.039 C 
ENDBRANCH   6   7
ENDBRANCH   5   6
ENDBRANCH   3   5
ENDBRANCH   1   2
BRANCH   1  11
ATOM     11  C   UNL     1     107.545  47.735  60.795  1.00  0.00     0.034 C 
BRANCH  11  12
ATOM     12  C   UNL     1     106.060  48.023  60.738  1.00  0.00    -0.077 C 
ATOM     13  C   UNL     1     105.417  47.911  59.552  1.00  0.00    -0.028 C 
ATOM     14  C   UNL     1     105.330  48.401  62.005  1.00  0.00     0.039 C 
BRANCH  13  15
ATOM     15  C   UNL     1     103.932  48.092  59.366  1.00  0.00     0.035 C 
BRANCH  15  16
ATOM     16  C   UNL     1     103.501  47.596  57.983  1.00  0.00     0.079 C 
BRANCH  16  17
ATOM     17  C   UNL     1     103.537  48.717  56.979  1.00  0.00     0.130 C 
ATOM     18  O   UNL     1     102.999  49.782  57.246  1.00  0.00    -0.300 OA
ATOM     19  C   UNL     1     104.216  48.554  55.650  1.00  0.00     0.087 C 
ENDBRANCH  16  17
ENDBRANCH  15  16
ENDBRANCH  13  15
ENDBRANCH  11  12
ENDBRANCH   1  11
TORSDOF 9
ENDMDL
MODEL 6
REMARK VINA RESULT:    -4.010     15.597     16.586
REMARK INTER + INTRA:          -6.530
REMARK INTER:                  -5.631
REMARK INTRA:                  -0.899
REMARK UNBOUND:                -0.410
REMARK SMILES CC(=O)CCC=C(C)CCC=C(C)CCC=C(C)C
REMARK SMILES IDX 10 1 11 2 12 3 13 4 14 5 15 6 16 7 18 8 17 9 19 10 9 11 7 12
REMARK SMILES IDX 6 13 8 14 5 15 4 16 2 17 3 18 1 19
REMARK H PARENT
REMARK Flexibility Score: inf
ROOT
ATOM      1  C   UNL     1     105.431  48.459  59.958  1.00  0.00     0.032 C 
ENDROOT
BRANCH   1   2
ATOM      2  C   UNL     1     104.432  47.564  59.269  1.00  0.00    -0.028 C 
ATOM      3  C   UNL     1     103.587  47.965  58.292  1.00  0.00    -0.077 C 
ATOM      4  C   UNL     1     102.637  46.954  57.705  1.00  0.00     0.039 C 
BRANCH   3   5
ATOM      5  C   UNL     1     103.603  49.367  57.714  1.00  0.00     0.034 C 
BRANCH   5   6
ATOM      6  C   UNL     1     102.761  49.435  56.435  1.00  0.00     0.032 C 
BRANCH   6   7
ATOM      7  C   UNL     1     103.641  49.361  55.213  1.00  0.00    -0.028 C 
ATOM      8  C   UNL     1     104.454  48.508  53.056  1.00  0.00     0.039 C 
ATOM      9  C   UNL     1     103.535  48.421  54.249  1.00  0.00    -0.080 C 
ATOM     10  C   UNL     1     102.539  47.288  54.340  1.00  0.00     0.039 C 
ENDBRANCH   6   7
ENDBRANCH   5   6
ENDBRANCH   3   5
ENDBRANCH   1   2
BRANCH   1  11
ATOM     11  C   UNL     1     106.647  47.652  60.430  1.00  0.00     0.034 C 
BRANCH  11  12
ATOM     12  C   UNL     1     107.307  48.307  61.625  1.00  0.00    -0.077 C 
ATOM     13  C   UNL     1     106.574  48.518  62.743  1.00  0.00    -0.028 C 
ATOM     14  C   UNL     1     108.768  48.682  61.550  1.00  0.00     0.039 C 
BRANCH  13  15
ATOM     15  C   UNL     1     107.121  49.088  64.027  1.00  0.00     0.035 C 
BRANCH  15  16
ATOM     16  C   UNL     1     106.829  48.145  65.198  1.00  0.00     0.079 C 
BRANCH  16  17
ATOM     17  C   UNL     1     108.013  47.259  65.477  1.00  0.00     0.130 C 
ATOM     18  O   UNL     1     108.662  47.425  66.499  1.00  0.00    -0.300 OA
ATOM     19  C   UNL     1     108.420  46.176  64.520  1.00  0.00     0.087 C 
ENDBRANCH  16  17
ENDBRANCH  15  16
ENDBRANCH  13  15
ENDBRANCH  11  12
ENDBRANCH   1  11
TORSDOF 9
ENDMDL
MODEL 7
REMARK VINA RESULT:    -3.815     15.658     16.732
REMARK INTER + INTRA:          -6.232
REMARK INTER:                  -5.072
REMARK INTRA:                  -1.160
REMARK UNBOUND:                -0.410
REMARK SMILES CC(=O)CCC=C(C)CCC=C(C)CCC=C(C)C
REMARK SMILES IDX 10 1 11 2 12 3 13 4 14 5 15 6 16 7 18 8 17 9 19 10 9 11 7 12
REMARK SMILES IDX 6 13 8 14 5 15 4 16 2 17 3 18 1 19
REMARK H PARENT
REMARK Flexibility Score: inf
ROOT
ATOM      1  C   UNL     1     104.336  48.231  59.548  1.00  0.00     0.032 C 
ENDROOT
BRANCH   1   2
ATOM      2  C   UNL     1     103.629  47.478  58.450  1.00  0.00    -0.028 C 
ATOM      3  C   UNL     1     102.902  48.055  57.465  1.00  0.00    -0.077 C 
ATOM      4  C   UNL     1     102.247  47.165  56.441  1.00  0.00     0.039 C 
BRANCH   3   5
ATOM      5  C   UNL     1     102.778  49.558  57.306  1.00  0.00     0.034 C 
BRANCH   5   6
ATOM      6  C   UNL     1     102.583  49.932  55.834  1.00  0.00     0.032 C 
BRANCH   6   7
ATOM      7  C   UNL     1     103.888  50.363  55.215  1.00  0.00    -0.028 C 
ATOM      8  C   UNL     1     105.793  50.286  53.664  1.00  0.00     0.039 C 
ATOM      9  C   UNL     1     104.517  49.703  54.218  1.00  0.00    -0.080 C 
ATOM     10  C   UNL     1     103.988  48.402  53.659  1.00  0.00     0.039 C 
ENDBRANCH   6   7
ENDBRANCH   5   6
ENDBRANCH   3   5
ENDBRANCH   1   2
BRANCH   1  11
ATOM     11  C   UNL     1     105.826  47.874  59.579  1.00  0.00     0.034 C 
BRANCH  11  12
ATOM     12  C   UNL     1     106.394  48.019  60.975  1.00  0.00    -0.077 C 
ATOM     13  C   UNL     1     107.728  47.878  61.156  1.00  0.00    -0.028 C 
ATOM     14  C   UNL     1     105.466  48.344  62.121  1.00  0.00     0.039 C 
BRANCH  13  15
ATOM     15  C   UNL     1     108.435  48.073  62.474  1.00  0.00     0.035 C 
BRANCH  15  16
ATOM     16  C   UNL     1     108.712  46.721  63.137  1.00  0.00     0.079 C 
BRANCH  16  17
ATOM     17  C   UNL     1     108.238  46.722  64.566  1.00  0.00     0.130 C 
ATOM     18  O   UNL     1     108.367  45.713  65.244  1.00  0.00    -0.300 OA
ATOM     19  C   UNL     1     107.602  47.937  65.177  1.00  0.00     0.087 C 
ENDBRANCH  16  17
ENDBRANCH  15  16
ENDBRANCH  13  15
ENDBRANCH  11  12
ENDBRANCH   1  11
TORSDOF 9
ENDMDL
MODEL 8
REMARK VINA RESULT:    -3.807      7.474     12.309
REMARK INTER + INTRA:          -6.221
REMARK INTER:                  -5.792
REMARK INTRA:                  -0.429
REMARK UNBOUND:                -0.410
REMARK SMILES CC(=O)CCC=C(C)CCC=C(C)CCC=C(C)C
REMARK SMILES IDX 10 1 11 2 12 3 13 4 14 5 15 6 16 7 18 8 17 9 19 10 9 11 7 12
REMARK SMILES IDX 6 13 8 14 5 15 4 16 2 17 3 18 1 19
REMARK H PARENT
REMARK Flexibility Score: inf
ROOT
ATOM      1  C   UNL     1     110.370  34.282  56.148  1.00  0.00     0.032 C 
ENDROOT
BRANCH   1   2
ATOM      2  C   UNL     1     110.520  33.674  54.777  1.00  0.00    -0.028 C 
ATOM      3  C   UNL     1     111.603  33.830  53.981  1.00  0.00    -0.077 C 
ATOM      4  C   UNL     1     111.601  33.166  52.629  1.00  0.00     0.039 C 
BRANCH   3   5
ATOM      5  C   UNL     1     112.845  34.582  54.418  1.00  0.00     0.034 C 
BRANCH   5   6
ATOM      6  C   UNL     1     113.966  34.424  53.386  1.00  0.00     0.032 C 
BRANCH   6   7
ATOM      7  C   UNL     1     114.015  35.615  52.464  1.00  0.00    -0.028 C 
ATOM      8  C   UNL     1     114.170  36.821  50.327  1.00  0.00     0.039 C 
ATOM      9  C   UNL     1     114.198  35.542  51.127  1.00  0.00    -0.080 C 
ATOM     10  C   UNL     1     114.440  34.228  50.422  1.00  0.00     0.039 C 
ENDBRANCH   6   7
ENDBRANCH   5   6
ENDBRANCH   3   5
ENDBRANCH   1   2
BRANCH   1  11
ATOM     11  C   UNL     1     109.756  33.272  57.125  1.00  0.00     0.034 C 
BRANCH  11  12
ATOM     12  C   UNL     1     108.246  33.251  57.011  1.00  0.00    -0.077 C 
ATOM     13  C   UNL     1     107.504  33.507  58.114  1.00  0.00    -0.028 C 
ATOM     14  C   UNL     1     107.609  32.974  55.670  1.00  0.00     0.039 C 
BRANCH  13  15
ATOM     15  C   UNL     1     105.998  33.594  58.126  1.00  0.00     0.035 C 
BRANCH  15  16
ATOM     16  C   UNL     1     105.431  32.875  59.354  1.00  0.00     0.079 C 
BRANCH  16  17
ATOM     17  C   UNL     1     104.128  33.497  59.780  1.00  0.00     0.130 C 
ATOM     18  O   UNL     1     103.718  34.492  59.201  1.00  0.00    -0.300 OA
ATOM     19  C   UNL     1     103.322  32.926  60.911  1.00  0.00     0.087 C 
ENDBRANCH  16  17
ENDBRANCH  15  16
ENDBRANCH  13  15
ENDBRANCH  11  12
ENDBRANCH   1  11
TORSDOF 9
ENDMDL
