MODEL 1
REMARK VINA RESULT:    -6.100      0.000      0.000
REMARK INTER + INTRA:          -7.408
REMARK INTER:                  -7.170
REMARK INTRA:                  -0.238
REMARK UNBOUND:                -0.238
REMARK SMILES O=c1c(O)c(-c2ccc(O)cc2)oc2cc(O)cc(O)c12
REMARK SMILES IDX 5 1 3 2 2 3 1 4 21 5 19 6 18 7 16 8 15 9 14 10 13 11 6 12
REMARK SMILES IDX 7 13 8 14 9 15 12 16 11 17 10 18 4 20 20 22 17 24
REMARK H PARENT 10 19 4 21 20 23 17 25
REMARK Flexibility Score: inf
ROOT
ATOM      1  C   UNL     1      24.307  30.703 -11.449  1.00  0.00     0.180 A 
ATOM      2  C   UNL     1      24.099  30.618 -12.837  1.00  0.00     0.208 A 
ATOM      3  C   UNL     1      25.210  30.495 -13.686  1.00  0.00     0.238 A 
ATOM      4  O   UNL     1      25.015  30.365 -14.923  1.00  0.00    -0.285 OA
ATOM      5  C   UNL     1      26.516  30.475 -13.140  1.00  0.00     0.111 A 
ATOM      6  C   UNL     1      27.715  30.395 -13.909  1.00  0.00     0.134 A 
ATOM      7  C   UNL     1      28.946  30.250 -13.255  1.00  0.00     0.093 A 
ATOM      8  C   UNL     1      29.026  30.249 -11.861  1.00  0.00     0.123 A 
ATOM      9  C   UNL     1      27.866  30.387 -11.102  1.00  0.00     0.094 A 
ATOM     10  C   UNL     1      26.621  30.497 -11.724  1.00  0.00     0.146 A 
ATOM     11  O   UNL     1      25.539  30.616 -10.963  1.00  0.00    -0.452 OA
ENDROOT
BRANCH   1  12
ATOM     12  C   UNL     1      23.188  30.860 -10.493  1.00  0.00     0.021 A 
ATOM     13  C   UNL     1      22.503  32.082 -10.360  1.00  0.00     0.016 A 
ATOM     14  C   UNL     1      21.464  32.212  -9.433  1.00  0.00     0.047 A 
ATOM     15  C   UNL     1      21.107  31.130  -8.618  1.00  0.00     0.115 A 
ATOM     16  C   UNL     1      22.837  29.787  -9.657  1.00  0.00     0.016 A 
ATOM     17  C   UNL     1      21.798  29.920  -8.731  1.00  0.00     0.047 A 
BRANCH  15  18
ATOM     18  O   UNL     1      20.074  31.249  -7.691  1.00  0.00    -0.508 OA
ATOM     19  H   UNL     1      19.257  30.650  -7.729  1.00  0.00     0.293 HD
ENDBRANCH  15  18
ENDBRANCH   1  12
BRANCH   2  20
ATOM     20  O   UNL     1      22.800  30.618 -13.354  1.00  0.00    -0.502 OA
ATOM     21  H   UNL     1      22.015  30.222 -12.853  1.00  0.00     0.293 HD
ENDBRANCH   2  20
BRANCH   6  22
ATOM     22  O   UNL     1      27.755  30.478 -15.304  1.00  0.00    -0.507 OA
ATOM     23  H   UNL     1      27.075  30.962 -15.870  1.00  0.00     0.293 HD
ENDBRANCH   6  22
BRANCH   8  24
ATOM     24  O   UNL     1      30.256  30.120 -11.220  1.00  0.00    -0.508 OA
ATOM     25  H   UNL     1      31.115  29.992 -11.742  1.00  0.00     0.293 HD
ENDBRANCH   8  24
TORSDOF 5
ENDMDL
MODEL 2
REMARK VINA RESULT:    -5.997      5.473      6.839
REMARK INTER + INTRA:          -7.287
REMARK INTER:                  -7.023
REMARK INTRA:                  -0.265
REMARK UNBOUND:                -0.238
REMARK SMILES O=c1c(O)c(-c2ccc(O)cc2)oc2cc(O)cc(O)c12
REMARK SMILES IDX 5 1 3 2 2 3 1 4 21 5 19 6 18 7 16 8 15 9 14 10 13 11 6 12
REMARK SMILES IDX 7 13 8 14 9 15 12 16 11 17 10 18 4 20 20 22 17 24
REMARK H PARENT 10 19 4 21 20 23 17 25
REMARK Flexibility Score: inf
ROOT
ATOM      1  C   UNL     1      26.649  25.408 -12.686  1.00  0.00     0.180 A 
ATOM      2  C   UNL     1      26.355  25.735 -14.021  1.00  0.00     0.208 A 
ATOM      3  C   UNL     1      26.277  27.087 -14.389  1.00  0.00     0.238 A 
ATOM      4  O   UNL     1      26.068  27.374 -15.597  1.00  0.00    -0.285 OA
ATOM      5  C   UNL     1      26.478  28.096 -13.416  1.00  0.00     0.111 A 
ATOM      6  C   UNL     1      26.382  29.497 -13.669  1.00  0.00     0.134 A 
ATOM      7  C   UNL     1      26.729  30.406 -12.661  1.00  0.00     0.093 A 
ATOM      8  C   UNL     1      27.104  29.964 -11.390  1.00  0.00     0.123 A 
ATOM      9  C   UNL     1      27.142  28.599 -11.116  1.00  0.00     0.094 A 
ATOM     10  C   UNL     1      26.837  27.668 -12.111  1.00  0.00     0.146 A 
ATOM     11  O   UNL     1      26.896  26.375 -11.811  1.00  0.00    -0.452 OA
ENDROOT
BRANCH   1  12
ATOM     12  C   UNL     1      26.723  24.006 -12.216  1.00  0.00     0.021 A 
ATOM     13  C   UNL     1      25.654  23.408 -11.523  1.00  0.00     0.016 A 
ATOM     14  C   UNL     1      25.757  22.089 -11.069  1.00  0.00     0.047 A 
ATOM     15  C   UNL     1      26.932  21.358 -11.288  1.00  0.00     0.115 A 
ATOM     16  C   UNL     1      27.905  23.272 -12.412  1.00  0.00     0.016 A 
ATOM     17  C   UNL     1      28.004  21.954 -11.957  1.00  0.00     0.047 A 
BRANCH  15  18
ATOM     18  O   UNL     1      27.044  20.043 -10.840  1.00  0.00    -0.508 OA
ATOM     19  H   UNL     1      27.119  19.267 -11.487  1.00  0.00     0.293 HD
ENDBRANCH  15  18
ENDBRANCH   1  12
BRANCH   2  20
ATOM     20  O   UNL     1      26.183  24.725 -14.971  1.00  0.00    -0.502 OA
ATOM     21  H   UNL     1      26.696  24.705 -15.844  1.00  0.00     0.293 HD
ENDBRANCH   2  20
BRANCH   6  22
ATOM     22  O   UNL     1      25.931  30.044 -14.874  1.00  0.00    -0.507 OA
ATOM     23  H   UNL     1      25.394  29.544 -15.566  1.00  0.00     0.293 HD
ENDBRANCH   6  22
BRANCH   8  24
ATOM     24  O   UNL     1      27.432  30.875 -10.389  1.00  0.00    -0.508 OA
ATOM     25  H   UNL     1      28.391  31.008 -10.086  1.00  0.00     0.293 HD
ENDBRANCH   8  24
TORSDOF 5
ENDMDL
MODEL 3
REMARK VINA RESULT:    -5.767      2.687      6.373
REMARK INTER + INTRA:          -7.016
REMARK INTER:                  -7.048
REMARK INTRA:                   0.032
REMARK UNBOUND:                -0.238
REMARK SMILES O=c1c(O)c(-c2ccc(O)cc2)oc2cc(O)cc(O)c12
REMARK SMILES IDX 5 1 3 2 2 3 1 4 21 5 19 6 18 7 16 8 15 9 14 10 13 11 6 12
REMARK SMILES IDX 7 13 8 14 9 15 12 16 11 17 10 18 4 20 20 22 17 24
REMARK H PARENT 10 19 4 21 20 23 17 25
REMARK Flexibility Score: inf
ROOT
ATOM      1  C   UNL     1      25.276  30.629 -13.433  1.00  0.00     0.180 A 
ATOM      2  C   UNL     1      24.988  31.486 -14.509  1.00  0.00     0.208 A 
ATOM      3  C   UNL     1      23.686  31.510 -15.031  1.00  0.00     0.238 A 
ATOM      4  O   UNL     1      23.421  32.320 -15.958  1.00  0.00    -0.285 OA
ATOM      5  C   UNL     1      22.691  30.665 -14.484  1.00  0.00     0.111 A 
ATOM      6  C   UNL     1      21.349  30.577 -14.961  1.00  0.00     0.134 A 
ATOM      7  C   UNL     1      20.416  29.803 -14.260  1.00  0.00     0.093 A 
ATOM      8  C   UNL     1      20.793  29.062 -13.137  1.00  0.00     0.123 A 
ATOM      9  C   UNL     1      22.114  29.095 -12.699  1.00  0.00     0.094 A 
ATOM     10  C   UNL     1      23.060  29.886 -13.356  1.00  0.00     0.146 A 
ATOM     11  O   UNL     1      24.306  29.896 -12.899  1.00  0.00    -0.452 OA
ENDROOT
BRANCH   1  12
ATOM     12  C   UNL     1      26.631  30.530 -12.845  1.00  0.00     0.021 A 
ATOM     13  C   UNL     1      27.771  30.366 -13.654  1.00  0.00     0.016 A 
ATOM     14  C   UNL     1      29.038  30.251 -13.074  1.00  0.00     0.047 A 
ATOM     15  C   UNL     1      29.181  30.283 -11.680  1.00  0.00     0.115 A 
ATOM     16  C   UNL     1      26.782  30.539 -11.448  1.00  0.00     0.016 A 
ATOM     17  C   UNL     1      28.050  30.424 -10.872  1.00  0.00     0.047 A 
BRANCH  15  18
ATOM     18  O   UNL     1      30.439  30.170 -11.092  1.00  0.00    -0.508 OA
ATOM     19  H   UNL     1      31.288  30.315 -11.625  1.00  0.00     0.293 HD
ENDBRANCH  15  18
ENDBRANCH   1  12
BRANCH   2  20
ATOM     20  O   UNL     1      25.979  32.330 -15.020  1.00  0.00    -0.502 OA
ATOM     21  H   UNL     1      26.964  32.194 -14.824  1.00  0.00     0.293 HD
ENDBRANCH   2  20
BRANCH   6  22
ATOM     22  O   UNL     1      20.892  31.204 -16.125  1.00  0.00    -0.507 OA
ATOM     23  H   UNL     1      19.988  31.048 -16.543  1.00  0.00     0.293 HD
ENDBRANCH   6  22
BRANCH   8  24
ATOM     24  O   UNL     1      19.861  28.283 -12.455  1.00  0.00    -0.508 OA
ATOM     25  H   UNL     1      19.304  28.663 -11.698  1.00  0.00     0.293 HD
ENDBRANCH   8  24
TORSDOF 5
ENDMDL
MODEL 4
REMARK VINA RESULT:    -5.765      3.081      4.323
REMARK INTER + INTRA:          -7.013
REMARK INTER:                  -6.722
REMARK INTRA:                  -0.292
REMARK UNBOUND:                -0.238
REMARK SMILES O=c1c(O)c(-c2ccc(O)cc2)oc2cc(O)cc(O)c12
REMARK SMILES IDX 5 1 3 2 2 3 1 4 21 5 19 6 18 7 16 8 15 9 14 10 13 11 6 12
REMARK SMILES IDX 7 13 8 14 9 15 12 16 11 17 10 18 4 20 20 22 17 24
REMARK H PARENT 10 19 4 21 20 23 17 25
REMARK Flexibility Score: inf
ROOT
ATOM      1  C   UNL     1      25.228  30.033 -13.405  1.00  0.00     0.180 A 
ATOM      2  C   UNL     1      26.441  30.391 -14.018  1.00  0.00     0.208 A 
ATOM      3  C   UNL     1      27.625  30.346 -13.265  1.00  0.00     0.238 A 
ATOM      4  O   UNL     1      28.715  30.615 -13.833  1.00  0.00    -0.285 OA
ATOM      5  C   UNL     1      27.579  29.960 -11.903  1.00  0.00     0.111 A 
ATOM      6  C   UNL     1      28.711  29.918 -11.034  1.00  0.00     0.134 A 
ATOM      7  C   UNL     1      28.570  29.395  -9.743  1.00  0.00     0.093 A 
ATOM      8  C   UNL     1      27.325  28.975  -9.267  1.00  0.00     0.123 A 
ATOM      9  C   UNL     1      26.204  29.068 -10.087  1.00  0.00     0.094 A 
ATOM     10  C   UNL     1      26.319  29.551 -11.393  1.00  0.00     0.146 A 
ATOM     11  O   UNL     1      25.227  29.613 -12.146  1.00  0.00    -0.452 OA
ENDROOT
BRANCH   1  12
ATOM     12  C   UNL     1      23.937  30.080 -14.127  1.00  0.00     0.021 A 
ATOM     13  C   UNL     1      23.199  31.274 -14.234  1.00  0.00     0.016 A 
ATOM     14  C   UNL     1      21.970  31.287 -14.901  1.00  0.00     0.047 A 
ATOM     15  C   UNL     1      21.457  30.108 -15.455  1.00  0.00     0.115 A 
ATOM     16  C   UNL     1      23.403  28.898 -14.668  1.00  0.00     0.016 A 
ATOM     17  C   UNL     1      22.175  28.915 -15.334  1.00  0.00     0.047 A 
BRANCH  15  18
ATOM     18  O   UNL     1      20.233  30.110 -16.122  1.00  0.00    -0.508 OA
ATOM     19  H   UNL     1      19.734  30.972 -16.310  1.00  0.00     0.293 HD
ENDBRANCH  15  18
ENDBRANCH   1  12
BRANCH   2  20
ATOM     20  O   UNL     1      26.468  30.748 -15.369  1.00  0.00    -0.502 OA
ATOM     21  H   UNL     1      25.628  30.972 -15.890  1.00  0.00     0.293 HD
ENDBRANCH   2  20
BRANCH   6  22
ATOM     22  O   UNL     1      29.978  30.398 -11.379  1.00  0.00    -0.507 OA
ATOM     23  H   UNL     1      30.522  30.071 -12.163  1.00  0.00     0.293 HD
ENDBRANCH   6  22
BRANCH   8  24
ATOM     24  O   UNL     1      27.192  28.471  -7.975  1.00  0.00    -0.508 OA
ATOM     25  H   UNL     1      26.824  27.542  -7.804  1.00  0.00     0.293 HD
ENDBRANCH   8  24
TORSDOF 5
ENDMDL
MODEL 5
REMARK VINA RESULT:    -5.567      3.905      6.523
REMARK INTER + INTRA:          -6.781
REMARK INTER:                  -6.518
REMARK INTRA:                  -0.263
REMARK UNBOUND:                -0.238
REMARK SMILES O=c1c(O)c(-c2ccc(O)cc2)oc2cc(O)cc(O)c12
REMARK SMILES IDX 5 1 3 2 2 3 1 4 21 5 19 6 18 7 16 8 15 9 14 10 13 11 6 12
REMARK SMILES IDX 7 13 8 14 9 15 12 16 11 17 10 18 4 20 20 22 17 24
REMARK H PARENT 10 19 4 21 20 23 17 25
REMARK Flexibility Score: inf
ROOT
ATOM      1  C   UNL     1      25.806  28.000 -13.482  1.00  0.00     0.180 A 
ATOM      2  C   UNL     1      26.689  29.087 -13.598  1.00  0.00     0.208 A 
ATOM      3  C   UNL     1      26.207  30.307 -14.095  1.00  0.00     0.238 A 
ATOM      4  O   UNL     1      26.989  31.292 -14.145  1.00  0.00    -0.285 OA
ATOM      5  C   UNL     1      24.851  30.422 -14.488  1.00  0.00     0.111 A 
ATOM      6  C   UNL     1      24.265  31.599 -15.043  1.00  0.00     0.134 A 
ATOM      7  C   UNL     1      22.884  31.639 -15.273  1.00  0.00     0.093 A 
ATOM      8  C   UNL     1      22.079  30.524 -15.028  1.00  0.00     0.123 A 
ATOM      9  C   UNL     1      22.652  29.351 -14.542  1.00  0.00     0.094 A 
ATOM     10  C   UNL     1      24.021  29.292 -14.269  1.00  0.00     0.146 A 
ATOM     11  O   UNL     1      24.525  28.157 -13.797  1.00  0.00    -0.452 OA
ENDROOT
BRANCH   1  12
ATOM     12  C   UNL     1      26.246  26.675 -12.990  1.00  0.00     0.021 A 
ATOM     13  C   UNL     1      26.958  25.786 -13.816  1.00  0.00     0.016 A 
ATOM     14  C   UNL     1      27.342  24.530 -13.335  1.00  0.00     0.047 A 
ATOM     15  C   UNL     1      27.009  24.142 -12.031  1.00  0.00     0.115 A 
ATOM     16  C   UNL     1      25.898  26.269 -11.690  1.00  0.00     0.016 A 
ATOM     17  C   UNL     1      26.284  25.014 -11.213  1.00  0.00     0.047 A 
BRANCH  15  18
ATOM     18  O   UNL     1      27.388  22.894 -11.542  1.00  0.00    -0.508 OA
ATOM     19  H   UNL     1      27.229  22.632 -10.576  1.00  0.00     0.293 HD
ENDBRANCH  15  18
ENDBRANCH   1  12
BRANCH   2  20
ATOM     20  O   UNL     1      28.018  28.959 -13.184  1.00  0.00    -0.502 OA
ATOM     21  H   UNL     1      28.458  29.618 -12.552  1.00  0.00     0.293 HD
ENDBRANCH   2  20
BRANCH   6  22
ATOM     22  O   UNL     1      24.992  32.735 -15.409  1.00  0.00    -0.507 OA
ATOM     23  H   UNL     1      25.166  33.525 -14.806  1.00  0.00     0.293 HD
ENDBRANCH   6  22
BRANCH   8  24
ATOM     24  O   UNL     1      20.709  30.568 -15.274  1.00  0.00    -0.508 OA
ATOM     25  H   UNL     1      20.063  29.953 -14.792  1.00  0.00     0.293 HD
ENDBRANCH   8  24
TORSDOF 5
ENDMDL
MODEL 6
REMARK VINA RESULT:    -5.502      3.464      6.229
REMARK INTER + INTRA:          -6.705
REMARK INTER:                  -6.417
REMARK INTRA:                  -0.288
REMARK UNBOUND:                -0.238
REMARK SMILES O=c1c(O)c(-c2ccc(O)cc2)oc2cc(O)cc(O)c12
REMARK SMILES IDX 5 1 3 2 2 3 1 4 21 5 19 6 18 7 16 8 15 9 14 10 13 11 6 12
REMARK SMILES IDX 7 13 8 14 9 15 12 16 11 17 10 18 4 20 20 22 17 24
REMARK H PARENT 10 19 4 21 20 23 17 25
REMARK Flexibility Score: inf
ROOT
ATOM      1  C   UNL     1      25.675  29.401 -11.312  1.00  0.00     0.180 A 
ATOM      2  C   UNL     1      26.572  29.592 -10.247  1.00  0.00     0.208 A 
ATOM      3  C   UNL     1      26.641  28.624  -9.233  1.00  0.00     0.238 A 
ATOM      4  O   UNL     1      27.485  28.772  -8.311  1.00  0.00    -0.285 OA
ATOM      5  C   UNL     1      25.801  27.485  -9.287  1.00  0.00     0.111 A 
ATOM      6  C   UNL     1      25.758  26.461  -8.293  1.00  0.00     0.134 A 
ATOM      7  C   UNL     1      24.983  25.316  -8.516  1.00  0.00     0.093 A 
ATOM      8  C   UNL     1      24.199  25.188  -9.665  1.00  0.00     0.123 A 
ATOM      9  C   UNL     1      24.189  26.209 -10.612  1.00  0.00     0.094 A 
ATOM     10  C   UNL     1      24.979  27.347 -10.436  1.00  0.00     0.146 A 
ATOM     11  O   UNL     1      24.947  28.292 -11.368  1.00  0.00    -0.452 OA
ENDROOT
BRANCH   1  12
ATOM     12  C   UNL     1      25.528  30.390 -12.404  1.00  0.00     0.021 A 
ATOM     13  C   UNL     1      26.296  30.303 -13.580  1.00  0.00     0.016 A 
ATOM     14  C   UNL     1      26.156  31.262 -14.588  1.00  0.00     0.047 A 
ATOM     15  C   UNL     1      25.259  32.326 -14.428  1.00  0.00     0.115 A 
ATOM     16  C   UNL     1      24.646  31.472 -12.244  1.00  0.00     0.016 A 
ATOM     17  C   UNL     1      24.508  32.429 -13.253  1.00  0.00     0.047 A 
BRANCH  15  18
ATOM     18  O   UNL     1      25.111  33.287 -15.426  1.00  0.00    -0.508 OA
ATOM     19  H   UNL     1      25.911  33.665 -15.920  1.00  0.00     0.293 HD
ENDBRANCH  15  18
ENDBRANCH   1  12
BRANCH   2  20
ATOM     20  O   UNL     1      27.409  30.711 -10.224  1.00  0.00    -0.502 OA
ATOM     21  H   UNL     1      27.462  31.367 -10.994  1.00  0.00     0.293 HD
ENDBRANCH   2  20
BRANCH   6  22
ATOM     22  O   UNL     1      26.431  26.532  -7.070  1.00  0.00    -0.507 OA
ATOM     23  H   UNL     1      26.473  27.352  -6.484  1.00  0.00     0.293 HD
ENDBRANCH   6  22
BRANCH   8  24
ATOM     24  O   UNL     1      23.420  24.052  -9.870  1.00  0.00    -0.508 OA
ATOM     25  H   UNL     1      23.067  23.504  -9.094  1.00  0.00     0.293 HD
ENDBRANCH   8  24
TORSDOF 5
ENDMDL
MODEL 7
REMARK VINA RESULT:    -5.485      4.896      6.145
REMARK INTER + INTRA:          -6.685
REMARK INTER:                  -6.400
REMARK INTRA:                  -0.285
REMARK UNBOUND:                -0.238
REMARK SMILES O=c1c(O)c(-c2ccc(O)cc2)oc2cc(O)cc(O)c12
REMARK SMILES IDX 5 1 3 2 2 3 1 4 21 5 19 6 18 7 16 8 15 9 14 10 13 11 6 12
REMARK SMILES IDX 7 13 8 14 9 15 12 16 11 17 10 18 4 20 20 22 17 24
REMARK H PARENT 10 19 4 21 20 23 17 25
REMARK Flexibility Score: inf
ROOT
ATOM      1  C   UNL     1      26.111  26.208 -13.643  1.00  0.00     0.180 A 
ATOM      2  C   UNL     1      25.663  26.864 -14.803  1.00  0.00     0.208 A 
ATOM      3  C   UNL     1      25.985  28.218 -14.987  1.00  0.00     0.238 A 
ATOM      4  O   UNL     1      25.628  28.785 -16.053  1.00  0.00    -0.285 OA
ATOM      5  C   UNL     1      26.737  28.904 -14.003  1.00  0.00     0.111 A 
ATOM      6  C   UNL     1      27.085  30.287 -14.067  1.00  0.00     0.134 A 
ATOM      7  C   UNL     1      27.943  30.827 -13.101  1.00  0.00     0.093 A 
ATOM      8  C   UNL     1      28.410  30.052 -12.037  1.00  0.00     0.123 A 
ATOM      9  C   UNL     1      28.027  28.718 -11.933  1.00  0.00     0.094 A 
ATOM     10  C   UNL     1      27.202  28.140 -12.901  1.00  0.00     0.146 A 
ATOM     11  O   UNL     1      26.869  26.861 -12.770  1.00  0.00    -0.452 OA
ENDROOT
BRANCH   1  12
ATOM     12  C   UNL     1      25.790  24.790 -13.367  1.00  0.00     0.021 A 
ATOM     13  C   UNL     1      26.585  23.746 -13.876  1.00  0.00     0.016 A 
ATOM     14  C   UNL     1      26.248  22.413 -13.621  1.00  0.00     0.047 A 
ATOM     15  C   UNL     1      25.107  22.106 -12.867  1.00  0.00     0.115 A 
ATOM     16  C   UNL     1      24.637  24.472 -12.630  1.00  0.00     0.016 A 
ATOM     17  C   UNL     1      24.303  23.138 -12.376  1.00  0.00     0.047 A 
BRANCH  15  18
ATOM     18  O   UNL     1      24.763  20.781 -12.607  1.00  0.00    -0.508 OA
ATOM     19  H   UNL     1      24.761  20.410 -11.664  1.00  0.00     0.293 HD
ENDBRANCH  15  18
ENDBRANCH   1  12
BRANCH   2  20
ATOM     20  O   UNL     1      24.941  26.163 -15.773  1.00  0.00    -0.502 OA
ATOM     21  H   UNL     1      24.352  25.370 -15.547  1.00  0.00     0.293 HD
ENDBRANCH   2  20
BRANCH   6  22
ATOM     22  O   UNL     1      26.600  31.170 -15.036  1.00  0.00    -0.507 OA
ATOM     23  H   UNL     1      25.998  31.957 -14.845  1.00  0.00     0.293 HD
ENDBRANCH   6  22
BRANCH   8  24
ATOM     24  O   UNL     1      29.250  30.603 -11.071  1.00  0.00    -0.508 OA
ATOM     25  H   UNL     1      29.310  30.215 -10.137  1.00  0.00     0.293 HD
ENDBRANCH   8  24
TORSDOF 5
ENDMDL
MODEL 8
REMARK VINA RESULT:    -5.407      4.947      6.905
REMARK INTER + INTRA:          -6.593
REMARK INTER:                  -6.304
REMARK INTRA:                  -0.289
REMARK UNBOUND:                -0.238
REMARK SMILES O=c1c(O)c(-c2ccc(O)cc2)oc2cc(O)cc(O)c12
REMARK SMILES IDX 5 1 3 2 2 3 1 4 21 5 19 6 18 7 16 8 15 9 14 10 13 11 6 12
REMARK SMILES IDX 7 13 8 14 9 15 12 16 11 17 10 18 4 20 20 22 17 24
REMARK H PARENT 10 19 4 21 20 23 17 25
REMARK Flexibility Score: inf
ROOT
ATOM      1  C   UNL     1      26.351  27.010 -12.462  1.00  0.00     0.180 A 
ATOM      2  C   UNL     1      26.935  25.893 -13.085  1.00  0.00     0.208 A 
ATOM      3  C   UNL     1      26.971  24.670 -12.397  1.00  0.00     0.238 A 
ATOM      4  O   UNL     1      27.445  23.661 -12.981  1.00  0.00    -0.285 OA
ATOM      5  C   UNL     1      26.438  24.582 -11.088  1.00  0.00     0.111 A 
ATOM      6  C   UNL     1      26.458  23.404 -10.283  1.00  0.00     0.134 A 
ATOM      7  C   UNL     1      25.785  23.396  -9.054  1.00  0.00     0.093 A 
ATOM      8  C   UNL     1      25.150  24.544  -8.573  1.00  0.00     0.123 A 
ATOM      9  C   UNL     1      25.177  25.716  -9.325  1.00  0.00     0.094 A 
ATOM     10  C   UNL     1      25.809  25.744 -10.571  1.00  0.00     0.146 A 
ATOM     11  O   UNL     1      25.802  26.879 -11.260  1.00  0.00    -0.452 OA
ENDROOT
BRANCH   1  12
ATOM     12  C   UNL     1      26.299  28.338 -13.113  1.00  0.00     0.021 A 
ATOM     13  C   UNL     1      25.215  28.711 -13.929  1.00  0.00     0.016 A 
ATOM     14  C   UNL     1      25.199  29.963 -14.553  1.00  0.00     0.047 A 
ATOM     15  C   UNL     1      26.270  30.849 -14.382  1.00  0.00     0.115 A 
ATOM     16  C   UNL     1      27.378  29.225 -12.965  1.00  0.00     0.016 A 
ATOM     17  C   UNL     1      27.359  30.475 -13.590  1.00  0.00     0.047 A 
BRANCH  15  18
ATOM     18  O   UNL     1      26.264  32.099 -14.999  1.00  0.00    -0.508 OA
ATOM     19  H   UNL     1      26.405  32.197 -15.998  1.00  0.00     0.293 HD
ENDBRANCH  15  18
ENDBRANCH   1  12
BRANCH   2  20
ATOM     20  O   UNL     1      27.435  25.996 -14.386  1.00  0.00    -0.502 OA
ATOM     21  H   UNL     1      28.379  26.306 -14.584  1.00  0.00     0.293 HD
ENDBRANCH   2  20
BRANCH   6  22
ATOM     22  O   UNL     1      27.140  22.233 -10.628  1.00  0.00    -0.507 OA
ATOM     23  H   UNL     1      27.760  21.727 -10.014  1.00  0.00     0.293 HD
ENDBRANCH   6  22
BRANCH   8  24
ATOM     24  O   UNL     1      24.497  24.532  -7.343  1.00  0.00    -0.508 OA
ATOM     25  H   UNL     1      23.683  25.111  -7.169  1.00  0.00     0.293 HD
ENDBRANCH   8  24
TORSDOF 5
ENDMDL
MODEL 9
REMARK VINA RESULT:    -5.399      2.913      6.583
REMARK INTER + INTRA:          -6.584
REMARK INTER:                  -6.371
REMARK INTRA:                  -0.213
REMARK UNBOUND:                -0.238
REMARK SMILES O=c1c(O)c(-c2ccc(O)cc2)oc2cc(O)cc(O)c12
REMARK SMILES IDX 5 1 3 2 2 3 1 4 21 5 19 6 18 7 16 8 15 9 14 10 13 11 6 12
REMARK SMILES IDX 7 13 8 14 9 15 12 16 11 17 10 18 4 20 20 22 17 24
REMARK H PARENT 10 19 4 21 20 23 17 25
REMARK Flexibility Score: inf
ROOT
ATOM      1  C   UNL     1      25.432  29.318 -13.670  1.00  0.00     0.180 A 
ATOM      2  C   UNL     1      25.273  28.315 -14.642  1.00  0.00     0.208 A 
ATOM      3  C   UNL     1      24.007  28.117 -15.216  1.00  0.00     0.238 A 
ATOM      4  O   UNL     1      23.883  27.255 -16.125  1.00  0.00    -0.285 OA
ATOM      5  C   UNL     1      22.912  28.912 -14.799  1.00  0.00     0.111 A 
ATOM      6  C   UNL     1      21.577  28.770 -15.283  1.00  0.00     0.134 A 
ATOM      7  C   UNL     1      20.601  29.697 -14.897  1.00  0.00     0.093 A 
ATOM      8  C   UNL     1      20.896  30.721 -13.993  1.00  0.00     0.123 A 
ATOM      9  C   UNL     1      22.182  30.831 -13.469  1.00  0.00     0.094 A 
ATOM     10  C   UNL     1      23.186  29.943 -13.863  1.00  0.00     0.146 A 
ATOM     11  O   UNL     1      24.401  30.090 -13.347  1.00  0.00    -0.452 OA
ENDROOT
BRANCH   1  12
ATOM     12  C   UNL     1      26.729  29.570 -13.002  1.00  0.00     0.021 A 
ATOM     13  C   UNL     1      26.944  29.209 -11.659  1.00  0.00     0.016 A 
ATOM     14  C   UNL     1      28.170  29.479 -11.043  1.00  0.00     0.047 A 
ATOM     15  C   UNL     1      29.190  30.124 -11.755  1.00  0.00     0.115 A 
ATOM     16  C   UNL     1      27.750  30.235 -13.702  1.00  0.00     0.016 A 
ATOM     17  C   UNL     1      28.974  30.503 -13.083  1.00  0.00     0.047 A 
BRANCH  15  18
ATOM     18  O   UNL     1      30.415  30.397 -11.151  1.00  0.00    -0.508 OA
ATOM     19  H   UNL     1      30.502  31.093 -10.420  1.00  0.00     0.293 HD
ENDBRANCH  15  18
ENDBRANCH   1  12
BRANCH   2  20
ATOM     20  O   UNL     1      26.372  27.557 -15.056  1.00  0.00    -0.502 OA
ATOM     21  H   UNL     1      26.632  27.462 -16.030  1.00  0.00     0.293 HD
ENDBRANCH   2  20
BRANCH   6  22
ATOM     22  O   UNL     1      21.155  27.730 -16.117  1.00  0.00    -0.507 OA
ATOM     23  H   UNL     1      20.661  27.856 -16.987  1.00  0.00     0.293 HD
ENDBRANCH   6  22
BRANCH   8  24
ATOM     24  O   UNL     1      19.915  31.629 -13.602  1.00  0.00    -0.508 OA
ATOM     25  H   UNL     1      20.087  32.316 -12.877  1.00  0.00     0.293 HD
ENDBRANCH   8  24
TORSDOF 5
ENDMDL
