MODEL 1
REMARK VINA RESULT:    -3.518      0.000      0.000
REMARK INTER + INTRA:          -4.248
REMARK INTER:                  -4.135
REMARK INTRA:                  -0.114
REMARK UNBOUND:                -0.114
REMARK SMILES O=C([O-])CCC(=O)[O-]
REMARK SMILES IDX 4 1 2 2 1 3 3 4 5 5 6 6 7 7 8 8
REMARK H PARENT
REMARK Flexibility Score: inf
ROOT
ATOM      1  C   UNL     1      13.951  50.729  96.886  1.00  0.00     0.059 C 
ENDROOT
BRANCH   1   2
ATOM      2  C   UNL     1      14.427  50.846  95.470  1.00  0.00     0.042 C 
ATOM      3  O   UNL     1      13.597  50.962  94.530  1.00  0.00    -0.550 OA
ATOM      4  O   UNL     1      15.788  50.867  95.193  1.00  0.00    -0.550 OA
ENDBRANCH   1   2
BRANCH   1   5
ATOM      5  C   UNL     1      13.513  49.298  97.218  1.00  0.00     0.059 C 
BRANCH   5   6
ATOM      6  C   UNL     1      12.024  49.152  97.168  1.00  0.00     0.042 C 
ATOM      7  O   UNL     1      11.314  49.555  98.126  1.00  0.00    -0.550 OA
ATOM      8  O   UNL     1      11.423  48.533  96.079  1.00  0.00    -0.550 OA
ENDBRANCH   5   6
ENDBRANCH   1   5
TORSDOF 3
ENDMDL
MODEL 2
REMARK VINA RESULT:    -3.515      0.926      3.886
REMARK INTER + INTRA:          -4.245
REMARK INTER:                  -4.133
REMARK INTRA:                  -0.112
REMARK UNBOUND:                -0.114
REMARK SMILES O=C([O-])CCC(=O)[O-]
REMARK SMILES IDX 4 1 2 2 1 3 3 4 5 5 6 6 7 7 8 8
REMARK H PARENT
REMARK Flexibility Score: inf
ROOT
ATOM      1  C   UNL     1      13.576  49.644  97.502  1.00  0.00     0.059 C 
ENDROOT
BRANCH   1   2
ATOM      2  C   UNL     1      12.158  49.273  97.188  1.00  0.00     0.042 C 
ATOM      3  O   UNL     1      11.881  48.683  96.111  1.00  0.00    -0.550 OA
ATOM      4  O   UNL     1      11.149  49.543  98.104  1.00  0.00    -0.550 OA
ENDBRANCH   1   2
BRANCH   1   5
ATOM      5  C   UNL     1      14.102  50.721  96.546  1.00  0.00     0.059 C 
BRANCH   5   6
ATOM      6  C   UNL     1      15.207  50.197  95.681  1.00  0.00     0.042 C 
ATOM      7  O   UNL     1      15.814  50.968  94.891  1.00  0.00    -0.550 OA
ATOM      8  O   UNL     1      15.541  48.849  95.720  1.00  0.00    -0.550 OA
ENDBRANCH   5   6
ENDBRANCH   1   5
TORSDOF 3
ENDMDL
MODEL 3
REMARK VINA RESULT:    -3.488      0.921      3.846
REMARK INTER + INTRA:          -4.213
REMARK INTER:                  -4.099
REMARK INTRA:                  -0.114
REMARK UNBOUND:                -0.114
REMARK SMILES O=C([O-])CCC(=O)[O-]
REMARK SMILES IDX 4 1 2 2 1 3 3 4 5 5 6 6 7 7 8 8
REMARK H PARENT
REMARK Flexibility Score: inf
ROOT
ATOM      1  C   UNL     1      13.603  49.605  97.516  1.00  0.00     0.059 C 
ENDROOT
BRANCH   1   2
ATOM      2  C   UNL     1      12.200  49.225  97.155  1.00  0.00     0.042 C 
ATOM      3  O   UNL     1      11.260  49.421  97.970  1.00  0.00    -0.550 OA
ATOM      4  O   UNL     1      11.924  48.691  95.902  1.00  0.00    -0.550 OA
ENDBRANCH   1   2
BRANCH   1   5
ATOM      5  C   UNL     1      14.145  50.705  96.595  1.00  0.00     0.059 C 
BRANCH   5   6
ATOM      6  C   UNL     1      15.220  50.187  95.691  1.00  0.00     0.042 C 
ATOM      7  O   UNL     1      15.774  50.953  94.860  1.00  0.00    -0.550 OA
ATOM      8  O   UNL     1      15.583  48.847  95.740  1.00  0.00    -0.550 OA
ENDBRANCH   5   6
ENDBRANCH   1   5
TORSDOF 3
ENDMDL
MODEL 4
REMARK VINA RESULT:    -3.384      1.316      1.510
REMARK INTER + INTRA:          -4.091
REMARK INTER:                  -4.058
REMARK INTRA:                  -0.033
REMARK UNBOUND:                -0.114
REMARK SMILES O=C([O-])CCC(=O)[O-]
REMARK SMILES IDX 4 1 2 2 1 3 3 4 5 5 6 6 7 7 8 8
REMARK H PARENT
REMARK Flexibility Score: inf
ROOT
ATOM      1  C   UNL     1      13.242  49.632  97.306  1.00  0.00     0.059 C 
ENDROOT
BRANCH   1   2
ATOM      2  C   UNL     1      14.257  50.056  96.288  1.00  0.00     0.042 C 
ATOM      3  O   UNL     1      14.215  51.215  95.797  1.00  0.00    -0.550 OA
ATOM      4  O   UNL     1      15.272  49.185  95.912  1.00  0.00    -0.550 OA
ENDBRANCH   1   2
BRANCH   1   5
ATOM      5  C   UNL     1      12.055  48.913  96.655  1.00  0.00     0.059 C 
BRANCH   5   6
ATOM      6  C   UNL     1      10.907  48.772  97.605  1.00  0.00     0.042 C 
ATOM      7  O   UNL     1      10.712  49.638  98.498  1.00  0.00    -0.550 OA
ATOM      8  O   UNL     1      10.074  47.662  97.530  1.00  0.00    -0.550 OA
ENDBRANCH   5   6
ENDBRANCH   1   5
TORSDOF 3
ENDMDL
MODEL 5
REMARK VINA RESULT:    -3.349      1.322      4.191
REMARK INTER + INTRA:          -4.051
REMARK INTER:                  -4.021
REMARK INTRA:                  -0.030
REMARK UNBOUND:                -0.114
REMARK SMILES O=C([O-])CCC(=O)[O-]
REMARK SMILES IDX 4 1 2 2 1 3 3 4 5 5 6 6 7 7 8 8
REMARK H PARENT
REMARK Flexibility Score: inf
ROOT
ATOM      1  C   UNL     1      12.037  48.892  96.679  1.00  0.00     0.059 C 
ENDROOT
BRANCH   1   2
ATOM      2  C   UNL     1      10.906  48.798  97.658  1.00  0.00     0.042 C 
ATOM      3  O   UNL     1      10.196  47.760  97.708  1.00  0.00    -0.550 OA
ATOM      4  O   UNL     1      10.663  49.842  98.542  1.00  0.00    -0.550 OA
ENDBRANCH   1   2
BRANCH   1   5
ATOM      5  C   UNL     1      13.257  49.590  97.291  1.00  0.00     0.059 C 
BRANCH   5   6
ATOM      6  C   UNL     1      14.267  49.951  96.246  1.00  0.00     0.042 C 
ATOM      7  O   UNL     1      15.198  49.153  95.961  1.00  0.00    -0.550 OA
ATOM      8  O   UNL     1      14.202  51.187  95.615  1.00  0.00    -0.550 OA
ENDBRANCH   5   6
ENDBRANCH   1   5
TORSDOF 3
ENDMDL
MODEL 6
REMARK VINA RESULT:    -3.211      2.219      2.892
REMARK INTER + INTRA:          -3.888
REMARK INTER:                  -3.818
REMARK INTRA:                  -0.070
REMARK UNBOUND:                -0.114
REMARK SMILES O=C([O-])CCC(=O)[O-]
REMARK SMILES IDX 4 1 2 2 1 3 3 4 5 5 6 6 7 7 8 8
REMARK H PARENT
REMARK Flexibility Score: inf
ROOT
ATOM      1  C   UNL     1      15.590  50.268  94.948  1.00  0.00     0.059 C 
ENDROOT
BRANCH   1   2
ATOM      2  C   UNL     1      15.937  48.932  94.365  1.00  0.00     0.042 C 
ATOM      3  O   UNL     1      16.646  48.121  95.017  1.00  0.00    -0.550 OA
ATOM      4  O   UNL     1      15.444  48.567  93.118  1.00  0.00    -0.550 OA
ENDBRANCH   1   2
BRANCH   1   5
ATOM      5  C   UNL     1      14.089  50.384  95.238  1.00  0.00     0.059 C 
BRANCH   5   6
ATOM      6  C   UNL     1      13.799  50.255  96.702  1.00  0.00     0.042 C 
ATOM      7  O   UNL     1      14.304  51.066  97.522  1.00  0.00    -0.550 OA
ATOM      8  O   UNL     1      13.003  49.215  97.164  1.00  0.00    -0.550 OA
ENDBRANCH   5   6
ENDBRANCH   1   5
TORSDOF 3
ENDMDL
MODEL 7
REMARK VINA RESULT:    -3.059     11.420     12.135
REMARK INTER + INTRA:          -3.710
REMARK INTER:                  -3.605
REMARK INTRA:                  -0.105
REMARK UNBOUND:                -0.114
REMARK SMILES O=C([O-])CCC(=O)[O-]
REMARK SMILES IDX 4 1 2 2 1 3 3 4 5 5 6 6 7 7 8 8
REMARK H PARENT
REMARK Flexibility Score: inf
ROOT
ATOM      1  C   UNL     1      16.669  38.258  94.993  1.00  0.00     0.059 C 
ENDROOT
BRANCH   1   2
ATOM      2  C   UNL     1      16.271  39.660  94.644  1.00  0.00     0.042 C 
ATOM      3  O   UNL     1      15.737  40.401  95.511  1.00  0.00    -0.550 OA
ATOM      4  O   UNL     1      16.528  40.161  93.374  1.00  0.00    -0.550 OA
ENDBRANCH   1   2
BRANCH   1   5
ATOM      5  C   UNL     1      18.159  38.163  95.342  1.00  0.00     0.059 C 
BRANCH   5   6
ATOM      6  C   UNL     1      18.384  38.243  96.820  1.00  0.00     0.042 C 
ATOM      7  O   UNL     1      17.573  37.701  97.616  1.00  0.00    -0.550 OA
ATOM      8  O   UNL     1      19.471  38.951  97.320  1.00  0.00    -0.550 OA
ENDBRANCH   5   6
ENDBRANCH   1   5
TORSDOF 3
ENDMDL
MODEL 8
REMARK VINA RESULT:    -3.020      2.326      4.663
REMARK INTER + INTRA:          -3.663
REMARK INTER:                  -3.627
REMARK INTRA:                  -0.036
REMARK UNBOUND:                -0.114
REMARK SMILES O=C([O-])CCC(=O)[O-]
REMARK SMILES IDX 4 1 2 2 1 3 3 4 5 5 6 6 7 7 8 8
REMARK H PARENT
REMARK Flexibility Score: inf
ROOT
ATOM      1  C   UNL     1      10.401  49.568  98.312  1.00  0.00     0.059 C 
ENDROOT
BRANCH   1   2
ATOM      2  C   UNL     1       8.943  49.715  97.998  1.00  0.00     0.042 C 
ATOM      3  O   UNL     1       8.262  48.708  97.667  1.00  0.00    -0.550 OA
ATOM      4  O   UNL     1       8.329  50.955  98.110  1.00  0.00    -0.550 OA
ENDBRANCH   1   2
BRANCH   1   5
ATOM      5  C   UNL     1      11.106  48.651  97.306  1.00  0.00     0.059 C 
BRANCH   5   6
ATOM      6  C   UNL     1      12.425  49.215  96.877  1.00  0.00     0.042 C 
ATOM      7  O   UNL     1      13.130  49.869  97.689  1.00  0.00    -0.550 OA
ATOM      8  O   UNL     1      12.858  49.050  95.567  1.00  0.00    -0.550 OA
ENDBRANCH   5   6
ENDBRANCH   1   5
TORSDOF 3
ENDMDL
MODEL 9
REMARK VINA RESULT:    -3.008      2.280      3.227
REMARK INTER + INTRA:          -3.649
REMARK INTER:                  -3.615
REMARK INTRA:                  -0.034
REMARK UNBOUND:                -0.114
REMARK SMILES O=C([O-])CCC(=O)[O-]
REMARK SMILES IDX 4 1 2 2 1 3 3 4 5 5 6 6 7 7 8 8
REMARK H PARENT
REMARK Flexibility Score: inf
ROOT
ATOM      1  C   UNL     1      11.255  48.655  97.336  1.00  0.00     0.059 C 
ENDROOT
BRANCH   1   2
ATOM      2  C   UNL     1      12.534  49.268  96.855  1.00  0.00     0.042 C 
ATOM      3  O   UNL     1      13.313  49.831  97.669  1.00  0.00    -0.550 OA
ATOM      4  O   UNL     1      12.886  49.181  95.514  1.00  0.00    -0.550 OA
ENDBRANCH   1   2
BRANCH   1   5
ATOM      5  C   UNL     1      10.511  49.585  98.302  1.00  0.00     0.059 C 
BRANCH   5   6
ATOM      6  C   UNL     1       9.062  49.705  97.946  1.00  0.00     0.042 C 
ATOM      7  O   UNL     1       8.457  50.798  98.108  1.00  0.00    -0.550 OA
ATOM      8  O   UNL     1       8.368  48.598  97.473  1.00  0.00    -0.550 OA
ENDBRANCH   5   6
ENDBRANCH   1   5
TORSDOF 3
ENDMDL
