MODEL 1
REMARK VINA RESULT:    -7.996      0.000      0.000
REMARK INTER + INTRA:         -11.913
REMARK INTER:                 -10.800
REMARK INTRA:                  -1.113
REMARK UNBOUND:                -1.113
REMARK SMILES O=c1c(-c2ccc(O)cc2)coc2c([C@@H]3O[C@@H](CO)[C@H](O)[C@@H](O)[C@H]3O)c(O)ccc12
REMARK SMILES IDX 3 1 11 2 12 3 13 4 30 5 2 6 1 7 29 8 28 9 26 10 14 11 4 12
REMARK SMILES IDX 5 13 6 14 7 15 10 16 9 17 8 18 15 20 24 21 16 22 22 23 17 24
REMARK SMILES IDX 20 25 25 26 23 28 18 30 19 31 21 33 27 35
REMARK H PARENT 8 19 25 27 23 29 19 32 21 34 27 36
REMARK Flexibility Score: inf
ROOT
ATOM      1  C   UNL     1     -16.407  37.892  -1.642  1.00  0.00     0.065 A 
ATOM      2  C   UNL     1     -16.365  39.141  -2.279  1.00  0.00     0.208 A 
ATOM      3  O   UNL     1     -15.727  39.298  -3.432  1.00  0.00    -0.463 OA
ATOM      4  C   UNL     1     -15.093  38.307  -4.053  1.00  0.00     0.147 A 
ATOM      5  C   UNL     1     -15.075  37.016  -3.477  1.00  0.00     0.066 A 
ATOM      6  C   UNL     1     -15.741  36.815  -2.254  1.00  0.00     0.200 A 
ATOM      7  O   UNL     1     -15.722  35.681  -1.697  1.00  0.00    -0.288 OA
ATOM      8  C   UNL     1     -14.390  35.976  -4.124  1.00  0.00     0.020 A 
ATOM      9  C   UNL     1     -13.724  36.214  -5.325  1.00  0.00     0.047 A 
ATOM     10  C   UNL     1     -13.733  37.490  -5.904  1.00  0.00     0.125 A 
ATOM     11  C   UNL     1     -14.434  38.547  -5.283  1.00  0.00     0.069 A 
ENDROOT
BRANCH   1  12
ATOM     12  C   UNL     1     -17.134  37.741  -0.358  1.00  0.00    -0.011 A 
ATOM     13  C   UNL     1     -18.494  37.382  -0.342  1.00  0.00     0.013 A 
ATOM     14  C   UNL     1     -19.177  37.250   0.872  1.00  0.00     0.047 A 
ATOM     15  C   UNL     1     -18.510  37.478   2.083  1.00  0.00     0.115 A 
ATOM     16  C   UNL     1     -16.475  37.974   0.862  1.00  0.00     0.013 A 
ATOM     17  C   UNL     1     -17.160  37.840   2.074  1.00  0.00     0.047 A 
BRANCH  15  18
ATOM     18  O   UNL     1     -19.180  37.348   3.297  1.00  0.00    -0.508 OA
ATOM     19  H   UNL     1     -18.771  37.675   4.165  1.00  0.00     0.293 HD
ENDBRANCH  15  18
ENDBRANCH   1  12
BRANCH  11  20
ATOM     20  C   UNL     1     -14.430  39.940  -5.896  1.00  0.00     0.188 C 
ATOM     21  C   UNL     1     -13.000  40.536  -5.866  1.00  0.00     0.179 C 
ATOM     22  O   UNL     1     -15.013  39.873  -7.197  1.00  0.00    -0.362 OA
ATOM     23  C   UNL     1     -13.011  41.980  -6.423  1.00  0.00     0.177 C 
ATOM     24  C   UNL     1     -14.474  40.787  -8.147  1.00  0.00     0.176 C 
ATOM     25  C   UNL     1     -14.095  42.155  -7.514  1.00  0.00     0.177 C 
BRANCH  21  26
ATOM     26  O   UNL     1     -12.497  40.513  -4.553  1.00  0.00    -0.387 OA
ATOM     27  H   UNL     1     -13.275  40.379  -3.951  1.00  0.00     0.211 HD
ENDBRANCH  21  26
BRANCH  23  28
ATOM     28  O   UNL     1     -13.255  42.908  -5.393  1.00  0.00    -0.387 OA
ATOM     29  H   UNL     1     -13.966  42.526  -4.816  1.00  0.00     0.211 HD
ENDBRANCH  23  28
BRANCH  24  30
ATOM     30  C   UNL     1     -15.489  40.953  -9.284  1.00  0.00     0.191 C 
BRANCH  30  31
ATOM     31  O   UNL     1     -16.316  42.059  -9.043  1.00  0.00    -0.394 OA
ATOM     32  H   UNL     1     -17.246  41.714  -9.049  1.00  0.00     0.210 HD
ENDBRANCH  30  31
ENDBRANCH  24  30
BRANCH  25  33
ATOM     33  O   UNL     1     -13.668  43.078  -8.486  1.00  0.00    -0.388 OA
ATOM     34  H   UNL     1     -13.529  42.580  -9.333  1.00  0.00     0.211 HD
ENDBRANCH  25  33
ENDBRANCH  11  20
BRANCH  10  35
ATOM     35  O   UNL     1     -13.042  37.706  -7.096  1.00  0.00    -0.507 OA
ATOM     36  H   UNL     1     -13.509  37.678  -7.995  1.00  0.00     0.293 HD
ENDBRANCH  10  35
TORSDOF 9
ENDMDL
MODEL 2
REMARK VINA RESULT:    -7.974      2.993      3.902
REMARK INTER + INTRA:         -11.884
REMARK INTER:                 -10.793
REMARK INTRA:                  -1.091
REMARK UNBOUND:                -1.113
REMARK SMILES O=c1c(-c2ccc(O)cc2)coc2c([C@@H]3O[C@@H](CO)[C@H](O)[C@@H](O)[C@H]3O)c(O)ccc12
REMARK SMILES IDX 3 1 11 2 12 3 13 4 30 5 2 6 1 7 29 8 28 9 26 10 14 11 4 12
REMARK SMILES IDX 5 13 6 14 7 15 10 16 9 17 8 18 15 20 24 21 16 22 22 23 17 24
REMARK SMILES IDX 20 25 25 26 23 28 18 30 19 31 21 33 27 35
REMARK H PARENT 8 19 25 27 23 29 19 32 21 34 27 36
REMARK Flexibility Score: inf
ROOT
ATOM      1  C   UNL     1     -13.463  39.237  -1.616  1.00  0.00     0.065 A 
ATOM      2  C   UNL     1     -12.673  39.690  -2.683  1.00  0.00     0.208 A 
ATOM      3  O   UNL     1     -13.153  39.724  -3.920  1.00  0.00    -0.463 OA
ATOM      4  C   UNL     1     -14.387  39.339  -4.233  1.00  0.00     0.147 A 
ATOM      5  C   UNL     1     -15.249  38.857  -3.220  1.00  0.00     0.066 A 
ATOM      6  C   UNL     1     -14.772  38.806  -1.897  1.00  0.00     0.200 A 
ATOM      7  O   UNL     1     -15.505  38.357  -0.973  1.00  0.00    -0.288 OA
ATOM      8  C   UNL     1     -16.545  38.433  -3.554  1.00  0.00     0.020 A 
ATOM      9  C   UNL     1     -16.979  38.478  -4.878  1.00  0.00     0.047 A 
ATOM     10  C   UNL     1     -16.133  38.951  -5.889  1.00  0.00     0.125 A 
ATOM     11  C   UNL     1     -14.832  39.404  -5.575  1.00  0.00     0.069 A 
ENDROOT
BRANCH   1  12
ATOM     12  C   UNL     1     -12.906  39.216  -0.241  1.00  0.00    -0.011 A 
ATOM     13  C   UNL     1     -11.907  38.291   0.113  1.00  0.00     0.013 A 
ATOM     14  C   UNL     1     -11.392  38.270   1.414  1.00  0.00     0.047 A 
ATOM     15  C   UNL     1     -11.872  39.168   2.376  1.00  0.00     0.115 A 
ATOM     16  C   UNL     1     -13.386  40.109   0.732  1.00  0.00     0.013 A 
ATOM     17  C   UNL     1     -12.868  40.086   2.032  1.00  0.00     0.047 A 
BRANCH  15  18
ATOM     18  O   UNL     1     -11.366  39.156   3.673  1.00  0.00    -0.508 OA
ATOM     19  H   UNL     1     -11.551  38.388   4.307  1.00  0.00     0.293 HD
ENDBRANCH  15  18
ENDBRANCH   1  12
BRANCH  11  20
ATOM     20  C   UNL     1     -13.903  39.899  -6.673  1.00  0.00     0.188 C 
ATOM     21  C   UNL     1     -13.194  38.702  -7.356  1.00  0.00     0.179 C 
ATOM     22  O   UNL     1     -14.642  40.733  -7.564  1.00  0.00    -0.362 OA
ATOM     23  C   UNL     1     -12.193  39.212  -8.422  1.00  0.00     0.177 C 
ATOM     24  C   UNL     1     -14.224  40.682  -8.924  1.00  0.00     0.176 C 
ATOM     25  C   UNL     1     -12.684  40.528  -9.072  1.00  0.00     0.177 C 
BRANCH  21  26
ATOM     26  O   UNL     1     -12.535  37.918  -6.392  1.00  0.00    -0.387 OA
ATOM     27  H   UNL     1     -13.145  37.166  -6.172  1.00  0.00     0.211 HD
ENDBRANCH  21  26
BRANCH  23  28
ATOM     28  O   UNL     1     -10.928  39.437  -7.849  1.00  0.00    -0.387 OA
ATOM     29  H   UNL     1     -10.278  38.869  -8.339  1.00  0.00     0.211 HD
ENDBRANCH  23  28
BRANCH  24  30
ATOM     30  C   UNL     1     -14.736  41.942  -9.632  1.00  0.00     0.191 C 
BRANCH  30  31
ATOM     31  O   UNL     1     -13.845  43.006  -9.438  1.00  0.00    -0.394 OA
ATOM     32  H   UNL     1     -13.628  43.012  -8.470  1.00  0.00     0.210 HD
ENDBRANCH  30  31
ENDBRANCH  24  30
BRANCH  25  33
ATOM     33  O   UNL     1     -12.282  40.590 -10.418  1.00  0.00    -0.388 OA
ATOM     34  H   UNL     1     -12.954  40.094 -10.956  1.00  0.00     0.211 HD
ENDBRANCH  25  33
ENDBRANCH  11  20
BRANCH  10  35
ATOM     35  O   UNL     1     -16.586  38.967  -7.209  1.00  0.00    -0.507 OA
ATOM     36  H   UNL     1     -16.828  38.115  -7.700  1.00  0.00     0.293 HD
ENDBRANCH  10  35
TORSDOF 9
ENDMDL
MODEL 3
REMARK VINA RESULT:    -7.935      3.980      6.281
REMARK INTER + INTRA:         -11.831
REMARK INTER:                 -10.660
REMARK INTRA:                  -1.172
REMARK UNBOUND:                -1.113
REMARK SMILES O=c1c(-c2ccc(O)cc2)coc2c([C@@H]3O[C@@H](CO)[C@H](O)[C@@H](O)[C@H]3O)c(O)ccc12
REMARK SMILES IDX 3 1 11 2 12 3 13 4 30 5 2 6 1 7 29 8 28 9 26 10 14 11 4 12
REMARK SMILES IDX 5 13 6 14 7 15 10 16 9 17 8 18 15 20 24 21 16 22 22 23 17 24
REMARK SMILES IDX 20 25 25 26 23 28 18 30 19 31 21 33 27 35
REMARK H PARENT 8 19 25 27 23 29 19 32 21 34 27 36
REMARK Flexibility Score: inf
ROOT
ATOM      1  C   UNL     1     -13.057  36.177  -4.938  1.00  0.00     0.065 A 
ATOM      2  C   UNL     1     -12.027  35.812  -5.817  1.00  0.00     0.208 A 
ATOM      3  O   UNL     1     -11.649  36.621  -6.798  1.00  0.00    -0.463 OA
ATOM      4  C   UNL     1     -12.206  37.809  -7.017  1.00  0.00     0.147 A 
ATOM      5  C   UNL     1     -13.260  38.254  -6.184  1.00  0.00     0.066 A 
ATOM      6  C   UNL     1     -13.687  37.419  -5.135  1.00  0.00     0.200 A 
ATOM      7  O   UNL     1     -14.643  37.773  -4.390  1.00  0.00    -0.288 OA
ATOM      8  C   UNL     1     -13.859  39.500  -6.428  1.00  0.00     0.020 A 
ATOM      9  C   UNL     1     -13.424  40.292  -7.489  1.00  0.00     0.047 A 
ATOM     10  C   UNL     1     -12.383  39.862  -8.321  1.00  0.00     0.125 A 
ATOM     11  C   UNL     1     -11.749  38.621  -8.082  1.00  0.00     0.069 A 
ENDROOT
BRANCH   1  12
ATOM     12  C   UNL     1     -13.457  35.258  -3.844  1.00  0.00    -0.011 A 
ATOM     13  C   UNL     1     -12.874  35.366  -2.568  1.00  0.00     0.013 A 
ATOM     14  C   UNL     1     -13.247  34.491  -1.543  1.00  0.00     0.047 A 
ATOM     15  C   UNL     1     -14.205  33.496  -1.781  1.00  0.00     0.115 A 
ATOM     16  C   UNL     1     -14.411  34.253  -4.075  1.00  0.00     0.013 A 
ATOM     17  C   UNL     1     -14.784  33.379  -3.048  1.00  0.00     0.047 A 
BRANCH  15  18
ATOM     18  O   UNL     1     -14.585  32.619  -0.768  1.00  0.00    -0.508 OA
ATOM     19  H   UNL     1     -13.905  32.212  -0.136  1.00  0.00     0.293 HD
ENDBRANCH  15  18
ENDBRANCH   1  12
BRANCH  11  20
ATOM     20  C   UNL     1     -10.632  38.139  -8.996  1.00  0.00     0.188 C 
ATOM     21  C   UNL     1     -11.224  37.470 -10.262  1.00  0.00     0.179 C 
ATOM     22  O   UNL     1      -9.750  39.229  -9.263  1.00  0.00    -0.362 OA
ATOM     23  C   UNL     1     -10.088  36.914 -11.154  1.00  0.00     0.177 C 
ATOM     24  C   UNL     1      -9.149  39.215 -10.553  1.00  0.00     0.176 C 
ATOM     25  C   UNL     1      -8.809  37.779 -11.041  1.00  0.00     0.177 C 
BRANCH  21  26
ATOM     26  O   UNL     1     -12.113  36.444  -9.894  1.00  0.00    -0.387 OA
ATOM     27  H   UNL     1     -11.561  35.640  -9.712  1.00  0.00     0.211 HD
ENDBRANCH  21  26
BRANCH  23  28
ATOM     28  O   UNL     1      -9.772  35.593 -10.790  1.00  0.00    -0.387 OA
ATOM     29  H   UNL     1     -10.605  35.174 -10.449  1.00  0.00     0.211 HD
ENDBRANCH  23  28
BRANCH  24  30
ATOM     30  C   UNL     1      -7.903  40.107 -10.512  1.00  0.00     0.191 C 
BRANCH  30  31
ATOM     31  O   UNL     1      -6.741  39.323 -10.501  1.00  0.00    -0.394 OA
ATOM     32  H   UNL     1      -6.479  39.231  -9.549  1.00  0.00     0.210 HD
ENDBRANCH  30  31
ENDBRANCH  24  30
BRANCH  25  33
ATOM     33  O   UNL     1      -8.118  37.795 -12.266  1.00  0.00    -0.388 OA
ATOM     34  H   UNL     1      -7.146  37.813 -12.063  1.00  0.00     0.211 HD
ENDBRANCH  25  33
ENDBRANCH  11  20
BRANCH  10  35
ATOM     35  O   UNL     1     -11.980  40.665  -9.387  1.00  0.00    -0.507 OA
ATOM     36  H   UNL     1     -11.510  41.551  -9.239  1.00  0.00     0.293 HD
ENDBRANCH  10  35
TORSDOF 9
ENDMDL
MODEL 4
REMARK VINA RESULT:    -7.867      3.279      8.518
REMARK INTER + INTRA:         -11.740
REMARK INTER:                 -10.802
REMARK INTRA:                  -0.938
REMARK UNBOUND:                -1.113
REMARK SMILES O=c1c(-c2ccc(O)cc2)coc2c([C@@H]3O[C@@H](CO)[C@H](O)[C@@H](O)[C@H]3O)c(O)ccc12
REMARK SMILES IDX 3 1 11 2 12 3 13 4 30 5 2 6 1 7 29 8 28 9 26 10 14 11 4 12
REMARK SMILES IDX 5 13 6 14 7 15 10 16 9 17 8 18 15 20 24 21 16 22 22 23 17 24
REMARK SMILES IDX 20 25 25 26 23 28 18 30 19 31 21 33 27 35
REMARK H PARENT 8 19 25 27 23 29 19 32 21 34 27 36
REMARK Flexibility Score: inf
ROOT
ATOM      1  C   UNL     1     -13.546  39.997  -5.874  1.00  0.00     0.065 A 
ATOM      2  C   UNL     1     -14.339  39.828  -4.730  1.00  0.00     0.208 A 
ATOM      3  O   UNL     1     -13.793  39.498  -3.565  1.00  0.00    -0.463 OA
ATOM      4  C   UNL     1     -12.488  39.305  -3.402  1.00  0.00     0.147 A 
ATOM      5  C   UNL     1     -11.615  39.444  -4.506  1.00  0.00     0.066 A 
ATOM      6  C   UNL     1     -12.159  39.792  -5.756  1.00  0.00     0.200 A 
ATOM      7  O   UNL     1     -11.413  39.898  -6.769  1.00  0.00    -0.288 OA
ATOM      8  C   UNL     1     -10.239  39.222  -4.336  1.00  0.00     0.020 A 
ATOM      9  C   UNL     1      -9.736  38.859  -3.088  1.00  0.00     0.047 A 
ATOM     10  C   UNL     1     -10.591  38.717  -1.988  1.00  0.00     0.125 A 
ATOM     11  C   UNL     1     -11.976  38.956  -2.129  1.00  0.00     0.069 A 
ENDROOT
BRANCH   1  12
ATOM     12  C   UNL     1     -14.178  40.374  -7.163  1.00  0.00    -0.011 A 
ATOM     13  C   UNL     1     -14.088  41.692  -7.647  1.00  0.00     0.013 A 
ATOM     14  C   UNL     1     -14.693  42.044  -8.857  1.00  0.00     0.047 A 
ATOM     15  C   UNL     1     -15.398  41.085  -9.597  1.00  0.00     0.115 A 
ATOM     16  C   UNL     1     -14.892  39.420  -7.908  1.00  0.00     0.013 A 
ATOM     17  C   UNL     1     -15.496  39.775  -9.119  1.00  0.00     0.047 A 
BRANCH  15  18
ATOM     18  O   UNL     1     -16.004  41.424 -10.804  1.00  0.00    -0.508 OA
ATOM     19  H   UNL     1     -17.012  41.422 -10.910  1.00  0.00     0.293 HD
ENDBRANCH  15  18
ENDBRANCH   1  12
BRANCH  11  20
ATOM     20  C   UNL     1     -12.913  38.783  -0.943  1.00  0.00     0.188 C 
ATOM     21  C   UNL     1     -13.307  37.293  -0.783  1.00  0.00     0.179 C 
ATOM     22  O   UNL     1     -12.306  39.359   0.214  1.00  0.00    -0.362 OA
ATOM     23  C   UNL     1     -14.318  37.128   0.378  1.00  0.00     0.177 C 
ATOM     24  C   UNL     1     -12.612  38.707   1.442  1.00  0.00     0.176 C 
ATOM     25  C   UNL     1     -14.071  38.175   1.492  1.00  0.00     0.177 C 
BRANCH  21  26
ATOM     26  O   UNL     1     -13.850  36.807  -1.986  1.00  0.00    -0.387 OA
ATOM     27  H   UNL     1     -14.466  37.508  -2.325  1.00  0.00     0.211 HD
ENDBRANCH  21  26
BRANCH  23  28
ATOM     28  O   UNL     1     -15.638  37.270  -0.088  1.00  0.00    -0.387 OA
ATOM     29  H   UNL     1     -15.919  36.387  -0.446  1.00  0.00     0.211 HD
ENDBRANCH  23  28
BRANCH  24  30
ATOM     30  C   UNL     1     -12.328  39.686   2.588  1.00  0.00     0.191 C 
BRANCH  30  31
ATOM     31  O   UNL     1     -10.990  39.589   2.993  1.00  0.00    -0.394 OA
ATOM     32  H   UNL     1     -11.010  39.370   3.960  1.00  0.00     0.210 HD
ENDBRANCH  30  31
ENDBRANCH  24  30
BRANCH  25  33
ATOM     33  O   UNL     1     -14.385  37.634   2.751  1.00  0.00    -0.388 OA
ATOM     34  H   UNL     1     -14.171  36.664   2.724  1.00  0.00     0.211 HD
ENDBRANCH  25  33
ENDBRANCH  11  20
BRANCH  10  35
ATOM     35  O   UNL     1     -10.064  38.334  -0.755  1.00  0.00    -0.507 OA
ATOM     36  H   UNL     1     -10.653  38.205   0.060  1.00  0.00     0.293 HD
ENDBRANCH  10  35
TORSDOF 9
ENDMDL
MODEL 5
REMARK VINA RESULT:    -7.811      1.886      7.911
REMARK INTER + INTRA:         -11.664
REMARK INTER:                 -11.067
REMARK INTRA:                  -0.597
REMARK UNBOUND:                -1.113
REMARK SMILES O=c1c(-c2ccc(O)cc2)coc2c([C@@H]3O[C@@H](CO)[C@H](O)[C@@H](O)[C@H]3O)c(O)ccc12
REMARK SMILES IDX 3 1 11 2 12 3 13 4 30 5 2 6 1 7 29 8 28 9 26 10 14 11 4 12
REMARK SMILES IDX 5 13 6 14 7 15 10 16 9 17 8 18 15 20 24 21 16 22 22 23 17 24
REMARK SMILES IDX 20 25 25 26 23 28 18 30 19 31 21 33 27 35
REMARK H PARENT 8 19 25 27 23 29 19 32 21 34 27 36
REMARK Flexibility Score: inf
ROOT
ATOM      1  C   UNL     1     -13.992  38.602  -5.725  1.00  0.00     0.065 A 
ATOM      2  C   UNL     1     -14.808  38.599  -4.584  1.00  0.00     0.208 A 
ATOM      3  O   UNL     1     -14.835  37.552  -3.768  1.00  0.00    -0.463 OA
ATOM      4  C   UNL     1     -14.110  36.454  -3.968  1.00  0.00     0.147 A 
ATOM      5  C   UNL     1     -13.267  36.368  -5.101  1.00  0.00     0.066 A 
ATOM      6  C   UNL     1     -13.216  37.459  -5.987  1.00  0.00     0.200 A 
ATOM      7  O   UNL     1     -12.494  37.404  -7.022  1.00  0.00    -0.288 OA
ATOM      8  C   UNL     1     -12.517  35.201  -5.320  1.00  0.00     0.020 A 
ATOM      9  C   UNL     1     -12.608  34.131  -4.432  1.00  0.00     0.047 A 
ATOM     10  C   UNL     1     -13.440  34.205  -3.308  1.00  0.00     0.125 A 
ATOM     11  C   UNL     1     -14.188  35.377  -3.054  1.00  0.00     0.069 A 
ENDROOT
BRANCH   1  12
ATOM     12  C   UNL     1     -13.973  39.787  -6.617  1.00  0.00    -0.011 A 
ATOM     13  C   UNL     1     -13.070  40.841  -6.390  1.00  0.00     0.013 A 
ATOM     14  C   UNL     1     -13.063  41.960  -7.229  1.00  0.00     0.047 A 
ATOM     15  C   UNL     1     -13.960  42.041  -8.302  1.00  0.00     0.115 A 
ATOM     16  C   UNL     1     -14.874  39.880  -7.692  1.00  0.00     0.013 A 
ATOM     17  C   UNL     1     -14.864  41.000  -8.530  1.00  0.00     0.047 A 
BRANCH  15  18
ATOM     18  O   UNL     1     -13.961  43.150  -9.144  1.00  0.00    -0.508 OA
ATOM     19  H   UNL     1     -13.257  43.876  -9.066  1.00  0.00     0.293 HD
ENDBRANCH  15  18
ENDBRANCH   1  12
BRANCH  11  20
ATOM     20  C   UNL     1     -15.111  35.455  -1.847  1.00  0.00     0.188 C 
ATOM     21  C   UNL     1     -14.378  36.116  -0.652  1.00  0.00     0.179 C 
ATOM     22  O   UNL     1     -16.321  36.107  -2.230  1.00  0.00    -0.362 OA
ATOM     23  C   UNL     1     -15.293  36.127   0.597  1.00  0.00     0.177 C 
ATOM     24  C   UNL     1     -16.933  36.889  -1.210  1.00  0.00     0.176 C 
ATOM     25  C   UNL     1     -16.784  36.256   0.201  1.00  0.00     0.177 C 
BRANCH  21  26
ATOM     26  O   UNL     1     -13.179  35.431  -0.384  1.00  0.00    -0.387 OA
ATOM     27  H   UNL     1     -12.453  36.108  -0.405  1.00  0.00     0.211 HD
ENDBRANCH  21  26
BRANCH  23  28
ATOM     28  O   UNL     1     -15.126  34.947   1.345  1.00  0.00    -0.387 OA
ATOM     29  H   UNL     1     -15.686  34.246   0.918  1.00  0.00     0.211 HD
ENDBRANCH  23  28
BRANCH  24  30
ATOM     30  C   UNL     1     -18.406  37.097  -1.583  1.00  0.00     0.191 C 
BRANCH  30  31
ATOM     31  O   UNL     1     -18.862  38.331  -1.099  1.00  0.00    -0.394 OA
ATOM     32  H   UNL     1     -19.147  38.851  -1.894  1.00  0.00     0.210 HD
ENDBRANCH  30  31
ENDBRANCH  24  30
BRANCH  25  33
ATOM     33  O   UNL     1     -17.488  36.986   1.177  1.00  0.00    -0.388 OA
ATOM     34  H   UNL     1     -18.092  36.353   1.648  1.00  0.00     0.211 HD
ENDBRANCH  25  33
ENDBRANCH  11  20
BRANCH  10  35
ATOM     35  O   UNL     1     -13.527  33.112  -2.446  1.00  0.00    -0.507 OA
ATOM     36  H   UNL     1     -14.169  32.347  -2.618  1.00  0.00     0.293 HD
ENDBRANCH  10  35
TORSDOF 9
ENDMDL
MODEL 6
REMARK VINA RESULT:    -7.753      2.543      2.900
REMARK INTER + INTRA:         -11.585
REMARK INTER:                 -10.399
REMARK INTRA:                  -1.186
REMARK UNBOUND:                -1.113
REMARK SMILES O=c1c(-c2ccc(O)cc2)coc2c([C@@H]3O[C@@H](CO)[C@H](O)[C@@H](O)[C@H]3O)c(O)ccc12
REMARK SMILES IDX 3 1 11 2 12 3 13 4 30 5 2 6 1 7 29 8 28 9 26 10 14 11 4 12
REMARK SMILES IDX 5 13 6 14 7 15 10 16 9 17 8 18 15 20 24 21 16 22 22 23 17 24
REMARK SMILES IDX 20 25 25 26 23 28 18 30 19 31 21 33 27 35
REMARK H PARENT 8 19 25 27 23 29 19 32 21 34 27 36
REMARK Flexibility Score: inf
ROOT
ATOM      1  C   UNL     1     -13.180  38.369  -1.165  1.00  0.00     0.065 A 
ATOM      2  C   UNL     1     -13.633  39.482  -1.887  1.00  0.00     0.208 A 
ATOM      3  O   UNL     1     -13.652  39.472  -3.215  1.00  0.00    -0.463 OA
ATOM      4  C   UNL     1     -13.249  38.433  -3.941  1.00  0.00     0.147 A 
ATOM      5  C   UNL     1     -12.766  37.272  -3.294  1.00  0.00     0.066 A 
ATOM      6  C   UNL     1     -12.732  37.248  -1.888  1.00  0.00     0.200 A 
ATOM      7  O   UNL     1     -12.281  36.238  -1.278  1.00  0.00    -0.288 OA
ATOM      8  C   UNL     1     -12.325  36.182  -4.062  1.00  0.00     0.020 A 
ATOM      9  C   UNL     1     -12.354  36.247  -5.453  1.00  0.00     0.047 A 
ATOM     10  C   UNL     1     -12.828  37.393  -6.104  1.00  0.00     0.125 A 
ATOM     11  C   UNL     1     -13.299  38.493  -5.353  1.00  0.00     0.069 A 
ENDROOT
BRANCH   1  12
ATOM     12  C   UNL     1     -13.177  38.401   0.318  1.00  0.00    -0.011 A 
ATOM     13  C   UNL     1     -14.365  38.196   1.042  1.00  0.00     0.013 A 
ATOM     14  C   UNL     1     -14.358  38.237   2.440  1.00  0.00     0.047 A 
ATOM     15  C   UNL     1     -13.165  38.486   3.131  1.00  0.00     0.115 A 
ATOM     16  C   UNL     1     -11.986  38.657   1.019  1.00  0.00     0.013 A 
ATOM     17  C   UNL     1     -11.981  38.695   2.418  1.00  0.00     0.047 A 
BRANCH  15  18
ATOM     18  O   UNL     1     -13.145  38.527   4.523  1.00  0.00    -0.508 OA
ATOM     19  H   UNL     1     -12.673  37.815   5.068  1.00  0.00     0.293 HD
ENDBRANCH  15  18
ENDBRANCH   1  12
BRANCH  11  20
ATOM     20  C   UNL     1     -13.795  39.749  -6.055  1.00  0.00     0.188 C 
ATOM     21  C   UNL     1     -12.598  40.635  -6.482  1.00  0.00     0.179 C 
ATOM     22  O   UNL     1     -14.659  39.369  -7.126  1.00  0.00    -0.362 OA
ATOM     23  C   UNL     1     -13.107  41.946  -7.130  1.00  0.00     0.177 C 
ATOM     24  C   UNL     1     -14.624  40.227  -8.262  1.00  0.00     0.176 C 
ATOM     25  C   UNL     1     -14.444  41.722  -7.878  1.00  0.00     0.177 C 
BRANCH  21  26
ATOM     26  O   UNL     1     -11.784  40.914  -5.370  1.00  0.00    -0.387 OA
ATOM     27  H   UNL     1     -11.042  41.487  -5.696  1.00  0.00     0.211 HD
ENDBRANCH  21  26
BRANCH  23  28
ATOM     28  O   UNL     1     -13.298  42.940  -6.154  1.00  0.00    -0.387 OA
ATOM     29  H   UNL     1     -13.657  43.742  -6.617  1.00  0.00     0.211 HD
ENDBRANCH  23  28
BRANCH  24  30
ATOM     30  C   UNL     1     -15.906  40.003  -9.073  1.00  0.00     0.191 C 
BRANCH  30  31
ATOM     31  O   UNL     1     -16.922  40.860  -8.626  1.00  0.00    -0.394 OA
ATOM     32  H   UNL     1     -17.718  40.657  -9.181  1.00  0.00     0.210 HD
ENDBRANCH  30  31
ENDBRANCH  24  30
BRANCH  25  33
ATOM     33  O   UNL     1     -14.522  42.562  -9.003  1.00  0.00    -0.388 OA
ATOM     34  H   UNL     1     -13.594  42.760  -9.296  1.00  0.00     0.211 HD
ENDBRANCH  25  33
ENDBRANCH  11  20
BRANCH  10  35
ATOM     35  O   UNL     1     -12.829  37.439  -7.499  1.00  0.00    -0.507 OA
ATOM     36  H   UNL     1     -13.098  38.274  -8.004  1.00  0.00     0.293 HD
ENDBRANCH  10  35
TORSDOF 9
ENDMDL
MODEL 7
REMARK VINA RESULT:    -7.745      3.470      4.283
REMARK INTER + INTRA:         -11.576
REMARK INTER:                 -10.408
REMARK INTRA:                  -1.168
REMARK UNBOUND:                -1.113
REMARK SMILES O=c1c(-c2ccc(O)cc2)coc2c([C@@H]3O[C@@H](CO)[C@H](O)[C@@H](O)[C@H]3O)c(O)ccc12
REMARK SMILES IDX 3 1 11 2 12 3 13 4 30 5 2 6 1 7 29 8 28 9 26 10 14 11 4 12
REMARK SMILES IDX 5 13 6 14 7 15 10 16 9 17 8 18 15 20 24 21 16 22 22 23 17 24
REMARK SMILES IDX 20 25 25 26 23 28 18 30 19 31 21 33 27 35
REMARK H PARENT 8 19 25 27 23 29 19 32 21 34 27 36
REMARK Flexibility Score: inf
ROOT
ATOM      1  C   UNL     1     -15.249  36.358   0.577  1.00  0.00     0.065 A 
ATOM      2  C   UNL     1     -14.617  37.300  -0.248  1.00  0.00     0.208 A 
ATOM      3  O   UNL     1     -13.932  36.917  -1.319  1.00  0.00    -0.463 OA
ATOM      4  C   UNL     1     -13.796  35.644  -1.679  1.00  0.00     0.147 A 
ATOM      5  C   UNL     1     -14.392  34.627  -0.897  1.00  0.00     0.066 A 
ATOM      6  C   UNL     1     -15.124  34.997   0.246  1.00  0.00     0.200 A 
ATOM      7  O   UNL     1     -15.647  34.114   0.981  1.00  0.00    -0.288 OA
ATOM      8  C   UNL     1     -14.232  33.283  -1.268  1.00  0.00     0.020 A 
ATOM      9  C   UNL     1     -13.483  32.950  -2.395  1.00  0.00     0.047 A 
ATOM     10  C   UNL     1     -12.887  33.949  -3.176  1.00  0.00     0.125 A 
ATOM     11  C   UNL     1     -13.052  35.310  -2.835  1.00  0.00     0.069 A 
ENDROOT
BRANCH   1  12
ATOM     12  C   UNL     1     -16.016  36.811   1.765  1.00  0.00    -0.011 A 
ATOM     13  C   UNL     1     -17.401  37.039   1.679  1.00  0.00     0.013 A 
ATOM     14  C   UNL     1     -18.117  37.475   2.799  1.00  0.00     0.047 A 
ATOM     15  C   UNL     1     -17.457  37.692   4.015  1.00  0.00     0.115 A 
ATOM     16  C   UNL     1     -15.360  37.038   2.987  1.00  0.00     0.013 A 
ATOM     17  C   UNL     1     -16.079  37.473   4.106  1.00  0.00     0.047 A 
BRANCH  15  18
ATOM     18  O   UNL     1     -18.160  38.125   5.137  1.00  0.00    -0.508 OA
ATOM     19  H   UNL     1     -18.652  39.011   5.145  1.00  0.00     0.293 HD
ENDBRANCH  15  18
ENDBRANCH   1  12
BRANCH  11  20
ATOM     20  C   UNL     1     -12.389  36.398  -3.667  1.00  0.00     0.188 C 
ATOM     21  C   UNL     1     -10.917  36.591  -3.224  1.00  0.00     0.179 C 
ATOM     22  O   UNL     1     -12.552  36.087  -5.050  1.00  0.00    -0.362 OA
ATOM     23  C   UNL     1     -10.266  37.748  -4.020  1.00  0.00     0.177 C 
ATOM     24  C   UNL     1     -11.479  36.497  -5.891  1.00  0.00     0.176 C 
ATOM     25  C   UNL     1     -10.854  37.849  -5.448  1.00  0.00     0.177 C 
BRANCH  21  26
ATOM     26  O   UNL     1     -10.859  36.845  -1.842  1.00  0.00    -0.387 OA
ATOM     27  H   UNL     1     -10.025  36.421  -1.509  1.00  0.00     0.211 HD
ENDBRANCH  21  26
BRANCH  23  28
ATOM     28  O   UNL     1     -10.464  38.976  -3.363  1.00  0.00    -0.387 OA
ATOM     29  H   UNL     1      -9.576  39.287  -3.048  1.00  0.00     0.211 HD
ENDBRANCH  23  28
BRANCH  24  30
ATOM     30  C   UNL     1     -11.995  36.558  -7.333  1.00  0.00     0.191 C 
BRANCH  30  31
ATOM     31  O   UNL     1     -12.740  37.728  -7.535  1.00  0.00    -0.394 OA
ATOM     32  H   UNL     1     -13.397  37.768  -6.794  1.00  0.00     0.210 HD
ENDBRANCH  30  31
ENDBRANCH  24  30
BRANCH  25  33
ATOM     33  O   UNL     1      -9.871  38.289  -6.353  1.00  0.00    -0.388 OA
ATOM     34  H   UNL     1      -9.283  38.928  -5.871  1.00  0.00     0.211 HD
ENDBRANCH  25  33
ENDBRANCH  11  20
BRANCH  10  35
ATOM     35  O   UNL     1     -12.127  33.588  -4.288  1.00  0.00    -0.507 OA
ATOM     36  H   UNL     1     -11.243  33.101  -4.194  1.00  0.00     0.293 HD
ENDBRANCH  10  35
TORSDOF 9
ENDMDL
MODEL 8
REMARK VINA RESULT:    -7.734      3.359      5.404
REMARK INTER + INTRA:         -11.560
REMARK INTER:                 -10.963
REMARK INTRA:                  -0.597
REMARK UNBOUND:                -1.113
REMARK SMILES O=c1c(-c2ccc(O)cc2)coc2c([C@@H]3O[C@@H](CO)[C@H](O)[C@@H](O)[C@H]3O)c(O)ccc12
REMARK SMILES IDX 3 1 11 2 12 3 13 4 30 5 2 6 1 7 29 8 28 9 26 10 14 11 4 12
REMARK SMILES IDX 5 13 6 14 7 15 10 16 9 17 8 18 15 20 24 21 16 22 22 23 17 24
REMARK SMILES IDX 20 25 25 26 23 28 18 30 19 31 21 33 27 35
REMARK H PARENT 8 19 25 27 23 29 19 32 21 34 27 36
REMARK Flexibility Score: inf
ROOT
ATOM      1  C   UNL     1     -16.792  36.460   1.316  1.00  0.00     0.065 A 
ATOM      2  C   UNL     1     -15.590  35.988   0.769  1.00  0.00     0.208 A 
ATOM      3  O   UNL     1     -15.376  36.024  -0.541  1.00  0.00    -0.463 OA
ATOM      4  C   UNL     1     -16.264  36.498  -1.411  1.00  0.00     0.147 A 
ATOM      5  C   UNL     1     -17.508  36.985  -0.947  1.00  0.00     0.066 A 
ATOM      6  C   UNL     1     -17.769  36.960   0.435  1.00  0.00     0.200 A 
ATOM      7  O   UNL     1     -18.880  37.361   0.881  1.00  0.00    -0.288 OA
ATOM      8  C   UNL     1     -18.452  37.467  -1.868  1.00  0.00     0.020 A 
ATOM      9  C   UNL     1     -18.169  37.459  -3.232  1.00  0.00     0.047 A 
ATOM     10  C   UNL     1     -16.941  36.977  -3.703  1.00  0.00     0.125 A 
ATOM     11  C   UNL     1     -15.966  36.507  -2.794  1.00  0.00     0.069 A 
ENDROOT
BRANCH   1  12
ATOM     12  C   UNL     1     -17.005  36.416   2.783  1.00  0.00    -0.011 A 
ATOM     13  C   UNL     1     -16.488  35.356   3.551  1.00  0.00     0.013 A 
ATOM     14  C   UNL     1     -16.699  35.315   4.933  1.00  0.00     0.047 A 
ATOM     15  C   UNL     1     -17.433  36.328   5.563  1.00  0.00     0.115 A 
ATOM     16  C   UNL     1     -17.746  37.424   3.423  1.00  0.00     0.013 A 
ATOM     17  C   UNL     1     -17.955  37.381   4.806  1.00  0.00     0.047 A 
BRANCH  15  18
ATOM     18  O   UNL     1     -17.649  36.297   6.939  1.00  0.00    -0.508 OA
ATOM     19  H   UNL     1     -18.584  36.264   7.328  1.00  0.00     0.293 HD
ENDBRANCH  15  18
ENDBRANCH   1  12
BRANCH  11  20
ATOM     20  C   UNL     1     -14.639  35.963  -3.301  1.00  0.00     0.188 C 
ATOM     21  C   UNL     1     -14.782  34.468  -3.682  1.00  0.00     0.179 C 
ATOM     22  O   UNL     1     -14.170  36.799  -4.359  1.00  0.00    -0.362 OA
ATOM     23  C   UNL     1     -13.414  33.897  -4.128  1.00  0.00     0.177 C 
ATOM     24  C   UNL     1     -13.436  36.127  -5.377  1.00  0.00     0.176 C 
ATOM     25  C   UNL     1     -12.549  34.979  -4.818  1.00  0.00     0.177 C 
BRANCH  21  26
ATOM     26  O   UNL     1     -15.293  33.740  -2.594  1.00  0.00    -0.387 OA
ATOM     27  H   UNL     1     -14.800  32.878  -2.570  1.00  0.00     0.211 HD
ENDBRANCH  21  26
BRANCH  23  28
ATOM     28  O   UNL     1     -12.704  33.390  -3.025  1.00  0.00    -0.387 OA
ATOM     29  H   UNL     1     -13.362  33.240  -2.296  1.00  0.00     0.211 HD
ENDBRANCH  23  28
BRANCH  24  30
ATOM     30  C   UNL     1     -12.601  37.168  -6.133  1.00  0.00     0.191 C 
BRANCH  30  31
ATOM     31  O   UNL     1     -12.415  36.771  -7.464  1.00  0.00    -0.394 OA
ATOM     32  H   UNL     1     -11.863  35.947  -7.432  1.00  0.00     0.210 HD
ENDBRANCH  30  31
ENDBRANCH  24  30
BRANCH  25  33
ATOM     33  O   UNL     1     -11.750  34.402  -5.822  1.00  0.00    -0.388 OA
ATOM     34  H   UNL     1     -12.348  34.153  -6.575  1.00  0.00     0.211 HD
ENDBRANCH  25  33
ENDBRANCH  11  20
BRANCH  10  35
ATOM     35  O   UNL     1     -16.690  36.963  -5.075  1.00  0.00    -0.507 OA
ATOM     36  H   UNL     1     -16.089  36.266  -5.500  1.00  0.00     0.293 HD
ENDBRANCH  10  35
TORSDOF 9
ENDMDL
MODEL 9
REMARK VINA RESULT:    -7.597      2.948      8.559
REMARK INTER + INTRA:         -11.375
REMARK INTER:                 -10.186
REMARK INTRA:                  -1.190
REMARK UNBOUND:                -1.113
REMARK SMILES O=c1c(-c2ccc(O)cc2)coc2c([C@@H]3O[C@@H](CO)[C@H](O)[C@@H](O)[C@H]3O)c(O)ccc12
REMARK SMILES IDX 3 1 11 2 12 3 13 4 30 5 2 6 1 7 29 8 28 9 26 10 14 11 4 12
REMARK SMILES IDX 5 13 6 14 7 15 10 16 9 17 8 18 15 20 24 21 16 22 22 23 17 24
REMARK SMILES IDX 20 25 25 26 23 28 18 30 19 31 21 33 27 35
REMARK H PARENT 8 19 25 27 23 29 19 32 21 34 27 36
REMARK Flexibility Score: inf
ROOT
ATOM      1  C   UNL     1     -12.291  37.511  -6.663  1.00  0.00     0.065 A 
ATOM      2  C   UNL     1     -13.156  38.291  -5.883  1.00  0.00     0.208 A 
ATOM      3  O   UNL     1     -13.879  37.745  -4.913  1.00  0.00    -0.463 OA
ATOM      4  C   UNL     1     -13.840  36.449  -4.617  1.00  0.00     0.147 A 
ATOM      5  C   UNL     1     -13.003  35.585  -5.361  1.00  0.00     0.066 A 
ATOM      6  C   UNL     1     -12.223  36.131  -6.398  1.00  0.00     0.200 A 
ATOM      7  O   UNL     1     -11.485  35.385  -7.100  1.00  0.00    -0.288 OA
ATOM      8  C   UNL     1     -12.976  34.214  -5.060  1.00  0.00     0.020 A 
ATOM      9  C   UNL     1     -13.776  33.704  -4.040  1.00  0.00     0.047 A 
ATOM     10  C   UNL     1     -14.611  34.550  -3.298  1.00  0.00     0.125 A 
ATOM     11  C   UNL     1     -14.638  35.937  -3.567  1.00  0.00     0.069 A 
ENDROOT
BRANCH   1  12
ATOM     12  C   UNL     1     -11.487  38.145  -7.737  1.00  0.00    -0.011 A 
ATOM     13  C   UNL     1     -10.269  38.782  -7.438  1.00  0.00     0.013 A 
ATOM     14  C   UNL     1      -9.520  39.387  -8.453  1.00  0.00     0.047 A 
ATOM     15  C   UNL     1      -9.981  39.366  -9.776  1.00  0.00     0.115 A 
ATOM     16  C   UNL     1     -11.945  38.136  -9.065  1.00  0.00     0.013 A 
ATOM     17  C   UNL     1     -11.193  38.741 -10.078  1.00  0.00     0.047 A 
BRANCH  15  18
ATOM     18  O   UNL     1      -9.243  39.965 -10.794  1.00  0.00    -0.508 OA
ATOM     19  H   UNL     1      -9.315  40.957 -10.988  1.00  0.00     0.293 HD
ENDBRANCH  15  18
ENDBRANCH   1  12
BRANCH  11  20
ATOM     20  C   UNL     1     -15.559  36.856  -2.778  1.00  0.00     0.188 C 
ATOM     21  C   UNL     1     -16.987  36.831  -3.380  1.00  0.00     0.179 C 
ATOM     22  O   UNL     1     -15.495  36.501  -1.397  1.00  0.00    -0.362 OA
ATOM     23  C   UNL     1     -17.903  37.823  -2.622  1.00  0.00     0.177 C 
ATOM     24  C   UNL     1     -16.705  36.686  -0.671  1.00  0.00     0.176 C 
ATOM     25  C   UNL     1     -17.496  37.941  -1.133  1.00  0.00     0.177 C 
BRANCH  21  26
ATOM     26  O   UNL     1     -16.938  37.147  -4.749  1.00  0.00    -0.387 OA
ATOM     27  H   UNL     1     -17.841  36.958  -5.117  1.00  0.00     0.211 HD
ENDBRANCH  21  26
BRANCH  23  28
ATOM     28  O   UNL     1     -17.844  39.101  -3.208  1.00  0.00    -0.387 OA
ATOM     29  H   UNL     1     -18.185  39.014  -4.137  1.00  0.00     0.211 HD
ENDBRANCH  23  28
BRANCH  24  30
ATOM     30  C   UNL     1     -16.363  36.753   0.823  1.00  0.00     0.191 C 
BRANCH  30  31
ATOM     31  O   UNL     1     -16.097  38.075   1.204  1.00  0.00    -0.394 OA
ATOM     32  H   UNL     1     -15.444  38.021   1.948  1.00  0.00     0.210 HD
ENDBRANCH  30  31
ENDBRANCH  24  30
BRANCH  25  33
ATOM     33  O   UNL     1     -18.630  38.167  -0.332  1.00  0.00    -0.388 OA
ATOM     34  H   UNL     1     -18.483  39.015   0.165  1.00  0.00     0.211 HD
ENDBRANCH  25  33
ENDBRANCH  11  20
BRANCH  10  35
ATOM     35  O   UNL     1     -15.416  34.010  -2.294  1.00  0.00    -0.507 OA
ATOM     36  H   UNL     1     -15.861  34.595  -1.596  1.00  0.00     0.293 HD
ENDBRANCH  10  35
TORSDOF 9
ENDMDL
