MODEL 1
REMARK VINA RESULT:    -3.882      0.000      0.000
REMARK INTER + INTRA:          -4.832
REMARK INTER:                  -4.563
REMARK INTRA:                  -0.269
REMARK UNBOUND:                -0.269
REMARK SMILES O=c1cc(-c2ccc(O)c(O)c2)oc2cc(O)cc(O)c12
REMARK SMILES IDX 4 1 3 2 2 3 1 4 21 5 19 6 18 7 16 8 15 9 14 10 13 11 5 12
REMARK SMILES IDX 6 13 7 14 8 15 12 16 10 17 9 18 11 20 20 22 17 24
REMARK H PARENT 9 19 11 21 20 23 17 25
REMARK Flexibility Score: inf
ROOT
ATOM      1  C   UNL     1      11.997   8.094  28.574  1.00  0.00     0.138 A 
ATOM      2  C   UNL     1      10.677   8.191  28.112  1.00  0.00     0.100 A 
ATOM      3  C   UNL     1       9.861   9.230  28.565  1.00  0.00     0.197 A 
ATOM      4  O   UNL     1       8.702   9.326  28.085  1.00  0.00    -0.289 OA
ATOM      5  C   UNL     1      10.362  10.156  29.509  1.00  0.00     0.107 A 
ATOM      6  C   UNL     1       9.609  11.231  30.071  1.00  0.00     0.134 A 
ATOM      7  C   UNL     1      10.246  12.154  30.910  1.00  0.00     0.093 A 
ATOM      8  C   UNL     1      11.592  12.008  31.253  1.00  0.00     0.123 A 
ATOM      9  C   UNL     1      12.321  10.933  30.752  1.00  0.00     0.094 A 
ATOM     10  C   UNL     1      11.723  10.013  29.886  1.00  0.00     0.146 A 
ATOM     11  O   UNL     1      12.459   9.009  29.420  1.00  0.00    -0.456 OA
ENDROOT
BRANCH   1  12
ATOM     12  C   UNL     1      12.906   7.010  28.127  1.00  0.00     0.021 A 
ATOM     13  C   UNL     1      13.459   6.993  26.832  1.00  0.00     0.016 A 
ATOM     14  C   UNL     1      14.304   5.954  26.435  1.00  0.00     0.051 A 
ATOM     15  C   UNL     1      14.606   4.911  27.318  1.00  0.00     0.157 A 
ATOM     16  C   UNL     1      13.204   5.950  29.003  1.00  0.00     0.062 A 
ATOM     17  C   UNL     1      14.051   4.909  28.609  1.00  0.00     0.158 A 
BRANCH  15  18
ATOM     18  O   UNL     1      15.451   3.876  26.919  1.00  0.00    -0.504 OA
ATOM     19  H   UNL     1      15.170   2.906  26.987  1.00  0.00     0.293 HD
ENDBRANCH  15  18
BRANCH  17  20
ATOM     20  O   UNL     1      14.329   3.883  29.511  1.00  0.00    -0.504 OA
ATOM     21  H   UNL     1      13.676   3.611  30.236  1.00  0.00     0.293 HD
ENDBRANCH  17  20
ENDBRANCH   1  12
BRANCH   6  22
ATOM     22  O   UNL     1       8.240  11.419  29.861  1.00  0.00    -0.507 OA
ATOM     23  H   UNL     1       7.842  12.006  29.144  1.00  0.00     0.293 HD
ENDBRANCH   6  22
BRANCH   8  24
ATOM     24  O   UNL     1      12.212  12.924  32.100  1.00  0.00    -0.508 OA
ATOM     25  H   UNL     1      13.207  13.113  32.039  1.00  0.00     0.293 HD
ENDBRANCH   8  24
TORSDOF 5
ENDMDL
MODEL 2
REMARK VINA RESULT:    -1.444      1.490      6.956
REMARK INTER + INTRA:          -1.967
REMARK INTER:                  -1.703
REMARK INTRA:                  -0.264
REMARK UNBOUND:                -0.269
REMARK SMILES O=c1cc(-c2ccc(O)c(O)c2)oc2cc(O)cc(O)c12
REMARK SMILES IDX 4 1 3 2 2 3 1 4 21 5 19 6 18 7 16 8 15 9 14 10 13 11 5 12
REMARK SMILES IDX 6 13 7 14 8 15 12 16 10 17 9 18 11 20 20 22 17 24
REMARK H PARENT 9 19 11 21 20 23 17 25
REMARK Flexibility Score: inf
ROOT
ATOM      1  C   UNL     1      12.000   8.409  29.265  1.00  0.00     0.138 A 
ATOM      2  C   UNL     1      12.198   8.020  27.933  1.00  0.00     0.100 A 
ATOM      3  C   UNL     1      12.911   6.852  27.654  1.00  0.00     0.197 A 
ATOM      4  O   UNL     1      13.020   6.496  26.451  1.00  0.00    -0.289 OA
ATOM      5  C   UNL     1      13.454   6.089  28.714  1.00  0.00     0.107 A 
ATOM      6  C   UNL     1      14.231   4.904  28.548  1.00  0.00     0.134 A 
ATOM      7  C   UNL     1      14.618   4.168  29.675  1.00  0.00     0.093 A 
ATOM      8  C   UNL     1      14.305   4.607  30.964  1.00  0.00     0.123 A 
ATOM      9  C   UNL     1      13.592   5.790  31.139  1.00  0.00     0.094 A 
ATOM     10  C   UNL     1      13.163   6.529  30.033  1.00  0.00     0.146 A 
ATOM     11  O   UNL     1      12.473   7.645  30.244  1.00  0.00    -0.456 OA
ENDROOT
BRANCH   1  12
ATOM     12  C   UNL     1      11.251   9.641  29.618  1.00  0.00     0.021 A 
ATOM     13  C   UNL     1      11.888  10.752  30.203  1.00  0.00     0.016 A 
ATOM     14  C   UNL     1      11.156  11.895  30.534  1.00  0.00     0.051 A 
ATOM     15  C   UNL     1       9.778  11.948  30.294  1.00  0.00     0.157 A 
ATOM     16  C   UNL     1       9.863   9.697  29.393  1.00  0.00     0.062 A 
ATOM     17  C   UNL     1       9.129  10.841  29.722  1.00  0.00     0.158 A 
BRANCH  15  18
ATOM     18  O   UNL     1       9.051  13.091  30.625  1.00  0.00    -0.504 OA
ATOM     19  H   UNL     1       8.095  13.035  30.953  1.00  0.00     0.293 HD
ENDBRANCH  15  18
BRANCH  17  20
ATOM     20  O   UNL     1       7.757  10.860  29.475  1.00  0.00    -0.504 OA
ATOM     21  H   UNL     1       7.117  11.418  30.027  1.00  0.00     0.293 HD
ENDBRANCH  17  20
ENDBRANCH   1  12
BRANCH   6  22
ATOM     22  O   UNL     1      14.670   4.426  27.310  1.00  0.00    -0.507 OA
ATOM     23  H   UNL     1      15.489   3.852  27.171  1.00  0.00     0.293 HD
ENDBRANCH   6  22
BRANCH   8  24
ATOM     24  O   UNL     1      14.706   3.875  32.080  1.00  0.00    -0.508 OA
ATOM     25  H   UNL     1      15.656   3.535  32.177  1.00  0.00     0.293 HD
ENDBRANCH   8  24
TORSDOF 5
ENDMDL
MODEL 3
REMARK VINA RESULT:    -1.118     17.644     19.268
REMARK INTER + INTRA:          -1.584
REMARK INTER:                  -1.267
REMARK INTRA:                  -0.317
REMARK UNBOUND:                -0.269
REMARK SMILES O=c1cc(-c2ccc(O)c(O)c2)oc2cc(O)cc(O)c12
REMARK SMILES IDX 4 1 3 2 2 3 1 4 21 5 19 6 18 7 16 8 15 9 14 10 13 11 5 12
REMARK SMILES IDX 6 13 7 14 8 15 12 16 10 17 9 18 11 20 20 22 17 24
REMARK H PARENT 9 19 11 21 20 23 17 25
REMARK Flexibility Score: inf
ROOT
ATOM      1  C   UNL     1      23.880  11.046  13.659  1.00  0.00     0.138 A 
ATOM      2  C   UNL     1      24.011  11.949  12.596  1.00  0.00     0.100 A 
ATOM      3  C   UNL     1      23.934  13.321  12.843  1.00  0.00     0.197 A 
ATOM      4  O   UNL     1      24.117  14.109  11.878  1.00  0.00    -0.289 OA
ATOM      5  C   UNL     1      23.691  13.787  14.156  1.00  0.00     0.107 A 
ATOM      6  C   UNL     1      23.553  15.160  14.519  1.00  0.00     0.134 A 
ATOM      7  C   UNL     1      23.430  15.508  15.870  1.00  0.00     0.093 A 
ATOM      8  C   UNL     1      23.382  14.528  16.865  1.00  0.00     0.123 A 
ATOM      9  C   UNL     1      23.463  13.183  16.516  1.00  0.00     0.094 A 
ATOM     10  C   UNL     1      23.620  12.805  15.180  1.00  0.00     0.146 A 
ATOM     11  O   UNL     1      23.707  11.511  14.892  1.00  0.00    -0.456 OA
ENDROOT
BRANCH   1  12
ATOM     12  C   UNL     1      23.952   9.577  13.453  1.00  0.00     0.021 A 
ATOM     13  C   UNL     1      23.941   9.009  12.164  1.00  0.00     0.016 A 
ATOM     14  C   UNL     1      24.000   7.623  12.001  1.00  0.00     0.051 A 
ATOM     15  C   UNL     1      24.064   6.780  13.116  1.00  0.00     0.157 A 
ATOM     16  C   UNL     1      24.003   8.722  14.569  1.00  0.00     0.062 A 
ATOM     17  C   UNL     1      24.065   7.334  14.407  1.00  0.00     0.158 A 
BRANCH  15  18
ATOM     18  O   UNL     1      24.125   5.397  12.949  1.00  0.00    -0.504 OA
ATOM     19  H   UNL     1      25.006   4.917  12.819  1.00  0.00     0.293 HD
ENDBRANCH  15  18
BRANCH  17  20
ATOM     20  O   UNL     1      24.124   6.522  15.539  1.00  0.00    -0.504 OA
ATOM     21  H   UNL     1      23.901   6.869  16.464  1.00  0.00     0.293 HD
ENDBRANCH  17  20
ENDBRANCH   1  12
BRANCH   6  22
ATOM     22  O   UNL     1      23.503  16.210  13.598  1.00  0.00    -0.507 OA
ATOM     23  H   UNL     1      22.669  16.721  13.350  1.00  0.00     0.293 HD
ENDBRANCH   6  22
BRANCH   8  24
ATOM     24  O   UNL     1      23.245  14.884  18.206  1.00  0.00    -0.508 OA
ATOM     25  H   UNL     1      22.531  15.535  18.511  1.00  0.00     0.293 HD
ENDBRANCH   8  24
TORSDOF 5
ENDMDL
