MODEL 1
REMARK VINA RESULT:    17.490      0.000      0.000
REMARK INTER + INTRA:          21.672
REMARK INTER:                  21.580
REMARK INTRA:                   0.092
REMARK UNBOUND:                 0.092
REMARK SMILES O=c1c(O)c(-c2cc(O)c(O)c(O)c2)oc2cc(O)cc(O)c12
REMARK SMILES IDX 5 1 3 2 2 3 1 4 23 5 21 6 20 7 18 8 17 9 16 10 15 11 6 12
REMARK SMILES IDX 7 13 8 14 14 15 10 16 12 17 9 18 11 20 13 22 4 24 22 26
REMARK SMILES IDX 19 28
REMARK H PARENT 9 19 11 21 13 23 4 25 22 27 19 29
REMARK Flexibility Score: inf
ROOT
ATOM      1  C   UNL     1      90.796  17.746 119.989  1.00  0.00     0.180 A 
ATOM      2  C   UNL     1      91.712  18.500 119.235  1.00  0.00     0.208 A 
ATOM      3  C   UNL     1      93.006  17.993 119.032  1.00  0.00     0.238 A 
ATOM      4  O   UNL     1      93.804  18.647 118.311  1.00  0.00    -0.285 OA
ATOM      5  C   UNL     1      93.372  16.749 119.598  1.00  0.00     0.111 A 
ATOM      6  C   UNL     1      94.668  16.159 119.490  1.00  0.00     0.134 A 
ATOM      7  C   UNL     1      94.880  14.864 119.977  1.00  0.00     0.093 A 
ATOM      8  C   UNL     1      93.860  14.163 120.628  1.00  0.00     0.123 A 
ATOM      9  C   UNL     1      92.610  14.754 120.791  1.00  0.00     0.094 A 
ATOM     10  C   UNL     1      92.358  16.030 120.283  1.00  0.00     0.146 A 
ATOM     11  O   UNL     1      91.149  16.552 120.451  1.00  0.00    -0.452 OA
ENDROOT
BRANCH   1  12
ATOM     12  C   UNL     1      89.422  18.225 120.267  1.00  0.00     0.029 A 
ATOM     13  C   UNL     1      88.363  17.305 120.298  1.00  0.00     0.062 A 
ATOM     14  C   UNL     1      87.059  17.727 120.579  1.00  0.00     0.162 A 
ATOM     15  C   UNL     1      89.163  19.575 120.559  1.00  0.00     0.062 A 
ATOM     16  C   UNL     1      86.802  19.081 120.849  1.00  0.00     0.200 A 
ATOM     17  C   UNL     1      87.860  20.005 120.844  1.00  0.00     0.162 A 
BRANCH  14  18
ATOM     18  O   UNL     1      86.033  16.782 120.586  1.00  0.00    -0.504 OA
ATOM     19  H   UNL     1      85.939  16.094 121.324  1.00  0.00     0.293 HD
ENDBRANCH  14  18
BRANCH  16  20
ATOM     20  O   UNL     1      85.498  19.493 121.125  1.00  0.00    -0.502 OA
ATOM     21  H   UNL     1      84.760  18.837 121.348  1.00  0.00     0.293 HD
ENDBRANCH  16  20
BRANCH  17  22
ATOM     22  O   UNL     1      87.615  21.349 121.124  1.00  0.00    -0.504 OA
ATOM     23  H   UNL     1      86.899  21.872 120.633  1.00  0.00     0.293 HD
ENDBRANCH  17  22
ENDBRANCH   1  12
BRANCH   2  24
ATOM     24  O   UNL     1      91.323  19.716 118.668  1.00  0.00    -0.502 OA
ATOM     25  H   UNL     1      91.982  20.347 118.229  1.00  0.00     0.293 HD
ENDBRANCH   2  24
BRANCH   6  26
ATOM     26  O   UNL     1      95.777  16.808 118.940  1.00  0.00    -0.507 OA
ATOM     27  H   UNL     1      96.201  16.572 118.056  1.00  0.00     0.293 HD
ENDBRANCH   6  26
BRANCH   8  28
ATOM     28  O   UNL     1      94.086  12.881 121.125  1.00  0.00    -0.508 OA
ATOM     29  H   UNL     1      94.532  12.731 122.022  1.00  0.00     0.293 HD
ENDBRANCH   8  28
TORSDOF 7
ENDMDL
MODEL 2
REMARK VINA RESULT:    20.338      2.328      7.071
REMARK INTER + INTRA:          25.185
REMARK INTER:                  24.912
REMARK INTRA:                   0.273
REMARK UNBOUND:                 0.092
REMARK SMILES O=c1c(O)c(-c2cc(O)c(O)c(O)c2)oc2cc(O)cc(O)c12
REMARK SMILES IDX 5 1 3 2 2 3 1 4 23 5 21 6 20 7 18 8 17 9 16 10 15 11 6 12
REMARK SMILES IDX 7 13 8 14 14 15 10 16 12 17 9 18 11 20 13 22 4 24 22 26
REMARK SMILES IDX 19 28
REMARK H PARENT 9 19 11 21 13 23 4 25 22 27 19 29
REMARK Flexibility Score: inf
ROOT
ATOM      1  C   UNL     1      93.085  14.424 120.184  1.00  0.00     0.180 A 
ATOM      2  C   UNL     1      94.134  15.133 119.575  1.00  0.00     0.208 A 
ATOM      3  C   UNL     1      93.977  16.507 119.331  1.00  0.00     0.238 A 
ATOM      4  O   UNL     1      94.941  17.147 118.836  1.00  0.00    -0.285 OA
ATOM      5  C   UNL     1      92.767  17.151 119.684  1.00  0.00     0.111 A 
ATOM      6  C   UNL     1      92.483  18.530 119.447  1.00  0.00     0.134 A 
ATOM      7  C   UNL     1      91.305  19.090 119.956  1.00  0.00     0.093 A 
ATOM      8  C   UNL     1      90.370  18.306 120.637  1.00  0.00     0.123 A 
ATOM      9  C   UNL     1      90.610  16.947 120.820  1.00  0.00     0.094 A 
ATOM     10  C   UNL     1      91.793  16.367 120.357  1.00  0.00     0.146 A 
ATOM     11  O   UNL     1      91.987  15.070 120.563  1.00  0.00    -0.452 OA
ENDROOT
BRANCH   1  12
ATOM     12  C   UNL     1      93.166  12.969 120.450  1.00  0.00     0.029 A 
ATOM     13  C   UNL     1      91.996  12.196 120.426  1.00  0.00     0.062 A 
ATOM     14  C   UNL     1      92.047  10.817 120.654  1.00  0.00     0.162 A 
ATOM     15  C   UNL     1      94.401  12.335 120.669  1.00  0.00     0.062 A 
ATOM     16  C   UNL     1      93.280  10.190 120.894  1.00  0.00     0.200 A 
ATOM     17  C   UNL     1      94.461  10.953 120.896  1.00  0.00     0.162 A 
BRANCH  14  18
ATOM     18  O   UNL     1      90.858  10.087 120.636  1.00  0.00    -0.504 OA
ATOM     19  H   UNL     1      90.558   9.568 119.819  1.00  0.00     0.293 HD
ENDBRANCH  14  18
BRANCH  16  20
ATOM     20  O   UNL     1      93.322   8.814 121.124  1.00  0.00    -0.502 OA
ATOM     21  H   UNL     1      93.862   8.409 121.878  1.00  0.00     0.293 HD
ENDBRANCH  16  20
BRANCH  17  22
ATOM     22  O   UNL     1      95.691  10.335 121.121  1.00  0.00    -0.504 OA
ATOM     23  H   UNL     1      95.855   9.369 120.862  1.00  0.00     0.293 HD
ENDBRANCH  17  22
ENDBRANCH   1  12
BRANCH   2  24
ATOM     24  O   UNL     1      95.329  14.482 119.254  1.00  0.00    -0.502 OA
ATOM     25  H   UNL     1      95.878  14.725 118.439  1.00  0.00     0.293 HD
ENDBRANCH   2  24
BRANCH   6  26
ATOM     26  O   UNL     1      93.306  19.379 118.701  1.00  0.00    -0.507 OA
ATOM     27  H   UNL     1      93.188  19.576 117.719  1.00  0.00     0.293 HD
ENDBRANCH   6  26
BRANCH   8  28
ATOM     28  O   UNL     1      89.192  18.868 121.125  1.00  0.00    -0.508 OA
ATOM     29  H   UNL     1      88.650  18.417 121.852  1.00  0.00     0.293 HD
ENDBRANCH   8  28
TORSDOF 7
ENDMDL
