MODEL 1
REMARK VINA RESULT:    -5.191      0.000      0.000
REMARK INTER + INTRA:          -6.109
REMARK INTER:                  -5.950
REMARK INTRA:                  -0.160
REMARK UNBOUND:                -0.160
REMARK SMILES CC=Cc1ccc(O)c(OC)c1
REMARK SMILES IDX 4 1 12 2 9 3 7 4 6 5 5 6 3 7 1 8 2 9 10 10 11 11 8 12
REMARK H PARENT 8 13
REMARK Flexibility Score: inf
ROOT
ATOM      1  C   UNL     1     -23.337  61.986  31.096  1.00  0.00    -0.022 A 
ATOM      2  C   UNL     1     -23.927  61.187  32.090  1.00  0.00     0.058 A 
ATOM      3  C   UNL     1     -25.301  61.293  32.383  1.00  0.00     0.161 A 
ATOM      4  C   UNL     1     -26.088  62.205  31.658  1.00  0.00     0.157 A 
ATOM      5  C   UNL     1     -25.508  62.990  30.658  1.00  0.00     0.051 A 
ATOM      6  C   UNL     1     -24.146  62.882  30.373  1.00  0.00     0.012 A 
ENDROOT
BRANCH   1   7
ATOM      7  C   UNL     1     -21.886  61.826  30.825  1.00  0.00     0.003 C 
ATOM      8  C   UNL     1     -19.893  61.497  29.414  1.00  0.00     0.035 C 
ATOM      9  C   UNL     1     -21.370  61.635  29.605  1.00  0.00    -0.030 C 
ENDBRANCH   1   7
BRANCH   3  10
ATOM     10  O   UNL     1     -25.913  60.514  33.378  1.00  0.00    -0.493 OA
ATOM     11  C   UNL     1     -26.029  60.894  34.745  1.00  0.00     0.278 C 
ENDBRANCH   3  10
BRANCH   4  12
ATOM     12  O   UNL     1     -27.453  62.343  31.914  1.00  0.00    -0.504 OA
ATOM     13  H   UNL     1     -28.137  61.680  31.569  1.00  0.00     0.293 HD
ENDBRANCH   4  12
TORSDOF 3
ENDMDL
MODEL 2
REMARK VINA RESULT:    -5.123     20.290     22.026
REMARK INTER + INTRA:          -6.032
REMARK INTER:                  -5.852
REMARK INTRA:                  -0.180
REMARK UNBOUND:                -0.160
REMARK SMILES CC=Cc1ccc(O)c(OC)c1
REMARK SMILES IDX 4 1 12 2 9 3 7 4 6 5 5 6 3 7 1 8 2 9 10 10 11 11 8 12
REMARK H PARENT 8 13
REMARK Flexibility Score: inf
ROOT
ATOM      1  C   UNL     1     -14.624  44.738  24.317  1.00  0.00    -0.022 A 
ATOM      2  C   UNL     1     -14.507  43.984  23.138  1.00  0.00     0.058 A 
ATOM      3  C   UNL     1     -13.465  44.229  22.222  1.00  0.00     0.161 A 
ATOM      4  C   UNL     1     -12.527  45.237  22.504  1.00  0.00     0.157 A 
ATOM      5  C   UNL     1     -12.630  45.978  23.684  1.00  0.00     0.051 A 
ATOM      6  C   UNL     1     -13.665  45.732  24.588  1.00  0.00     0.012 A 
ENDROOT
BRANCH   1   7
ATOM      7  C   UNL     1     -15.737  44.430  25.250  1.00  0.00     0.003 C 
ATOM      8  C   UNL     1     -16.897  44.406  27.423  1.00  0.00     0.035 C 
ATOM      9  C   UNL     1     -15.729  44.738  26.552  1.00  0.00    -0.030 C 
ENDBRANCH   1   7
BRANCH   3  10
ATOM     10  O   UNL     1     -13.332  43.496  21.031  1.00  0.00    -0.493 OA
ATOM     11  C   UNL     1     -14.239  43.564  19.935  1.00  0.00     0.278 C 
ENDBRANCH   3  10
BRANCH   4  12
ATOM     12  O   UNL     1     -11.479  45.514  21.626  1.00  0.00    -0.504 OA
ATOM     13  H   UNL     1     -11.536  45.309  20.635  1.00  0.00     0.293 HD
ENDBRANCH   4  12
TORSDOF 3
ENDMDL
MODEL 3
REMARK VINA RESULT:    -5.023     17.914     20.169
REMARK INTER + INTRA:          -5.917
REMARK INTER:                  -5.743
REMARK INTRA:                  -0.173
REMARK UNBOUND:                -0.160
REMARK SMILES CC=Cc1ccc(O)c(OC)c1
REMARK SMILES IDX 4 1 12 2 9 3 7 4 6 5 5 6 3 7 1 8 2 9 10 10 11 11 8 12
REMARK H PARENT 8 13
REMARK Flexibility Score: inf
ROOT
ATOM      1  C   UNL     1     -14.265  45.064  24.000  1.00  0.00    -0.022 A 
ATOM      2  C   UNL     1     -13.756  46.364  24.156  1.00  0.00     0.058 A 
ATOM      3  C   UNL     1     -14.112  47.152  25.269  1.00  0.00     0.161 A 
ATOM      4  C   UNL     1     -14.980  46.618  26.238  1.00  0.00     0.157 A 
ATOM      5  C   UNL     1     -15.475  45.320  26.094  1.00  0.00     0.051 A 
ATOM      6  C   UNL     1     -15.120  44.544  24.989  1.00  0.00     0.012 A 
ENDROOT
BRANCH   1   7
ATOM      7  C   UNL     1     -13.850  44.277  22.812  1.00  0.00     0.003 C 
ATOM      8  C   UNL     1     -12.368  43.648  20.947  1.00  0.00     0.035 C 
ATOM      9  C   UNL     1     -12.722  44.495  22.126  1.00  0.00    -0.030 C 
ENDBRANCH   1   7
BRANCH   3  10
ATOM     10  O   UNL     1     -13.625  48.458  25.444  1.00  0.00    -0.493 OA
ATOM     11  C   UNL     1     -14.191  49.618  24.844  1.00  0.00     0.278 C 
ENDBRANCH   3  10
BRANCH   4  12
ATOM     12  O   UNL     1     -15.358  47.362  27.356  1.00  0.00    -0.504 OA
ATOM     13  H   UNL     1     -14.971  48.278  27.551  1.00  0.00     0.293 HD
ENDBRANCH   4  12
TORSDOF 3
ENDMDL
MODEL 4
REMARK VINA RESULT:    -5.001     18.606     20.383
REMARK INTER + INTRA:          -5.891
REMARK INTER:                  -5.715
REMARK INTRA:                  -0.176
REMARK UNBOUND:                -0.160
REMARK SMILES CC=Cc1ccc(O)c(OC)c1
REMARK SMILES IDX 4 1 12 2 9 3 7 4 6 5 5 6 3 7 1 8 2 9 10 10 11 11 8 12
REMARK H PARENT 8 13
REMARK Flexibility Score: inf
ROOT
ATOM      1  C   UNL     1     -13.895  45.213  23.902  1.00  0.00    -0.022 A 
ATOM      2  C   UNL     1     -14.992  44.763  24.653  1.00  0.00     0.058 A 
ATOM      3  C   UNL     1     -15.443  45.481  25.779  1.00  0.00     0.161 A 
ATOM      4  C   UNL     1     -14.786  46.670  26.142  1.00  0.00     0.157 A 
ATOM      5  C   UNL     1     -13.705  47.130  25.387  1.00  0.00     0.051 A 
ATOM      6  C   UNL     1     -13.262  46.414  24.273  1.00  0.00     0.012 A 
ENDROOT
BRANCH   1   7
ATOM      7  C   UNL     1     -13.469  44.421  22.721  1.00  0.00     0.003 C 
ATOM      8  C   UNL     1     -11.978  43.794  20.862  1.00  0.00     0.035 C 
ATOM      9  C   UNL     1     -12.343  44.647  22.034  1.00  0.00    -0.030 C 
ENDBRANCH   1   7
BRANCH   3  10
ATOM     10  O   UNL     1     -16.531  45.046  26.553  1.00  0.00    -0.493 OA
ATOM     11  C   UNL     1     -16.598  43.789  27.220  1.00  0.00     0.278 C 
ENDBRANCH   3  10
BRANCH   4  12
ATOM     12  O   UNL     1     -15.199  47.413  27.248  1.00  0.00    -0.504 OA
ATOM     13  H   UNL     1     -15.366  46.987  28.153  1.00  0.00     0.293 HD
ENDBRANCH   4  12
TORSDOF 3
ENDMDL
MODEL 5
REMARK VINA RESULT:    -4.964      3.307      4.069
REMARK INTER + INTRA:          -5.850
REMARK INTER:                  -5.682
REMARK INTRA:                  -0.168
REMARK UNBOUND:                -0.160
REMARK SMILES CC=Cc1ccc(O)c(OC)c1
REMARK SMILES IDX 4 1 12 2 9 3 7 4 6 5 5 6 3 7 1 8 2 9 10 10 11 11 8 12
REMARK H PARENT 8 13
REMARK Flexibility Score: inf
ROOT
ATOM      1  C   UNL     1     -24.562  60.843  34.635  1.00  0.00    -0.022 A 
ATOM      2  C   UNL     1     -24.510  60.104  33.442  1.00  0.00     0.058 A 
ATOM      3  C   UNL     1     -25.690  59.756  32.754  1.00  0.00     0.161 A 
ATOM      4  C   UNL     1     -26.932  60.169  33.269  1.00  0.00     0.157 A 
ATOM      5  C   UNL     1     -26.985  60.918  34.447  1.00  0.00     0.051 A 
ATOM      6  C   UNL     1     -25.813  61.259  35.126  1.00  0.00     0.012 A 
ENDROOT
BRANCH   1   7
ATOM      7  C   UNL     1     -23.286  61.188  35.313  1.00  0.00     0.003 C 
ATOM      8  C   UNL     1     -20.931  61.899  35.427  1.00  0.00     0.035 C 
ATOM      9  C   UNL     1     -22.172  61.554  34.669  1.00  0.00    -0.030 C 
ENDBRANCH   1   7
BRANCH   3  10
ATOM     10  O   UNL     1     -25.667  59.010  31.565  1.00  0.00    -0.493 OA
ATOM     11  C   UNL     1     -25.508  59.566  30.264  1.00  0.00     0.278 C 
ENDBRANCH   3  10
BRANCH   4  12
ATOM     12  O   UNL     1     -28.125  59.848  32.621  1.00  0.00    -0.504 OA
ATOM     13  H   UNL     1     -28.906  59.423  33.107  1.00  0.00     0.293 HD
ENDBRANCH   4  12
TORSDOF 3
ENDMDL
MODEL 6
REMARK VINA RESULT:    -4.938     18.736     20.796
REMARK INTER + INTRA:          -5.820
REMARK INTER:                  -5.646
REMARK INTRA:                  -0.174
REMARK UNBOUND:                -0.160
REMARK SMILES CC=Cc1ccc(O)c(OC)c1
REMARK SMILES IDX 4 1 12 2 9 3 7 4 6 5 5 6 3 7 1 8 2 9 10 10 11 11 8 12
REMARK H PARENT 8 13
REMARK Flexibility Score: inf
ROOT
ATOM      1  C   UNL     1     -13.974  44.827  23.644  1.00  0.00    -0.022 A 
ATOM      2  C   UNL     1     -14.245  45.476  24.859  1.00  0.00     0.058 A 
ATOM      3  C   UNL     1     -15.374  45.131  25.629  1.00  0.00     0.161 A 
ATOM      4  C   UNL     1     -16.230  44.114  25.171  1.00  0.00     0.157 A 
ATOM      5  C   UNL     1     -15.955  43.455  23.971  1.00  0.00     0.051 A 
ATOM      6  C   UNL     1     -14.836  43.802  23.212  1.00  0.00     0.012 A 
ENDROOT
BRANCH   1   7
ATOM      7  C   UNL     1     -12.765  45.226  22.879  1.00  0.00     0.003 C 
ATOM      8  C   UNL     1     -11.185  45.158  20.991  1.00  0.00     0.035 C 
ATOM      9  C   UNL     1     -12.412  44.691  21.705  1.00  0.00    -0.030 C 
ENDBRANCH   1   7
BRANCH   3  10
ATOM     10  O   UNL     1     -15.672  45.771  26.843  1.00  0.00    -0.493 OA
ATOM     11  C   UNL     1     -15.766  47.182  27.011  1.00  0.00     0.278 C 
ENDBRANCH   3  10
BRANCH   4  12
ATOM     12  O   UNL     1     -17.359  43.739  25.901  1.00  0.00    -0.504 OA
ATOM     13  H   UNL     1     -18.283  44.098  25.688  1.00  0.00     0.293 HD
ENDBRANCH   4  12
TORSDOF 3
ENDMDL
MODEL 7
REMARK VINA RESULT:    -4.933     20.139     22.505
REMARK INTER + INTRA:          -5.814
REMARK INTER:                  -5.635
REMARK INTRA:                  -0.178
REMARK UNBOUND:                -0.160
REMARK SMILES CC=Cc1ccc(O)c(OC)c1
REMARK SMILES IDX 4 1 12 2 9 3 7 4 6 5 5 6 3 7 1 8 2 9 10 10 11 11 8 12
REMARK H PARENT 8 13
REMARK Flexibility Score: inf
ROOT
ATOM      1  C   UNL     1     -14.260  44.735  23.762  1.00  0.00    -0.022 A 
ATOM      2  C   UNL     1     -13.214  45.223  22.963  1.00  0.00     0.058 A 
ATOM      3  C   UNL     1     -12.899  44.614  21.732  1.00  0.00     0.161 A 
ATOM      4  C   UNL     1     -13.654  43.510  21.299  1.00  0.00     0.157 A 
ATOM      5  C   UNL     1     -14.705  43.031  22.085  1.00  0.00     0.051 A 
ATOM      6  C   UNL     1     -15.013  43.637  23.305  1.00  0.00     0.012 A 
ENDROOT
BRANCH   1   7
ATOM      7  C   UNL     1     -14.553  45.421  25.046  1.00  0.00     0.003 C 
ATOM      8  C   UNL     1     -15.820  45.863  27.112  1.00  0.00     0.035 C 
ATOM      9  C   UNL     1     -15.603  45.135  25.825  1.00  0.00    -0.030 C 
ENDBRANCH   1   7
BRANCH   3  10
ATOM     10  O   UNL     1     -11.852  45.078  20.918  1.00  0.00    -0.493 OA
ATOM     11  C   UNL     1     -10.489  44.688  21.055  1.00  0.00     0.278 C 
ENDBRANCH   3  10
BRANCH   4  12
ATOM     12  O   UNL     1     -13.377  42.876  20.088  1.00  0.00    -0.504 OA
ATOM     13  H   UNL     1     -13.630  43.284  19.195  1.00  0.00     0.293 HD
ENDBRANCH   4  12
TORSDOF 3
ENDMDL
MODEL 8
REMARK VINA RESULT:    -4.875      2.313      3.083
REMARK INTER + INTRA:          -5.748
REMARK INTER:                  -5.575
REMARK INTRA:                  -0.172
REMARK UNBOUND:                -0.160
REMARK SMILES CC=Cc1ccc(O)c(OC)c1
REMARK SMILES IDX 4 1 12 2 9 3 7 4 6 5 5 6 3 7 1 8 2 9 10 10 11 11 8 12
REMARK H PARENT 8 13
REMARK Flexibility Score: inf
ROOT
ATOM      1  C   UNL     1     -23.727  60.948  33.679  1.00  0.00    -0.022 A 
ATOM      2  C   UNL     1     -24.906  60.620  34.367  1.00  0.00     0.058 A 
ATOM      3  C   UNL     1     -26.149  60.599  33.703  1.00  0.00     0.161 A 
ATOM      4  C   UNL     1     -26.200  60.903  32.332  1.00  0.00     0.157 A 
ATOM      5  C   UNL     1     -25.027  61.214  31.641  1.00  0.00     0.051 A 
ATOM      6  C   UNL     1     -23.797  61.234  32.303  1.00  0.00     0.012 A 
ENDROOT
BRANCH   1   7
ATOM      7  C   UNL     1     -22.444  60.946  34.427  1.00  0.00     0.003 C 
ATOM      8  C   UNL     1     -20.373  61.931  35.326  1.00  0.00     0.035 C 
ATOM      9  C   UNL     1     -21.644  62.012  34.543  1.00  0.00    -0.030 C 
ENDBRANCH   1   7
BRANCH   3  10
ATOM     10  O   UNL     1     -27.344  60.283  34.370  1.00  0.00    -0.493 OA
ATOM     11  C   UNL     1     -28.045  61.170  35.237  1.00  0.00     0.278 C 
ENDBRANCH   3  10
BRANCH   4  12
ATOM     12  O   UNL     1     -27.408  60.894  31.635  1.00  0.00    -0.504 OA
ATOM     13  H   UNL     1     -27.593  61.528  30.866  1.00  0.00     0.293 HD
ENDBRANCH   4  12
TORSDOF 3
ENDMDL
MODEL 9
REMARK VINA RESULT:    -4.817      2.996      5.055
REMARK INTER + INTRA:          -5.681
REMARK INTER:                  -5.509
REMARK INTRA:                  -0.172
REMARK UNBOUND:                -0.160
REMARK SMILES CC=Cc1ccc(O)c(OC)c1
REMARK SMILES IDX 4 1 12 2 9 3 7 4 6 5 5 6 3 7 1 8 2 9 10 10 11 11 8 12
REMARK H PARENT 8 13
REMARK Flexibility Score: inf
ROOT
ATOM      1  C   UNL     1     -25.997  61.327  31.295  1.00  0.00    -0.022 A 
ATOM      2  C   UNL     1     -25.740  60.257  30.423  1.00  0.00     0.058 A 
ATOM      3  C   UNL     1     -24.914  60.426  29.294  1.00  0.00     0.161 A 
ATOM      4  C   UNL     1     -24.333  61.683  29.051  1.00  0.00     0.157 A 
ATOM      5  C   UNL     1     -24.573  62.745  29.925  1.00  0.00     0.051 A 
ATOM      6  C   UNL     1     -25.394  62.573  31.041  1.00  0.00     0.012 A 
ENDROOT
BRANCH   1   7
ATOM      7  C   UNL     1     -26.869  61.090  32.473  1.00  0.00     0.003 C 
ATOM      8  C   UNL     1     -27.448  61.085  34.868  1.00  0.00     0.035 C 
ATOM      9  C   UNL     1     -26.504  61.339  33.736  1.00  0.00    -0.030 C 
ENDBRANCH   1   7
BRANCH   3  10
ATOM     10  O   UNL     1     -24.649  59.374  28.401  1.00  0.00    -0.493 OA
ATOM     11  C   UNL     1     -23.611  58.414  28.567  1.00  0.00     0.278 C 
ENDBRANCH   3  10
BRANCH   4  12
ATOM     12  O   UNL     1     -23.508  61.894  27.946  1.00  0.00    -0.504 OA
ATOM     13  H   UNL     1     -23.794  62.467  27.160  1.00  0.00     0.293 HD
ENDBRANCH   4  12
TORSDOF 3
ENDMDL
