MODEL 1
REMARK VINA RESULT:    -3.287      0.000      0.000
REMARK INTER + INTRA:          -5.944
REMARK INTER:                  -5.209
REMARK INTRA:                  -0.735
REMARK UNBOUND:                -0.735
REMARK SMILES CCCCCCCCCCCC(=O)[O-]
REMARK SMILES IDX 7 1 8 2 9 3 10 4 11 5 12 6 13 7 14 8 6 9 5 10 4 11 3 12 2 13
REMARK SMILES IDX 1 14
REMARK H PARENT
REMARK Flexibility Score: inf
ROOT
ATOM      1  C   UNL     1       4.780 -19.109   6.440  1.00  0.00     0.000 C 
ENDROOT
BRANCH   1   2
ATOM      2  C   UNL     1       3.372 -19.412   5.908  1.00  0.00     0.000 C 
BRANCH   2   3
ATOM      3  C   UNL     1       2.785 -18.193   5.184  1.00  0.00     0.000 C 
BRANCH   3   4
ATOM      4  C   UNL     1       2.305 -18.566   3.776  1.00  0.00     0.006 C 
BRANCH   4   5
ATOM      5  C   UNL     1       3.231 -17.980   2.707  1.00  0.00     0.053 C 
BRANCH   5   6
ATOM      6  C   UNL     1       4.022 -19.066   2.048  1.00  0.00     0.041 C 
ATOM      7  O   UNL     1       3.749 -19.425   0.873  1.00  0.00    -0.550 OA
ATOM      8  O   UNL     1       5.094 -19.648   2.714  1.00  0.00    -0.550 OA
ENDBRANCH   5   6
ENDBRANCH   4   5
ENDBRANCH   3   4
ENDBRANCH   2   3
ENDBRANCH   1   2
BRANCH   1   9
ATOM      9  C   UNL     1       4.757 -18.385   7.797  1.00  0.00     0.000 C 
BRANCH   9  10
ATOM     10  C   UNL     1       5.728 -17.193   7.846  1.00  0.00    -0.000 C 
BRANCH  10  11
ATOM     11  C   UNL     1       5.054 -15.890   8.314  1.00  0.00    -0.000 C 
BRANCH  11  12
ATOM     12  C   UNL     1       4.416 -15.047   7.194  1.00  0.00    -0.000 C 
BRANCH  12  13
ATOM     13  C   UNL     1       4.900 -13.589   7.191  1.00  0.00    -0.003 C 
ATOM     14  C   UNL     1       6.350 -13.493   6.725  1.00  0.00     0.004 C 
ENDBRANCH  12  13
ENDBRANCH  11  12
ENDBRANCH  10  11
ENDBRANCH   9  10
ENDBRANCH   1   9
TORSDOF 10
ENDMDL
MODEL 2
REMARK VINA RESULT:    -3.127      3.313      5.178
REMARK INTER + INTRA:          -5.690
REMARK INTER:                  -4.565
REMARK INTRA:                  -1.125
REMARK UNBOUND:                -0.735
REMARK SMILES CCCCCCCCCCCC(=O)[O-]
REMARK SMILES IDX 7 1 8 2 9 3 10 4 11 5 12 6 13 7 14 8 6 9 5 10 4 11 3 12 2 13
REMARK SMILES IDX 1 14
REMARK H PARENT
REMARK Flexibility Score: inf
ROOT
ATOM      1  C   UNL     1       3.807 -20.037   2.224  1.00  0.00     0.000 C 
ENDROOT
BRANCH   1   2
ATOM      2  C   UNL     1       4.907 -20.590   3.143  1.00  0.00     0.000 C 
BRANCH   2   3
ATOM      3  C   UNL     1       5.926 -19.499   3.494  1.00  0.00     0.000 C 
BRANCH   3   4
ATOM      4  C   UNL     1       7.254 -20.112   3.955  1.00  0.00     0.006 C 
BRANCH   4   5
ATOM      5  C   UNL     1       8.331 -19.036   4.111  1.00  0.00     0.053 C 
BRANCH   5   6
ATOM      6  C   UNL     1       8.907 -18.673   2.779  1.00  0.00     0.041 C 
ATOM      7  O   UNL     1       9.311 -19.572   1.996  1.00  0.00    -0.550 OA
ATOM      8  O   UNL     1       8.951 -17.342   2.380  1.00  0.00    -0.550 OA
ENDBRANCH   5   6
ENDBRANCH   4   5
ENDBRANCH   3   4
ENDBRANCH   2   3
ENDBRANCH   1   2
BRANCH   1   9
ATOM      9  C   UNL     1       3.781 -18.500   2.188  1.00  0.00     0.000 C 
BRANCH   9  10
ATOM     10  C   UNL     1       2.685 -17.907   3.089  1.00  0.00    -0.000 C 
BRANCH  10  11
ATOM     11  C   UNL     1       1.753 -18.979   3.685  1.00  0.00    -0.000 C 
BRANCH  11  12
ATOM     12  C   UNL     1       1.957 -19.261   5.185  1.00  0.00    -0.000 C 
BRANCH  12  13
ATOM     13  C   UNL     1       2.871 -18.233   5.869  1.00  0.00    -0.003 C 
ATOM     14  C   UNL     1       4.021 -18.921   6.599  1.00  0.00     0.004 C 
ENDBRANCH  12  13
ENDBRANCH  11  12
ENDBRANCH  10  11
ENDBRANCH   9  10
ENDBRANCH   1   9
TORSDOF 10
ENDMDL
MODEL 3
REMARK VINA RESULT:    -3.093      4.904      6.372
REMARK INTER + INTRA:          -5.636
REMARK INTER:                  -4.336
REMARK INTRA:                  -1.300
REMARK UNBOUND:                -0.735
REMARK SMILES CCCCCCCCCCCC(=O)[O-]
REMARK SMILES IDX 7 1 8 2 9 3 10 4 11 5 12 6 13 7 14 8 6 9 5 10 4 11 3 12 2 13
REMARK SMILES IDX 1 14
REMARK H PARENT
REMARK Flexibility Score: inf
ROOT
ATOM      1  C   UNL     1      12.094 -16.487   6.276  1.00  0.00     0.000 C 
ENDROOT
BRANCH   1   2
ATOM      2  C   UNL     1      11.695 -15.388   5.280  1.00  0.00     0.000 C 
BRANCH   2   3
ATOM      3  C   UNL     1      10.438 -15.787   4.497  1.00  0.00     0.000 C 
BRANCH   3   4
ATOM      4  C   UNL     1      10.401 -17.300   4.248  1.00  0.00     0.006 C 
BRANCH   4   5
ATOM      5  C   UNL     1       9.016 -17.744   3.770  1.00  0.00     0.053 C 
BRANCH   5   6
ATOM      6  C   UNL     1       9.139 -18.724   2.645  1.00  0.00     0.041 C 
ATOM      7  O   UNL     1       8.457 -19.782   2.648  1.00  0.00    -0.550 OA
ATOM      8  O   UNL     1       9.971 -18.444   1.568  1.00  0.00    -0.550 OA
ENDBRANCH   5   6
ENDBRANCH   4   5
ENDBRANCH   3   4
ENDBRANCH   2   3
ENDBRANCH   1   2
BRANCH   1   9
ATOM      9  C   UNL     1      11.932 -16.047   7.740  1.00  0.00     0.000 C 
BRANCH   9  10
ATOM     10  C   UNL     1      11.374 -14.620   7.869  1.00  0.00    -0.000 C 
BRANCH  10  11
ATOM     11  C   UNL     1       9.963 -14.580   8.485  1.00  0.00    -0.000 C 
BRANCH  11  12
ATOM     12  C   UNL     1       8.806 -14.656   7.471  1.00  0.00    -0.000 C 
BRANCH  12  13
ATOM     13  C   UNL     1       8.169 -16.052   7.391  1.00  0.00    -0.003 C 
ATOM     14  C   UNL     1       8.359 -16.817   8.698  1.00  0.00     0.004 C 
ENDBRANCH  12  13
ENDBRANCH  11  12
ENDBRANCH  10  11
ENDBRANCH   9  10
ENDBRANCH   1   9
TORSDOF 10
ENDMDL
MODEL 4
REMARK VINA RESULT:    -3.062      4.943      6.454
REMARK INTER + INTRA:          -5.586
REMARK INTER:                  -4.255
REMARK INTRA:                  -1.331
REMARK UNBOUND:                -0.735
REMARK SMILES CCCCCCCCCCCC(=O)[O-]
REMARK SMILES IDX 7 1 8 2 9 3 10 4 11 5 12 6 13 7 14 8 6 9 5 10 4 11 3 12 2 13
REMARK SMILES IDX 1 14
REMARK H PARENT
REMARK Flexibility Score: inf
ROOT
ATOM      1  C   UNL     1       8.306 -15.612   7.596  1.00  0.00     0.000 C 
ENDROOT
BRANCH   1   2
ATOM      2  C   UNL     1       8.921 -16.635   6.630  1.00  0.00     0.000 C 
BRANCH   2   3
ATOM      3  C   UNL     1       9.781 -15.938   5.568  1.00  0.00     0.000 C 
BRANCH   3   4
ATOM      4  C   UNL     1      10.075 -16.878   4.393  1.00  0.00     0.006 C 
BRANCH   4   5
ATOM      5  C   UNL     1       9.151 -18.099   4.421  1.00  0.00     0.053 C 
BRANCH   5   6
ATOM      6  C   UNL     1       8.594 -18.367   3.059  1.00  0.00     0.041 C 
ATOM      7  O   UNL     1       7.518 -19.006   2.927  1.00  0.00    -0.550 OA
ATOM      8  O   UNL     1       9.240 -17.868   1.934  1.00  0.00    -0.550 OA
ENDBRANCH   5   6
ENDBRANCH   4   5
ENDBRANCH   3   4
ENDBRANCH   2   3
ENDBRANCH   1   2
BRANCH   1   9
ATOM      9  C   UNL     1       9.262 -14.451   7.917  1.00  0.00     0.000 C 
BRANCH   9  10
ATOM     10  C   UNL     1      10.317 -14.830   8.969  1.00  0.00    -0.000 C 
BRANCH  10  11
ATOM     11  C   UNL     1      11.748 -14.448   8.548  1.00  0.00    -0.000 C 
BRANCH  11  12
ATOM     12  C   UNL     1      12.603 -15.610   8.011  1.00  0.00    -0.000 C 
BRANCH  12  13
ATOM     13  C   UNL     1      12.118 -16.985   8.495  1.00  0.00    -0.003 C 
ATOM     14  C   UNL     1      12.291 -18.042   7.408  1.00  0.00     0.004 C 
ENDBRANCH  12  13
ENDBRANCH  11  12
ENDBRANCH  10  11
ENDBRANCH   9  10
ENDBRANCH   1   9
TORSDOF 10
ENDMDL
MODEL 5
REMARK VINA RESULT:    -3.061      4.492      5.867
REMARK INTER + INTRA:          -5.585
REMARK INTER:                  -4.535
REMARK INTRA:                  -1.051
REMARK UNBOUND:                -0.735
REMARK SMILES CCCCCCCCCCCC(=O)[O-]
REMARK SMILES IDX 7 1 8 2 9 3 10 4 11 5 12 6 13 7 14 8 6 9 5 10 4 11 3 12 2 13
REMARK SMILES IDX 1 14
REMARK H PARENT
REMARK Flexibility Score: inf
ROOT
ATOM      1  C   UNL     1       9.249 -16.149  10.200  1.00  0.00     0.000 C 
ENDROOT
BRANCH   1   2
ATOM      2  C   UNL     1       9.669 -16.362   8.738  1.00  0.00     0.000 C 
BRANCH   2   3
ATOM      3  C   UNL     1       9.813 -15.021   8.008  1.00  0.00     0.000 C 
BRANCH   3   4
ATOM      4  C   UNL     1       9.165 -15.077   6.619  1.00  0.00     0.006 C 
BRANCH   4   5
ATOM      5  C   UNL     1       9.240 -16.490   6.035  1.00  0.00     0.053 C 
BRANCH   5   6
ATOM      6  C   UNL     1      10.154 -16.519   4.850  1.00  0.00     0.041 C 
ATOM      7  O   UNL     1      10.576 -17.617   4.402  1.00  0.00    -0.550 OA
ATOM      8  O   UNL     1      10.501 -15.335   4.211  1.00  0.00    -0.550 OA
ENDBRANCH   5   6
ENDBRANCH   4   5
ENDBRANCH   3   4
ENDBRANCH   2   3
ENDBRANCH   1   2
BRANCH   1   9
ATOM      9  C   UNL     1       7.840 -16.687  10.496  1.00  0.00     0.000 C 
BRANCH   9  10
ATOM     10  C   UNL     1       7.243 -17.462   9.309  1.00  0.00    -0.000 C 
BRANCH  10  11
ATOM     11  C   UNL     1       5.916 -16.863   8.807  1.00  0.00    -0.000 C 
BRANCH  11  12
ATOM     12  C   UNL     1       6.062 -15.656   7.861  1.00  0.00    -0.000 C 
BRANCH  12  13
ATOM     13  C   UNL     1       4.742 -14.900   7.647  1.00  0.00    -0.003 C 
ATOM     14  C   UNL     1       4.991 -13.522   7.040  1.00  0.00     0.004 C 
ENDBRANCH  12  13
ENDBRANCH  11  12
ENDBRANCH  10  11
ENDBRANCH   9  10
ENDBRANCH   1   9
TORSDOF 10
ENDMDL
MODEL 6
REMARK VINA RESULT:    -3.037      3.711      5.653
REMARK INTER + INTRA:          -5.546
REMARK INTER:                  -4.298
REMARK INTRA:                  -1.248
REMARK UNBOUND:                -0.735
REMARK SMILES CCCCCCCCCCCC(=O)[O-]
REMARK SMILES IDX 7 1 8 2 9 3 10 4 11 5 12 6 13 7 14 8 6 9 5 10 4 11 3 12 2 13
REMARK SMILES IDX 1 14
REMARK H PARENT
REMARK Flexibility Score: inf
ROOT
ATOM      1  C   UNL     1       3.789 -20.512   5.494  1.00  0.00     0.000 C 
ENDROOT
BRANCH   1   2
ATOM      2  C   UNL     1       5.063 -20.905   4.731  1.00  0.00     0.000 C 
BRANCH   2   3
ATOM      3  C   UNL     1       6.173 -19.869   4.949  1.00  0.00     0.000 C 
BRANCH   3   4
ATOM      4  C   UNL     1       6.933 -19.593   3.647  1.00  0.00     0.006 C 
BRANCH   4   5
ATOM      5  C   UNL     1       8.432 -19.421   3.911  1.00  0.00     0.053 C 
BRANCH   5   6
ATOM      6  C   UNL     1       8.863 -18.025   3.592  1.00  0.00     0.041 C 
ATOM      7  O   UNL     1       9.211 -17.242   4.514  1.00  0.00    -0.550 OA
ATOM      8  O   UNL     1       8.929 -17.603   2.270  1.00  0.00    -0.550 OA
ENDBRANCH   5   6
ENDBRANCH   4   5
ENDBRANCH   3   4
ENDBRANCH   2   3
ENDBRANCH   1   2
BRANCH   1   9
ATOM      9  C   UNL     1       3.444 -19.021   5.344  1.00  0.00     0.000 C 
BRANCH   9  10
ATOM     10  C   UNL     1       2.389 -18.767   4.255  1.00  0.00    -0.000 C 
BRANCH  10  11
ATOM     11  C   UNL     1       2.899 -17.850   3.128  1.00  0.00    -0.000 C 
BRANCH  11  12
ATOM     12  C   UNL     1       3.750 -18.551   2.051  1.00  0.00    -0.000 C 
BRANCH  12  13
ATOM     13  C   UNL     1       2.975 -19.635   1.287  1.00  0.00    -0.003 C 
ATOM     14  C   UNL     1       3.636 -21.000   1.451  1.00  0.00     0.004 C 
ENDBRANCH  12  13
ENDBRANCH  11  12
ENDBRANCH  10  11
ENDBRANCH   9  10
ENDBRANCH   1   9
TORSDOF 10
ENDMDL
MODEL 7
REMARK VINA RESULT:    -2.991      3.701      5.257
REMARK INTER + INTRA:          -5.474
REMARK INTER:                  -3.856
REMARK INTRA:                  -1.618
REMARK UNBOUND:                -0.735
REMARK SMILES CCCCCCCCCCCC(=O)[O-]
REMARK SMILES IDX 7 1 8 2 9 3 10 4 11 5 12 6 13 7 14 8 6 9 5 10 4 11 3 12 2 13
REMARK SMILES IDX 1 14
REMARK H PARENT
REMARK Flexibility Score: inf
ROOT
ATOM      1  C   UNL     1       2.761 -20.764   5.439  1.00  0.00     0.000 C 
ENDROOT
BRANCH   1   2
ATOM      2  C   UNL     1       4.280 -20.607   5.276  1.00  0.00     0.000 C 
BRANCH   2   3
ATOM      3  C   UNL     1       4.840 -21.666   4.317  1.00  0.00     0.000 C 
BRANCH   3   4
ATOM      4  C   UNL     1       6.006 -21.103   3.495  1.00  0.00     0.006 C 
BRANCH   4   5
ATOM      5  C   UNL     1       6.562 -19.827   4.132  1.00  0.00     0.053 C 
BRANCH   5   6
ATOM      6  C   UNL     1       7.894 -19.485   3.542  1.00  0.00     0.041 C 
ATOM      7  O   UNL     1       8.435 -20.255   2.708  1.00  0.00    -0.550 OA
ATOM      8  O   UNL     1       8.515 -18.288   3.878  1.00  0.00    -0.550 OA
ENDBRANCH   5   6
ENDBRANCH   4   5
ENDBRANCH   3   4
ENDBRANCH   2   3
ENDBRANCH   1   2
BRANCH   1   9
ATOM      9  C   UNL     1       2.012 -19.425   5.335  1.00  0.00     0.000 C 
BRANCH   9  10
ATOM     10  C   UNL     1       2.870 -18.317   4.700  1.00  0.00    -0.000 C 
BRANCH  10  11
ATOM     11  C   UNL     1       2.536 -18.075   3.217  1.00  0.00    -0.000 C 
BRANCH  11  12
ATOM     12  C   UNL     1       3.721 -18.237   2.247  1.00  0.00    -0.000 C 
BRANCH  12  13
ATOM     13  C   UNL     1       3.574 -19.452   1.317  1.00  0.00    -0.003 C 
ATOM     14  C   UNL     1       2.356 -20.289   1.697  1.00  0.00     0.004 C 
ENDBRANCH  12  13
ENDBRANCH  11  12
ENDBRANCH  10  11
ENDBRANCH   9  10
ENDBRANCH   1   9
TORSDOF 10
ENDMDL
MODEL 8
REMARK VINA RESULT:    -2.938      4.223      5.997
REMARK INTER + INTRA:          -5.390
REMARK INTER:                  -4.189
REMARK INTRA:                  -1.201
REMARK UNBOUND:                -0.735
REMARK SMILES CCCCCCCCCCCC(=O)[O-]
REMARK SMILES IDX 7 1 8 2 9 3 10 4 11 5 12 6 13 7 14 8 6 9 5 10 4 11 3 12 2 13
REMARK SMILES IDX 1 14
REMARK H PARENT
REMARK Flexibility Score: inf
ROOT
ATOM      1  C   UNL     1      11.191 -15.156   7.077  1.00  0.00     0.000 C 
ENDROOT
BRANCH   1   2
ATOM      2  C   UNL     1      11.113 -16.596   6.551  1.00  0.00     0.000 C 
BRANCH   2   3
ATOM      3  C   UNL     1      11.347 -16.640   5.036  1.00  0.00     0.000 C 
BRANCH   3   4
ATOM      4  C   UNL     1      10.025 -16.516   4.270  1.00  0.00     0.006 C 
BRANCH   4   5
ATOM      5  C   UNL     1       9.211 -17.809   4.367  1.00  0.00     0.053 C 
BRANCH   5   6
ATOM      6  C   UNL     1       8.671 -18.191   3.025  1.00  0.00     0.041 C 
ATOM      7  O   UNL     1       9.299 -17.886   1.978  1.00  0.00    -0.550 OA
ATOM      8  O   UNL     1       7.497 -18.928   2.933  1.00  0.00    -0.550 OA
ENDBRANCH   5   6
ENDBRANCH   4   5
ENDBRANCH   3   4
ENDBRANCH   2   3
ENDBRANCH   1   2
BRANCH   1   9
ATOM      9  C   UNL     1       9.939 -14.745   7.869  1.00  0.00     0.000 C 
BRANCH   9  10
ATOM     10  C   UNL     1       8.647 -14.892   7.048  1.00  0.00    -0.000 C 
BRANCH  10  11
ATOM     11  C   UNL     1       7.568 -15.722   7.769  1.00  0.00    -0.000 C 
BRANCH  11  12
ATOM     12  C   UNL     1       7.720 -17.249   7.635  1.00  0.00    -0.000 C 
BRANCH  12  13
ATOM     13  C   UNL     1       8.099 -17.932   8.957  1.00  0.00    -0.003 C 
ATOM     14  C   UNL     1       7.946 -16.973  10.134  1.00  0.00     0.004 C 
ENDBRANCH  12  13
ENDBRANCH  11  12
ENDBRANCH  10  11
ENDBRANCH   9  10
ENDBRANCH   1   9
TORSDOF 10
ENDMDL
MODEL 9
REMARK VINA RESULT:    -2.876      3.218      5.674
REMARK INTER + INTRA:          -5.292
REMARK INTER:                  -3.680
REMARK INTRA:                  -1.612
REMARK UNBOUND:                -0.735
REMARK SMILES CCCCCCCCCCCC(=O)[O-]
REMARK SMILES IDX 7 1 8 2 9 3 10 4 11 5 12 6 13 7 14 8 6 9 5 10 4 11 3 12 2 13
REMARK SMILES IDX 1 14
REMARK H PARENT
REMARK Flexibility Score: inf
ROOT
ATOM      1  C   UNL     1       1.051 -21.041   3.636  1.00  0.00     0.000 C 
ENDROOT
BRANCH   1   2
ATOM      2  C   UNL     1       0.760 -20.212   4.896  1.00  0.00     0.000 C 
BRANCH   2   3
ATOM      3  C   UNL     1       1.926 -20.295   5.889  1.00  0.00     0.000 C 
BRANCH   3   4
ATOM      4  C   UNL     1       2.040 -19.008   6.715  1.00  0.00     0.006 C 
BRANCH   4   5
ATOM      5  C   UNL     1       3.352 -18.278   6.416  1.00  0.00     0.053 C 
BRANCH   5   6
ATOM      6  C   UNL     1       4.455 -18.808   7.278  1.00  0.00     0.041 C 
ATOM      7  O   UNL     1       5.543 -19.175   6.762  1.00  0.00    -0.550 OA
ATOM      8  O   UNL     1       4.298 -18.851   8.658  1.00  0.00    -0.550 OA
ENDBRANCH   5   6
ENDBRANCH   4   5
ENDBRANCH   3   4
ENDBRANCH   2   3
ENDBRANCH   1   2
BRANCH   1   9
ATOM      9  C   UNL     1       1.439 -20.169   2.430  1.00  0.00     0.000 C 
BRANCH   9  10
ATOM     10  C   UNL     1       1.438 -18.668   2.762  1.00  0.00    -0.000 C 
BRANCH  10  11
ATOM     11  C   UNL     1       2.849 -18.052   2.763  1.00  0.00    -0.000 C 
BRANCH  11  12
ATOM     12  C   UNL     1       3.956 -18.957   2.190  1.00  0.00    -0.000 C 
BRANCH  12  13
ATOM     13  C   UNL     1       4.986 -19.387   3.246  1.00  0.00    -0.003 C 
ATOM     14  C   UNL     1       4.854 -20.873   3.567  1.00  0.00     0.004 C 
ENDBRANCH  12  13
ENDBRANCH  11  12
ENDBRANCH  10  11
ENDBRANCH   9  10
ENDBRANCH   1   9
TORSDOF 10
ENDMDL
