MODEL 1
REMARK VINA RESULT:    -4.438      0.000      0.000
REMARK INTER + INTRA:         -10.656
REMARK INTER:                  -9.627
REMARK INTRA:                  -1.029
REMARK UNBOUND:                -1.029
REMARK SMILES CCCCCCCCCCCCCCCCCCCCCC(=O)[O-]
REMARK SMILES IDX 12 1 11 2 10 3 9 4 8 5 7 6 6 7 5 8 4 9 3 10 2 11 1 12 13 13
REMARK SMILES IDX 14 14 15 15 16 16 17 17 18 18 19 19 20 20 21 21 22 22 23 23
REMARK SMILES IDX 24 24
REMARK H PARENT
REMARK Flexibility Score: inf
ROOT
ATOM      1  C   UNL     1      -4.532  19.422  14.884  1.00  0.00     0.000 C 
ENDROOT
BRANCH   1   2
ATOM      2  C   UNL     1      -6.051  19.357  15.125  1.00  0.00     0.000 C 
BRANCH   2   3
ATOM      3  C   UNL     1      -6.872  20.474  14.453  1.00  0.00     0.000 C 
BRANCH   3   4
ATOM      4  C   UNL     1      -8.291  20.606  15.026  1.00  0.00    -0.000 C 
BRANCH   4   5
ATOM      5  C   UNL     1      -9.192  21.419  14.084  1.00  0.00    -0.000 C 
BRANCH   5   6
ATOM      6  C   UNL     1      -9.244  22.913  14.472  1.00  0.00    -0.000 C 
BRANCH   6   7
ATOM      7  C   UNL     1      -8.183  23.773  13.767  1.00  0.00    -0.000 C 
BRANCH   7   8
ATOM      8  C   UNL     1      -7.606  24.871  14.675  1.00  0.00    -0.000 C 
BRANCH   8   9
ATOM      9  C   UNL     1      -8.090  26.281  14.294  1.00  0.00    -0.000 C 
BRANCH   9  10
ATOM     10  C   UNL     1      -9.219  26.332  13.244  1.00  0.00    -0.000 C 
BRANCH  10  11
ATOM     11  C   UNL     1      -9.408  27.695  12.555  1.00  0.00    -0.003 C 
ATOM     12  C   UNL     1      -8.556  28.799  13.180  1.00  0.00     0.004 C 
ENDBRANCH  10  11
ENDBRANCH   9  10
ENDBRANCH   8   9
ENDBRANCH   7   8
ENDBRANCH   6   7
ENDBRANCH   5   6
ENDBRANCH   4   5
ENDBRANCH   3   4
ENDBRANCH   2   3
ENDBRANCH   1   2
BRANCH   1  13
ATOM     13  C   UNL     1      -4.114  18.847  13.521  1.00  0.00     0.000 C 
BRANCH  13  14
ATOM     14  C   UNL     1      -2.726  18.181  13.554  1.00  0.00     0.000 C 
BRANCH  14  15
ATOM     15  C   UNL     1      -2.717  16.697  13.977  1.00  0.00     0.000 C 
BRANCH  15  16
ATOM     16  C   UNL     1      -1.328  16.116  14.295  1.00  0.00     0.000 C 
BRANCH  16  17
ATOM     17  C   UNL     1      -0.631  15.526  13.060  1.00  0.00     0.000 C 
BRANCH  17  18
ATOM     18  C   UNL     1      -1.640  14.830  12.139  1.00  0.00     0.000 C 
BRANCH  18  19
ATOM     19  C   UNL     1      -1.995  13.432  12.670  1.00  0.00     0.000 C 
BRANCH  19  20
ATOM     20  C   UNL     1      -1.068  12.336  12.124  1.00  0.00     0.006 C 
BRANCH  20  21
ATOM     21  C   UNL     1      -0.777  12.499  10.627  1.00  0.00     0.053 C 
BRANCH  21  22
ATOM     22  C   UNL     1      -1.673  11.612   9.822  1.00  0.00     0.041 C 
ATOM     23  O   UNL     1      -2.427  10.782  10.397  1.00  0.00    -0.550 OA
ATOM     24  O   UNL     1      -1.713  11.734   8.440  1.00  0.00    -0.550 OA
ENDBRANCH  21  22
ENDBRANCH  20  21
ENDBRANCH  19  20
ENDBRANCH  18  19
ENDBRANCH  17  18
ENDBRANCH  16  17
ENDBRANCH  15  16
ENDBRANCH  14  15
ENDBRANCH  13  14
ENDBRANCH   1  13
TORSDOF 20
ENDMDL
MODEL 2
REMARK VINA RESULT:    -4.178      1.176      1.937
REMARK INTER + INTRA:         -10.092
REMARK INTER:                  -8.570
REMARK INTRA:                  -1.523
REMARK UNBOUND:                -1.029
REMARK SMILES CCCCCCCCCCCCCCCCCCCCCC(=O)[O-]
REMARK SMILES IDX 12 1 11 2 10 3 9 4 8 5 7 6 6 7 5 8 4 9 3 10 2 11 1 12 13 13
REMARK SMILES IDX 14 14 15 15 16 16 17 17 18 18 19 19 20 20 21 21 22 22 23 23
REMARK SMILES IDX 24 24
REMARK H PARENT
REMARK Flexibility Score: inf
ROOT
ATOM      1  C   UNL     1      -3.561  18.372  13.406  1.00  0.00     0.000 C 
ENDROOT
BRANCH   1   2
ATOM      2  C   UNL     1      -4.032  18.911  14.769  1.00  0.00     0.000 C 
BRANCH   2   3
ATOM      3  C   UNL     1      -5.558  19.031  14.937  1.00  0.00     0.000 C 
BRANCH   3   4
ATOM      4  C   UNL     1      -6.070  20.470  14.777  1.00  0.00    -0.000 C 
BRANCH   4   5
ATOM      5  C   UNL     1      -7.545  20.487  14.347  1.00  0.00    -0.000 C 
BRANCH   5   6
ATOM      6  C   UNL     1      -8.328  21.649  14.995  1.00  0.00    -0.000 C 
BRANCH   6   7
ATOM      7  C   UNL     1      -8.909  22.647  13.978  1.00  0.00    -0.000 C 
BRANCH   7   8
ATOM      8  C   UNL     1      -9.174  24.032  14.589  1.00  0.00    -0.000 C 
BRANCH   8   9
ATOM      9  C   UNL     1      -7.917  24.918  14.637  1.00  0.00    -0.000 C 
BRANCH   9  10
ATOM     10  C   UNL     1      -8.050  26.293  13.953  1.00  0.00    -0.000 C 
BRANCH  10  11
ATOM     11  C   UNL     1      -9.273  26.448  13.032  1.00  0.00    -0.003 C 
ATOM     12  C   UNL     1      -9.629  27.908  12.756  1.00  0.00     0.004 C 
ENDBRANCH  10  11
ENDBRANCH   9  10
ENDBRANCH   8   9
ENDBRANCH   7   8
ENDBRANCH   6   7
ENDBRANCH   5   6
ENDBRANCH   4   5
ENDBRANCH   3   4
ENDBRANCH   2   3
ENDBRANCH   1   2
BRANCH   1  13
ATOM     13  C   UNL     1      -2.193  18.929  12.979  1.00  0.00     0.000 C 
BRANCH  13  14
ATOM     14  C   UNL     1      -1.049  18.482  13.907  1.00  0.00     0.000 C 
BRANCH  14  15
ATOM     15  C   UNL     1       0.117  17.750  13.211  1.00  0.00     0.000 C 
BRANCH  15  16
ATOM     16  C   UNL     1      -0.106  16.246  12.971  1.00  0.00     0.000 C 
BRANCH  16  17
ATOM     17  C   UNL     1      -1.076  15.619  13.983  1.00  0.00     0.000 C 
BRANCH  17  18
ATOM     18  C   UNL     1      -2.125  14.752  13.277  1.00  0.00     0.000 C 
BRANCH  18  19
ATOM     19  C   UNL     1      -1.996  14.869  11.750  1.00  0.00     0.000 C 
BRANCH  19  20
ATOM     20  C   UNL     1      -1.739  13.515  11.071  1.00  0.00     0.006 C 
BRANCH  20  21
ATOM     21  C   UNL     1      -2.043  12.325  11.989  1.00  0.00     0.053 C 
BRANCH  21  22
ATOM     22  C   UNL     1      -3.069  11.433  11.364  1.00  0.00     0.041 C 
ATOM     23  O   UNL     1      -2.716  10.377  10.775  1.00  0.00    -0.550 OA
ATOM     24  O   UNL     1      -4.418  11.741  11.475  1.00  0.00    -0.550 OA
ENDBRANCH  21  22
ENDBRANCH  20  21
ENDBRANCH  19  20
ENDBRANCH  18  19
ENDBRANCH  17  18
ENDBRANCH  16  17
ENDBRANCH  15  16
ENDBRANCH  14  15
ENDBRANCH  13  14
ENDBRANCH   1  13
TORSDOF 20
ENDMDL
MODEL 3
REMARK VINA RESULT:    -3.802      5.708     11.205
REMARK INTER + INTRA:          -9.277
REMARK INTER:                  -5.951
REMARK INTRA:                  -3.326
REMARK UNBOUND:                -1.029
REMARK SMILES CCCCCCCCCCCCCCCCCCCCCC(=O)[O-]
REMARK SMILES IDX 12 1 11 2 10 3 9 4 8 5 7 6 6 7 5 8 4 9 3 10 2 11 1 12 13 13
REMARK SMILES IDX 14 14 15 15 16 16 17 17 18 18 19 19 20 20 21 21 22 22 23 23
REMARK SMILES IDX 24 24
REMARK H PARENT
REMARK Flexibility Score: inf
ROOT
ATOM      1  C   UNL     1      -2.870  13.106  10.601  1.00  0.00     0.000 C 
ENDROOT
BRANCH   1   2
ATOM      2  C   UNL     1      -2.136  12.108   9.687  1.00  0.00     0.000 C 
BRANCH   2   3
ATOM      3  C   UNL     1      -0.671  11.824  10.068  1.00  0.00     0.000 C 
BRANCH   3   4
ATOM      4  C   UNL     1      -0.350  10.323  10.145  1.00  0.00    -0.000 C 
BRANCH   4   5
ATOM      5  C   UNL     1      -0.074   9.892  11.593  1.00  0.00    -0.000 C 
BRANCH   5   6
ATOM      6  C   UNL     1      -1.354   9.895  12.456  1.00  0.00    -0.000 C 
BRANCH   6   7
ATOM      7  C   UNL     1      -1.082   9.849  13.969  1.00  0.00    -0.000 C 
BRANCH   7   8
ATOM      8  C   UNL     1      -2.108  10.652  14.784  1.00  0.00    -0.000 C 
BRANCH   8   9
ATOM      9  C   UNL     1      -3.509  10.013  14.779  1.00  0.00    -0.000 C 
BRANCH   9  10
ATOM     10  C   UNL     1      -4.680  10.989  14.547  1.00  0.00    -0.000 C 
BRANCH  10  11
ATOM     11  C   UNL     1      -4.794  11.542  13.115  1.00  0.00    -0.003 C 
ATOM     12  C   UNL     1      -4.928  10.441  12.063  1.00  0.00     0.004 C 
ENDBRANCH  10  11
ENDBRANCH   9  10
ENDBRANCH   8   9
ENDBRANCH   7   8
ENDBRANCH   6   7
ENDBRANCH   5   6
ENDBRANCH   4   5
ENDBRANCH   3   4
ENDBRANCH   2   3
ENDBRANCH   1   2
BRANCH   1  13
ATOM     13  C   UNL     1      -1.915  14.045  11.356  1.00  0.00     0.000 C 
BRANCH  13  14
ATOM     14  C   UNL     1      -1.850  13.743  12.865  1.00  0.00     0.000 C 
BRANCH  14  15
ATOM     15  C   UNL     1      -0.427  13.618  13.450  1.00  0.00     0.000 C 
BRANCH  15  16
ATOM     16  C   UNL     1      -0.116  14.571  14.618  1.00  0.00     0.000 C 
BRANCH  16  17
ATOM     17  C   UNL     1      -1.145  15.702  14.754  1.00  0.00     0.000 C 
BRANCH  17  18
ATOM     18  C   UNL     1      -0.564  17.037  14.271  1.00  0.00     0.000 C 
BRANCH  18  19
ATOM     19  C   UNL     1      -0.851  17.253  12.778  1.00  0.00     0.000 C 
BRANCH  19  20
ATOM     20  C   UNL     1      -2.339  17.510  12.491  1.00  0.00     0.006 C 
BRANCH  20  21
ATOM     21  C   UNL     1      -2.867  18.770  13.187  1.00  0.00     0.053 C 
BRANCH  21  22
ATOM     22  C   UNL     1      -4.134  18.467  13.922  1.00  0.00     0.041 C 
ATOM     23  O   UNL     1      -5.125  19.237  13.821  1.00  0.00    -0.550 OA
ATOM     24  O   UNL     1      -4.237  17.308  14.680  1.00  0.00    -0.550 OA
ENDBRANCH  21  22
ENDBRANCH  20  21
ENDBRANCH  19  20
ENDBRANCH  18  19
ENDBRANCH  17  18
ENDBRANCH  16  17
ENDBRANCH  15  16
ENDBRANCH  14  15
ENDBRANCH  13  14
ENDBRANCH   1  13
TORSDOF 20
ENDMDL
MODEL 4
REMARK VINA RESULT:    -3.709     17.888     20.525
REMARK INTER + INTRA:          -9.074
REMARK INTER:                  -6.675
REMARK INTRA:                  -2.399
REMARK UNBOUND:                -1.029
REMARK SMILES CCCCCCCCCCCCCCCCCCCCCC(=O)[O-]
REMARK SMILES IDX 12 1 11 2 10 3 9 4 8 5 7 6 6 7 5 8 4 9 3 10 2 11 1 12 13 13
REMARK SMILES IDX 14 14 15 15 16 16 17 17 18 18 19 19 20 20 21 21 22 22 23 23
REMARK SMILES IDX 24 24
REMARK H PARENT
REMARK Flexibility Score: inf
ROOT
ATOM      1  C   UNL     1     -18.961  13.501   1.626  1.00  0.00     0.000 C 
ENDROOT
BRANCH   1   2
ATOM      2  C   UNL     1     -19.670  12.139   1.740  1.00  0.00     0.000 C 
BRANCH   2   3
ATOM      3  C   UNL     1     -19.690  11.298   0.450  1.00  0.00     0.000 C 
BRANCH   3   4
ATOM      4  C   UNL     1     -18.318  10.705   0.097  1.00  0.00    -0.000 C 
BRANCH   4   5
ATOM      5  C   UNL     1     -18.103   9.357   0.801  1.00  0.00    -0.000 C 
BRANCH   5   6
ATOM      6  C   UNL     1     -16.704   9.253   1.448  1.00  0.00    -0.000 C 
BRANCH   6   7
ATOM      7  C   UNL     1     -16.739   9.115   2.979  1.00  0.00    -0.000 C 
BRANCH   7   8
ATOM      8  C   UNL     1     -16.970  10.456   3.693  1.00  0.00    -0.000 C 
BRANCH   8   9
ATOM      9  C   UNL     1     -15.704  10.993   4.385  1.00  0.00    -0.000 C 
BRANCH   9  10
ATOM     10  C   UNL     1     -14.488  10.045   4.368  1.00  0.00    -0.000 C 
BRANCH  10  11
ATOM     11  C   UNL     1     -13.683   9.994   5.679  1.00  0.00    -0.003 C 
ATOM     12  C   UNL     1     -12.541  11.008   5.714  1.00  0.00     0.004 C 
ENDBRANCH  10  11
ENDBRANCH   9  10
ENDBRANCH   8   9
ENDBRANCH   7   8
ENDBRANCH   6   7
ENDBRANCH   5   6
ENDBRANCH   4   5
ENDBRANCH   3   4
ENDBRANCH   2   3
ENDBRANCH   1   2
BRANCH   1  13
ATOM     13  C   UNL     1     -19.582  14.416   0.558  1.00  0.00     0.000 C 
BRANCH  13  14
ATOM     14  C   UNL     1     -18.623  14.707  -0.611  1.00  0.00     0.000 C 
BRANCH  14  15
ATOM     15  C   UNL     1     -19.133  14.279  -2.003  1.00  0.00     0.000 C 
BRANCH  15  16
ATOM     16  C   UNL     1     -18.430  13.049  -2.606  1.00  0.00     0.000 C 
BRANCH  16  17
ATOM     17  C   UNL     1     -18.173  13.190  -4.114  1.00  0.00     0.000 C 
BRANCH  17  18
ATOM     18  C   UNL     1     -16.740  12.776  -4.469  1.00  0.00     0.000 C 
BRANCH  18  19
ATOM     19  C   UNL     1     -16.040  12.131  -3.263  1.00  0.00     0.000 C 
BRANCH  19  20
ATOM     20  C   UNL     1     -15.826  10.620  -3.439  1.00  0.00     0.006 C 
BRANCH  20  21
ATOM     21  C   UNL     1     -15.495   9.911  -2.121  1.00  0.00     0.053 C 
BRANCH  21  22
ATOM     22  C   UNL     1     -14.014   9.765  -1.965  1.00  0.00     0.041 C 
ATOM     23  O   UNL     1     -13.235  10.227  -2.840  1.00  0.00    -0.550 OA
ATOM     24  O   UNL     1     -13.491   9.162  -0.828  1.00  0.00    -0.550 OA
ENDBRANCH  21  22
ENDBRANCH  20  21
ENDBRANCH  19  20
ENDBRANCH  18  19
ENDBRANCH  17  18
ENDBRANCH  16  17
ENDBRANCH  15  16
ENDBRANCH  14  15
ENDBRANCH  13  14
ENDBRANCH   1  13
TORSDOF 20
ENDMDL
MODEL 5
REMARK VINA RESULT:    -3.706     16.118     18.858
REMARK INTER + INTRA:          -9.068
REMARK INTER:                  -6.765
REMARK INTRA:                  -2.303
REMARK UNBOUND:                -1.029
REMARK SMILES CCCCCCCCCCCCCCCCCCCCCC(=O)[O-]
REMARK SMILES IDX 12 1 11 2 10 3 9 4 8 5 7 6 6 7 5 8 4 9 3 10 2 11 1 12 13 13
REMARK SMILES IDX 14 14 15 15 16 16 17 17 18 18 19 19 20 20 21 21 22 22 23 23
REMARK SMILES IDX 24 24
REMARK H PARENT
REMARK Flexibility Score: inf
ROOT
ATOM      1  C   UNL     1     -12.920   9.905   3.794  1.00  0.00     0.000 C 
ENDROOT
BRANCH   1   2
ATOM      2  C   UNL     1     -12.764  10.365   5.255  1.00  0.00     0.000 C 
BRANCH   2   3
ATOM      3  C   UNL     1     -13.098   9.302   6.318  1.00  0.00     0.000 C 
BRANCH   3   4
ATOM      4  C   UNL     1     -14.321   9.668   7.172  1.00  0.00    -0.000 C 
BRANCH   4   5
ATOM      5  C   UNL     1     -14.808  11.090   6.857  1.00  0.00    -0.000 C 
BRANCH   5   6
ATOM      6  C   UNL     1     -16.347  11.204   6.906  1.00  0.00    -0.000 C 
BRANCH   6   7
ATOM      7  C   UNL     1     -17.075   9.872   6.663  1.00  0.00    -0.000 C 
BRANCH   7   8
ATOM      8  C   UNL     1     -17.899   9.414   7.877  1.00  0.00    -0.000 C 
BRANCH   8   9
ATOM      9  C   UNL     1     -17.476  10.107   9.185  1.00  0.00    -0.000 C 
BRANCH   9  10
ATOM     10  C   UNL     1     -16.819   9.191  10.237  1.00  0.00    -0.000 C 
BRANCH  10  11
ATOM     11  C   UNL     1     -15.422   9.635  10.706  1.00  0.00    -0.003 C 
ATOM     12  C   UNL     1     -15.425  10.199  12.127  1.00  0.00     0.004 C 
ENDBRANCH  10  11
ENDBRANCH   9  10
ENDBRANCH   8   9
ENDBRANCH   7   8
ENDBRANCH   6   7
ENDBRANCH   5   6
ENDBRANCH   4   5
ENDBRANCH   3   4
ENDBRANCH   2   3
ENDBRANCH   1   2
BRANCH   1  13
ATOM     13  C   UNL     1     -14.137   8.992   3.577  1.00  0.00     0.000 C 
BRANCH  13  14
ATOM     14  C   UNL     1     -15.462   9.772   3.493  1.00  0.00     0.000 C 
BRANCH  14  15
ATOM     15  C   UNL     1     -16.578   9.089   2.676  1.00  0.00     0.000 C 
BRANCH  15  16
ATOM     16  C   UNL     1     -17.636  10.043   2.091  1.00  0.00     0.000 C 
BRANCH  16  17
ATOM     17  C   UNL     1     -18.294  10.928   3.159  1.00  0.00     0.000 C 
BRANCH  17  18
ATOM     18  C   UNL     1     -19.143  12.030   2.514  1.00  0.00     0.000 C 
BRANCH  18  19
ATOM     19  C   UNL     1     -18.914  12.081   0.995  1.00  0.00     0.000 C 
BRANCH  19  20
ATOM     20  C   UNL     1     -19.629  13.266   0.327  1.00  0.00     0.006 C 
BRANCH  20  21
ATOM     21  C   UNL     1     -18.774  14.539   0.309  1.00  0.00     0.053 C 
BRANCH  21  22
ATOM     22  C   UNL     1     -19.008  15.307  -0.953  1.00  0.00     0.041 C 
ATOM     23  O   UNL     1     -18.910  16.562  -0.959  1.00  0.00    -0.550 OA
ATOM     24  O   UNL     1     -19.288  14.633  -2.134  1.00  0.00    -0.550 OA
ENDBRANCH  21  22
ENDBRANCH  20  21
ENDBRANCH  19  20
ENDBRANCH  18  19
ENDBRANCH  17  18
ENDBRANCH  16  17
ENDBRANCH  15  16
ENDBRANCH  14  15
ENDBRANCH  13  14
ENDBRANCH   1  13
TORSDOF 20
ENDMDL
MODEL 6
REMARK VINA RESULT:    -3.667     15.887     18.059
REMARK INTER + INTRA:          -8.984
REMARK INTER:                  -6.768
REMARK INTRA:                  -2.216
REMARK UNBOUND:                -1.029
REMARK SMILES CCCCCCCCCCCCCCCCCCCCCC(=O)[O-]
REMARK SMILES IDX 12 1 11 2 10 3 9 4 8 5 7 6 6 7 5 8 4 9 3 10 2 11 1 12 13 13
REMARK SMILES IDX 14 14 15 15 16 16 17 17 18 18 19 19 20 20 21 21 22 22 23 23
REMARK SMILES IDX 24 24
REMARK H PARENT
REMARK Flexibility Score: inf
ROOT
ATOM      1  C   UNL     1     -13.290  10.283   4.250  1.00  0.00     0.000 C 
ENDROOT
BRANCH   1   2
ATOM      2  C   UNL     1     -14.411   9.265   3.968  1.00  0.00     0.000 C 
BRANCH   2   3
ATOM      3  C   UNL     1     -15.795   9.875   3.680  1.00  0.00     0.000 C 
BRANCH   3   4
ATOM      4  C   UNL     1     -16.028  11.209   4.405  1.00  0.00    -0.000 C 
BRANCH   4   5
ATOM      5  C   UNL     1     -17.241  11.949   3.822  1.00  0.00    -0.000 C 
BRANCH   5   6
ATOM      6  C   UNL     1     -18.215  10.995   3.098  1.00  0.00    -0.000 C 
BRANCH   6   7
ATOM      7  C   UNL     1     -18.728  11.536   1.753  1.00  0.00    -0.000 C 
BRANCH   7   8
ATOM      8  C   UNL     1     -19.986  12.405   1.902  1.00  0.00    -0.000 C 
BRANCH   8   9
ATOM      9  C   UNL     1     -19.828  13.802   1.276  1.00  0.00    -0.000 C 
BRANCH   9  10
ATOM     10  C   UNL     1     -18.744  13.919   0.185  1.00  0.00    -0.000 C 
BRANCH  10  11
ATOM     11  C   UNL     1     -19.248  13.742  -1.258  1.00  0.00    -0.003 C 
ATOM     12  C   UNL     1     -18.324  12.870  -2.107  1.00  0.00     0.004 C 
ENDBRANCH  10  11
ENDBRANCH   9  10
ENDBRANCH   8   9
ENDBRANCH   7   8
ENDBRANCH   6   7
ENDBRANCH   5   6
ENDBRANCH   4   5
ENDBRANCH   3   4
ENDBRANCH   2   3
ENDBRANCH   1   2
BRANCH   1  13
ATOM     13  C   UNL     1     -12.611  10.067   5.612  1.00  0.00     0.000 C 
BRANCH  13  14
ATOM     14  C   UNL     1     -13.557  10.324   6.799  1.00  0.00     0.000 C 
BRANCH  14  15
ATOM     15  C   UNL     1     -13.787   9.117   7.732  1.00  0.00     0.000 C 
BRANCH  15  16
ATOM     16  C   UNL     1     -15.152   9.092   8.442  1.00  0.00     0.000 C 
BRANCH  16  17
ATOM     17  C   UNL     1     -16.334   9.167   7.464  1.00  0.00     0.000 C 
BRANCH  17  18
ATOM     18  C   UNL     1     -17.173  10.426   7.710  1.00  0.00     0.000 C 
BRANCH  18  19
ATOM     19  C   UNL     1     -18.613  10.060   8.103  1.00  0.00     0.000 C 
BRANCH  19  20
ATOM     20  C   UNL     1     -18.735   9.625   9.572  1.00  0.00     0.006 C 
BRANCH  20  21
ATOM     21  C   UNL     1     -19.072  10.792  10.508  1.00  0.00     0.053 C 
BRANCH  21  22
ATOM     22  C   UNL     1     -17.913  11.093  11.405  1.00  0.00     0.041 C 
ATOM     23  O   UNL     1     -16.842  10.439  11.298  1.00  0.00    -0.550 OA
ATOM     24  O   UNL     1     -17.998  12.129  12.325  1.00  0.00    -0.550 OA
ENDBRANCH  21  22
ENDBRANCH  20  21
ENDBRANCH  19  20
ENDBRANCH  18  19
ENDBRANCH  17  18
ENDBRANCH  16  17
ENDBRANCH  15  16
ENDBRANCH  14  15
ENDBRANCH  13  14
ENDBRANCH   1  13
TORSDOF 20
ENDMDL
MODEL 7
REMARK VINA RESULT:    -3.631      2.480      5.439
REMARK INTER + INTRA:          -8.905
REMARK INTER:                  -6.989
REMARK INTRA:                  -1.916
REMARK UNBOUND:                -1.029
REMARK SMILES CCCCCCCCCCCCCCCCCCCCCC(=O)[O-]
REMARK SMILES IDX 12 1 11 2 10 3 9 4 8 5 7 6 6 7 5 8 4 9 3 10 2 11 1 12 13 13
REMARK SMILES IDX 14 14 15 15 16 16 17 17 18 18 19 19 20 20 21 21 22 22 23 23
REMARK SMILES IDX 24 24
REMARK H PARENT
REMARK Flexibility Score: inf
ROOT
ATOM      1  C   UNL     1      -3.033  14.678  13.815  1.00  0.00     0.000 C 
ENDROOT
BRANCH   1   2
ATOM      2  C   UNL     1      -2.231  14.758  12.502  1.00  0.00     0.000 C 
BRANCH   2   3
ATOM      3  C   UNL     1      -1.881  16.182  12.032  1.00  0.00     0.000 C 
BRANCH   3   4
ATOM      4  C   UNL     1      -1.980  17.227  13.153  1.00  0.00    -0.000 C 
BRANCH   4   5
ATOM      5  C   UNL     1      -3.037  18.292  12.823  1.00  0.00    -0.000 C 
BRANCH   5   6
ATOM      6  C   UNL     1      -3.580  18.987  14.090  1.00  0.00    -0.000 C 
BRANCH   6   7
ATOM      7  C   UNL     1      -5.091  18.794  14.303  1.00  0.00    -0.000 C 
BRANCH   7   8
ATOM      8  C   UNL     1      -5.726  19.928  15.123  1.00  0.00    -0.000 C 
BRANCH   8   9
ATOM      9  C   UNL     1      -6.847  20.662  14.364  1.00  0.00    -0.000 C 
BRANCH   9  10
ATOM     10  C   UNL     1      -8.181  20.798  15.125  1.00  0.00    -0.000 C 
BRANCH  10  11
ATOM     11  C   UNL     1      -9.250  21.651  14.418  1.00  0.00    -0.003 C 
ATOM     12  C   UNL     1      -8.763  23.063  14.093  1.00  0.00     0.004 C 
ENDBRANCH  10  11
ENDBRANCH   9  10
ENDBRANCH   8   9
ENDBRANCH   7   8
ENDBRANCH   6   7
ENDBRANCH   5   6
ENDBRANCH   4   5
ENDBRANCH   3   4
ENDBRANCH   2   3
ENDBRANCH   1   2
BRANCH   1  13
ATOM     13  C   UNL     1      -2.193  14.183  15.003  1.00  0.00     0.000 C 
BRANCH  13  14
ATOM     14  C   UNL     1      -0.898  13.474  14.566  1.00  0.00     0.000 C 
BRANCH  14  15
ATOM     15  C   UNL     1      -0.868  11.950  14.803  1.00  0.00     0.000 C 
BRANCH  15  16
ATOM     16  C   UNL     1      -0.022  11.149  13.797  1.00  0.00     0.000 C 
BRANCH  16  17
ATOM     17  C   UNL     1       0.111  11.851  12.438  1.00  0.00     0.000 C 
BRANCH  17  18
ATOM     18  C   UNL     1      -0.370  10.943  11.299  1.00  0.00     0.000 C 
BRANCH  18  19
ATOM     19  C   UNL     1      -1.842  11.220  10.960  1.00  0.00     0.000 C 
BRANCH  19  20
ATOM     20  C   UNL     1      -2.778  10.087  11.407  1.00  0.00     0.006 C 
BRANCH  20  21
ATOM     21  C   UNL     1      -3.367  10.321  12.803  1.00  0.00     0.053 C 
BRANCH  21  22
ATOM     22  C   UNL     1      -4.769  10.832  12.698  1.00  0.00     0.041 C 
ATOM     23  O   UNL     1      -5.741  10.032  12.741  1.00  0.00    -0.550 OA
ATOM     24  O   UNL     1      -5.005  12.197  12.603  1.00  0.00    -0.550 OA
ENDBRANCH  21  22
ENDBRANCH  20  21
ENDBRANCH  19  20
ENDBRANCH  18  19
ENDBRANCH  17  18
ENDBRANCH  16  17
ENDBRANCH  15  16
ENDBRANCH  14  15
ENDBRANCH  13  14
ENDBRANCH   1  13
TORSDOF 20
ENDMDL
MODEL 8
REMARK VINA RESULT:    -3.587     15.754     18.197
REMARK INTER + INTRA:          -8.809
REMARK INTER:                  -6.673
REMARK INTRA:                  -2.137
REMARK UNBOUND:                -1.029
REMARK SMILES CCCCCCCCCCCCCCCCCCCCCC(=O)[O-]
REMARK SMILES IDX 12 1 11 2 10 3 9 4 8 5 7 6 6 7 5 8 4 9 3 10 2 11 1 12 13 13
REMARK SMILES IDX 14 14 15 15 16 16 17 17 18 18 19 19 20 20 21 21 22 22 23 23
REMARK SMILES IDX 24 24
REMARK H PARENT
REMARK Flexibility Score: inf
ROOT
ATOM      1  C   UNL     1     -15.006  11.557   6.193  1.00  0.00     0.000 C 
ENDROOT
BRANCH   1   2
ATOM      2  C   UNL     1     -13.658  10.922   5.806  1.00  0.00     0.000 C 
BRANCH   2   3
ATOM      3  C   UNL     1     -13.209   9.743   6.689  1.00  0.00     0.000 C 
BRANCH   3   4
ATOM      4  C   UNL     1     -14.364   9.107   7.476  1.00  0.00    -0.000 C 
BRANCH   4   5
ATOM      5  C   UNL     1     -14.155   9.266   8.990  1.00  0.00    -0.000 C 
BRANCH   5   6
ATOM      6  C   UNL     1     -15.466   9.077   9.783  1.00  0.00    -0.000 C 
BRANCH   6   7
ATOM      7  C   UNL     1     -16.631   9.940   9.271  1.00  0.00    -0.000 C 
BRANCH   7   8
ATOM      8  C   UNL     1     -17.522  10.470  10.405  1.00  0.00    -0.000 C 
BRANCH   8   9
ATOM      9  C   UNL     1     -17.027  10.054  11.802  1.00  0.00    -0.000 C 
BRANCH   9  10
ATOM     10  C   UNL     1     -16.685  11.216  12.756  1.00  0.00    -0.000 C 
BRANCH  10  11
ATOM     11  C   UNL     1     -15.455  10.985  13.651  1.00  0.00    -0.003 C 
ATOM     12  C   UNL     1     -14.155  10.867  12.856  1.00  0.00     0.004 C 
ENDBRANCH  10  11
ENDBRANCH   9  10
ENDBRANCH   8   9
ENDBRANCH   7   8
ENDBRANCH   6   7
ENDBRANCH   5   6
ENDBRANCH   4   5
ENDBRANCH   3   4
ENDBRANCH   2   3
ENDBRANCH   1   2
BRANCH   1  13
ATOM     13  C   UNL     1     -16.044  11.503   5.060  1.00  0.00     0.000 C 
BRANCH  13  14
ATOM     14  C   UNL     1     -17.069  10.369   5.242  1.00  0.00     0.000 C 
BRANCH  14  15
ATOM     15  C   UNL     1     -16.963   9.214   4.224  1.00  0.00     0.000 C 
BRANCH  15  16
ATOM     16  C   UNL     1     -16.560   9.634   2.800  1.00  0.00     0.000 C 
BRANCH  16  17
ATOM     17  C   UNL     1     -17.604   9.238   1.744  1.00  0.00     0.000 C 
BRANCH  17  18
ATOM     18  C   UNL     1     -16.991   9.233   0.339  1.00  0.00     0.000 C 
BRANCH  18  19
ATOM     19  C   UNL     1     -17.777  10.153  -0.607  1.00  0.00     0.000 C 
BRANCH  19  20
ATOM     20  C   UNL     1     -18.936  10.877   0.096  1.00  0.00     0.006 C 
BRANCH  20  21
ATOM     21  C   UNL     1     -18.840  12.403  -0.022  1.00  0.00     0.053 C 
BRANCH  21  22
ATOM     22  C   UNL     1     -19.215  13.051   1.273  1.00  0.00     0.041 C 
ATOM     23  O   UNL     1     -19.675  14.223   1.286  1.00  0.00    -0.550 OA
ATOM     24  O   UNL     1     -19.103  12.342   2.462  1.00  0.00    -0.550 OA
ENDBRANCH  21  22
ENDBRANCH  20  21
ENDBRANCH  19  20
ENDBRANCH  18  19
ENDBRANCH  17  18
ENDBRANCH  16  17
ENDBRANCH  15  16
ENDBRANCH  14  15
ENDBRANCH  13  14
ENDBRANCH   1  13
TORSDOF 20
ENDMDL
MODEL 9
REMARK VINA RESULT:    -3.563      1.669      3.597
REMARK INTER + INTRA:          -8.759
REMARK INTER:                  -7.992
REMARK INTRA:                  -0.766
REMARK UNBOUND:                -1.029
REMARK SMILES CCCCCCCCCCCCCCCCCCCCCC(=O)[O-]
REMARK SMILES IDX 12 1 11 2 10 3 9 4 8 5 7 6 6 7 5 8 4 9 3 10 2 11 1 12 13 13
REMARK SMILES IDX 14 14 15 15 16 16 17 17 18 18 19 19 20 20 21 21 22 22 23 23
REMARK SMILES IDX 24 24
REMARK H PARENT
REMARK Flexibility Score: inf
ROOT
ATOM      1  C   UNL     1      -2.044  16.898  12.521  1.00  0.00     0.000 C 
ENDROOT
BRANCH   1   2
ATOM      2  C   UNL     1      -2.880  18.137  12.889  1.00  0.00     0.000 C 
BRANCH   2   3
ATOM      3  C   UNL     1      -2.470  18.841  14.196  1.00  0.00     0.000 C 
BRANCH   3   4
ATOM      4  C   UNL     1      -3.661  19.129  15.123  1.00  0.00    -0.000 C 
BRANCH   4   5
ATOM      5  C   UNL     1      -4.982  18.686  14.478  1.00  0.00    -0.000 C 
BRANCH   5   6
ATOM      6  C   UNL     1      -5.856  19.885  14.054  1.00  0.00    -0.000 C 
BRANCH   6   7
ATOM      7  C   UNL     1      -7.045  20.149  14.993  1.00  0.00    -0.000 C 
BRANCH   7   8
ATOM      8  C   UNL     1      -8.064  21.136  14.401  1.00  0.00    -0.000 C 
BRANCH   8   9
ATOM      9  C   UNL     1      -7.765  22.600  14.771  1.00  0.00    -0.000 C 
BRANCH   9  10
ATOM     10  C   UNL     1      -8.833  23.624  14.334  1.00  0.00    -0.000 C 
BRANCH  10  11
ATOM     11  C   UNL     1      -8.382  25.095  14.378  1.00  0.00    -0.003 C 
ATOM     12  C   UNL     1      -8.968  25.930  13.240  1.00  0.00     0.004 C 
ENDBRANCH  10  11
ENDBRANCH   9  10
ENDBRANCH   8   9
ENDBRANCH   7   8
ENDBRANCH   6   7
ENDBRANCH   5   6
ENDBRANCH   4   5
ENDBRANCH   3   4
ENDBRANCH   2   3
ENDBRANCH   1   2
BRANCH   1  13
ATOM     13  C   UNL     1      -0.547  17.071  12.823  1.00  0.00     0.000 C 
BRANCH  13  14
ATOM     14  C   UNL     1      -0.099  16.306  14.083  1.00  0.00     0.000 C 
BRANCH  14  15
ATOM     15  C   UNL     1      -0.142  14.768  13.970  1.00  0.00     0.000 C 
BRANCH  15  16
ATOM     16  C   UNL     1      -1.515  14.131  14.247  1.00  0.00     0.000 C 
BRANCH  16  17
ATOM     17  C   UNL     1      -1.419  12.854  15.096  1.00  0.00     0.000 C 
BRANCH  17  18
ATOM     18  C   UNL     1      -2.555  11.881  14.758  1.00  0.00     0.000 C 
BRANCH  18  19
ATOM     19  C   UNL     1      -2.483  11.441  13.287  1.00  0.00     0.000 C 
BRANCH  19  20
ATOM     20  C   UNL     1      -3.867  11.337  12.630  1.00  0.00     0.006 C 
BRANCH  20  21
ATOM     21  C   UNL     1      -3.797  11.324  11.098  1.00  0.00     0.053 C 
BRANCH  21  22
ATOM     22  C   UNL     1      -2.862  12.386  10.611  1.00  0.00     0.041 C 
ATOM     23  O   UNL     1      -2.039  12.133   9.692  1.00  0.00    -0.550 OA
ATOM     24  O   UNL     1      -2.932  13.668  11.138  1.00  0.00    -0.550 OA
ENDBRANCH  21  22
ENDBRANCH  20  21
ENDBRANCH  19  20
ENDBRANCH  18  19
ENDBRANCH  17  18
ENDBRANCH  16  17
ENDBRANCH  15  16
ENDBRANCH  14  15
ENDBRANCH  13  14
ENDBRANCH   1  13
TORSDOF 20
ENDMDL
