MODEL 1
REMARK VINA RESULT:    -4.869      0.000      0.000
REMARK INTER + INTRA:          -6.234
REMARK INTER:                  -6.007
REMARK INTRA:                  -0.226
REMARK UNBOUND:                -0.226
REMARK SMILES CCCCC=CC(C)=O
REMARK SMILES IDX 4 1 3 2 2 3 1 4 5 5 6 6 7 7 9 8 8 9
REMARK H PARENT
REMARK Flexibility Score: inf
ROOT
ATOM      1  C   UNL     1      -8.204  31.142  24.424  1.00  0.00     0.027 C 
ENDROOT
BRANCH   1   2
ATOM      2  C   UNL     1      -8.648  29.768  23.900  1.00  0.00     0.004 C 
BRANCH   2   3
ATOM      3  C   UNL     1      -7.798  29.287  22.714  1.00  0.00    -0.003 C 
ATOM      4  C   UNL     1      -8.291  27.963  22.132  1.00  0.00     0.004 C 
ENDBRANCH   2   3
ENDBRANCH   1   2
BRANCH   1   5
ATOM      5  C   UNL     1      -7.703  32.013  23.308  1.00  0.00    -0.023 C 
ATOM      6  C   UNL     1      -8.355  33.122  22.940  1.00  0.00     0.042 C 
BRANCH   6   7
ATOM      7  C   UNL     1      -7.888  33.983  21.839  1.00  0.00     0.152 C 
ATOM      8  O   UNL     1      -7.797  35.232  21.989  1.00  0.00    -0.295 OA
ATOM      9  C   UNL     1      -7.518  33.371  20.526  1.00  0.00     0.093 C 
ENDBRANCH   6   7
ENDBRANCH   1   5
TORSDOF 4
ENDMDL
MODEL 2
REMARK VINA RESULT:    -4.749      2.402      4.670
REMARK INTER + INTRA:          -6.085
REMARK INTER:                  -5.848
REMARK INTRA:                  -0.237
REMARK UNBOUND:                -0.226
REMARK SMILES CCCCC=CC(C)=O
REMARK SMILES IDX 4 1 3 2 2 3 1 4 5 5 6 6 7 7 9 8 8 9
REMARK H PARENT
REMARK Flexibility Score: inf
ROOT
ATOM      1  C   UNL     1      -7.590  32.803  23.520  1.00  0.00     0.027 C 
ENDROOT
BRANCH   1   2
ATOM      2  C   UNL     1      -8.439  33.787  22.702  1.00  0.00     0.004 C 
BRANCH   2   3
ATOM      3  C   UNL     1      -7.674  34.375  21.507  1.00  0.00    -0.003 C 
ATOM      4  C   UNL     1      -7.503  33.375  20.364  1.00  0.00     0.004 C 
ENDBRANCH   2   3
ENDBRANCH   1   2
BRANCH   1   5
ATOM      5  C   UNL     1      -8.283  31.479  23.664  1.00  0.00    -0.023 C 
ATOM      6  C   UNL     1      -7.830  30.381  23.049  1.00  0.00     0.042 C 
BRANCH   6   7
ATOM      7  C   UNL     1      -8.503  29.074  23.167  1.00  0.00     0.152 C 
ATOM      8  O   UNL     1      -9.293  28.839  24.122  1.00  0.00    -0.295 OA
ATOM      9  C   UNL     1      -8.245  28.014  22.146  1.00  0.00     0.093 C 
ENDBRANCH   6   7
ENDBRANCH   1   5
TORSDOF 4
ENDMDL
MODEL 3
REMARK VINA RESULT:    -4.671      2.335      4.888
REMARK INTER + INTRA:          -5.989
REMARK INTER:                  -5.793
REMARK INTRA:                  -0.196
REMARK UNBOUND:                -0.226
REMARK SMILES CCCCC=CC(C)=O
REMARK SMILES IDX 4 1 3 2 2 3 1 4 5 5 6 6 7 7 9 8 8 9
REMARK H PARENT
REMARK Flexibility Score: inf
ROOT
ATOM      1  C   UNL     1      -7.674  33.378  21.351  1.00  0.00     0.027 C 
ENDROOT
BRANCH   1   2
ATOM      2  C   UNL     1      -7.895  34.681  22.135  1.00  0.00     0.004 C 
BRANCH   2   3
ATOM      3  C   UNL     1      -7.509  34.551  23.616  1.00  0.00    -0.003 C 
ATOM      4  C   UNL     1      -8.438  35.336  24.540  1.00  0.00     0.004 C 
ENDBRANCH   2   3
ENDBRANCH   1   2
BRANCH   1   5
ATOM      5  C   UNL     1      -8.263  32.203  22.076  1.00  0.00    -0.023 C 
ATOM      6  C   UNL     1      -7.547  31.098  22.316  1.00  0.00     0.042 C 
BRANCH   6   7
ATOM      7  C   UNL     1      -8.110  29.928  23.014  1.00  0.00     0.152 C 
ATOM      8  O   UNL     1      -8.489  30.013  24.214  1.00  0.00    -0.295 OA
ATOM      9  C   UNL     1      -8.232  28.624  22.294  1.00  0.00     0.093 C 
ENDBRANCH   6   7
ENDBRANCH   1   5
TORSDOF 4
ENDMDL
MODEL 4
REMARK VINA RESULT:    -4.617      2.344      2.902
REMARK INTER + INTRA:          -5.924
REMARK INTER:                  -5.777
REMARK INTRA:                  -0.146
REMARK UNBOUND:                -0.226
REMARK SMILES CCCCC=CC(C)=O
REMARK SMILES IDX 4 1 3 2 2 3 1 4 5 5 6 6 7 7 9 8 8 9
REMARK H PARENT
REMARK Flexibility Score: inf
ROOT
ATOM      1  C   UNL     1      -7.781  31.975  22.494  1.00  0.00     0.027 C 
ENDROOT
BRANCH   1   2
ATOM      2  C   UNL     1      -8.115  30.658  23.210  1.00  0.00     0.004 C 
BRANCH   2   3
ATOM      3  C   UNL     1      -7.328  29.464  22.648  1.00  0.00    -0.003 C 
ATOM      4  C   UNL     1      -8.232  28.310  22.219  1.00  0.00     0.004 C 
ENDBRANCH   2   3
ENDBRANCH   1   2
BRANCH   1   5
ATOM      5  C   UNL     1      -7.695  33.115  23.467  1.00  0.00    -0.023 C 
ATOM      6  C   UNL     1      -8.437  33.142  24.581  1.00  0.00     0.042 C 
BRANCH   6   7
ATOM      7  C   UNL     1      -8.376  34.258  25.542  1.00  0.00     0.152 C 
ATOM      8  O   UNL     1      -8.159  34.045  26.766  1.00  0.00    -0.295 OA
ATOM      9  C   UNL     1      -8.576  35.660  25.063  1.00  0.00     0.093 C 
ENDBRANCH   6   7
ENDBRANCH   1   5
TORSDOF 4
ENDMDL
MODEL 5
REMARK VINA RESULT:    -4.422      2.910      4.130
REMARK INTER + INTRA:          -5.683
REMARK INTER:                  -5.463
REMARK INTRA:                  -0.220
REMARK UNBOUND:                -0.226
REMARK SMILES CCCCC=CC(C)=O
REMARK SMILES IDX 4 1 3 2 2 3 1 4 5 5 6 6 7 7 9 8 8 9
REMARK H PARENT
REMARK Flexibility Score: inf
ROOT
ATOM      1  C   UNL     1      -7.529  34.888  21.771  1.00  0.00     0.027 C 
ENDROOT
BRANCH   1   2
ATOM      2  C   UNL     1      -7.540  33.683  20.819  1.00  0.00     0.004 C 
BRANCH   2   3
ATOM      3  C   UNL     1      -8.076  32.408  21.488  1.00  0.00    -0.003 C 
ATOM      4  C   UNL     1      -9.431  31.973  20.932  1.00  0.00     0.004 C 
ENDBRANCH   2   3
ENDBRANCH   1   2
BRANCH   1   5
ATOM      5  C   UNL     1      -8.203  34.559  23.072  1.00  0.00    -0.023 C 
ATOM      6  C   UNL     1      -7.655  34.890  24.247  1.00  0.00     0.042 C 
BRANCH   6   7
ATOM      7  C   UNL     1      -8.294  34.564  25.535  1.00  0.00     0.152 C 
ATOM      8  O   UNL     1      -8.545  35.468  26.378  1.00  0.00    -0.295 OA
ATOM      9  C   UNL     1      -8.647  33.146  25.849  1.00  0.00     0.093 C 
ENDBRANCH   6   7
ENDBRANCH   1   5
TORSDOF 4
ENDMDL
MODEL 6
REMARK VINA RESULT:    -4.339      2.547      4.660
REMARK INTER + INTRA:          -5.581
REMARK INTER:                  -5.325
REMARK INTRA:                  -0.255
REMARK UNBOUND:                -0.226
REMARK SMILES CCCCC=CC(C)=O
REMARK SMILES IDX 4 1 3 2 2 3 1 4 5 5 6 6 7 7 9 8 8 9
REMARK H PARENT
REMARK Flexibility Score: inf
ROOT
ATOM      1  C   UNL     1      -7.615  34.862  23.312  1.00  0.00     0.027 C 
ENDROOT
BRANCH   1   2
ATOM      2  C   UNL     1      -8.661  35.125  24.406  1.00  0.00     0.004 C 
BRANCH   2   3
ATOM      3  C   UNL     1      -8.043  35.186  25.811  1.00  0.00    -0.003 C 
ATOM      4  C   UNL     1      -8.348  33.942  26.645  1.00  0.00     0.004 C 
ENDBRANCH   2   3
ENDBRANCH   1   2
BRANCH   1   5
ATOM      5  C   UNL     1      -7.855  33.542  22.638  1.00  0.00    -0.023 C 
ATOM      6  C   UNL     1      -7.730  32.386  23.300  1.00  0.00     0.042 C 
BRANCH   6   7
ATOM      7  C   UNL     1      -7.948  31.079  22.654  1.00  0.00     0.152 C 
ATOM      8  O   UNL     1      -8.979  30.866  21.959  1.00  0.00    -0.295 OA
ATOM      9  C   UNL     1      -6.937  29.991  22.825  1.00  0.00     0.093 C 
ENDBRANCH   6   7
ENDBRANCH   1   5
TORSDOF 4
ENDMDL
MODEL 7
REMARK VINA RESULT:    -4.326      2.838      3.984
REMARK INTER + INTRA:          -5.564
REMARK INTER:                  -5.343
REMARK INTRA:                  -0.221
REMARK UNBOUND:                -0.226
REMARK SMILES CCCCC=CC(C)=O
REMARK SMILES IDX 4 1 3 2 2 3 1 4 5 5 6 6 7 7 9 8 8 9
REMARK H PARENT
REMARK Flexibility Score: inf
ROOT
ATOM      1  C   UNL     1      -7.675  35.221  24.544  1.00  0.00     0.027 C 
ENDROOT
BRANCH   1   2
ATOM      2  C   UNL     1      -8.450  34.859  25.820  1.00  0.00     0.004 C 
BRANCH   2   3
ATOM      3  C   UNL     1      -8.753  33.356  25.919  1.00  0.00    -0.003 C 
ATOM      4  C   UNL     1      -8.344  32.758  27.265  1.00  0.00     0.004 C 
ENDBRANCH   2   3
ENDBRANCH   1   2
BRANCH   1   5
ATOM      5  C   UNL     1      -7.834  34.161  23.493  1.00  0.00    -0.023 C 
ATOM      6  C   UNL     1      -7.910  34.470  22.193  1.00  0.00     0.042 C 
BRANCH   6   7
ATOM      7  C   UNL     1      -8.079  33.445  21.147  1.00  0.00     0.152 C 
ATOM      8  O   UNL     1      -7.289  33.388  20.165  1.00  0.00    -0.295 OA
ATOM      9  C   UNL     1      -9.201  32.463  21.248  1.00  0.00     0.093 C 
ENDBRANCH   6   7
ENDBRANCH   1   5
TORSDOF 4
ENDMDL
MODEL 8
REMARK VINA RESULT:    -4.282      2.343      4.484
REMARK INTER + INTRA:          -5.509
REMARK INTER:                  -5.357
REMARK INTRA:                  -0.152
REMARK UNBOUND:                -0.226
REMARK SMILES CCCCC=CC(C)=O
REMARK SMILES IDX 4 1 3 2 2 3 1 4 5 5 6 6 7 7 9 8 8 9
REMARK H PARENT
REMARK Flexibility Score: inf
ROOT
ATOM      1  C   UNL     1      -7.551  34.554  23.496  1.00  0.00     0.027 C 
ENDROOT
BRANCH   1   2
ATOM      2  C   UNL     1      -7.696  34.886  22.003  1.00  0.00     0.004 C 
BRANCH   2   3
ATOM      3  C   UNL     1      -8.209  33.694  21.181  1.00  0.00    -0.003 C 
ATOM      4  C   UNL     1      -7.151  33.129  20.234  1.00  0.00     0.004 C 
ENDBRANCH   2   3
ENDBRANCH   1   2
BRANCH   1   5
ATOM      5  C   UNL     1      -8.551  33.518  23.921  1.00  0.00    -0.023 C 
ATOM      6  C   UNL     1      -8.167  32.324  24.386  1.00  0.00     0.042 C 
BRANCH   6   7
ATOM      7  C   UNL     1      -9.134  31.289  24.797  1.00  0.00     0.152 C 
ATOM      8  O   UNL     1     -10.125  31.581  25.520  1.00  0.00    -0.295 OA
ATOM      9  C   UNL     1      -8.937  29.875  24.353  1.00  0.00     0.093 C 
ENDBRANCH   6   7
ENDBRANCH   1   5
TORSDOF 4
ENDMDL
MODEL 9
REMARK VINA RESULT:    -4.041      1.524      2.466
REMARK INTER + INTRA:          -5.213
REMARK INTER:                  -4.985
REMARK INTRA:                  -0.228
REMARK UNBOUND:                -0.226
REMARK SMILES CCCCC=CC(C)=O
REMARK SMILES IDX 4 1 3 2 2 3 1 4 5 5 6 6 7 7 9 8 8 9
REMARK H PARENT
REMARK Flexibility Score: inf
ROOT
ATOM      1  C   UNL     1      -7.208  30.846  23.348  1.00  0.00     0.027 C 
ENDROOT
BRANCH   1   2
ATOM      2  C   UNL     1      -8.390  29.866  23.379  1.00  0.00     0.004 C 
BRANCH   2   3
ATOM      3  C   UNL     1      -9.177  29.933  24.697  1.00  0.00    -0.003 C 
ATOM      4  C   UNL     1      -8.283  30.205  25.906  1.00  0.00     0.004 C 
ENDBRANCH   2   3
ENDBRANCH   1   2
BRANCH   1   5
ATOM      5  C   UNL     1      -7.659  32.229  22.973  1.00  0.00    -0.023 C 
ATOM      6  C   UNL     1      -7.548  33.255  23.824  1.00  0.00     0.042 C 
BRANCH   6   7
ATOM      7  C   UNL     1      -7.997  34.617  23.481  1.00  0.00     0.152 C 
ATOM      8  O   UNL     1      -7.883  35.057  22.305  1.00  0.00    -0.295 OA
ATOM      9  C   UNL     1      -8.593  35.489  24.539  1.00  0.00     0.093 C 
ENDBRANCH   6   7
ENDBRANCH   1   5
TORSDOF 4
ENDMDL
