MODEL 1
REMARK VINA RESULT:     2.337      0.000      0.000
REMARK INTER + INTRA:           3.479
REMARK INTER:                   3.567
REMARK INTRA:                  -0.088
REMARK UNBOUND:                -0.088
REMARK SMILES CC1=CCC[C@H](C)C(=O)C[C@@H](C(C)C)C(=O)C1
REMARK SMILES IDX 8 1 9 2 6 3 7 4 5 5 4 6 3 7 2 8 1 9 10 11 11 12 15 13 16 14
REMARK SMILES IDX 17 15 12 17 13 18 14 19
REMARK H PARENT
REMARK Flexibility Score: 70.00
ROOT
ATOM      1  C   UNL     1      76.189  74.574  72.597  1.00  0.00     0.136 C 
ATOM      2  O   UNL     1      76.925  74.239  71.681  1.00  0.00    -0.299 OA
ENDROOT
BRANCH   1   3
ATOM      3  C   UNL     1      76.173  76.052  72.992  1.00  0.00     0.053 C 
ATOM      4  C   UNL     1      75.015  76.751  72.261  1.00  0.00     0.016 C 
BRANCH   3   5
ATOM      5  C   UNL     1      76.065  76.370  74.507  1.00  0.00     0.015 C 
BRANCH   5   6
ATOM      6  C   UNL     1      76.791  75.421  75.479  1.00  0.00     0.028 C 
BRANCH   6   7
ATOM      7  C   UNL     1      76.109  75.237  76.811  1.00  0.00    -0.028 C 
ATOM      8  C   UNL     1      75.080  74.397  77.095  1.00  0.00    -0.070 CG0
ATOM      9  C   UNL     1      74.497  74.484  78.486  1.00  0.00     0.039 C 
ATOM     10  G   UNL     1      74.545  73.310  76.168  1.00  0.00     0.000 G0
ENDBRANCH   6   7
ENDBRANCH   5   6
ENDBRANCH   3   5
ENDBRANCH   1   3
BRANCH   1  11
ATOM     11  C   UNL     1      75.333  73.501  73.228  1.00  0.00     0.087 C 
BRANCH  11  12
ATOM     12  C   UNL     1      73.893  73.930  73.649  1.00  0.00     0.066 C 
BRANCH  12  13
ATOM     13  C   UNL     1      73.541  73.738  75.129  1.00  0.00     0.140 C 
ATOM     14  O   UNL     1      72.375  73.876  75.472  1.00  0.00    -0.299 OA
BRANCH  13  15
ATOM     15  C   UNL     1      74.539  73.301  76.177  1.00  0.00     0.106 CG0
ATOM     16  G   UNL     1      75.060  74.410  77.086  1.00  0.00     0.000 G0
ENDBRANCH  13  15
ENDBRANCH  12  13
BRANCH  12  17
ATOM     17  C   UNL     1      72.765  73.481  72.653  1.00  0.00    -0.006 C 
ATOM     18  C   UNL     1      72.192  74.597  71.764  1.00  0.00     0.008 C 
ATOM     19  C   UNL     1      73.255  72.333  71.754  1.00  0.00     0.008 C 
ENDBRANCH  12  17
ENDBRANCH  11  12
ENDBRANCH   1  11
TORSDOF 1
ENDMDL
MODEL 2
REMARK VINA RESULT:     2.385      1.744      3.970
REMARK INTER + INTRA:           3.552
REMARK INTER:                   2.851
REMARK INTRA:                   0.700
REMARK UNBOUND:                -0.088
REMARK SMILES CC1=CCC[C@H](C)C(=O)C[C@@H](C(C)C)C(=O)C1
REMARK SMILES IDX 8 1 9 2 6 3 7 4 5 5 4 6 3 7 2 8 1 9 10 11 11 12 15 13 16 14
REMARK SMILES IDX 17 15 12 17 13 18 14 19
REMARK H PARENT
REMARK Flexibility Score: 70.00
ROOT
ATOM      1  C   UNL     1      73.692  74.127  75.593  1.00  0.00     0.136 C 
ATOM      2  O   UNL     1      72.955  73.331  76.155  1.00  0.00    -0.299 OA
ENDROOT
BRANCH   1   3
ATOM      3  C   UNL     1      74.786  74.796  76.429  1.00  0.00     0.053 C 
ATOM      4  C   UNL     1      74.760  74.205  77.848  1.00  0.00     0.016 C 
BRANCH   3   5
ATOM      5  C   UNL     1      76.236  74.707  75.883  1.00  0.00     0.015 C 
BRANCH   5   6
ATOM      6  C   UNL     1      76.807  75.962  75.197  1.00  0.00     0.028 C 
BRANCH   6   7
ATOM      7  C   UNL     1      76.079  76.384  73.945  1.00  0.00    -0.028 C 
ATOM      8  C   UNL     1      76.022  75.713  72.766  1.00  0.00    -0.070 CG0
ATOM      9  C   UNL     1      75.317  76.407  71.623  1.00  0.00     0.039 C 
ATOM     10  G   UNL     1      76.510  74.286  72.536  1.00  0.00     0.000 G0
ENDBRANCH   6   7
ENDBRANCH   5   6
ENDBRANCH   3   5
ENDBRANCH   1   3
BRANCH   1  11
ATOM     11  C   UNL     1      73.479  74.347  74.114  1.00  0.00     0.087 C 
BRANCH  11  12
ATOM     12  C   UNL     1      74.095  73.274  73.164  1.00  0.00     0.066 C 
BRANCH  12  13
ATOM     13  C   UNL     1      75.626  73.205  73.131  1.00  0.00     0.140 C 
ATOM     14  O   UNL     1      76.172  72.194  73.551  1.00  0.00    -0.299 OA
BRANCH  13  15
ATOM     15  C   UNL     1      76.499  74.280  72.526  1.00  0.00     0.106 CG0
ATOM     16  G   UNL     1      76.027  75.713  72.756  1.00  0.00     0.000 G0
ENDBRANCH  13  15
ENDBRANCH  12  13
BRANCH  12  17
ATOM     17  C   UNL     1      73.414  73.190  71.752  1.00  0.00    -0.006 C 
ATOM     18  C   UNL     1      72.860  71.807  71.370  1.00  0.00     0.008 C 
ATOM     19  C   UNL     1      72.285  74.228  71.628  1.00  0.00     0.008 C 
ENDBRANCH  12  17
ENDBRANCH  11  12
ENDBRANCH   1  11
TORSDOF 1
ENDMDL
MODEL 3
REMARK VINA RESULT:     3.003      2.101      4.497
REMARK INTER + INTRA:           4.495
REMARK INTER:                   2.892
REMARK INTRA:                   1.603
REMARK UNBOUND:                -0.088
REMARK SMILES CC1=CCC[C@H](C)C(=O)C[C@@H](C(C)C)C(=O)C1
REMARK SMILES IDX 8 1 9 2 6 3 7 4 5 5 4 6 3 7 2 8 1 9 10 11 11 12 15 13 16 14
REMARK SMILES IDX 17 15 12 17 13 18 14 19
REMARK H PARENT
REMARK Flexibility Score: 70.00
ROOT
ATOM      1  C   UNL     1      76.053  75.280  75.847  1.00  0.00     0.136 C 
ATOM      2  O   UNL     1      77.246  75.534  75.927  1.00  0.00    -0.299 OA
ENDROOT
BRANCH   1   3
ATOM      3  C   UNL     1      75.473  74.273  76.844  1.00  0.00     0.053 C 
ATOM      4  C   UNL     1      75.110  75.011  78.143  1.00  0.00     0.016 C 
BRANCH   3   5
ATOM      5  C   UNL     1      74.239  73.457  76.376  1.00  0.00     0.015 C 
BRANCH   5   6
ATOM      6  C   UNL     1      73.218  74.179  75.477  1.00  0.00     0.028 C 
BRANCH   6   7
ATOM      7  C   UNL     1      72.915  73.479  74.176  1.00  0.00    -0.028 C 
ATOM      8  C   UNL     1      72.753  74.054  72.956  1.00  0.00    -0.070 CG0
ATOM      9  C   UNL     1      72.341  73.140  71.825  1.00  0.00     0.039 C 
ATOM     10  G   UNL     1      73.056  75.510  72.618  1.00  0.00     0.000 G0
ENDBRANCH   6   7
ENDBRANCH   5   6
ENDBRANCH   3   5
ENDBRANCH   1   3
BRANCH   1  11
ATOM     11  C   UNL     1      75.254  76.013  74.797  1.00  0.00     0.087 C 
BRANCH  11  12
ATOM     12  C   UNL     1      75.628  75.711  73.313  1.00  0.00     0.066 C 
BRANCH  12  13
ATOM     13  C   UNL     1      74.488  75.833  72.295  1.00  0.00     0.140 C 
ATOM     14  O   UNL     1      74.766  76.143  71.145  1.00  0.00    -0.299 OA
BRANCH  13  15
ATOM     15  C   UNL     1      73.047  75.505  72.609  1.00  0.00     0.106 CG0
ATOM     16  G   UNL     1      72.765  74.042  72.939  1.00  0.00     0.000 G0
ENDBRANCH  13  15
ENDBRANCH  12  13
BRANCH  12  17
ATOM     17  C   UNL     1      76.537  74.446  73.117  1.00  0.00    -0.006 C 
ATOM     18  C   UNL     1      75.807  73.094  73.190  1.00  0.00     0.008 C 
ATOM     19  C   UNL     1      77.302  74.525  71.784  1.00  0.00     0.008 C 
ENDBRANCH  12  17
ENDBRANCH  11  12
ENDBRANCH   1  11
TORSDOF 1
ENDMDL
MODEL 4
REMARK VINA RESULT:     3.228      2.095      4.011
REMARK INTER + INTRA:           4.837
REMARK INTER:                   4.552
REMARK INTRA:                   0.285
REMARK UNBOUND:                -0.088
REMARK SMILES CC1=CCC[C@H](C)C(=O)C[C@@H](C(C)C)C(=O)C1
REMARK SMILES IDX 8 1 9 2 6 3 7 4 5 5 4 6 3 7 2 8 1 9 10 11 11 12 15 13 16 14
REMARK SMILES IDX 17 15 12 17 13 18 14 19
REMARK H PARENT
REMARK Flexibility Score: 70.00
ROOT
ATOM      1  C   UNL     1      74.061  73.849  76.064  1.00  0.00     0.136 C 
ATOM      2  O   UNL     1      74.212  72.653  76.264  1.00  0.00    -0.299 OA
ENDROOT
BRANCH   1   3
ATOM      3  C   UNL     1      74.938  74.819  76.861  1.00  0.00     0.053 C 
ATOM      4  C   UNL     1      75.163  74.246  78.269  1.00  0.00     0.016 C 
BRANCH   3   5
ATOM      5  C   UNL     1      76.317  75.180  76.247  1.00  0.00     0.015 C 
BRANCH   5   6
ATOM      6  C   UNL     1      76.318  76.095  75.008  1.00  0.00     0.028 C 
BRANCH   6   7
ATOM      7  C   UNL     1      76.870  75.462  73.756  1.00  0.00    -0.028 C 
ATOM      8  C   UNL     1      76.263  75.381  72.544  1.00  0.00    -0.070 CG0
ATOM      9  C   UNL     1      76.984  74.593  71.474  1.00  0.00     0.039 C 
ATOM     10  G   UNL     1      74.981  76.107  72.147  1.00  0.00     0.000 G0
ENDBRANCH   6   7
ENDBRANCH   5   6
ENDBRANCH   3   5
ENDBRANCH   1   3
BRANCH   1  11
ATOM     11  C   UNL     1      73.050  74.257  75.020  1.00  0.00     0.087 C 
BRANCH  11  12
ATOM     12  C   UNL     1      73.562  74.299  73.546  1.00  0.00     0.066 C 
BRANCH  12  13
ATOM     13  C   UNL     1      73.769  75.695  72.947  1.00  0.00     0.140 C 
ATOM     14  O   UNL     1      72.934  76.558  73.180  1.00  0.00    -0.299 OA
BRANCH  13  15
ATOM     15  C   UNL     1      74.993  76.092  72.155  1.00  0.00     0.106 CG0
ATOM     16  G   UNL     1      76.280  75.362  72.529  1.00  0.00     0.000 G0
ENDBRANCH  13  15
ENDBRANCH  12  13
BRANCH  12  17
ATOM     17  C   UNL     1      72.853  73.281  72.584  1.00  0.00    -0.006 C 
ATOM     18  C   UNL     1      71.716  73.866  71.729  1.00  0.00     0.008 C 
ATOM     19  C   UNL     1      73.876  72.606  71.654  1.00  0.00     0.008 C 
ENDBRANCH  12  17
ENDBRANCH  11  12
ENDBRANCH   1  11
TORSDOF 1
ENDMDL
MODEL 5
REMARK VINA RESULT:     3.529      1.555      3.145
REMARK INTER + INTRA:           5.297
REMARK INTER:                   2.949
REMARK INTRA:                   2.349
REMARK UNBOUND:                -0.088
REMARK SMILES CC1=CCC[C@H](C)C(=O)C[C@@H](C(C)C)C(=O)C1
REMARK SMILES IDX 8 1 9 2 6 3 7 4 5 5 4 6 3 7 2 8 1 9 10 11 11 12 15 13 16 14
REMARK SMILES IDX 17 15 12 17 13 18 14 19
REMARK H PARENT
REMARK Flexibility Score: 70.00
ROOT
ATOM      1  C   UNL     1      74.247  73.165  72.370  1.00  0.00     0.136 C 
ATOM      2  O   UNL     1      73.894  72.211  71.693  1.00  0.00    -0.299 OA
ENDROOT
BRANCH   1   3
ATOM      3  C   UNL     1      73.224  74.276  72.619  1.00  0.00     0.053 C 
ATOM      4  C   UNL     1      71.982  74.014  71.753  1.00  0.00     0.016 C 
BRANCH   3   5
ATOM      5  C   UNL     1      72.768  74.491  74.087  1.00  0.00     0.015 C 
BRANCH   5   6
ATOM      6  C   UNL     1      73.222  73.448  75.125  1.00  0.00     0.028 C 
BRANCH   6   7
ATOM      7  C   UNL     1      73.666  74.023  76.446  1.00  0.00    -0.028 C 
ATOM      8  C   UNL     1      74.938  74.302  76.830  1.00  0.00    -0.070 CG0
ATOM      9  C   UNL     1      75.130  74.769  78.255  1.00  0.00     0.039 C 
ATOM     10  G   UNL     1      76.161  74.289  75.918  1.00  0.00     0.000 G0
ENDBRANCH   6   7
ENDBRANCH   5   6
ENDBRANCH   3   5
ENDBRANCH   1   3
BRANCH   1  11
ATOM     11  C   UNL     1      75.648  73.138  72.933  1.00  0.00     0.087 C 
BRANCH  11  12
ATOM     12  C   UNL     1      76.291  74.525  73.244  1.00  0.00     0.066 C 
BRANCH  12  13
ATOM     13  C   UNL     1      76.007  75.099  74.637  1.00  0.00     0.140 C 
ATOM     14  O   UNL     1      75.565  76.237  74.718  1.00  0.00    -0.299 OA
BRANCH  13  15
ATOM     15  C   UNL     1      76.160  74.308  75.916  1.00  0.00     0.106 CG0
ATOM     16  G   UNL     1      74.947  74.320  76.841  1.00  0.00     0.000 G0
ENDBRANCH  13  15
ENDBRANCH  12  13
BRANCH  12  17
ATOM     17  C   UNL     1      76.176  75.570  72.079  1.00  0.00    -0.006 C 
ATOM     18  C   UNL     1      74.912  76.447  72.104  1.00  0.00     0.008 C 
ATOM     19  C   UNL     1      77.413  76.483  72.040  1.00  0.00     0.008 C 
ENDBRANCH  12  17
ENDBRANCH  11  12
ENDBRANCH   1  11
TORSDOF 1
ENDMDL
MODEL 6
REMARK VINA RESULT:     3.614      2.176      4.465
REMARK INTER + INTRA:           5.427
REMARK INTER:                   4.232
REMARK INTRA:                   1.195
REMARK UNBOUND:                -0.088
REMARK SMILES CC1=CCC[C@H](C)C(=O)C[C@@H](C(C)C)C(=O)C1
REMARK SMILES IDX 8 1 9 2 6 3 7 4 5 5 4 6 3 7 2 8 1 9 10 11 11 12 15 13 16 14
REMARK SMILES IDX 17 15 12 17 13 18 14 19
REMARK H PARENT
REMARK Flexibility Score: 70.00
ROOT
ATOM      1  C   UNL     1      75.853  74.985  75.691  1.00  0.00     0.136 C 
ATOM      2  O   UNL     1      76.128  76.124  76.037  1.00  0.00    -0.299 OA
ENDROOT
BRANCH   1   3
ATOM      3  C   UNL     1      75.293  74.035  76.753  1.00  0.00     0.053 C 
ATOM      4  C   UNL     1      75.314  74.744  78.116  1.00  0.00     0.016 C 
BRANCH   3   5
ATOM      5  C   UNL     1      73.867  73.475  76.508  1.00  0.00     0.015 C 
BRANCH   5   6
ATOM      6  C   UNL     1      73.104  74.005  75.279  1.00  0.00     0.028 C 
BRANCH   6   7
ATOM      7  C   UNL     1      73.170  73.116  74.062  1.00  0.00    -0.028 C 
ATOM      8  C   UNL     1      73.116  73.505  72.762  1.00  0.00    -0.070 CG0
ATOM      9  C   UNL     1      73.088  72.405  71.726  1.00  0.00     0.039 C 
ATOM     10  G   UNL     1      73.191  74.945  72.266  1.00  0.00     0.000 G0
ENDBRANCH   6   7
ENDBRANCH   5   6
ENDBRANCH   3   5
ENDBRANCH   1   3
BRANCH   1  11
ATOM     11  C   UNL     1      76.053  74.633  74.236  1.00  0.00     0.087 C 
BRANCH  11  12
ATOM     12  C   UNL     1      75.585  75.701  73.200  1.00  0.00     0.066 C 
BRANCH  12  13
ATOM     13  C   UNL     1      74.069  75.879  73.058  1.00  0.00     0.140 C 
ATOM     14  O   UNL     1      73.550  76.868  73.556  1.00  0.00    -0.299 OA
BRANCH  13  15
ATOM     15  C   UNL     1      73.187  74.946  72.259  1.00  0.00     0.106 CG0
ATOM     16  G   UNL     1      73.135  73.506  72.761  1.00  0.00     0.000 G0
ENDBRANCH  13  15
ENDBRANCH  12  13
BRANCH  12  17
ATOM     17  C   UNL     1      76.362  75.666  71.836  1.00  0.00    -0.006 C 
ATOM     18  C   UNL     1      75.995  74.501  70.900  1.00  0.00     0.008 C 
ATOM     19  C   UNL     1      76.185  76.990  71.072  1.00  0.00     0.008 C 
ENDBRANCH  12  17
ENDBRANCH  11  12
ENDBRANCH   1  11
TORSDOF 1
ENDMDL
MODEL 7
REMARK VINA RESULT:     3.688      1.547      4.158
REMARK INTER + INTRA:           5.541
REMARK INTER:                   3.359
REMARK INTRA:                   2.181
REMARK UNBOUND:                -0.088
REMARK SMILES CC1=CCC[C@H](C)C(=O)C[C@@H](C(C)C)C(=O)C1
REMARK SMILES IDX 8 1 9 2 6 3 7 4 5 5 4 6 3 7 2 8 1 9 10 11 11 12 15 13 16 14
REMARK SMILES IDX 17 15 12 17 13 18 14 19
REMARK H PARENT
REMARK Flexibility Score: 70.00
ROOT
ATOM      1  C   UNL     1      75.950  74.183  72.884  1.00  0.00     0.136 C 
ATOM      2  O   UNL     1      75.900  73.478  71.887  1.00  0.00    -0.299 OA
ENDROOT
BRANCH   1   3
ATOM      3  C   UNL     1      75.922  75.700  72.684  1.00  0.00     0.053 C 
ATOM      4  C   UNL     1      77.259  76.146  72.071  1.00  0.00     0.016 C 
BRANCH   3   5
ATOM      5  C   UNL     1      74.767  76.270  71.819  1.00  0.00     0.015 C 
BRANCH   5   6
ATOM      6  C   UNL     1      73.345  75.759  72.118  1.00  0.00     0.028 C 
BRANCH   6   7
ATOM      7  C   UNL     1      73.047  74.377  71.592  1.00  0.00    -0.028 C 
ATOM      8  C   UNL     1      72.840  73.251  72.322  1.00  0.00    -0.070 CG0
ATOM      9  C   UNL     1      72.671  71.963  71.550  1.00  0.00     0.039 C 
ATOM     10  G   UNL     1      72.657  73.200  73.836  1.00  0.00     0.000 G0
ENDBRANCH   6   7
ENDBRANCH   5   6
ENDBRANCH   3   5
ENDBRANCH   1   3
BRANCH   1  11
ATOM     11  C   UNL     1      75.993  73.489  74.225  1.00  0.00     0.087 C 
BRANCH  11  12
ATOM     12  C   UNL     1      74.865  73.870  75.233  1.00  0.00     0.066 C 
BRANCH  12  13
ATOM     13  C   UNL     1      73.501  74.206  74.620  1.00  0.00     0.140 C 
ATOM     14  O   UNL     1      73.095  75.357  74.700  1.00  0.00    -0.299 OA
BRANCH  13  15
ATOM     15  C   UNL     1      72.666  73.215  73.841  1.00  0.00     0.106 CG0
ATOM     16  G   UNL     1      72.850  73.251  72.327  1.00  0.00     0.000 G0
ENDBRANCH  13  15
ENDBRANCH  12  13
BRANCH  12  17
ATOM     17  C   UNL     1      75.318  74.847  76.375  1.00  0.00    -0.006 C 
ATOM     18  C   UNL     1      75.383  74.229  77.782  1.00  0.00     0.008 C 
ATOM     19  C   UNL     1      76.684  75.475  76.046  1.00  0.00     0.008 C 
ENDBRANCH  12  17
ENDBRANCH  11  12
ENDBRANCH   1  11
TORSDOF 1
ENDMDL
MODEL 8
REMARK VINA RESULT:     4.039      1.886      4.713
REMARK INTER + INTRA:           6.076
REMARK INTER:                   4.179
REMARK INTRA:                   1.896
REMARK UNBOUND:                -0.088
REMARK SMILES CC1=CCC[C@H](C)C(=O)C[C@@H](C(C)C)C(=O)C1
REMARK SMILES IDX 8 1 9 2 6 3 7 4 5 5 4 6 3 7 2 8 1 9 10 11 11 12 15 13 16 14
REMARK SMILES IDX 17 15 12 17 13 18 14 19
REMARK H PARENT
REMARK Flexibility Score: 70.00
ROOT
ATOM      1  C   UNL     1      73.136  74.674  73.745  1.00  0.00     0.136 C 
ATOM      2  O   UNL     1      73.460  75.843  73.598  1.00  0.00    -0.299 OA
ENDROOT
BRANCH   1   3
ATOM      3  C   UNL     1      72.433  73.979  72.576  1.00  0.00     0.053 C 
ATOM      4  C   UNL     1      72.305  74.973  71.410  1.00  0.00     0.016 C 
BRANCH   3   5
ATOM      5  C   UNL     1      73.082  72.674  72.045  1.00  0.00     0.015 C 
BRANCH   5   6
ATOM      6  C   UNL     1      74.620  72.599  72.054  1.00  0.00     0.028 C 
BRANCH   6   7
ATOM      7  C   UNL     1      75.318  73.899  71.740  1.00  0.00    -0.028 C 
ATOM      8  C   UNL     1      76.050  74.661  72.594  1.00  0.00    -0.070 CG0
ATOM      9  C   UNL     1      76.553  75.983  72.062  1.00  0.00     0.039 C 
ATOM     10  G   UNL     1      76.492  74.244  73.993  1.00  0.00     0.000 G0
ENDBRANCH   6   7
ENDBRANCH   5   6
ENDBRANCH   3   5
ENDBRANCH   1   3
BRANCH   1  11
ATOM     11  C   UNL     1      73.497  74.011  75.053  1.00  0.00     0.087 C 
BRANCH  11  12
ATOM     12  C   UNL     1      74.611  74.708  75.892  1.00  0.00     0.066 C 
BRANCH  12  13
ATOM     13  C   UNL     1      75.895  75.068  75.136  1.00  0.00     0.140 C 
ATOM     14  O   UNL     1      76.534  76.043  75.507  1.00  0.00    -0.299 OA
BRANCH  13  15
ATOM     15  C   UNL     1      76.466  74.236  74.011  1.00  0.00     0.106 CG0
ATOM     16  G   UNL     1      76.040  74.653  72.607  1.00  0.00     0.000 G0
ENDBRANCH  13  15
ENDBRANCH  12  13
BRANCH  12  17
ATOM     17  C   UNL     1      74.852  74.071  77.307  1.00  0.00    -0.006 C 
ATOM     18  C   UNL     1      76.321  73.772  77.652  1.00  0.00     0.008 C 
ATOM     19  C   UNL     1      74.253  74.956  78.414  1.00  0.00     0.008 C 
ENDBRANCH  12  17
ENDBRANCH  11  12
ENDBRANCH   1  11
TORSDOF 1
ENDMDL
MODEL 9
REMARK VINA RESULT:     4.133      1.811      4.331
REMARK INTER + INTRA:           6.219
REMARK INTER:                   4.378
REMARK INTRA:                   1.841
REMARK UNBOUND:                -0.088
REMARK SMILES CC1=CCC[C@H](C)C(=O)C[C@@H](C(C)C)C(=O)C1
REMARK SMILES IDX 8 1 9 2 6 3 7 4 5 5 4 6 3 7 2 8 1 9 10 11 11 12 15 13 16 14
REMARK SMILES IDX 17 15 12 17 13 18 14 19
REMARK H PARENT
REMARK Flexibility Score: 70.00
ROOT
ATOM      1  C   UNL     1      75.645  75.774  74.115  1.00  0.00     0.136 C 
ATOM      2  O   UNL     1      74.972  76.640  74.655  1.00  0.00    -0.299 OA
ENDROOT
BRANCH   1   3
ATOM      3  C   UNL     1      75.881  75.894  72.608  1.00  0.00     0.053 C 
ATOM      4  C   UNL     1      76.710  74.688  72.136  1.00  0.00     0.016 C 
BRANCH   3   5
ATOM      5  C   UNL     1      74.622  76.011  71.710  1.00  0.00     0.015 C 
BRANCH   5   6
ATOM      6  C   UNL     1      73.282  75.547  72.312  1.00  0.00     0.028 C 
BRANCH   6   7
ATOM      7  C   UNL     1      72.798  74.207  71.818  1.00  0.00    -0.028 C 
ATOM      8  C   UNL     1      73.341  72.991  72.088  1.00  0.00    -0.070 CG0
ATOM      9  C   UNL     1      72.733  71.804  71.376  1.00  0.00     0.039 C 
ATOM     10  G   UNL     1      74.428  72.718  73.122  1.00  0.00     0.000 G0
ENDBRANCH   6   7
ENDBRANCH   5   6
ENDBRANCH   3   5
ENDBRANCH   1   3
BRANCH   1  11
ATOM     11  C   UNL     1      76.215  74.687  74.995  1.00  0.00     0.087 C 
BRANCH  11  12
ATOM     12  C   UNL     1      75.203  73.617  75.509  1.00  0.00     0.066 C 
BRANCH  12  13
ATOM     13  C   UNL     1      74.118  73.188  74.515  1.00  0.00     0.140 C 
ATOM     14  O   UNL     1      72.946  73.305  74.846  1.00  0.00    -0.299 OA
BRANCH  13  15
ATOM     15  C   UNL     1      74.410  72.709  73.111  1.00  0.00     0.106 CG0
ATOM     16  G   UNL     1      73.318  72.991  72.083  1.00  0.00     0.000 G0
ENDBRANCH  13  15
ENDBRANCH  12  13
BRANCH  12  17
ATOM     17  C   UNL     1      74.682  73.864  76.968  1.00  0.00    -0.006 C 
ATOM     18  C   UNL     1      75.648  74.625  77.892  1.00  0.00     0.008 C 
ATOM     19  C   UNL     1      73.331  74.601  76.948  1.00  0.00     0.008 C 
ENDBRANCH  12  17
ENDBRANCH  11  12
ENDBRANCH   1  11
TORSDOF 1
ENDMDL
