MODEL 1
REMARK VINA RESULT:    -4.035      0.000      0.000
REMARK INTER + INTRA:          -6.211
REMARK INTER:                  -6.159
REMARK INTRA:                  -0.052
REMARK UNBOUND:                -0.052
REMARK SMILES CC1=CCC[C@H](C)C(=O)C[C@@H](C(C)C)C(=O)C1
REMARK SMILES IDX 8 1 9 2 6 3 7 4 5 5 4 6 3 7 2 8 1 9 10 11 11 12 15 13 16 14
REMARK SMILES IDX 17 15 12 17 13 18 14 19
REMARK H PARENT
REMARK Flexibility Score: 70.00
ROOT
ATOM      1  C   UNL     1     -25.138   3.621  -2.397  1.00  0.00     0.136 C 
ATOM      2  O   UNL     1     -26.246   3.744  -2.894  1.00  0.00    -0.299 OA
ENDROOT
BRANCH   1   3
ATOM      3  C   UNL     1     -24.708   4.645  -1.354  1.00  0.00     0.053 C 
ATOM      4  C   UNL     1     -25.875   5.418  -0.719  1.00  0.00     0.016 C 
BRANCH   3   5
ATOM      5  C   UNL     1     -23.736   4.038  -0.320  1.00  0.00     0.015 C 
BRANCH   5   6
ATOM      6  C   UNL     1     -24.395   3.129   0.736  1.00  0.00     0.028 C 
BRANCH   6   7
ATOM      7  C   UNL     1     -23.495   1.961   1.053  1.00  0.00    -0.028 C 
ATOM      8  C   UNL     1     -23.635   0.721   0.528  1.00  0.00    -0.070 CG0
ATOM      9  C   UNL     1     -22.582  -0.308   0.854  1.00  0.00     0.039 C 
ATOM     10  G   UNL     1     -24.826   0.317  -0.328  1.00  0.00     0.000 G0
ENDBRANCH   6   7
ENDBRANCH   5   6
ENDBRANCH   3   5
ENDBRANCH   1   3
BRANCH   1  11
ATOM     11  C   UNL     1     -24.268   2.458  -2.835  1.00  0.00     0.087 C 
BRANCH  11  12
ATOM     12  C   UNL     1     -24.964   1.061  -2.857  1.00  0.00     0.066 C 
BRANCH  12  13
ATOM     13  C   UNL     1     -24.450   0.101  -1.791  1.00  0.00     0.140 C 
ATOM     14  O   UNL     1     -23.796  -0.880  -2.111  1.00  0.00    -0.299 OA
BRANCH  13  15
ATOM     15  C   UNL     1     -24.819   0.300  -0.338  1.00  0.00     0.106 CG0
ATOM     16  G   UNL     1     -23.639   0.734   0.517  1.00  0.00     0.000 G0
ENDBRANCH  13  15
ENDBRANCH  12  13
BRANCH  12  17
ATOM     17  C   UNL     1     -25.052   0.377  -4.262  1.00  0.00    -0.006 C 
ATOM     18  C   UNL     1     -26.383  -0.371  -4.448  1.00  0.00     0.008 C 
ATOM     19  C   UNL     1     -24.818   1.324  -5.449  1.00  0.00     0.008 C 
ENDBRANCH  12  17
ENDBRANCH  11  12
ENDBRANCH   1  11
TORSDOF 1
ENDMDL
MODEL 2
REMARK VINA RESULT:    -3.827      1.793      4.211
REMARK INTER + INTRA:          -5.892
REMARK INTER:                  -5.735
REMARK INTRA:                  -0.157
REMARK UNBOUND:                -0.052
REMARK SMILES CC1=CCC[C@H](C)C(=O)C[C@@H](C(C)C)C(=O)C1
REMARK SMILES IDX 8 1 9 2 6 3 7 4 5 5 4 6 3 7 2 8 1 9 10 11 11 12 15 13 16 14
REMARK SMILES IDX 17 15 12 17 13 18 14 19
REMARK H PARENT
REMARK Flexibility Score: 70.00
ROOT
ATOM      1  C   UNL     1     -23.743   0.386  -0.506  1.00  0.00     0.136 C 
ATOM      2  O   UNL     1     -23.349  -0.270  -1.457  1.00  0.00    -0.299 OA
ENDROOT
BRANCH   1   3
ATOM      3  C   UNL     1     -22.982   0.265   0.808  1.00  0.00     0.053 C 
ATOM      4  C   UNL     1     -22.579  -1.175   1.165  1.00  0.00     0.016 C 
BRANCH   3   5
ATOM      5  C   UNL     1     -21.814   1.270   0.890  1.00  0.00     0.015 C 
BRANCH   5   6
ATOM      6  C   UNL     1     -22.120   2.560   1.676  1.00  0.00     0.028 C 
BRANCH   6   7
ATOM      7  C   UNL     1     -21.881   3.769   0.807  1.00  0.00    -0.028 C 
ATOM      8  C   UNL     1     -22.862   4.527   0.263  1.00  0.00    -0.070 CG0
ATOM      9  C   UNL     1     -22.459   5.773  -0.486  1.00  0.00     0.039 C 
ATOM     10  G   UNL     1     -24.333   4.148   0.334  1.00  0.00     0.000 G0
ENDBRANCH   6   7
ENDBRANCH   5   6
ENDBRANCH   3   5
ENDBRANCH   1   3
BRANCH   1  11
ATOM     11  C   UNL     1     -24.951   1.286  -0.692  1.00  0.00     0.087 C 
BRANCH  11  12
ATOM     12  C   UNL     1     -24.759   2.485  -1.673  1.00  0.00     0.066 C 
BRANCH  12  13
ATOM     13  C   UNL     1     -24.943   3.849  -1.018  1.00  0.00     0.140 C 
ATOM     14  O   UNL     1     -25.518   4.745  -1.617  1.00  0.00    -0.299 OA
BRANCH  13  15
ATOM     15  C   UNL     1     -24.339   4.136   0.337  1.00  0.00     0.106 CG0
ATOM     16  G   UNL     1     -22.873   4.534   0.258  1.00  0.00     0.000 G0
ENDBRANCH  13  15
ENDBRANCH  12  13
BRANCH  12  17
ATOM     17  C   UNL     1     -25.540   2.378  -3.025  1.00  0.00    -0.006 C 
ATOM     18  C   UNL     1     -24.598   2.494  -4.235  1.00  0.00     0.008 C 
ATOM     19  C   UNL     1     -26.410   1.120  -3.162  1.00  0.00     0.008 C 
ENDBRANCH  12  17
ENDBRANCH  11  12
ENDBRANCH   1  11
TORSDOF 1
ENDMDL
MODEL 3
REMARK VINA RESULT:    -3.683      1.782      4.901
REMARK INTER + INTRA:          -5.672
REMARK INTER:                  -5.985
REMARK INTRA:                   0.312
REMARK UNBOUND:                -0.052
REMARK SMILES CC1=CCC[C@H](C)C(=O)C[C@@H](C(C)C)C(=O)C1
REMARK SMILES IDX 8 1 9 2 6 3 7 4 5 5 4 6 3 7 2 8 1 9 10 11 11 12 15 13 16 14
REMARK SMILES IDX 17 15 12 17 13 18 14 19
REMARK H PARENT
REMARK Flexibility Score: 70.00
ROOT
ATOM      1  C   UNL     1     -24.448  -0.398  -2.800  1.00  0.00     0.136 C 
ATOM      2  O   UNL     1     -24.617  -1.579  -2.536  1.00  0.00    -0.299 OA
ENDROOT
BRANCH   1   3
ATOM      3  C   UNL     1     -25.374   0.241  -3.826  1.00  0.00     0.053 C 
ATOM      4  C   UNL     1     -26.349  -0.745  -4.489  1.00  0.00     0.016 C 
BRANCH   3   5
ATOM      5  C   UNL     1     -26.061   1.506  -3.269  1.00  0.00     0.015 C 
BRANCH   5   6
ATOM      6  C   UNL     1     -25.337   2.831  -3.583  1.00  0.00     0.028 C 
BRANCH   6   7
ATOM      7  C   UNL     1     -25.593   3.836  -2.488  1.00  0.00    -0.028 C 
ATOM      8  C   UNL     1     -24.783   4.031  -1.421  1.00  0.00    -0.070 CG0
ATOM      9  C   UNL     1     -25.117   5.157  -0.475  1.00  0.00     0.039 C 
ATOM     10  G   UNL     1     -23.591   3.136  -1.116  1.00  0.00     0.000 G0
ENDBRANCH   6   7
ENDBRANCH   5   6
ENDBRANCH   3   5
ENDBRANCH   1   3
BRANCH   1  11
ATOM     11  C   UNL     1     -23.342   0.357  -2.087  1.00  0.00     0.087 C 
BRANCH  11  12
ATOM     12  C   UNL     1     -23.543   0.566  -0.553  1.00  0.00     0.066 C 
BRANCH  12  13
ATOM     13  C   UNL     1     -23.905   1.997  -0.171  1.00  0.00     0.140 C 
ATOM     14  O   UNL     1     -24.529   2.220   0.856  1.00  0.00    -0.299 OA
BRANCH  13  15
ATOM     15  C   UNL     1     -23.578   3.144  -1.099  1.00  0.00     0.106 CG0
ATOM     16  G   UNL     1     -24.780   4.027  -1.395  1.00  0.00     0.000 G0
ENDBRANCH  13  15
ENDBRANCH  12  13
BRANCH  12  17
ATOM     17  C   UNL     1     -22.409  -0.010   0.358  1.00  0.00    -0.006 C 
ATOM     18  C   UNL     1     -21.396   1.075   0.759  1.00  0.00     0.008 C 
ATOM     19  C   UNL     1     -22.908  -0.743   1.612  1.00  0.00     0.008 C 
ENDBRANCH  12  17
ENDBRANCH  11  12
ENDBRANCH   1  11
TORSDOF 1
ENDMDL
MODEL 4
REMARK VINA RESULT:    -3.669      1.559      1.977
REMARK INTER + INTRA:          -5.651
REMARK INTER:                  -5.656
REMARK INTRA:                   0.005
REMARK UNBOUND:                -0.052
REMARK SMILES CC1=CCC[C@H](C)C(=O)C[C@@H](C(C)C)C(=O)C1
REMARK SMILES IDX 8 1 9 2 6 3 7 4 5 5 4 6 3 7 2 8 1 9 10 11 11 12 15 13 16 14
REMARK SMILES IDX 17 15 12 17 13 18 14 19
REMARK H PARENT
REMARK Flexibility Score: 70.00
ROOT
ATOM      1  C   UNL     1     -24.464   3.955  -1.194  1.00  0.00     0.136 C 
ATOM      2  O   UNL     1     -25.630   4.239  -1.424  1.00  0.00    -0.299 OA
ENDROOT
BRANCH   1   3
ATOM      3  C   UNL     1     -23.686   4.856  -0.244  1.00  0.00     0.053 C 
ATOM      4  C   UNL     1     -23.392   6.254  -0.810  1.00  0.00     0.016 C 
BRANCH   3   5
ATOM      5  C   UNL     1     -24.313   4.881   1.166  1.00  0.00     0.015 C 
BRANCH   5   6
ATOM      6  C   UNL     1     -23.705   3.878   2.166  1.00  0.00     0.028 C 
BRANCH   6   7
ATOM      7  C   UNL     1     -22.356   3.411   1.680  1.00  0.00    -0.028 C 
ATOM      8  C   UNL     1     -22.123   2.209   1.102  1.00  0.00    -0.070 CG0
ATOM      9  C   UNL     1     -20.741   1.939   0.563  1.00  0.00     0.039 C 
ATOM     10  G   UNL     1     -23.176   1.114   1.022  1.00  0.00     0.000 G0
ENDBRANCH   6   7
ENDBRANCH   5   6
ENDBRANCH   3   5
ENDBRANCH   1   3
BRANCH   1  11
ATOM     11  C   UNL     1     -23.871   2.724  -1.853  1.00  0.00     0.087 C 
BRANCH  11  12
ATOM     12  C   UNL     1     -24.397   1.351  -1.327  1.00  0.00     0.066 C 
BRANCH  12  13
ATOM     13  C   UNL     1     -23.412   0.623  -0.419  1.00  0.00     0.140 C 
ATOM     14  O   UNL     1     -22.855  -0.392  -0.807  1.00  0.00    -0.299 OA
BRANCH  13  15
ATOM     15  C   UNL     1     -23.185   1.096   0.999  1.00  0.00     0.106 CG0
ATOM     16  G   UNL     1     -22.138   2.195   1.095  1.00  0.00     0.000 G0
ENDBRANCH  13  15
ENDBRANCH  12  13
BRANCH  12  17
ATOM     17  C   UNL     1     -24.998   0.401  -2.415  1.00  0.00    -0.006 C 
ATOM     18  C   UNL     1     -26.454   0.022  -2.097  1.00  0.00     0.008 C 
ATOM     19  C   UNL     1     -24.902   0.934  -3.852  1.00  0.00     0.008 C 
ENDBRANCH  12  17
ENDBRANCH  11  12
ENDBRANCH   1  11
TORSDOF 1
ENDMDL
MODEL 5
REMARK VINA RESULT:    -3.631      2.001      2.816
REMARK INTER + INTRA:          -5.593
REMARK INTER:                  -5.422
REMARK INTRA:                  -0.171
REMARK UNBOUND:                -0.052
REMARK SMILES CC1=CCC[C@H](C)C(=O)C[C@@H](C(C)C)C(=O)C1
REMARK SMILES IDX 8 1 9 2 6 3 7 4 5 5 4 6 3 7 2 8 1 9 10 11 11 12 15 13 16 14
REMARK SMILES IDX 17 15 12 17 13 18 14 19
REMARK H PARENT
REMARK Flexibility Score: 70.00
ROOT
ATOM      1  C   UNL     1     -25.021   4.000  -1.856  1.00  0.00     0.136 C 
ATOM      2  O   UNL     1     -25.959   3.625  -2.543  1.00  0.00    -0.299 OA
ENDROOT
BRANCH   1   3
ATOM      3  C   UNL     1     -24.992   5.462  -1.429  1.00  0.00     0.053 C 
ATOM      4  C   UNL     1     -26.293   5.945  -0.767  1.00  0.00     0.016 C 
BRANCH   3   5
ATOM      5  C   UNL     1     -23.725   5.797  -0.614  1.00  0.00     0.015 C 
BRANCH   5   6
ATOM      6  C   UNL     1     -23.916   5.792   0.916  1.00  0.00     0.028 C 
BRANCH   6   7
ATOM      7  C   UNL     1     -22.741   5.124   1.586  1.00  0.00    -0.028 C 
ATOM      8  C   UNL     1     -22.696   3.815   1.927  1.00  0.00    -0.070 CG0
ATOM      9  C   UNL     1     -21.402   3.274   2.483  1.00  0.00     0.039 C 
ATOM     10  G   UNL     1     -23.900   2.892   1.820  1.00  0.00     0.000 G0
ENDBRANCH   6   7
ENDBRANCH   5   6
ENDBRANCH   3   5
ENDBRANCH   1   3
BRANCH   1  11
ATOM     11  C   UNL     1     -23.956   2.993  -1.463  1.00  0.00     0.087 C 
BRANCH  11  12
ATOM     12  C   UNL     1     -24.433   1.827  -0.541  1.00  0.00     0.066 C 
BRANCH  12  13
ATOM     13  C   UNL     1     -23.708   1.767   0.799  1.00  0.00     0.140 C 
ATOM     14  O   UNL     1     -23.031   0.793   1.088  1.00  0.00    -0.299 OA
BRANCH  13  15
ATOM     15  C   UNL     1     -23.892   2.869   1.818  1.00  0.00     0.106 CG0
ATOM     16  G   UNL     1     -22.695   3.802   1.902  1.00  0.00     0.000 G0
ENDBRANCH  13  15
ENDBRANCH  12  13
BRANCH  12  17
ATOM     17  C   UNL     1     -24.510   0.421  -1.224  1.00  0.00    -0.006 C 
ATOM     18  C   UNL     1     -25.962   0.018  -1.532  1.00  0.00     0.008 C 
ATOM     19  C   UNL     1     -23.652   0.277  -2.489  1.00  0.00     0.008 C 
ENDBRANCH  12  17
ENDBRANCH  11  12
ENDBRANCH   1  11
TORSDOF 1
ENDMDL
MODEL 6
REMARK VINA RESULT:    -3.628      2.853      4.250
REMARK INTER + INTRA:          -5.589
REMARK INTER:                  -5.392
REMARK INTRA:                  -0.197
REMARK UNBOUND:                -0.052
REMARK SMILES CC1=CCC[C@H](C)C(=O)C[C@@H](C(C)C)C(=O)C1
REMARK SMILES IDX 8 1 9 2 6 3 7 4 5 5 4 6 3 7 2 8 1 9 10 11 11 12 15 13 16 14
REMARK SMILES IDX 17 15 12 17 13 18 14 19
REMARK H PARENT
REMARK Flexibility Score: 70.00
ROOT
ATOM      1  C   UNL     1     -23.711   3.727  -0.981  1.00  0.00     0.136 C 
ATOM      2  O   UNL     1     -24.698   3.533  -1.673  1.00  0.00    -0.299 OA
ENDROOT
BRANCH   1   3
ATOM      3  C   UNL     1     -23.731   4.914  -0.028  1.00  0.00     0.053 C 
ATOM      4  C   UNL     1     -24.252   6.214  -0.660  1.00  0.00     0.016 C 
BRANCH   3   5
ATOM      5  C   UNL     1     -24.413   4.563   1.312  1.00  0.00     0.015 C 
BRANCH   5   6
ATOM      6  C   UNL     1     -23.448   4.316   2.488  1.00  0.00     0.028 C 
BRANCH   6   7
ATOM      7  C   UNL     1     -22.137   5.018   2.242  1.00  0.00    -0.028 C 
ATOM      8  C   UNL     1     -20.962   4.388   2.007  1.00  0.00    -0.070 CG0
ATOM      9  C   UNL     1     -19.762   5.235   1.663  1.00  0.00     0.039 C 
ATOM     10  G   UNL     1     -20.796   2.881   2.125  1.00  0.00     0.000 G0
ENDBRANCH   6   7
ENDBRANCH   5   6
ENDBRANCH   3   5
ENDBRANCH   1   3
BRANCH   1  11
ATOM     11  C   UNL     1     -22.537   2.773  -1.104  1.00  0.00     0.087 C 
BRANCH  11  12
ATOM     12  C   UNL     1     -22.240   1.896   0.152  1.00  0.00     0.066 C 
BRANCH  12  13
ATOM     13  C   UNL     1     -20.884   2.175   0.791  1.00  0.00     0.140 C 
ATOM     14  O   UNL     1     -19.863   1.754   0.271  1.00  0.00    -0.299 OA
BRANCH  13  15
ATOM     15  C   UNL     1     -20.796   2.895   2.117  1.00  0.00     0.106 CG0
ATOM     16  G   UNL     1     -20.972   4.400   1.985  1.00  0.00     0.000 G0
ENDBRANCH  13  15
ENDBRANCH  12  13
BRANCH  12  17
ATOM     17  C   UNL     1     -22.495   0.362  -0.024  1.00  0.00    -0.006 C 
ATOM     18  C   UNL     1     -23.040  -0.276   1.265  1.00  0.00     0.008 C 
ATOM     19  C   UNL     1     -23.404  -0.002  -1.207  1.00  0.00     0.008 C 
ENDBRANCH  12  17
ENDBRANCH  11  12
ENDBRANCH   1  11
TORSDOF 1
ENDMDL
MODEL 7
REMARK VINA RESULT:    -3.612      5.346      7.870
REMARK INTER + INTRA:          -5.564
REMARK INTER:                  -5.582
REMARK INTRA:                   0.018
REMARK UNBOUND:                -0.052
REMARK SMILES CC1=CCC[C@H](C)C(=O)C[C@@H](C(C)C)C(=O)C1
REMARK SMILES IDX 8 1 9 2 6 3 7 4 5 5 4 6 3 7 2 8 1 9 10 11 11 12 15 13 16 14
REMARK SMILES IDX 17 15 12 17 13 18 14 19
REMARK H PARENT
REMARK Flexibility Score: 70.00
ROOT
ATOM      1  C   UNL     1     -27.372  -4.555  -5.896  1.00  0.00     0.136 C 
ATOM      2  O   UNL     1     -26.645  -5.394  -6.405  1.00  0.00    -0.299 OA
ENDROOT
BRANCH   1   3
ATOM      3  C   UNL     1     -27.374  -4.442  -4.377  1.00  0.00     0.053 C 
ATOM      4  C   UNL     1     -27.433  -5.796  -3.650  1.00  0.00     0.016 C 
BRANCH   3   5
ATOM      5  C   UNL     1     -26.246  -3.519  -3.869  1.00  0.00     0.015 C 
BRANCH   5   6
ATOM      6  C   UNL     1     -26.691  -2.087  -3.510  1.00  0.00     0.028 C 
BRANCH   6   7
ATOM      7  C   UNL     1     -25.890  -1.080  -4.296  1.00  0.00    -0.028 C 
ATOM      8  C   UNL     1     -26.327  -0.459  -5.417  1.00  0.00    -0.070 CG0
ATOM      9  C   UNL     1     -25.451   0.610  -6.020  1.00  0.00     0.039 C 
ATOM     10  G   UNL     1     -27.629  -0.828  -6.110  1.00  0.00     0.000 G0
ENDBRANCH   6   7
ENDBRANCH   5   6
ENDBRANCH   3   5
ENDBRANCH   1   3
BRANCH   1  11
ATOM     11  C   UNL     1     -28.214  -3.675  -6.801  1.00  0.00     0.087 C 
BRANCH  11  12
ATOM     12  C   UNL     1     -27.425  -2.817  -7.839  1.00  0.00     0.066 C 
BRANCH  12  13
ATOM     13  C   UNL     1     -27.442  -1.322  -7.540  1.00  0.00     0.140 C 
ATOM     14  O   UNL     1     -27.217  -0.516  -8.429  1.00  0.00    -0.299 OA
BRANCH  13  15
ATOM     15  C   UNL     1     -27.645  -0.827  -6.126  1.00  0.00     0.106 CG0
ATOM     16  G   UNL     1     -26.340  -0.474  -5.430  1.00  0.00     0.000 G0
ENDBRANCH  13  15
ENDBRANCH  12  13
BRANCH  12  17
ATOM     17  C   UNL     1     -27.751  -3.113  -9.340  1.00  0.00    -0.006 C 
ATOM     18  C   UNL     1     -26.484  -3.472 -10.136  1.00  0.00     0.008 C 
ATOM     19  C   UNL     1     -28.824  -4.189  -9.561  1.00  0.00     0.008 C 
ENDBRANCH  12  17
ENDBRANCH  11  12
ENDBRANCH   1  11
TORSDOF 1
ENDMDL
MODEL 8
REMARK VINA RESULT:    -3.551      3.725      6.688
REMARK INTER + INTRA:          -5.471
REMARK INTER:                  -5.240
REMARK INTRA:                  -0.231
REMARK UNBOUND:                -0.052
REMARK SMILES CC1=CCC[C@H](C)C(=O)C[C@@H](C(C)C)C(=O)C1
REMARK SMILES IDX 8 1 9 2 6 3 7 4 5 5 4 6 3 7 2 8 1 9 10 11 11 12 15 13 16 14
REMARK SMILES IDX 17 15 12 17 13 18 14 19
REMARK H PARENT
REMARK Flexibility Score: 70.00
ROOT
ATOM      1  C   UNL     1     -20.778   2.471   0.199  1.00  0.00     0.136 C 
ATOM      2  O   UNL     1     -19.808   1.731   0.140  1.00  0.00    -0.299 OA
ENDROOT
BRANCH   1   3
ATOM      3  C   UNL     1     -22.125   1.915  -0.243  1.00  0.00     0.053 C 
ATOM      4  C   UNL     1     -22.904   1.202   0.875  1.00  0.00     0.016 C 
BRANCH   3   5
ATOM      5  C   UNL     1     -22.961   2.969  -1.000  1.00  0.00     0.015 C 
BRANCH   5   6
ATOM      6  C   UNL     1     -24.339   3.273  -0.379  1.00  0.00     0.028 C 
BRANCH   6   7
ATOM      7  C   UNL     1     -24.599   4.759  -0.390  1.00  0.00    -0.028 C 
ATOM      8  C   UNL     1     -24.249   5.605   0.607  1.00  0.00    -0.070 CG0
ATOM      9  C   UNL     1     -24.473   7.081   0.392  1.00  0.00     0.039 C 
ATOM     10  G   UNL     1     -23.691   5.126   1.938  1.00  0.00     0.000 G0
ENDBRANCH   6   7
ENDBRANCH   5   6
ENDBRANCH   3   5
ENDBRANCH   1   3
BRANCH   1  11
ATOM     11  C   UNL     1     -20.586   3.884   0.717  1.00  0.00     0.087 C 
BRANCH  11  12
ATOM     12  C   UNL     1     -21.230   4.192   2.105  1.00  0.00     0.066 C 
BRANCH  12  13
ATOM     13  C   UNL     1     -22.189   5.376   2.089  1.00  0.00     0.140 C 
ATOM     14  O   UNL     1     -21.769   6.510   2.262  1.00  0.00    -0.299 OA
BRANCH  13  15
ATOM     15  C   UNL     1     -23.678   5.154   1.950  1.00  0.00     0.106 CG0
ATOM     16  G   UNL     1     -24.221   5.612   0.605  1.00  0.00     0.000 G0
ENDBRANCH  13  15
ENDBRANCH  12  13
BRANCH  12  17
ATOM     17  C   UNL     1     -20.230   4.270   3.306  1.00  0.00    -0.006 C 
ATOM     18  C   UNL     1     -20.944   4.077   4.654  1.00  0.00     0.008 C 
ATOM     19  C   UNL     1     -19.037   3.307   3.208  1.00  0.00     0.008 C 
ENDBRANCH  12  17
ENDBRANCH  11  12
ENDBRANCH   1  11
TORSDOF 1
ENDMDL
MODEL 9
REMARK VINA RESULT:    -3.448      3.441      5.527
REMARK INTER + INTRA:          -5.314
REMARK INTER:                  -5.316
REMARK INTRA:                   0.002
REMARK UNBOUND:                -0.052
REMARK SMILES CC1=CCC[C@H](C)C(=O)C[C@@H](C(C)C)C(=O)C1
REMARK SMILES IDX 8 1 9 2 6 3 7 4 5 5 4 6 3 7 2 8 1 9 10 11 11 12 15 13 16 14
REMARK SMILES IDX 17 15 12 17 13 18 14 19
REMARK H PARENT
REMARK Flexibility Score: 70.00
ROOT
ATOM      1  C   UNL     1     -24.255   1.870   0.578  1.00  0.00     0.136 C 
ATOM      2  O   UNL     1     -24.973   1.304  -0.232  1.00  0.00    -0.299 OA
ENDROOT
BRANCH   1   3
ATOM      3  C   UNL     1     -22.897   1.252   0.882  1.00  0.00     0.053 C 
ATOM      4  C   UNL     1     -22.952  -0.251   1.201  1.00  0.00     0.016 C 
BRANCH   3   5
ATOM      5  C   UNL     1     -21.848   1.615  -0.191  1.00  0.00     0.015 C 
BRANCH   5   6
ATOM      6  C   UNL     1     -21.039   2.895   0.098  1.00  0.00     0.028 C 
BRANCH   6   7
ATOM      7  C   UNL     1     -20.531   2.880   1.518  1.00  0.00    -0.028 C 
ATOM      8  C   UNL     1     -20.843   3.807   2.454  1.00  0.00    -0.070 CG0
ATOM      9  C   UNL     1     -20.349   3.586   3.861  1.00  0.00     0.039 C 
ATOM     10  G   UNL     1     -21.622   5.073   2.132  1.00  0.00     0.000 G0
ENDBRANCH   6   7
ENDBRANCH   5   6
ENDBRANCH   3   5
ENDBRANCH   1   3
BRANCH   1  11
ATOM     11  C   UNL     1     -24.752   3.153   1.220  1.00  0.00     0.087 C 
BRANCH  11  12
ATOM     12  C   UNL     1     -23.881   4.422   0.962  1.00  0.00     0.066 C 
BRANCH  12  13
ATOM     13  C   UNL     1     -23.119   4.905   2.191  1.00  0.00     0.140 C 
ATOM     14  O   UNL     1     -23.725   5.222   3.203  1.00  0.00    -0.299 OA
BRANCH  13  15
ATOM     15  C   UNL     1     -21.619   5.083   2.141  1.00  0.00     0.106 CG0
ATOM     16  G   UNL     1     -20.861   3.804   2.462  1.00  0.00     0.000 G0
ENDBRANCH  13  15
ENDBRANCH  12  13
BRANCH  12  17
ATOM     17  C   UNL     1     -24.608   5.598   0.229  1.00  0.00    -0.006 C 
ATOM     18  C   UNL     1     -23.617   6.679  -0.234  1.00  0.00     0.008 C 
ATOM     19  C   UNL     1     -25.493   5.166  -0.950  1.00  0.00     0.008 C 
ENDBRANCH  12  17
ENDBRANCH  11  12
ENDBRANCH   1  11
TORSDOF 1
ENDMDL
