MODEL 1
REMARK VINA RESULT:    -3.750      0.000      0.000
REMARK INTER + INTRA:          -4.501
REMARK INTER:                  -4.407
REMARK INTRA:                  -0.094
REMARK UNBOUND:                -0.094
REMARK SMILES O=C([O-])CCC(=O)[O-]
REMARK SMILES IDX 4 1 2 2 1 3 3 4 5 5 6 6 7 7 8 8
REMARK H PARENT
REMARK Flexibility Score: inf
ROOT
ATOM      1  C   UNL     1       4.171  -7.922   5.742  1.00  0.00     0.059 C 
ENDROOT
BRANCH   1   2
ATOM      2  C   UNL     1       5.039  -9.041   5.259  1.00  0.00     0.042 C 
ATOM      3  O   UNL     1       4.544  -9.980   4.582  1.00  0.00    -0.550 OA
ATOM      4  O   UNL     1       6.385  -9.074   5.598  1.00  0.00    -0.550 OA
ENDBRANCH   1   2
BRANCH   1   5
ATOM      5  C   UNL     1       2.819  -7.946   5.027  1.00  0.00     0.059 C 
BRANCH   5   6
ATOM      6  C   UNL     1       1.709  -8.133   6.012  1.00  0.00     0.042 C 
ATOM      7  O   UNL     1       1.266  -7.149   6.660  1.00  0.00    -0.550 OA
ATOM      8  O   UNL     1       1.197  -9.402   6.251  1.00  0.00    -0.550 OA
ENDBRANCH   5   6
ENDBRANCH   1   5
TORSDOF 3
ENDMDL
MODEL 2
REMARK VINA RESULT:    -3.736      0.078      1.146
REMARK INTER + INTRA:          -4.485
REMARK INTER:                  -4.389
REMARK INTRA:                  -0.096
REMARK UNBOUND:                -0.094
REMARK SMILES O=C([O-])CCC(=O)[O-]
REMARK SMILES IDX 4 1 2 2 1 3 3 4 5 5 6 6 7 7 8 8
REMARK H PARENT
REMARK Flexibility Score: inf
ROOT
ATOM      1  C   UNL     1       4.216  -7.890   5.767  1.00  0.00     0.059 C 
ENDROOT
BRANCH   1   2
ATOM      2  C   UNL     1       5.104  -9.005   5.312  1.00  0.00     0.042 C 
ATOM      3  O   UNL     1       6.334  -8.986   5.582  1.00  0.00    -0.550 OA
ATOM      4  O   UNL     1       4.585 -10.041   4.547  1.00  0.00    -0.550 OA
ENDBRANCH   1   2
BRANCH   1   5
ATOM      5  C   UNL     1       2.882  -7.931   5.020  1.00  0.00     0.059 C 
BRANCH   5   6
ATOM      6  C   UNL     1       1.753  -8.151   5.976  1.00  0.00     0.042 C 
ATOM      7  O   UNL     1       1.269  -7.182   6.617  1.00  0.00    -0.550 OA
ATOM      8  O   UNL     1       1.268  -9.434   6.196  1.00  0.00    -0.550 OA
ENDBRANCH   5   6
ENDBRANCH   1   5
TORSDOF 3
ENDMDL
MODEL 3
REMARK VINA RESULT:    -3.734      0.118      3.945
REMARK INTER + INTRA:          -4.483
REMARK INTER:                  -4.379
REMARK INTRA:                  -0.103
REMARK UNBOUND:                -0.094
REMARK SMILES O=C([O-])CCC(=O)[O-]
REMARK SMILES IDX 4 1 2 2 1 3 3 4 5 5 6 6 7 7 8 8
REMARK H PARENT
REMARK Flexibility Score: inf
ROOT
ATOM      1  C   UNL     1       2.818  -7.911   5.087  1.00  0.00     0.059 C 
ENDROOT
BRANCH   1   2
ATOM      2  C   UNL     1       1.733  -8.211   6.074  1.00  0.00     0.042 C 
ATOM      3  O   UNL     1       1.221  -9.360   6.123  1.00  0.00    -0.550 OA
ATOM      4  O   UNL     1       1.253  -7.207   6.906  1.00  0.00    -0.550 OA
ENDBRANCH   1   2
BRANCH   1   5
ATOM      5  C   UNL     1       4.181  -7.887   5.781  1.00  0.00     0.059 C 
BRANCH   5   6
ATOM      6  C   UNL     1       5.034  -9.017   5.298  1.00  0.00     0.042 C 
ATOM      7  O   UNL     1       4.533  -9.930   4.590  1.00  0.00    -0.550 OA
ATOM      8  O   UNL     1       6.370  -9.088   5.670  1.00  0.00    -0.550 OA
ENDBRANCH   5   6
ENDBRANCH   1   5
TORSDOF 3
ENDMDL
MODEL 4
REMARK VINA RESULT:    -3.598      1.451      3.544
REMARK INTER + INTRA:          -4.323
REMARK INTER:                  -4.199
REMARK INTRA:                  -0.124
REMARK UNBOUND:                -0.094
REMARK SMILES O=C([O-])CCC(=O)[O-]
REMARK SMILES IDX 4 1 2 2 1 3 3 4 5 5 6 6 7 7 8 8
REMARK H PARENT
REMARK Flexibility Score: inf
ROOT
ATOM      1  C   UNL     1       1.778  -7.942   5.885  1.00  0.00     0.059 C 
ENDROOT
BRANCH   1   2
ATOM      2  C   UNL     1       1.487  -9.079   6.813  1.00  0.00     0.042 C 
ATOM      3  O   UNL     1       0.792 -10.054   6.421  1.00  0.00    -0.550 OA
ATOM      4  O   UNL     1       1.939  -9.040   8.125  1.00  0.00    -0.550 OA
ENDBRANCH   1   2
BRANCH   1   5
ATOM      5  C   UNL     1       3.005  -8.253   5.025  1.00  0.00     0.059 C 
BRANCH   5   6
ATOM      6  C   UNL     1       4.243  -7.708   5.663  1.00  0.00     0.042 C 
ATOM      7  O   UNL     1       4.169  -6.740   6.464  1.00  0.00    -0.550 OA
ATOM      8  O   UNL     1       5.485  -8.236   5.333  1.00  0.00    -0.550 OA
ENDBRANCH   5   6
ENDBRANCH   1   5
TORSDOF 3
ENDMDL
MODEL 5
REMARK VINA RESULT:    -3.590      1.223      4.317
REMARK INTER + INTRA:          -4.314
REMARK INTER:                  -4.282
REMARK INTRA:                  -0.032
REMARK UNBOUND:                -0.094
REMARK SMILES O=C([O-])CCC(=O)[O-]
REMARK SMILES IDX 4 1 2 2 1 3 3 4 5 5 6 6 7 7 8 8
REMARK H PARENT
REMARK Flexibility Score: inf
ROOT
ATOM      1  C   UNL     1       4.179  -8.532   5.851  1.00  0.00     0.059 C 
ENDROOT
BRANCH   1   2
ATOM      2  C   UNL     1       2.781  -7.997   5.863  1.00  0.00     0.042 C 
ATOM      3  O   UNL     1       2.579  -6.756   5.915  1.00  0.00    -0.550 OA
ATOM      4  O   UNL     1       1.702  -8.871   5.867  1.00  0.00    -0.550 OA
ENDBRANCH   1   2
BRANCH   1   5
ATOM      5  C   UNL     1       4.500  -9.161   4.494  1.00  0.00     0.059 C 
BRANCH   5   6
ATOM      6  C   UNL     1       5.933  -9.584   4.439  1.00  0.00     0.042 C 
ATOM      7  O   UNL     1       6.394 -10.124   3.400  1.00  0.00    -0.550 OA
ATOM      8  O   UNL     1       6.748  -9.428   5.554  1.00  0.00    -0.550 OA
ENDBRANCH   5   6
ENDBRANCH   1   5
TORSDOF 3
ENDMDL
MODEL 6
REMARK VINA RESULT:    -3.494      1.201      2.009
REMARK INTER + INTRA:          -4.200
REMARK INTER:                  -4.162
REMARK INTRA:                  -0.039
REMARK UNBOUND:                -0.094
REMARK SMILES O=C([O-])CCC(=O)[O-]
REMARK SMILES IDX 4 1 2 2 1 3 3 4 5 5 6 6 7 7 8 8
REMARK H PARENT
REMARK Flexibility Score: inf
ROOT
ATOM      1  C   UNL     1       3.972  -8.615   4.827  1.00  0.00     0.059 C 
ENDROOT
BRANCH   1   2
ATOM      2  C   UNL     1       5.346  -9.153   4.583  1.00  0.00     0.042 C 
ATOM      3  O   UNL     1       6.256  -8.977   5.436  1.00  0.00    -0.550 OA
ATOM      4  O   UNL     1       5.637  -9.804   3.392  1.00  0.00    -0.550 OA
ENDBRANCH   1   2
BRANCH   1   5
ATOM      5  C   UNL     1       3.913  -7.885   6.170  1.00  0.00     0.059 C 
BRANCH   5   6
ATOM      6  C   UNL     1       2.608  -7.169   6.320  1.00  0.00     0.042 C 
ATOM      7  O   UNL     1       1.557  -7.660   5.831  1.00  0.00    -0.550 OA
ATOM      8  O   UNL     1       2.561  -5.935   6.956  1.00  0.00    -0.550 OA
ENDBRANCH   5   6
ENDBRANCH   1   5
TORSDOF 3
ENDMDL
MODEL 7
REMARK VINA RESULT:    -3.447      1.401      3.957
REMARK INTER + INTRA:          -4.145
REMARK INTER:                  -4.032
REMARK INTRA:                  -0.113
REMARK UNBOUND:                -0.094
REMARK SMILES O=C([O-])CCC(=O)[O-]
REMARK SMILES IDX 4 1 2 2 1 3 3 4 5 5 6 6 7 7 8 8
REMARK H PARENT
REMARK Flexibility Score: inf
ROOT
ATOM      1  C   UNL     1       2.584  -8.318   6.529  1.00  0.00     0.059 C 
ENDROOT
BRANCH   1   2
ATOM      2  C   UNL     1       2.263  -6.948   7.036  1.00  0.00     0.042 C 
ATOM      3  O   UNL     1       3.100  -6.015   6.914  1.00  0.00    -0.550 OA
ATOM      4  O   UNL     1       1.060  -6.711   7.688  1.00  0.00    -0.550 OA
ENDBRANCH   1   2
BRANCH   1   5
ATOM      5  C   UNL     1       3.082  -8.251   5.084  1.00  0.00     0.059 C 
BRANCH   5   6
ATOM      6  C   UNL     1       4.459  -8.824   4.978  1.00  0.00     0.042 C 
ATOM      7  O   UNL     1       5.462  -8.115   5.256  1.00  0.00    -0.550 OA
ATOM      8  O   UNL     1       4.639 -10.124   4.524  1.00  0.00    -0.550 OA
ENDBRANCH   5   6
ENDBRANCH   1   5
TORSDOF 3
ENDMDL
MODEL 8
REMARK VINA RESULT:    -3.397     19.991     20.767
REMARK INTER + INTRA:          -4.087
REMARK INTER:                  -3.965
REMARK INTRA:                  -0.122
REMARK UNBOUND:                -0.094
REMARK SMILES O=C([O-])CCC(=O)[O-]
REMARK SMILES IDX 4 1 2 2 1 3 3 4 5 5 6 6 7 7 8 8
REMARK H PARENT
REMARK Flexibility Score: inf
ROOT
ATOM      1  C   UNL     1      -0.258   6.503  -9.112  1.00  0.00     0.059 C 
ENDROOT
BRANCH   1   2
ATOM      2  C   UNL     1      -0.144   7.317  -7.862  1.00  0.00     0.042 C 
ATOM      3  O   UNL     1       0.970   7.787  -7.511  1.00  0.00    -0.550 OA
ATOM      4  O   UNL     1      -1.258   7.516  -7.057  1.00  0.00    -0.550 OA
ENDBRANCH   1   2
BRANCH   1   5
ATOM      5  C   UNL     1      -0.155   5.011  -8.791  1.00  0.00     0.059 C 
BRANCH   5   6
ATOM      6  C   UNL     1      -1.494   4.355  -8.915  1.00  0.00     0.042 C 
ATOM      7  O   UNL     1      -1.793   3.720  -9.960  1.00  0.00    -0.550 OA
ATOM      8  O   UNL     1      -2.430   4.488  -7.897  1.00  0.00    -0.550 OA
ENDBRANCH   5   6
ENDBRANCH   1   5
TORSDOF 3
ENDMDL
MODEL 9
REMARK VINA RESULT:    -3.397     20.043     20.766
REMARK INTER + INTRA:          -4.087
REMARK INTER:                  -3.964
REMARK INTRA:                  -0.122
REMARK UNBOUND:                -0.094
REMARK SMILES O=C([O-])CCC(=O)[O-]
REMARK SMILES IDX 4 1 2 2 1 3 3 4 5 5 6 6 7 7 8 8
REMARK H PARENT
REMARK Flexibility Score: inf
ROOT
ATOM      1  C   UNL     1      -0.271   4.893  -8.679  1.00  0.00     0.059 C 
ENDROOT
BRANCH   1   2
ATOM      2  C   UNL     1      -1.610   4.310  -9.006  1.00  0.00     0.042 C 
ATOM      3  O   UNL     1      -1.801   3.742 -10.113  1.00  0.00    -0.550 OA
ATOM      4  O   UNL     1      -2.662   4.437  -8.108  1.00  0.00    -0.550 OA
ENDBRANCH   1   2
BRANCH   1   5
ATOM      5  C   UNL     1      -0.222   6.371  -9.070  1.00  0.00     0.059 C 
BRANCH   5   6
ATOM      6  C   UNL     1      -0.213   7.235  -7.848  1.00  0.00     0.042 C 
ATOM      7  O   UNL     1       0.865   7.742  -7.440  1.00  0.00    -0.550 OA
ATOM      8  O   UNL     1      -1.385   7.439  -7.133  1.00  0.00    -0.550 OA
ENDBRANCH   5   6
ENDBRANCH   1   5
TORSDOF 3
ENDMDL
