MODEL 1
REMARK VINA RESULT:    -5.554      0.000      0.000
REMARK INTER + INTRA:          -8.896
REMARK INTER:                  -7.827
REMARK INTRA:                  -1.069
REMARK UNBOUND:                -1.069
REMARK SMILES CC(=O)OCC[C@H](C)CCC=C(C)C
REMARK SMILES IDX 8 1 7 2 9 3 10 4 11 5 12 6 13 7 14 8 6 9 5 10 4 11 2 12 3 13
REMARK SMILES IDX 1 14
REMARK H PARENT
REMARK Flexibility Score: inf
ROOT
ATOM      1  C   UNL     1      35.368  -2.243  16.269  1.00  0.00     0.008 C 
ATOM      2  C   UNL     1      36.361  -1.135  15.879  1.00  0.00    -0.011 C 
ENDROOT
BRANCH   2   3
ATOM      3  C   UNL     1      36.745  -0.266  17.107  1.00  0.00     0.007 C 
BRANCH   3   4
ATOM      4  C   UNL     1      38.234   0.118  17.183  1.00  0.00     0.027 C 
BRANCH   4   5
ATOM      5  C   UNL     1      38.495   1.519  16.681  1.00  0.00    -0.028 C 
ATOM      6  C   UNL     1      39.009   1.818  15.467  1.00  0.00    -0.080 C 
ATOM      7  C   UNL     1      39.327   0.753  14.444  1.00  0.00     0.039 C 
ATOM      8  C   UNL     1      39.243   3.267  15.126  1.00  0.00     0.039 C 
ENDBRANCH   4   5
ENDBRANCH   3   4
ENDBRANCH   2   3
BRANCH   2   9
ATOM      9  C   UNL     1      35.748  -0.269  14.752  1.00  0.00     0.045 C 
BRANCH   9  10
ATOM     10  C   UNL     1      35.203   1.077  15.257  1.00  0.00     0.233 C 
BRANCH  10  11
ATOM     11  O   UNL     1      33.807   0.976  15.533  1.00  0.00    -0.466 OA
BRANCH  11  12
ATOM     12  C   UNL     1      33.281   0.918  16.829  1.00  0.00     0.302 C 
ATOM     13  O   UNL     1      33.564   1.804  17.681  1.00  0.00    -0.253 OA
ATOM     14  C   UNL     1      32.330  -0.172  17.187  1.00  0.00     0.139 C 
ENDBRANCH  11  12
ENDBRANCH  10  11
ENDBRANCH   9  10
ENDBRANCH   2   9
TORSDOF 7
ENDMDL
MODEL 2
REMARK VINA RESULT:    -5.474      1.820      3.068
REMARK INTER + INTRA:          -8.783
REMARK INTER:                  -7.625
REMARK INTRA:                  -1.158
REMARK UNBOUND:                -1.069
REMARK SMILES CC(=O)OCC[C@H](C)CCC=C(C)C
REMARK SMILES IDX 8 1 7 2 9 3 10 4 11 5 12 6 13 7 14 8 6 9 5 10 4 11 2 12 3 13
REMARK SMILES IDX 1 14
REMARK H PARENT
REMARK Flexibility Score: inf
ROOT
ATOM      1  C   UNL     1      35.153   1.859  15.501  1.00  0.00     0.008 C 
ATOM      2  C   UNL     1      34.980   2.039  17.019  1.00  0.00    -0.011 C 
ENDROOT
BRANCH   2   3
ATOM      3  C   UNL     1      36.271   1.640  17.784  1.00  0.00     0.007 C 
BRANCH   3   4
ATOM      4  C   UNL     1      37.578   1.871  17.004  1.00  0.00     0.027 C 
BRANCH   4   5
ATOM      5  C   UNL     1      38.422   0.622  16.908  1.00  0.00    -0.028 C 
ATOM      6  C   UNL     1      39.111   0.239  15.809  1.00  0.00    -0.080 C 
ATOM      7  C   UNL     1      39.149   1.078  14.553  1.00  0.00     0.039 C 
ATOM      8  C   UNL     1      39.879  -1.056  15.861  1.00  0.00     0.039 C 
ENDBRANCH   4   5
ENDBRANCH   3   4
ENDBRANCH   2   3
BRANCH   2   9
ATOM      9  C   UNL     1      33.767   1.208  17.500  1.00  0.00     0.045 C 
BRANCH   9  10
ATOM     10  C   UNL     1      33.326   0.142  16.483  1.00  0.00     0.233 C 
BRANCH  10  11
ATOM     11  O   UNL     1      33.602  -1.165  16.984  1.00  0.00    -0.466 OA
BRANCH  11  12
ATOM     12  C   UNL     1      34.897  -1.674  17.136  1.00  0.00     0.302 C 
ATOM     13  O   UNL     1      35.327  -2.015  18.271  1.00  0.00    -0.253 OA
ATOM     14  C   UNL     1      35.754  -1.868  15.933  1.00  0.00     0.139 C 
ENDBRANCH  11  12
ENDBRANCH  10  11
ENDBRANCH   9  10
ENDBRANCH   2   9
TORSDOF 7
ENDMDL
MODEL 3
REMARK VINA RESULT:    -5.450      2.152      5.413
REMARK INTER + INTRA:          -8.749
REMARK INTER:                  -7.651
REMARK INTRA:                  -1.098
REMARK UNBOUND:                -1.069
REMARK SMILES CC(=O)OCC[C@H](C)CCC=C(C)C
REMARK SMILES IDX 8 1 7 2 9 3 10 4 11 5 12 6 13 7 14 8 6 9 5 10 4 11 2 12 3 13
REMARK SMILES IDX 1 14
REMARK H PARENT
REMARK Flexibility Score: inf
ROOT
ATOM      1  C   UNL     1      35.635   0.061  14.804  1.00  0.00     0.008 C 
ATOM      2  C   UNL     1      36.369  -0.915  15.739  1.00  0.00    -0.011 C 
ENDROOT
BRANCH   2   3
ATOM      3  C   UNL     1      35.436  -2.072  16.188  1.00  0.00     0.007 C 
BRANCH   3   4
ATOM      4  C   UNL     1      34.699  -1.826  17.517  1.00  0.00     0.027 C 
BRANCH   4   5
ATOM      5  C   UNL     1      33.240  -1.487  17.314  1.00  0.00    -0.028 C 
ATOM      6  C   UNL     1      32.692  -0.274  17.547  1.00  0.00    -0.080 C 
ATOM      7  C   UNL     1      33.519   0.910  17.992  1.00  0.00     0.039 C 
ATOM      8  C   UNL     1      31.211  -0.104  17.329  1.00  0.00     0.039 C 
ENDBRANCH   4   5
ENDBRANCH   3   4
ENDBRANCH   2   3
BRANCH   2   9
ATOM      9  C   UNL     1      36.922  -0.139  16.959  1.00  0.00     0.045 C 
BRANCH   9  10
ATOM     10  C   UNL     1      37.003   1.377  16.722  1.00  0.00     0.233 C 
BRANCH  10  11
ATOM     11  O   UNL     1      38.356   1.774  16.503  1.00  0.00    -0.466 OA
BRANCH  11  12
ATOM     12  C   UNL     1      38.876   2.073  15.238  1.00  0.00     0.302 C 
ATOM     13  O   UNL     1      38.945   3.266  14.834  1.00  0.00    -0.253 OA
ATOM     14  C   UNL     1      39.407   0.973  14.385  1.00  0.00     0.139 C 
ENDBRANCH  11  12
ENDBRANCH  10  11
ENDBRANCH   9  10
ENDBRANCH   2   9
TORSDOF 7
ENDMDL
MODEL 4
REMARK VINA RESULT:    -5.433      2.552      5.590
REMARK INTER + INTRA:          -8.724
REMARK INTER:                  -7.543
REMARK INTRA:                  -1.181
REMARK UNBOUND:                -1.069
REMARK SMILES CC(=O)OCC[C@H](C)CCC=C(C)C
REMARK SMILES IDX 8 1 7 2 9 3 10 4 11 5 12 6 13 7 14 8 6 9 5 10 4 11 2 12 3 13
REMARK SMILES IDX 1 14
REMARK H PARENT
REMARK Flexibility Score: inf
ROOT
ATOM      1  C   UNL     1      34.422   2.230  15.821  1.00  0.00     0.008 C 
ATOM      2  C   UNL     1      35.820   1.618  15.626  1.00  0.00    -0.011 C 
ENDROOT
BRANCH   2   3
ATOM      3  C   UNL     1      35.726   0.151  15.125  1.00  0.00     0.007 C 
BRANCH   3   4
ATOM      4  C   UNL     1      35.703  -0.910  16.241  1.00  0.00     0.027 C 
BRANCH   4   5
ATOM      5  C   UNL     1      34.312  -1.435  16.509  1.00  0.00    -0.028 C 
ATOM      6  C   UNL     1      33.622  -1.238  17.656  1.00  0.00    -0.080 C 
ATOM      7  C   UNL     1      34.170  -0.403  18.789  1.00  0.00     0.039 C 
ATOM      8  C   UNL     1      32.255  -1.858  17.784  1.00  0.00     0.039 C 
ENDBRANCH   4   5
ENDBRANCH   3   4
ENDBRANCH   2   3
BRANCH   2   9
ATOM      9  C   UNL     1      36.608   1.704  16.956  1.00  0.00     0.045 C 
BRANCH   9  10
ATOM     10  C   UNL     1      38.094   2.039  16.754  1.00  0.00     0.233 C 
BRANCH  10  11
ATOM     11  O   UNL     1      38.886   0.856  16.846  1.00  0.00    -0.466 OA
BRANCH  11  12
ATOM     12  C   UNL     1      39.385   0.174  15.729  1.00  0.00     0.302 C 
ATOM     13  O   UNL     1      39.752  -1.029  15.819  1.00  0.00    -0.253 OA
ATOM     14  C   UNL     1      39.425   0.862  14.408  1.00  0.00     0.139 C 
ENDBRANCH  11  12
ENDBRANCH  10  11
ENDBRANCH   9  10
ENDBRANCH   2   9
TORSDOF 7
ENDMDL
MODEL 5
REMARK VINA RESULT:    -5.414      1.353      2.231
REMARK INTER + INTRA:          -8.698
REMARK INTER:                  -7.449
REMARK INTRA:                  -1.250
REMARK UNBOUND:                -1.069
REMARK SMILES CC(=O)OCC[C@H](C)CCC=C(C)C
REMARK SMILES IDX 8 1 7 2 9 3 10 4 11 5 12 6 13 7 14 8 6 9 5 10 4 11 2 12 3 13
REMARK SMILES IDX 1 14
REMARK H PARENT
REMARK Flexibility Score: inf
ROOT
ATOM      1  C   UNL     1      36.154  -1.471  18.194  1.00  0.00     0.008 C 
ATOM      2  C   UNL     1      35.527  -1.738  16.815  1.00  0.00    -0.011 C 
ENDROOT
BRANCH   2   3
ATOM      3  C   UNL     1      36.396  -1.138  15.677  1.00  0.00     0.007 C 
BRANCH   3   4
ATOM      4  C   UNL     1      37.749  -0.564  16.136  1.00  0.00     0.027 C 
BRANCH   4   5
ATOM      5  C   UNL     1      38.126   0.693  15.386  1.00  0.00    -0.028 C 
ATOM      6  C   UNL     1      38.783   1.744  15.927  1.00  0.00    -0.080 C 
ATOM      7  C   UNL     1      39.268   1.739  17.358  1.00  0.00     0.039 C 
ATOM      8  C   UNL     1      39.055   2.943  15.056  1.00  0.00     0.039 C 
ENDBRANCH   4   5
ENDBRANCH   3   4
ENDBRANCH   2   3
BRANCH   2   9
ATOM      9  C   UNL     1      34.091  -1.161  16.783  1.00  0.00     0.045 C 
BRANCH   9  10
ATOM     10  C   UNL     1      33.800  -0.205  17.952  1.00  0.00     0.233 C 
BRANCH  10  11
ATOM     11  O   UNL     1      33.687   1.136  17.480  1.00  0.00    -0.466 OA
BRANCH  11  12
ATOM     12  C   UNL     1      34.780   1.891  17.038  1.00  0.00     0.302 C 
ATOM     13  O   UNL     1      35.775   2.088  17.787  1.00  0.00    -0.253 OA
ATOM     14  C   UNL     1      34.791   2.418  15.644  1.00  0.00     0.139 C 
ENDBRANCH  11  12
ENDBRANCH  10  11
ENDBRANCH   9  10
ENDBRANCH   2   9
TORSDOF 7
ENDMDL
MODEL 6
REMARK VINA RESULT:    -5.398      1.743      2.675
REMARK INTER + INTRA:          -8.676
REMARK INTER:                  -7.699
REMARK INTRA:                  -0.977
REMARK UNBOUND:                -1.069
REMARK SMILES CC(=O)OCC[C@H](C)CCC=C(C)C
REMARK SMILES IDX 8 1 7 2 9 3 10 4 11 5 12 6 13 7 14 8 6 9 5 10 4 11 2 12 3 13
REMARK SMILES IDX 1 14
REMARK H PARENT
REMARK Flexibility Score: inf
ROOT
ATOM      1  C   UNL     1      35.381   0.486  14.752  1.00  0.00     0.008 C 
ATOM      2  C   UNL     1      35.133   1.670  15.703  1.00  0.00    -0.011 C 
ENDROOT
BRANCH   2   3
ATOM      3  C   UNL     1      35.833   1.447  17.071  1.00  0.00     0.007 C 
BRANCH   3   4
ATOM      4  C   UNL     1      37.318   1.849  17.107  1.00  0.00     0.027 C 
BRANCH   4   5
ATOM      5  C   UNL     1      38.241   0.659  16.985  1.00  0.00    -0.028 C 
ATOM      6  C   UNL     1      39.051   0.418  15.930  1.00  0.00    -0.080 C 
ATOM      7  C   UNL     1      39.158   1.373  14.764  1.00  0.00     0.039 C 
ATOM      8  C   UNL     1      39.888  -0.835  15.941  1.00  0.00     0.039 C 
ENDBRANCH   4   5
ENDBRANCH   3   4
ENDBRANCH   2   3
BRANCH   2   9
ATOM      9  C   UNL     1      33.610   1.875  15.882  1.00  0.00     0.045 C 
BRANCH   9  10
ATOM     10  C   UNL     1      33.038   1.118  17.091  1.00  0.00     0.233 C 
BRANCH  10  11
ATOM     11  O   UNL     1      32.542  -0.157  16.689  1.00  0.00    -0.466 OA
BRANCH  11  12
ATOM     12  C   UNL     1      32.794  -1.339  17.397  1.00  0.00     0.302 C 
ATOM     13  O   UNL     1      31.860  -1.953  17.981  1.00  0.00    -0.253 OA
ATOM     14  C   UNL     1      34.172  -1.906  17.410  1.00  0.00     0.139 C 
ENDBRANCH  11  12
ENDBRANCH  10  11
ENDBRANCH   9  10
ENDBRANCH   2   9
TORSDOF 7
ENDMDL
MODEL 7
REMARK VINA RESULT:    -5.239      2.582      5.712
REMARK INTER + INTRA:          -8.451
REMARK INTER:                  -7.429
REMARK INTRA:                  -1.022
REMARK UNBOUND:                -1.069
REMARK SMILES CC(=O)OCC[C@H](C)CCC=C(C)C
REMARK SMILES IDX 8 1 7 2 9 3 10 4 11 5 12 6 13 7 14 8 6 9 5 10 4 11 2 12 3 13
REMARK SMILES IDX 1 14
REMARK H PARENT
REMARK Flexibility Score: inf
ROOT
ATOM      1  C   UNL     1      36.590   1.569  17.663  1.00  0.00     0.008 C 
ATOM      2  C   UNL     1      36.035   1.513  16.229  1.00  0.00    -0.011 C 
ENDROOT
BRANCH   2   3
ATOM      3  C   UNL     1      34.592   2.081  16.162  1.00  0.00     0.007 C 
BRANCH   3   4
ATOM      4  C   UNL     1      33.797   1.975  17.477  1.00  0.00     0.027 C 
BRANCH   4   5
ATOM      5  C   UNL     1      32.769   0.868  17.442  1.00  0.00    -0.028 C 
ATOM      6  C   UNL     1      32.879  -0.306  18.102  1.00  0.00    -0.080 C 
ATOM      7  C   UNL     1      34.047  -0.612  19.010  1.00  0.00     0.039 C 
ATOM      8  C   UNL     1      31.782  -1.326  17.936  1.00  0.00     0.039 C 
ENDBRANCH   4   5
ENDBRANCH   3   4
ENDBRANCH   2   3
BRANCH   2   9
ATOM      9  C   UNL     1      36.085   0.054  15.716  1.00  0.00     0.045 C 
BRANCH   9  10
ATOM     10  C   UNL     1      36.943  -0.866  16.599  1.00  0.00     0.233 C 
BRANCH  10  11
ATOM     11  O   UNL     1      38.158  -1.203  15.931  1.00  0.00    -0.466 OA
BRANCH  11  12
ATOM     12  C   UNL     1      39.291  -0.381  15.932  1.00  0.00     0.302 C 
ATOM     13  O   UNL     1      40.188  -0.518  16.807  1.00  0.00    -0.253 OA
ATOM     14  C   UNL     1      39.464   0.629  14.850  1.00  0.00     0.139 C 
ENDBRANCH  11  12
ENDBRANCH  10  11
ENDBRANCH   9  10
ENDBRANCH   2   9
TORSDOF 7
ENDMDL
MODEL 8
REMARK VINA RESULT:    -5.185      1.718      2.471
REMARK INTER + INTRA:          -8.375
REMARK INTER:                  -7.421
REMARK INTRA:                  -0.954
REMARK UNBOUND:                -1.069
REMARK SMILES CC(=O)OCC[C@H](C)CCC=C(C)C
REMARK SMILES IDX 8 1 7 2 9 3 10 4 11 5 12 6 13 7 14 8 6 9 5 10 4 11 2 12 3 13
REMARK SMILES IDX 1 14
REMARK H PARENT
REMARK Flexibility Score: inf
ROOT
ATOM      1  C   UNL     1      36.089  -0.544  18.475  1.00  0.00     0.008 C 
ATOM      2  C   UNL     1      36.252  -1.077  17.041  1.00  0.00    -0.011 C 
ENDROOT
BRANCH   2   3
ATOM      3  C   UNL     1      36.305   0.085  16.012  1.00  0.00     0.007 C 
BRANCH   3   4
ATOM      4  C   UNL     1      37.720   0.450  15.526  1.00  0.00     0.027 C 
BRANCH   4   5
ATOM      5  C   UNL     1      38.422   1.407  16.461  1.00  0.00    -0.028 C 
ATOM      6  C   UNL     1      39.469   1.083  17.252  1.00  0.00    -0.080 C 
ATOM      7  C   UNL     1      40.092  -0.294  17.236  1.00  0.00     0.039 C 
ATOM      8  C   UNL     1      40.038   2.144  18.158  1.00  0.00     0.039 C 
ENDBRANCH   4   5
ENDBRANCH   3   4
ENDBRANCH   2   3
BRANCH   2   9
ATOM      9  C   UNL     1      35.093  -2.052  16.721  1.00  0.00     0.045 C 
BRANCH   9  10
ATOM     10  C   UNL     1      33.881  -1.871  17.649  1.00  0.00     0.233 C 
BRANCH  10  11
ATOM     11  O   UNL     1      32.791  -1.290  16.934  1.00  0.00    -0.466 OA
BRANCH  11  12
ATOM     12  C   UNL     1      32.180  -0.087  17.308  1.00  0.00     0.302 C 
ATOM     13  O   UNL     1      30.973  -0.063  17.672  1.00  0.00    -0.253 OA
ATOM     14  C   UNL     1      32.983   1.167  17.332  1.00  0.00     0.139 C 
ENDBRANCH  11  12
ENDBRANCH  10  11
ENDBRANCH   9  10
ENDBRANCH   2   9
TORSDOF 7
ENDMDL
MODEL 9
REMARK VINA RESULT:    -5.155      1.618      2.630
REMARK INTER + INTRA:          -8.333
REMARK INTER:                  -7.508
REMARK INTRA:                  -0.825
REMARK UNBOUND:                -1.069
REMARK SMILES CC(=O)OCC[C@H](C)CCC=C(C)C
REMARK SMILES IDX 8 1 7 2 9 3 10 4 11 5 12 6 13 7 14 8 6 9 5 10 4 11 2 12 3 13
REMARK SMILES IDX 1 14
REMARK H PARENT
REMARK Flexibility Score: inf
ROOT
ATOM      1  C   UNL     1      35.586   1.533  17.744  1.00  0.00     0.008 C 
ATOM      2  C   UNL     1      36.147   0.124  18.000  1.00  0.00    -0.011 C 
ENDROOT
BRANCH   2   3
ATOM      3  C   UNL     1      36.521  -0.582  16.668  1.00  0.00     0.007 C 
BRANCH   3   4
ATOM      4  C   UNL     1      38.011  -0.497  16.291  1.00  0.00     0.027 C 
BRANCH   4   5
ATOM      5  C   UNL     1      38.341   0.762  15.523  1.00  0.00    -0.028 C 
ATOM      6  C   UNL     1      38.945   1.849  16.052  1.00  0.00    -0.080 C 
ATOM      7  C   UNL     1      39.414   1.890  17.487  1.00  0.00     0.039 C 
ATOM      8  C   UNL     1      39.174   3.044  15.162  1.00  0.00     0.039 C 
ENDBRANCH   4   5
ENDBRANCH   3   4
ENDBRANCH   2   3
BRANCH   2   9
ATOM      9  C   UNL     1      35.113  -0.704  18.799  1.00  0.00     0.045 C 
BRANCH   9  10
ATOM     10  C   UNL     1      33.755   0.003  18.940  1.00  0.00     0.233 C 
BRANCH  10  11
ATOM     11  O   UNL     1      32.713  -0.813  18.408  1.00  0.00    -0.466 OA
BRANCH  11  12
ATOM     12  C   UNL     1      32.235  -0.696  17.097  1.00  0.00     0.302 C 
ATOM     13  O   UNL     1      32.885  -0.052  16.229  1.00  0.00    -0.253 OA
ATOM     14  C   UNL     1      30.974  -1.389  16.712  1.00  0.00     0.139 C 
ENDBRANCH  11  12
ENDBRANCH  10  11
ENDBRANCH   9  10
ENDBRANCH   2   9
TORSDOF 7
ENDMDL
