MODEL 1
REMARK VINA RESULT:    -6.051      0.000      0.000
REMARK INTER + INTRA:          -7.381
REMARK INTER:                  -7.112
REMARK INTRA:                  -0.269
REMARK UNBOUND:                -0.269
REMARK SMILES O=c1cc(-c2ccc(O)c(O)c2)oc2cc(O)cc(O)c12
REMARK SMILES IDX 4 1 3 2 2 3 1 4 21 5 19 6 18 7 16 8 15 9 14 10 13 11 5 12
REMARK SMILES IDX 6 13 7 14 8 15 12 16 10 17 9 18 11 20 20 22 17 24
REMARK H PARENT 9 19 11 21 20 23 17 25
REMARK Flexibility Score: inf
ROOT
ATOM      1  C   UNL     1       8.757  -1.233   9.560  1.00  0.00     0.138 A 
ATOM      2  C   UNL     1       7.473  -1.539  10.034  1.00  0.00     0.100 A 
ATOM      3  C   UNL     1       7.006  -2.852   9.962  1.00  0.00     0.197 A 
ATOM      4  O   UNL     1       5.875  -3.108  10.452  1.00  0.00    -0.289 OA
ATOM      5  C   UNL     1       7.818  -3.857   9.384  1.00  0.00     0.107 A 
ATOM      6  C   UNL     1       7.430  -5.220   9.221  1.00  0.00     0.134 A 
ATOM      7  C   UNL     1       8.362  -6.150   8.742  1.00  0.00     0.093 A 
ATOM      8  C   UNL     1       9.644  -5.755   8.364  1.00  0.00     0.123 A 
ATOM      9  C   UNL     1      10.017  -4.414   8.468  1.00  0.00     0.094 A 
ATOM     10  C   UNL     1       9.122  -3.469   8.975  1.00  0.00     0.146 A 
ATOM     11  O   UNL     1       9.519  -2.205   9.072  1.00  0.00    -0.456 OA
ENDROOT
BRANCH   1  12
ATOM     12  C   UNL     1       9.303   0.147   9.612  1.00  0.00     0.021 A 
ATOM     13  C   UNL     1       8.762   1.136   8.772  1.00  0.00     0.016 A 
ATOM     14  C   UNL     1       9.253   2.443   8.806  1.00  0.00     0.051 A 
ATOM     15  C   UNL     1      10.285   2.788   9.687  1.00  0.00     0.157 A 
ATOM     16  C   UNL     1      10.332   0.504  10.505  1.00  0.00     0.062 A 
ATOM     17  C   UNL     1      10.823   1.813  10.542  1.00  0.00     0.158 A 
BRANCH  15  18
ATOM     18  O   UNL     1      10.773   4.093   9.718  1.00  0.00    -0.504 OA
ATOM     19  H   UNL     1      10.239   4.869   9.345  1.00  0.00     0.293 HD
ENDBRANCH  15  18
BRANCH  17  20
ATOM     20  O   UNL     1      11.844   2.127  11.440  1.00  0.00    -0.504 OA
ATOM     21  H   UNL     1      11.773   1.921  12.429  1.00  0.00     0.293 HD
ENDBRANCH  17  20
ENDBRANCH   1  12
BRANCH   6  22
ATOM     22  O   UNL     1       6.146  -5.706   9.489  1.00  0.00    -0.507 OA
ATOM     23  H   UNL     1       5.842  -6.070  10.379  1.00  0.00     0.293 HD
ENDBRANCH   6  22
BRANCH   8  24
ATOM     24  O   UNL     1      10.540  -6.705   7.875  1.00  0.00    -0.508 OA
ATOM     25  H   UNL     1      10.963  -6.613   6.960  1.00  0.00     0.293 HD
ENDBRANCH   8  24
TORSDOF 5
ENDMDL
MODEL 2
REMARK VINA RESULT:    -5.475      2.226      3.399
REMARK INTER + INTRA:          -6.704
REMARK INTER:                  -6.420
REMARK INTRA:                  -0.284
REMARK UNBOUND:                -0.269
REMARK SMILES O=c1cc(-c2ccc(O)c(O)c2)oc2cc(O)cc(O)c12
REMARK SMILES IDX 4 1 3 2 2 3 1 4 21 5 19 6 18 7 16 8 15 9 14 10 13 11 5 12
REMARK SMILES IDX 6 13 7 14 8 15 12 16 10 17 9 18 11 20 20 22 17 24
REMARK H PARENT 9 19 11 21 20 23 17 25
REMARK Flexibility Score: inf
ROOT
ATOM      1  C   UNL     1       7.769  -3.056   9.618  1.00  0.00     0.138 A 
ATOM      2  C   UNL     1       7.583  -3.964   8.565  1.00  0.00     0.100 A 
ATOM      3  C   UNL     1       7.190  -5.274   8.844  1.00  0.00     0.197 A 
ATOM      4  O   UNL     1       6.969  -6.047   7.875  1.00  0.00    -0.289 OA
ATOM      5  C   UNL     1       7.013  -5.684  10.187  1.00  0.00     0.107 A 
ATOM      6  C   UNL     1       6.653  -7.004  10.592  1.00  0.00     0.134 A 
ATOM      7  C   UNL     1       6.393  -7.264  11.944  1.00  0.00     0.093 A 
ATOM      8  C   UNL     1       6.537  -6.269  12.910  1.00  0.00     0.123 A 
ATOM      9  C   UNL     1       6.941  -4.988  12.531  1.00  0.00     0.094 A 
ATOM     10  C   UNL     1       7.175  -4.688  11.187  1.00  0.00     0.146 A 
ATOM     11  O   UNL     1       7.544  -3.453  10.866  1.00  0.00    -0.456 OA
ENDROOT
BRANCH   1  12
ATOM     12  C   UNL     1       8.188  -1.652   9.377  1.00  0.00     0.021 A 
ATOM     13  C   UNL     1       7.455  -0.856   8.480  1.00  0.00     0.016 A 
ATOM     14  C   UNL     1       7.824   0.469   8.242  1.00  0.00     0.051 A 
ATOM     15  C   UNL     1       8.924   1.027   8.905  1.00  0.00     0.157 A 
ATOM     16  C   UNL     1       9.286  -1.082  10.051  1.00  0.00     0.062 A 
ATOM     17  C   UNL     1       9.655   0.247   9.815  1.00  0.00     0.158 A 
BRANCH  15  18
ATOM     18  O   UNL     1       9.290   2.351   8.664  1.00  0.00    -0.504 OA
ATOM     19  H   UNL     1       8.982   3.105   9.266  1.00  0.00     0.293 HD
ENDBRANCH  15  18
BRANCH  17  20
ATOM     20  O   UNL     1      10.750   0.776  10.500  1.00  0.00    -0.504 OA
ATOM     21  H   UNL     1      10.639   1.385  11.302  1.00  0.00     0.293 HD
ENDBRANCH  17  20
ENDBRANCH   1  12
BRANCH   6  22
ATOM     22  O   UNL     1       6.563  -8.093   9.719  1.00  0.00    -0.507 OA
ATOM     23  H   UNL     1       5.730  -8.639   9.565  1.00  0.00     0.293 HD
ENDBRANCH   6  22
BRANCH   8  24
ATOM     24  O   UNL     1       6.285  -6.568  14.247  1.00  0.00    -0.508 OA
ATOM     25  H   UNL     1       6.999  -6.458  14.958  1.00  0.00     0.293 HD
ENDBRANCH   8  24
TORSDOF 5
ENDMDL
MODEL 3
REMARK VINA RESULT:    -5.460      1.763      2.060
REMARK INTER + INTRA:          -6.686
REMARK INTER:                  -6.370
REMARK INTRA:                  -0.317
REMARK UNBOUND:                -0.269
REMARK SMILES O=c1cc(-c2ccc(O)c(O)c2)oc2cc(O)cc(O)c12
REMARK SMILES IDX 4 1 3 2 2 3 1 4 21 5 19 6 18 7 16 8 15 9 14 10 13 11 5 12
REMARK SMILES IDX 6 13 7 14 8 15 12 16 10 17 9 18 11 20 20 22 17 24
REMARK H PARENT 9 19 11 21 20 23 17 25
REMARK Flexibility Score: inf
ROOT
ATOM      1  C   UNL     1       8.238  -1.969   9.470  1.00  0.00     0.138 A 
ATOM      2  C   UNL     1       7.272  -2.435   8.566  1.00  0.00     0.100 A 
ATOM      3  C   UNL     1       6.815  -3.750   8.661  1.00  0.00     0.197 A 
ATOM      4  O   UNL     1       5.903  -4.121   7.877  1.00  0.00    -0.289 OA
ATOM      5  C   UNL     1       7.352  -4.611   9.647  1.00  0.00     0.107 A 
ATOM      6  C   UNL     1       6.992  -5.983   9.812  1.00  0.00     0.134 A 
ATOM      7  C   UNL     1       7.504  -6.705  10.897  1.00  0.00     0.093 A 
ATOM      8  C   UNL     1       8.407  -6.126  11.787  1.00  0.00     0.123 A 
ATOM      9  C   UNL     1       8.809  -4.801  11.604  1.00  0.00     0.094 A 
ATOM     10  C   UNL     1       8.290  -4.044  10.552  1.00  0.00     0.146 A 
ATOM     11  O   UNL     1       8.686  -2.782  10.420  1.00  0.00    -0.456 OA
ENDROOT
BRANCH   1  12
ATOM     12  C   UNL     1       8.759  -0.580   9.413  1.00  0.00     0.021 A 
ATOM     13  C   UNL     1       8.135   0.359   8.574  1.00  0.00     0.016 A 
ATOM     14  C   UNL     1       8.602   1.673   8.507  1.00  0.00     0.051 A 
ATOM     15  C   UNL     1       9.693   2.076   9.287  1.00  0.00     0.157 A 
ATOM     16  C   UNL     1       9.849  -0.165  10.203  1.00  0.00     0.062 A 
ATOM     17  C   UNL     1      10.317   1.152  10.140  1.00  0.00     0.158 A 
BRANCH  15  18
ATOM     18  O   UNL     1      10.158   3.389   9.217  1.00  0.00    -0.504 OA
ATOM     19  H   UNL     1       9.521   4.177   9.192  1.00  0.00     0.293 HD
ENDBRANCH  15  18
BRANCH  17  20
ATOM     20  O   UNL     1      11.399   1.524  10.937  1.00  0.00    -0.504 OA
ATOM     21  H   UNL     1      11.378   2.352  11.522  1.00  0.00     0.293 HD
ENDBRANCH  17  20
ENDBRANCH   1  12
BRANCH   6  22
ATOM     22  O   UNL     1       6.162  -6.684   8.932  1.00  0.00    -0.507 OA
ATOM     23  H   UNL     1       5.159  -6.746   9.012  1.00  0.00     0.293 HD
ENDBRANCH   6  22
BRANCH   8  24
ATOM     24  O   UNL     1       8.909  -6.880  12.846  1.00  0.00    -0.508 OA
ATOM     25  H   UNL     1       8.559  -7.809  13.048  1.00  0.00     0.293 HD
ENDBRANCH   8  24
TORSDOF 5
ENDMDL
MODEL 4
REMARK VINA RESULT:    -5.349      2.086      6.827
REMARK INTER + INTRA:          -6.557
REMARK INTER:                  -6.262
REMARK INTRA:                  -0.295
REMARK UNBOUND:                -0.269
REMARK SMILES O=c1cc(-c2ccc(O)c(O)c2)oc2cc(O)cc(O)c12
REMARK SMILES IDX 4 1 3 2 2 3 1 4 21 5 19 6 18 7 16 8 15 9 14 10 13 11 5 12
REMARK SMILES IDX 6 13 7 14 8 15 12 16 10 17 9 18 11 20 20 22 17 24
REMARK H PARENT 9 19 11 21 20 23 17 25
REMARK Flexibility Score: inf
ROOT
ATOM      1  C   UNL     1       7.751  -2.502   9.841  1.00  0.00     0.138 A 
ATOM      2  C   UNL     1       6.715  -1.969   9.060  1.00  0.00     0.100 A 
ATOM      3  C   UNL     1       6.789  -0.645   8.627  1.00  0.00     0.197 A 
ATOM      4  O   UNL     1       5.875  -0.214   7.876  1.00  0.00    -0.289 OA
ATOM      5  C   UNL     1       7.891   0.158   9.004  1.00  0.00     0.107 A 
ATOM      6  C   UNL     1       8.051   1.533   8.655  1.00  0.00     0.134 A 
ATOM      7  C   UNL     1       9.241   2.194   8.987  1.00  0.00     0.093 A 
ATOM      8  C   UNL     1      10.247   1.551   9.706  1.00  0.00     0.123 A 
ATOM      9  C   UNL     1      10.078   0.223  10.100  1.00  0.00     0.094 A 
ATOM     10  C   UNL     1       8.918  -0.475   9.754  1.00  0.00     0.146 A 
ATOM     11  O   UNL     1       8.801  -1.742  10.136  1.00  0.00    -0.456 OA
ENDROOT
BRANCH   1  12
ATOM     12  C   UNL     1       7.723  -3.904  10.330  1.00  0.00     0.021 A 
ATOM     13  C   UNL     1       6.525  -4.436  10.835  1.00  0.00     0.016 A 
ATOM     14  C   UNL     1       6.471  -5.754  11.294  1.00  0.00     0.051 A 
ATOM     15  C   UNL     1       7.610  -6.567  11.246  1.00  0.00     0.157 A 
ATOM     16  C   UNL     1       8.863  -4.731  10.273  1.00  0.00     0.062 A 
ATOM     17  C   UNL     1       8.810  -6.052  10.730  1.00  0.00     0.158 A 
BRANCH  15  18
ATOM     18  O   UNL     1       7.552  -7.882  11.706  1.00  0.00    -0.504 OA
ATOM     19  H   UNL     1       8.291  -8.278  12.274  1.00  0.00     0.293 HD
ENDBRANCH  15  18
BRANCH  17  20
ATOM     20  O   UNL     1       9.959  -6.839  10.659  1.00  0.00    -0.504 OA
ATOM     21  H   UNL     1      10.279  -7.397  11.441  1.00  0.00     0.293 HD
ENDBRANCH  17  20
ENDBRANCH   1  12
BRANCH   6  22
ATOM     22  O   UNL     1       7.073   2.295   8.009  1.00  0.00    -0.507 OA
ATOM     23  H   UNL     1       6.215   2.611   8.435  1.00  0.00     0.293 HD
ENDBRANCH   6  22
BRANCH   8  24
ATOM     24  O   UNL     1      11.410   2.246  10.033  1.00  0.00    -0.508 OA
ATOM     25  H   UNL     1      11.533   3.220   9.784  1.00  0.00     0.293 HD
ENDBRANCH   8  24
TORSDOF 5
ENDMDL
MODEL 5
REMARK VINA RESULT:    -5.149      3.918      5.529
REMARK INTER + INTRA:          -6.322
REMARK INTER:                  -6.044
REMARK INTRA:                  -0.278
REMARK UNBOUND:                -0.269
REMARK SMILES O=c1cc(-c2ccc(O)c(O)c2)oc2cc(O)cc(O)c12
REMARK SMILES IDX 4 1 3 2 2 3 1 4 21 5 19 6 18 7 16 8 15 9 14 10 13 11 5 12
REMARK SMILES IDX 6 13 7 14 8 15 12 16 10 17 9 18 11 20 20 22 17 24
REMARK H PARENT 9 19 11 21 20 23 17 25
REMARK Flexibility Score: inf
ROOT
ATOM      1  C   UNL     1       8.192  -5.684  11.226  1.00  0.00     0.138 A 
ATOM      2  C   UNL     1       6.981  -6.131  11.776  1.00  0.00     0.100 A 
ATOM      3  C   UNL     1       6.966  -7.277  12.571  1.00  0.00     0.197 A 
ATOM      4  O   UNL     1       5.876  -7.618  13.101  1.00  0.00    -0.289 OA
ATOM      5  C   UNL     1       8.165  -7.996  12.792  1.00  0.00     0.107 A 
ATOM      6  C   UNL     1       8.261  -9.201  13.552  1.00  0.00     0.134 A 
ATOM      7  C   UNL     1       9.521  -9.760  13.799  1.00  0.00     0.093 A 
ATOM      8  C   UNL     1      10.678  -9.196  13.265  1.00  0.00     0.123 A 
ATOM      9  C   UNL     1      10.590  -8.049  12.475  1.00  0.00     0.094 A 
ATOM     10  C   UNL     1       9.352  -7.447  12.239  1.00  0.00     0.146 A 
ATOM     11  O   UNL     1       9.312  -6.348  11.493  1.00  0.00    -0.456 OA
ENDROOT
BRANCH   1  12
ATOM     12  C   UNL     1       8.265  -4.472  10.371  1.00  0.00     0.021 A 
ATOM     13  C   UNL     1       9.027  -4.504   9.191  1.00  0.00     0.016 A 
ATOM     14  C   UNL     1       9.106  -3.379   8.366  1.00  0.00     0.051 A 
ATOM     15  C   UNL     1       8.416  -2.208   8.700  1.00  0.00     0.157 A 
ATOM     16  C   UNL     1       7.563  -3.295  10.695  1.00  0.00     0.062 A 
ATOM     17  C   UNL     1       7.639  -2.168   9.869  1.00  0.00     0.158 A 
BRANCH  15  18
ATOM     18  O   UNL     1       8.498  -1.087   7.875  1.00  0.00    -0.504 OA
ATOM     19  H   UNL     1       8.527  -1.171   6.867  1.00  0.00     0.293 HD
ENDBRANCH  15  18
BRANCH  17  20
ATOM     20  O   UNL     1       6.931  -1.020  10.224  1.00  0.00    -0.504 OA
ATOM     21  H   UNL     1       7.190  -0.453  11.023  1.00  0.00     0.293 HD
ENDBRANCH  17  20
ENDBRANCH   1  12
BRANCH   6  22
ATOM     22  O   UNL     1       7.159  -9.894  14.061  1.00  0.00    -0.507 OA
ATOM     23  H   UNL     1       6.559 -10.498  13.521  1.00  0.00     0.293 HD
ENDBRANCH   6  22
BRANCH   8  24
ATOM     24  O   UNL     1      11.913  -9.790  13.519  1.00  0.00    -0.508 OA
ATOM     25  H   UNL     1      12.283 -10.521  12.922  1.00  0.00     0.293 HD
ENDBRANCH   8  24
TORSDOF 5
ENDMDL
MODEL 6
REMARK VINA RESULT:    -4.774      2.116      7.259
REMARK INTER + INTRA:          -5.880
REMARK INTER:                  -5.590
REMARK INTRA:                  -0.290
REMARK UNBOUND:                -0.269
REMARK SMILES O=c1cc(-c2ccc(O)c(O)c2)oc2cc(O)cc(O)c12
REMARK SMILES IDX 4 1 3 2 2 3 1 4 21 5 19 6 18 7 16 8 15 9 14 10 13 11 5 12
REMARK SMILES IDX 6 13 7 14 8 15 12 16 10 17 9 18 11 20 20 22 17 24
REMARK H PARENT 9 19 11 21 20 23 17 25
REMARK Flexibility Score: inf
ROOT
ATOM      1  C   UNL     1       7.976  -2.726   9.640  1.00  0.00     0.138 A 
ATOM      2  C   UNL     1       9.240  -2.338  10.109  1.00  0.00     0.100 A 
ATOM      3  C   UNL     1       9.629  -1.001  10.018  1.00  0.00     0.197 A 
ATOM      4  O   UNL     1      10.743  -0.673  10.503  1.00  0.00    -0.289 OA
ATOM      5  C   UNL     1       8.760  -0.055   9.426  1.00  0.00     0.107 A 
ATOM      6  C   UNL     1       9.068   1.327   9.243  1.00  0.00     0.134 A 
ATOM      7  C   UNL     1       8.083   2.193   8.751  1.00  0.00     0.093 A 
ATOM      8  C   UNL     1       6.826   1.719   8.380  1.00  0.00     0.123 A 
ATOM      9  C   UNL     1       6.532   0.360   8.503  1.00  0.00     0.094 A 
ATOM     10  C   UNL     1       7.481  -0.524   9.023  1.00  0.00     0.146 A 
ATOM     11  O   UNL     1       7.158  -1.807   9.139  1.00  0.00    -0.456 OA
ENDROOT
BRANCH   1  12
ATOM     12  C   UNL     1       7.512  -4.135   9.712  1.00  0.00     0.021 A 
ATOM     13  C   UNL     1       6.529  -4.585   8.814  1.00  0.00     0.016 A 
ATOM     14  C   UNL     1       6.081  -5.907   8.856  1.00  0.00     0.051 A 
ATOM     15  C   UNL     1       6.615  -6.806   9.787  1.00  0.00     0.157 A 
ATOM     16  C   UNL     1       8.055  -5.047  10.638  1.00  0.00     0.062 A 
ATOM     17  C   UNL     1       7.609  -6.373  10.680  1.00  0.00     0.158 A 
BRANCH  15  18
ATOM     18  O   UNL     1       6.165  -8.125   9.827  1.00  0.00    -0.504 OA
ATOM     19  H   UNL     1       5.712  -8.555   9.029  1.00  0.00     0.293 HD
ENDBRANCH  15  18
BRANCH  17  20
ATOM     20  O   UNL     1       8.169  -7.246  11.612  1.00  0.00    -0.504 OA
ATOM     21  H   UNL     1       8.959  -7.839  11.387  1.00  0.00     0.293 HD
ENDBRANCH  17  20
ENDBRANCH   1  12
BRANCH   6  22
ATOM     22  O   UNL     1      10.320   1.890   9.503  1.00  0.00    -0.507 OA
ATOM     23  H   UNL     1      10.744   2.628   8.962  1.00  0.00     0.293 HD
ENDBRANCH   6  22
BRANCH   8  24
ATOM     24  O   UNL     1       5.876   2.608   7.879  1.00  0.00    -0.508 OA
ATOM     25  H   UNL     1       5.488   3.347   8.451  1.00  0.00     0.293 HD
ENDBRANCH   8  24
TORSDOF 5
ENDMDL
MODEL 7
REMARK VINA RESULT:    -4.512      5.704      7.758
REMARK INTER + INTRA:          -5.573
REMARK INTER:                  -5.255
REMARK INTRA:                  -0.318
REMARK UNBOUND:                -0.269
REMARK SMILES O=c1cc(-c2ccc(O)c(O)c2)oc2cc(O)cc(O)c12
REMARK SMILES IDX 4 1 3 2 2 3 1 4 21 5 19 6 18 7 16 8 15 9 14 10 13 11 5 12
REMARK SMILES IDX 6 13 7 14 8 15 12 16 10 17 9 18 11 20 20 22 17 24
REMARK H PARENT 9 19 11 21 20 23 17 25
REMARK Flexibility Score: inf
ROOT
ATOM      1  C   UNL     1       7.701  -7.641  13.075  1.00  0.00     0.138 A 
ATOM      2  C   UNL     1       6.710  -8.168  13.916  1.00  0.00     0.100 A 
ATOM      3  C   UNL     1       6.930  -9.384  14.564  1.00  0.00     0.197 A 
ATOM      4  O   UNL     1       6.049  -9.800  15.361  1.00  0.00    -0.289 OA
ATOM      5  C   UNL     1       8.136 -10.091  14.342  1.00  0.00     0.107 A 
ATOM      6  C   UNL     1       8.451 -11.359  14.916  1.00  0.00     0.134 A 
ATOM      7  C   UNL     1       9.724 -11.909  14.716  1.00  0.00     0.093 A 
ATOM      8  C   UNL     1      10.669 -11.268  13.917  1.00  0.00     0.123 A 
ATOM      9  C   UNL     1      10.352 -10.053  13.306  1.00  0.00     0.094 A 
ATOM     10  C   UNL     1       9.103  -9.462  13.514  1.00  0.00     0.146 A 
ATOM     11  O   UNL     1       8.846  -8.299  12.926  1.00  0.00    -0.456 OA
ENDROOT
BRANCH   1  12
ATOM     12  C   UNL     1       7.519  -6.352  12.361  1.00  0.00     0.021 A 
ATOM     13  C   UNL     1       6.338  -5.614  12.555  1.00  0.00     0.016 A 
ATOM     14  C   UNL     1       6.146  -4.396  11.901  1.00  0.00     0.051 A 
ATOM     15  C   UNL     1       7.134  -3.886  11.050  1.00  0.00     0.157 A 
ATOM     16  C   UNL     1       8.514  -5.828  11.513  1.00  0.00     0.062 A 
ATOM     17  C   UNL     1       8.324  -4.605  10.859  1.00  0.00     0.158 A 
BRANCH  15  18
ATOM     18  O   UNL     1       6.938  -2.670  10.398  1.00  0.00    -0.504 OA
ATOM     19  H   UNL     1       7.513  -2.390   9.613  1.00  0.00     0.293 HD
ENDBRANCH  15  18
BRANCH  17  20
ATOM     20  O   UNL     1       9.333  -4.120  10.026  1.00  0.00    -0.504 OA
ATOM     21  H   UNL     1       9.679  -4.650   9.235  1.00  0.00     0.293 HD
ENDBRANCH  17  20
ENDBRANCH   1  12
BRANCH   6  22
ATOM     22  O   UNL     1       7.551 -12.125  15.663  1.00  0.00    -0.507 OA
ATOM     23  H   UNL     1       7.384 -12.016  16.651  1.00  0.00     0.293 HD
ENDBRANCH   6  22
BRANCH   8  24
ATOM     24  O   UNL     1      11.920 -11.853  13.728  1.00  0.00    -0.508 OA
ATOM     25  H   UNL     1      12.776 -11.329  13.863  1.00  0.00     0.293 HD
ENDBRANCH   8  24
TORSDOF 5
ENDMDL
MODEL 8
REMARK VINA RESULT:    -4.425      4.910      8.764
REMARK INTER + INTRA:          -5.470
REMARK INTER:                  -5.155
REMARK INTRA:                  -0.316
REMARK UNBOUND:                -0.269
REMARK SMILES O=c1cc(-c2ccc(O)c(O)c2)oc2cc(O)cc(O)c12
REMARK SMILES IDX 4 1 3 2 2 3 1 4 21 5 19 6 18 7 16 8 15 9 14 10 13 11 5 12
REMARK SMILES IDX 6 13 7 14 8 15 12 16 10 17 9 18 11 20 20 22 17 24
REMARK H PARENT 9 19 11 21 20 23 17 25
REMARK Flexibility Score: inf
ROOT
ATOM      1  C   UNL     1       7.669  -7.285  12.795  1.00  0.00     0.138 A 
ATOM      2  C   UNL     1       6.765  -6.249  13.074  1.00  0.00     0.100 A 
ATOM      3  C   UNL     1       6.743  -5.115  12.262  1.00  0.00     0.197 A 
ATOM      4  O   UNL     1       5.879  -4.231  12.499  1.00  0.00    -0.289 OA
ATOM      5  C   UNL     1       7.653  -5.004  11.184  1.00  0.00     0.107 A 
ATOM      6  C   UNL     1       7.749  -3.877  10.314  1.00  0.00     0.134 A 
ATOM      7  C   UNL     1       8.609  -3.929   9.209  1.00  0.00     0.093 A 
ATOM      8  C   UNL     1       9.418  -5.040   8.977  1.00  0.00     0.123 A 
ATOM      9  C   UNL     1       9.372  -6.127   9.852  1.00  0.00     0.094 A 
ATOM     10  C   UNL     1       8.500  -6.120  10.943  1.00  0.00     0.146 A 
ATOM     11  O   UNL     1       8.476  -7.179  11.745  1.00  0.00    -0.456 OA
ENDROOT
BRANCH   1  12
ATOM     12  C   UNL     1       7.736  -8.512  13.628  1.00  0.00     0.021 A 
ATOM     13  C   UNL     1       6.709  -8.779  14.550  1.00  0.00     0.016 A 
ATOM     14  C   UNL     1       6.745  -9.930  15.340  1.00  0.00     0.051 A 
ATOM     15  C   UNL     1       7.800 -10.842  15.213  1.00  0.00     0.157 A 
ATOM     16  C   UNL     1       8.788  -9.440  13.496  1.00  0.00     0.062 A 
ATOM     17  C   UNL     1       8.824 -10.595  14.285  1.00  0.00     0.158 A 
BRANCH  15  18
ATOM     18  O   UNL     1       7.833 -11.990  16.004  1.00  0.00    -0.504 OA
ATOM     19  H   UNL     1       6.987 -12.400  16.380  1.00  0.00     0.293 HD
ENDBRANCH  15  18
BRANCH  17  20
ATOM     20  O   UNL     1       9.883 -11.489  14.127  1.00  0.00    -0.504 OA
ATOM     21  H   UNL     1      10.025 -12.010  13.269  1.00  0.00     0.293 HD
ENDBRANCH  17  20
ENDBRANCH   1  12
BRANCH   6  22
ATOM     22  O   UNL     1       7.047  -2.682  10.502  1.00  0.00    -0.507 OA
ATOM     23  H   UNL     1       6.046  -2.612  10.600  1.00  0.00     0.293 HD
ENDBRANCH   6  22
BRANCH   8  24
ATOM     24  O   UNL     1      10.273  -5.050   7.877  1.00  0.00    -0.508 OA
ATOM     25  H   UNL     1      10.201  -4.356   7.143  1.00  0.00     0.293 HD
ENDBRANCH   8  24
TORSDOF 5
ENDMDL
MODEL 9
REMARK VINA RESULT:    -4.131      4.494      6.195
REMARK INTER + INTRA:          -5.124
REMARK INTER:                  -4.808
REMARK INTRA:                  -0.317
REMARK UNBOUND:                -0.269
REMARK SMILES O=c1cc(-c2ccc(O)c(O)c2)oc2cc(O)cc(O)c12
REMARK SMILES IDX 4 1 3 2 2 3 1 4 21 5 19 6 18 7 16 8 15 9 14 10 13 11 5 12
REMARK SMILES IDX 6 13 7 14 8 15 12 16 10 17 9 18 11 20 20 22 17 24
REMARK H PARENT 9 19 11 21 20 23 17 25
REMARK Flexibility Score: inf
ROOT
ATOM      1  C   UNL     1       7.512  -5.702  12.041  1.00  0.00     0.138 A 
ATOM      2  C   UNL     1       6.680  -5.468  13.146  1.00  0.00     0.100 A 
ATOM      3  C   UNL     1       6.581  -6.429  14.152  1.00  0.00     0.197 A 
ATOM      4  O   UNL     1       5.876  -6.163  15.160  1.00  0.00    -0.289 OA
ATOM      5  C   UNL     1       7.295  -7.645  14.035  1.00  0.00     0.107 A 
ATOM      6  C   UNL     1       7.238  -8.714  14.979  1.00  0.00     0.134 A 
ATOM      7  C   UNL     1       8.079  -9.823  14.817  1.00  0.00     0.093 A 
ATOM      8  C   UNL     1       8.928  -9.929  13.716  1.00  0.00     0.123 A 
ATOM      9  C   UNL     1       8.952  -8.914  12.758  1.00  0.00     0.094 A 
ATOM     10  C   UNL     1       8.151  -7.780  12.909  1.00  0.00     0.146 A 
ATOM     11  O   UNL     1       8.213  -6.829  11.983  1.00  0.00    -0.456 OA
ENDROOT
BRANCH   1  12
ATOM     12  C   UNL     1       7.654  -4.714  10.943  1.00  0.00     0.021 A 
ATOM     13  C   UNL     1       6.788  -3.608  10.892  1.00  0.00     0.016 A 
ATOM     14  C   UNL     1       6.905  -2.660   9.872  1.00  0.00     0.051 A 
ATOM     15  C   UNL     1       7.896  -2.795   8.892  1.00  0.00     0.157 A 
ATOM     16  C   UNL     1       8.656  -4.837   9.961  1.00  0.00     0.062 A 
ATOM     17  C   UNL     1       8.777  -3.887   8.940  1.00  0.00     0.158 A 
BRANCH  15  18
ATOM     18  O   UNL     1       8.010  -1.848   7.876  1.00  0.00    -0.504 OA
ATOM     19  H   UNL     1       8.867  -1.734   7.349  1.00  0.00     0.293 HD
ENDBRANCH  15  18
BRANCH  17  20
ATOM     20  O   UNL     1       9.781  -4.045   7.985  1.00  0.00    -0.504 OA
ATOM     21  H   UNL     1       9.907  -3.389   7.223  1.00  0.00     0.293 HD
ENDBRANCH  17  20
ENDBRANCH   1  12
BRANCH   6  22
ATOM     22  O   UNL     1       6.364  -8.748  16.070  1.00  0.00    -0.507 OA
ATOM     23  H   UNL     1       5.934  -9.583  16.438  1.00  0.00     0.293 HD
ENDBRANCH   6  22
BRANCH   8  24
ATOM     24  O   UNL     1       9.738 -11.054  13.579  1.00  0.00    -0.508 OA
ATOM     25  H   UNL     1       9.659 -11.670  12.779  1.00  0.00     0.293 HD
ENDBRANCH   8  24
TORSDOF 5
ENDMDL
