MODEL 1
REMARK VINA RESULT:     0.379      0.000      0.000
REMARK INTER + INTRA:           0.620
REMARK INTER:                   0.822
REMARK INTRA:                  -0.201
REMARK UNBOUND:                -0.201
REMARK SMILES CCCCCCCCCCCCCCCCCCCCCC(=O)[O-]
REMARK SMILES IDX 12 1 11 2 10 3 9 4 8 5 7 6 6 7 5 8 4 9 3 10 2 11 1 12 13 13
REMARK SMILES IDX 14 14 15 15 16 16 17 17 18 18 19 19 20 20 21 21 22 22 23 23
REMARK SMILES IDX 24 24
REMARK H PARENT
REMARK Flexibility Score: inf
ROOT
ATOM      1  C   UNL     1     -15.983  -1.972  -3.133  1.00  0.00     0.000 C 
ENDROOT
BRANCH   1   2
ATOM      2  C   UNL     1     -16.401  -3.181  -2.278  1.00  0.00     0.000 C 
BRANCH   2   3
ATOM      3  C   UNL     1     -15.221  -3.794  -1.503  1.00  0.00     0.000 C 
BRANCH   3   4
ATOM      4  C   UNL     1     -14.504  -4.896  -2.297  1.00  0.00    -0.000 C 
BRANCH   4   5
ATOM      5  C   UNL     1     -13.833  -4.363  -3.576  1.00  0.00    -0.000 C 
BRANCH   5   6
ATOM      6  C   UNL     1     -14.296  -5.122  -4.838  1.00  0.00    -0.000 C 
BRANCH   6   7
ATOM      7  C   UNL     1     -15.825  -5.124  -5.039  1.00  0.00    -0.000 C 
BRANCH   7   8
ATOM      8  C   UNL     1     -16.332  -4.238  -6.191  1.00  0.00    -0.000 C 
BRANCH   8   9
ATOM      9  C   UNL     1     -15.220  -3.863  -7.188  1.00  0.00    -0.000 C 
BRANCH   9  10
ATOM     10  C   UNL     1     -14.821  -5.037  -8.094  1.00  0.00    -0.000 C 
BRANCH  10  11
ATOM     11  C   UNL     1     -15.387  -4.909  -9.516  1.00  0.00    -0.003 C 
ATOM     12  C   UNL     1     -16.654  -4.058  -9.529  1.00  0.00     0.004 C 
ENDBRANCH  10  11
ENDBRANCH   9  10
ENDBRANCH   8   9
ENDBRANCH   7   8
ENDBRANCH   6   7
ENDBRANCH   5   6
ENDBRANCH   4   5
ENDBRANCH   3   4
ENDBRANCH   2   3
ENDBRANCH   1   2
BRANCH   1  13
ATOM     13  C   UNL     1     -16.952  -0.786  -2.988  1.00  0.00     0.000 C 
BRANCH  13  14
ATOM     14  C   UNL     1     -17.021  -0.250  -1.548  1.00  0.00     0.000 C 
BRANCH  14  15
ATOM     15  C   UNL     1     -16.091   0.955  -1.316  1.00  0.00     0.000 C 
BRANCH  15  16
ATOM     16  C   UNL     1     -16.489   1.785  -0.083  1.00  0.00     0.000 C 
BRANCH  16  17
ATOM     17  C   UNL     1     -17.122   0.984   1.072  1.00  0.00     0.000 C 
BRANCH  17  18
ATOM     18  C   UNL     1     -17.020   1.649   2.460  1.00  0.00     0.000 C 
BRANCH  18  19
ATOM     19  C   UNL     1     -16.836   0.673   3.639  1.00  0.00     0.000 C 
BRANCH  19  20
ATOM     20  C   UNL     1     -16.784  -0.816   3.250  1.00  0.00     0.006 C 
BRANCH  20  21
ATOM     21  C   UNL     1     -15.351  -1.339   3.089  1.00  0.00     0.053 C 
BRANCH  21  22
ATOM     22  C   UNL     1     -14.789  -0.925   1.765  1.00  0.00     0.041 C 
ATOM     23  O   UNL     1     -15.275  -1.385   0.699  1.00  0.00    -0.550 OA
ATOM     24  O   UNL     1     -13.761   0.009   1.707  1.00  0.00    -0.550 OA
ENDBRANCH  21  22
ENDBRANCH  20  21
ENDBRANCH  19  20
ENDBRANCH  18  19
ENDBRANCH  17  18
ENDBRANCH  16  17
ENDBRANCH  15  16
ENDBRANCH  14  15
ENDBRANCH  13  14
ENDBRANCH   1  13
TORSDOF 20
ENDMDL
MODEL 2
REMARK VINA RESULT:     1.778      1.947      3.443
REMARK INTER + INTRA:           3.656
REMARK INTER:                   3.635
REMARK INTRA:                   0.021
REMARK UNBOUND:                -0.201
REMARK SMILES CCCCCCCCCCCCCCCCCCCCCC(=O)[O-]
REMARK SMILES IDX 12 1 11 2 10 3 9 4 8 5 7 6 6 7 5 8 4 9 3 10 2 11 1 12 13 13
REMARK SMILES IDX 14 14 15 15 16 16 17 17 18 18 19 19 20 20 21 21 22 22 23 23
REMARK SMILES IDX 24 24
REMARK H PARENT
REMARK Flexibility Score: inf
ROOT
ATOM      1  C   UNL     1     -16.083  -3.252  -5.093  1.00  0.00     0.000 C 
ENDROOT
BRANCH   1   2
ATOM      2  C   UNL     1     -14.650  -3.432  -4.562  1.00  0.00     0.000 C 
BRANCH   2   3
ATOM      3  C   UNL     1     -13.598  -3.429  -5.685  1.00  0.00     0.000 C 
BRANCH   3   4
ATOM      4  C   UNL     1     -12.174  -3.671  -5.160  1.00  0.00    -0.000 C 
BRANCH   4   5
ATOM      5  C   UNL     1     -11.665  -5.091  -5.462  1.00  0.00    -0.000 C 
BRANCH   5   6
ATOM      6  C   UNL     1     -10.722  -5.125  -6.684  1.00  0.00    -0.000 C 
BRANCH   6   7
ATOM      7  C   UNL     1     -11.179  -4.224  -7.849  1.00  0.00    -0.000 C 
BRANCH   7   8
ATOM      8  C   UNL     1     -11.529  -4.969  -9.150  1.00  0.00    -0.000 C 
BRANCH   8   9
ATOM      9  C   UNL     1     -13.047  -5.124  -9.358  1.00  0.00    -0.000 C 
BRANCH   9  10
ATOM     10  C   UNL     1     -13.839  -4.964  -8.052  1.00  0.00    -0.000 C 
BRANCH  10  11
ATOM     11  C   UNL     1     -15.359  -5.001  -8.271  1.00  0.00    -0.003 C 
ATOM     12  C   UNL     1     -15.716  -4.637  -9.709  1.00  0.00     0.004 C 
ENDBRANCH  10  11
ENDBRANCH   9  10
ENDBRANCH   8   9
ENDBRANCH   7   8
ENDBRANCH   6   7
ENDBRANCH   5   6
ENDBRANCH   4   5
ENDBRANCH   3   4
ENDBRANCH   2   3
ENDBRANCH   1   2
BRANCH   1  13
ATOM     13  C   UNL     1     -17.075  -2.855  -3.986  1.00  0.00     0.000 C 
BRANCH  13  14
ATOM     14  C   UNL     1     -17.038  -3.814  -2.785  1.00  0.00     0.000 C 
BRANCH  14  15
ATOM     15  C   UNL     1     -17.021  -3.076  -1.434  1.00  0.00     0.000 C 
BRANCH  15  16
ATOM     16  C   UNL     1     -16.234  -1.754  -1.488  1.00  0.00     0.000 C 
BRANCH  16  17
ATOM     17  C   UNL     1     -16.967  -0.530  -0.901  1.00  0.00     0.000 C 
BRANCH  17  18
ATOM     18  C   UNL     1     -16.605   0.821  -1.551  1.00  0.00     0.000 C 
BRANCH  18  19
ATOM     19  C   UNL     1     -16.286   1.958  -0.560  1.00  0.00     0.000 C 
BRANCH  19  20
ATOM     20  C   UNL     1     -15.624   1.507   0.755  1.00  0.00     0.006 C 
BRANCH  20  21
ATOM     21  C   UNL     1     -16.581   0.730   1.668  1.00  0.00     0.053 C 
BRANCH  21  22
ATOM     22  C   UNL     1     -15.851  -0.369   2.374  1.00  0.00     0.041 C 
ATOM     23  O   UNL     1     -14.601  -0.312   2.513  1.00  0.00    -0.550 OA
ATOM     24  O   UNL     1     -16.557  -1.432   2.925  1.00  0.00    -0.550 OA
ENDBRANCH  21  22
ENDBRANCH  20  21
ENDBRANCH  19  20
ENDBRANCH  18  19
ENDBRANCH  17  18
ENDBRANCH  16  17
ENDBRANCH  15  16
ENDBRANCH  14  15
ENDBRANCH  13  14
ENDBRANCH   1  13
TORSDOF 20
ENDMDL
MODEL 3
REMARK VINA RESULT:     2.279      4.670      9.430
REMARK INTER + INTRA:           4.743
REMARK INTER:                   5.544
REMARK INTRA:                  -0.801
REMARK UNBOUND:                -0.201
REMARK SMILES CCCCCCCCCCCCCCCCCCCCCC(=O)[O-]
REMARK SMILES IDX 12 1 11 2 10 3 9 4 8 5 7 6 6 7 5 8 4 9 3 10 2 11 1 12 13 13
REMARK SMILES IDX 14 14 15 15 16 16 17 17 18 18 19 19 20 20 21 21 22 22 23 23
REMARK SMILES IDX 24 24
REMARK H PARENT
REMARK Flexibility Score: inf
ROOT
ATOM      1  C   UNL     1     -16.757  -0.270  -1.998  1.00  0.00     0.000 C 
ENDROOT
BRANCH   1   2
ATOM      2  C   UNL     1     -17.055  -0.549  -0.515  1.00  0.00     0.000 C 
BRANCH   2   3
ATOM      3  C   UNL     1     -16.118   0.225   0.431  1.00  0.00     0.000 C 
BRANCH   3   4
ATOM      4  C   UNL     1     -15.362   1.355  -0.283  1.00  0.00    -0.000 C 
BRANCH   4   5
ATOM      5  C   UNL     1     -14.069   1.757   0.450  1.00  0.00    -0.000 C 
BRANCH   5   6
ATOM      6  C   UNL     1     -13.495   3.092  -0.071  1.00  0.00    -0.000 C 
BRANCH   6   7
ATOM      7  C   UNL     1     -12.406   3.699   0.836  1.00  0.00    -0.000 C 
BRANCH   7   8
ATOM      8  C   UNL     1     -10.990   3.132   0.624  1.00  0.00    -0.000 C 
BRANCH   8   9
ATOM      9  C   UNL     1      -9.928   4.233   0.455  1.00  0.00    -0.000 C 
BRANCH   9  10
ATOM     10  C   UNL     1      -8.506   3.729   0.741  1.00  0.00    -0.000 C 
BRANCH  10  11
ATOM     11  C   UNL     1      -8.198   2.394   0.046  1.00  0.00    -0.003 C 
ATOM     12  C   UNL     1      -6.772   1.936   0.340  1.00  0.00     0.004 C 
ENDBRANCH  10  11
ENDBRANCH   9  10
ENDBRANCH   8   9
ENDBRANCH   7   8
ENDBRANCH   6   7
ENDBRANCH   5   6
ENDBRANCH   4   5
ENDBRANCH   3   4
ENDBRANCH   2   3
ENDBRANCH   1   2
BRANCH   1  13
ATOM     13  C   UNL     1     -16.726  -1.556  -2.843  1.00  0.00     0.000 C 
BRANCH  13  14
ATOM     14  C   UNL     1     -16.864  -2.829  -1.991  1.00  0.00     0.000 C 
BRANCH  14  15
ATOM     15  C   UNL     1     -16.005  -3.993  -2.517  1.00  0.00     0.000 C 
BRANCH  15  16
ATOM     16  C   UNL     1     -14.569  -3.971  -1.961  1.00  0.00     0.000 C 
BRANCH  16  17
ATOM     17  C   UNL     1     -13.649  -5.097  -2.475  1.00  0.00     0.000 C 
BRANCH  17  18
ATOM     18  C   UNL     1     -13.129  -4.907  -3.914  1.00  0.00     0.000 C 
BRANCH  18  19
ATOM     19  C   UNL     1     -14.201  -5.019  -5.017  1.00  0.00     0.000 C 
BRANCH  19  20
ATOM     20  C   UNL     1     -14.488  -3.713  -5.780  1.00  0.00     0.006 C 
BRANCH  20  21
ATOM     21  C   UNL     1     -15.647  -3.846  -6.775  1.00  0.00     0.053 C 
BRANCH  21  22
ATOM     22  C   UNL     1     -15.231  -4.668  -7.954  1.00  0.00     0.041 C 
ATOM     23  O   UNL     1     -16.056  -4.925  -8.870  1.00  0.00    -0.550 OA
ATOM     24  O   UNL     1     -13.917  -5.108  -8.067  1.00  0.00    -0.550 OA
ENDBRANCH  21  22
ENDBRANCH  20  21
ENDBRANCH  19  20
ENDBRANCH  18  19
ENDBRANCH  17  18
ENDBRANCH  16  17
ENDBRANCH  15  16
ENDBRANCH  14  15
ENDBRANCH  13  14
ENDBRANCH   1  13
TORSDOF 20
ENDMDL
MODEL 4
REMARK VINA RESULT:     3.019      4.847      8.088
REMARK INTER + INTRA:           6.347
REMARK INTER:                   7.681
REMARK INTRA:                  -1.334
REMARK UNBOUND:                -0.201
REMARK SMILES CCCCCCCCCCCCCCCCCCCCCC(=O)[O-]
REMARK SMILES IDX 12 1 11 2 10 3 9 4 8 5 7 6 6 7 5 8 4 9 3 10 2 11 1 12 13 13
REMARK SMILES IDX 14 14 15 15 16 16 17 17 18 18 19 19 20 20 21 21 22 22 23 23
REMARK SMILES IDX 24 24
REMARK H PARENT
REMARK Flexibility Score: inf
ROOT
ATOM      1  C   UNL     1     -13.402  -4.743  -1.249  1.00  0.00     0.000 C 
ENDROOT
BRANCH   1   2
ATOM      2  C   UNL     1     -11.901  -5.080  -1.289  1.00  0.00     0.000 C 
BRANCH   2   3
ATOM      3  C   UNL     1     -11.138  -4.527  -0.072  1.00  0.00     0.000 C 
BRANCH   3   4
ATOM      4  C   UNL     1      -9.640  -4.336  -0.353  1.00  0.00    -0.000 C 
BRANCH   4   5
ATOM      5  C   UNL     1      -8.982  -3.327   0.605  1.00  0.00    -0.000 C 
BRANCH   5   6
ATOM      6  C   UNL     1      -8.518  -2.048  -0.123  1.00  0.00    -0.000 C 
BRANCH   6   7
ATOM      7  C   UNL     1      -6.990  -1.841  -0.109  1.00  0.00    -0.000 C 
BRANCH   7   8
ATOM      8  C   UNL     1      -6.530  -0.394   0.141  1.00  0.00    -0.000 C 
BRANCH   8   9
ATOM      9  C   UNL     1      -7.529   0.649  -0.391  1.00  0.00    -0.000 C 
BRANCH   9  10
ATOM     10  C   UNL     1      -7.100   2.090  -0.077  1.00  0.00    -0.000 C 
BRANCH  10  11
ATOM     11  C   UNL     1      -8.265   2.963   0.415  1.00  0.00    -0.003 C 
ATOM     12  C   UNL     1      -7.921   3.648   1.735  1.00  0.00     0.004 C 
ENDBRANCH  10  11
ENDBRANCH   9  10
ENDBRANCH   8   9
ENDBRANCH   7   8
ENDBRANCH   6   7
ENDBRANCH   5   6
ENDBRANCH   4   5
ENDBRANCH   3   4
ENDBRANCH   2   3
ENDBRANCH   1   2
BRANCH   1  13
ATOM     13  C   UNL     1     -14.122  -5.106  -2.559  1.00  0.00     0.000 C 
BRANCH  13  14
ATOM     14  C   UNL     1     -13.486  -4.438  -3.790  1.00  0.00     0.000 C 
BRANCH  14  15
ATOM     15  C   UNL     1     -14.464  -4.318  -4.973  1.00  0.00     0.000 C 
BRANCH  15  16
ATOM     16  C   UNL     1     -15.132  -2.934  -5.055  1.00  0.00     0.000 C 
BRANCH  16  17
ATOM     17  C   UNL     1     -16.575  -2.869  -4.514  1.00  0.00     0.000 C 
BRANCH  17  18
ATOM     18  C   UNL     1     -16.792  -1.876  -3.354  1.00  0.00     0.000 C 
BRANCH  18  19
ATOM     19  C   UNL     1     -16.675  -2.485  -1.942  1.00  0.00     0.000 C 
BRANCH  19  20
ATOM     20  C   UNL     1     -15.930  -1.611  -0.917  1.00  0.00     0.006 C 
BRANCH  20  21
ATOM     21  C   UNL     1     -16.878  -0.781  -0.041  1.00  0.00     0.053 C 
BRANCH  21  22
ATOM     22  C   UNL     1     -16.099   0.165   0.818  1.00  0.00     0.041 C 
ATOM     23  O   UNL     1     -15.572  -0.239   1.888  1.00  0.00    -0.550 OA
ATOM     24  O   UNL     1     -15.912   1.481   0.412  1.00  0.00    -0.550 OA
ENDBRANCH  21  22
ENDBRANCH  20  21
ENDBRANCH  19  20
ENDBRANCH  18  19
ENDBRANCH  17  18
ENDBRANCH  16  17
ENDBRANCH  15  16
ENDBRANCH  14  15
ENDBRANCH  13  14
ENDBRANCH   1  13
TORSDOF 20
ENDMDL
MODEL 5
REMARK VINA RESULT:     3.031      5.128      9.681
REMARK INTER + INTRA:           6.372
REMARK INTER:                   6.684
REMARK INTRA:                  -0.311
REMARK UNBOUND:                -0.201
REMARK SMILES CCCCCCCCCCCCCCCCCCCCCC(=O)[O-]
REMARK SMILES IDX 12 1 11 2 10 3 9 4 8 5 7 6 6 7 5 8 4 9 3 10 2 11 1 12 13 13
REMARK SMILES IDX 14 14 15 15 16 16 17 17 18 18 19 19 20 20 21 21 22 22 23 23
REMARK SMILES IDX 24 24
REMARK H PARENT
REMARK Flexibility Score: inf
ROOT
ATOM      1  C   UNL     1     -16.548  -0.013  -0.285  1.00  0.00     0.000 C 
ENDROOT
BRANCH   1   2
ATOM      2  C   UNL     1     -16.065   1.446  -0.360  1.00  0.00     0.000 C 
BRANCH   2   3
ATOM      3  C   UNL     1     -14.734   1.667   0.380  1.00  0.00     0.000 C 
BRANCH   3   4
ATOM      4  C   UNL     1     -13.924   2.836  -0.201  1.00  0.00    -0.000 C 
BRANCH   4   5
ATOM      5  C   UNL     1     -12.855   3.358   0.775  1.00  0.00    -0.000 C 
BRANCH   5   6
ATOM      6  C   UNL     1     -11.800   4.237   0.070  1.00  0.00    -0.000 C 
BRANCH   6   7
ATOM      7  C   UNL     1     -10.452   4.314   0.814  1.00  0.00    -0.000 C 
BRANCH   7   8
ATOM      8  C   UNL     1      -9.237   3.807   0.017  1.00  0.00    -0.000 C 
BRANCH   8   9
ATOM      9  C   UNL     1      -8.179   3.134   0.910  1.00  0.00    -0.000 C 
BRANCH   9  10
ATOM     10  C   UNL     1      -7.029   2.519   0.098  1.00  0.00    -0.000 C 
BRANCH  10  11
ATOM     11  C   UNL     1      -5.653   2.767   0.736  1.00  0.00    -0.003 C 
ATOM     12  C   UNL     1      -5.544   4.192   1.272  1.00  0.00     0.004 C 
ENDBRANCH  10  11
ENDBRANCH   9  10
ENDBRANCH   8   9
ENDBRANCH   7   8
ENDBRANCH   6   7
ENDBRANCH   5   6
ENDBRANCH   4   5
ENDBRANCH   3   4
ENDBRANCH   2   3
ENDBRANCH   1   2
BRANCH   1  13
ATOM     13  C   UNL     1     -16.772  -0.631  -1.677  1.00  0.00     0.000 C 
BRANCH  13  14
ATOM     14  C   UNL     1     -17.113  -2.129  -1.612  1.00  0.00     0.000 C 
BRANCH  14  15
ATOM     15  C   UNL     1     -16.745  -2.879  -2.905  1.00  0.00     0.000 C 
BRANCH  15  16
ATOM     16  C   UNL     1     -16.006  -4.202  -2.636  1.00  0.00     0.000 C 
BRANCH  16  17
ATOM     17  C   UNL     1     -14.691  -4.069  -1.841  1.00  0.00     0.000 C 
BRANCH  17  18
ATOM     18  C   UNL     1     -13.531  -4.950  -2.348  1.00  0.00     0.000 C 
BRANCH  18  19
ATOM     19  C   UNL     1     -13.201  -4.796  -3.847  1.00  0.00     0.000 C 
BRANCH  19  20
ATOM     20  C   UNL     1     -14.378  -5.065  -4.803  1.00  0.00     0.006 C 
BRANCH  20  21
ATOM     21  C   UNL     1     -14.139  -4.511  -6.213  1.00  0.00     0.053 C 
BRANCH  21  22
ATOM     22  C   UNL     1     -15.142  -3.446  -6.532  1.00  0.00     0.041 C 
ATOM     23  O   UNL     1     -15.077  -2.325  -5.963  1.00  0.00    -0.550 OA
ATOM     24  O   UNL     1     -16.117  -3.676  -7.495  1.00  0.00    -0.550 OA
ENDBRANCH  21  22
ENDBRANCH  20  21
ENDBRANCH  19  20
ENDBRANCH  18  19
ENDBRANCH  17  18
ENDBRANCH  16  17
ENDBRANCH  15  16
ENDBRANCH  14  15
ENDBRANCH  13  14
ENDBRANCH   1  13
TORSDOF 20
ENDMDL
MODEL 6
REMARK VINA RESULT:     3.110      4.234      5.277
REMARK INTER + INTRA:           6.545
REMARK INTER:                   7.179
REMARK INTRA:                  -0.634
REMARK UNBOUND:                -0.201
REMARK SMILES CCCCCCCCCCCCCCCCCCCCCC(=O)[O-]
REMARK SMILES IDX 12 1 11 2 10 3 9 4 8 5 7 6 6 7 5 8 4 9 3 10 2 11 1 12 13 13
REMARK SMILES IDX 14 14 15 15 16 16 17 17 18 18 19 19 20 20 21 21 22 22 23 23
REMARK SMILES IDX 24 24
REMARK H PARENT
REMARK Flexibility Score: inf
ROOT
ATOM      1  C   UNL     1     -16.640  -0.484  -0.890  1.00  0.00     0.000 C 
ENDROOT
BRANCH   1   2
ATOM      2  C   UNL     1     -16.934  -0.561  -2.398  1.00  0.00     0.000 C 
BRANCH   2   3
ATOM      3  C   UNL     1     -16.427  -1.868  -3.033  1.00  0.00     0.000 C 
BRANCH   3   4
ATOM      4  C   UNL     1     -16.812  -3.110  -2.214  1.00  0.00    -0.000 C 
BRANCH   4   5
ATOM      5  C   UNL     1     -15.836  -4.281  -2.420  1.00  0.00    -0.000 C 
BRANCH   5   6
ATOM      6  C   UNL     1     -14.528  -4.098  -1.621  1.00  0.00    -0.000 C 
BRANCH   6   7
ATOM      7  C   UNL     1     -13.404  -5.069  -2.034  1.00  0.00    -0.000 C 
BRANCH   7   8
ATOM      8  C   UNL     1     -12.901  -4.908  -3.480  1.00  0.00    -0.000 C 
BRANCH   8   9
ATOM      9  C   UNL     1     -14.019  -5.087  -4.522  1.00  0.00    -0.000 C 
BRANCH   9  10
ATOM     10  C   UNL     1     -13.765  -4.279  -5.804  1.00  0.00    -0.000 C 
BRANCH  10  11
ATOM     11  C   UNL     1     -15.032  -3.592  -6.334  1.00  0.00    -0.003 C 
ATOM     12  C   UNL     1     -15.429  -4.147  -7.700  1.00  0.00     0.004 C 
ENDBRANCH  10  11
ENDBRANCH   9  10
ENDBRANCH   8   9
ENDBRANCH   7   8
ENDBRANCH   6   7
ENDBRANCH   5   6
ENDBRANCH   4   5
ENDBRANCH   3   4
ENDBRANCH   2   3
ENDBRANCH   1   2
BRANCH   1  13
ATOM     13  C   UNL     1     -16.830   0.935  -0.326  1.00  0.00     0.000 C 
BRANCH  13  14
ATOM     14  C   UNL     1     -15.619   1.416   0.491  1.00  0.00     0.000 C 
BRANCH  14  15
ATOM     15  C   UNL     1     -14.499   1.998  -0.390  1.00  0.00     0.000 C 
BRANCH  15  16
ATOM     16  C   UNL     1     -13.752   3.160   0.288  1.00  0.00     0.000 C 
BRANCH  16  17
ATOM     17  C   UNL     1     -12.224   2.983   0.397  1.00  0.00     0.000 C 
BRANCH  17  18
ATOM     18  C   UNL     1     -11.448   4.252   0.804  1.00  0.00     0.000 C 
BRANCH  18  19
ATOM     19  C   UNL     1     -10.065   4.413   0.140  1.00  0.00     0.000 C 
BRANCH  19  20
ATOM     20  C   UNL     1      -8.908   3.704   0.868  1.00  0.00     0.006 C 
BRANCH  20  21
ATOM     21  C   UNL     1      -8.547   2.353   0.238  1.00  0.00     0.053 C 
BRANCH  21  22
ATOM     22  C   UNL     1      -7.063   2.155   0.243  1.00  0.00     0.041 C 
ATOM     23  O   UNL     1      -6.569   1.059  -0.130  1.00  0.00    -0.550 OA
ATOM     24  O   UNL     1      -6.224   3.199   0.613  1.00  0.00    -0.550 OA
ENDBRANCH  21  22
ENDBRANCH  20  21
ENDBRANCH  19  20
ENDBRANCH  18  19
ENDBRANCH  17  18
ENDBRANCH  16  17
ENDBRANCH  15  16
ENDBRANCH  14  15
ENDBRANCH  13  14
ENDBRANCH   1  13
TORSDOF 20
ENDMDL
MODEL 7
REMARK VINA RESULT:     3.182      1.722      2.522
REMARK INTER + INTRA:           6.700
REMARK INTER:                   6.433
REMARK INTRA:                   0.267
REMARK UNBOUND:                -0.201
REMARK SMILES CCCCCCCCCCCCCCCCCCCCCC(=O)[O-]
REMARK SMILES IDX 12 1 11 2 10 3 9 4 8 5 7 6 6 7 5 8 4 9 3 10 2 11 1 12 13 13
REMARK SMILES IDX 14 14 15 15 16 16 17 17 18 18 19 19 20 20 21 21 22 22 23 23
REMARK SMILES IDX 24 24
REMARK H PARENT
REMARK Flexibility Score: inf
ROOT
ATOM      1  C   UNL     1     -15.800  -1.915  -3.537  1.00  0.00     0.000 C 
ENDROOT
BRANCH   1   2
ATOM      2  C   UNL     1     -17.121  -2.701  -3.606  1.00  0.00     0.000 C 
BRANCH   2   3
ATOM      3  C   UNL     1     -17.018  -4.090  -2.950  1.00  0.00     0.000 C 
BRANCH   3   4
ATOM      4  C   UNL     1     -15.755  -4.852  -3.381  1.00  0.00    -0.000 C 
BRANCH   4   5
ATOM      5  C   UNL     1     -14.530  -4.503  -2.516  1.00  0.00    -0.000 C 
BRANCH   5   6
ATOM      6  C   UNL     1     -13.354  -3.968  -3.361  1.00  0.00    -0.000 C 
BRANCH   6   7
ATOM      7  C   UNL     1     -12.617  -5.057  -4.166  1.00  0.00    -0.000 C 
BRANCH   7   8
ATOM      8  C   UNL     1     -12.971  -5.112  -5.663  1.00  0.00    -0.000 C 
BRANCH   8   9
ATOM      9  C   UNL     1     -14.488  -5.079  -5.919  1.00  0.00    -0.000 C 
BRANCH   9  10
ATOM     10  C   UNL     1     -14.866  -4.189  -7.113  1.00  0.00    -0.000 C 
BRANCH  10  11
ATOM     11  C   UNL     1     -15.817  -4.888  -8.096  1.00  0.00    -0.003 C 
ATOM     12  C   UNL     1     -17.099  -4.082  -8.289  1.00  0.00     0.004 C 
ENDBRANCH  10  11
ENDBRANCH   9  10
ENDBRANCH   8   9
ENDBRANCH   7   8
ENDBRANCH   6   7
ENDBRANCH   5   6
ENDBRANCH   4   5
ENDBRANCH   3   4
ENDBRANCH   2   3
ENDBRANCH   1   2
BRANCH   1  13
ATOM     13  C   UNL     1     -15.999  -0.474  -3.036  1.00  0.00     0.000 C 
BRANCH  13  14
ATOM     14  C   UNL     1     -17.102  -0.364  -1.970  1.00  0.00     0.000 C 
BRANCH  14  15
ATOM     15  C   UNL     1     -17.054   0.966  -1.198  1.00  0.00     0.000 C 
BRANCH  15  16
ATOM     16  C   UNL     1     -17.084   0.770   0.329  1.00  0.00     0.000 C 
BRANCH  16  17
ATOM     17  C   UNL     1     -17.125  -0.698   0.801  1.00  0.00     0.000 C 
BRANCH  17  18
ATOM     18  C   UNL     1     -16.214  -1.022   2.002  1.00  0.00     0.000 C 
BRANCH  18  19
ATOM     19  C   UNL     1     -15.186   0.073   2.356  1.00  0.00     0.000 C 
BRANCH  19  20
ATOM     20  C   UNL     1     -14.106   0.320   1.288  1.00  0.00     0.006 C 
BRANCH  20  21
ATOM     21  C   UNL     1     -14.212   1.709   0.645  1.00  0.00     0.053 C 
BRANCH  21  22
ATOM     22  C   UNL     1     -12.911   2.439   0.765  1.00  0.00     0.041 C 
ATOM     23  O   UNL     1     -11.895   1.853   1.223  1.00  0.00    -0.550 OA
ATOM     24  O   UNL     1     -12.807   3.753   0.324  1.00  0.00    -0.550 OA
ENDBRANCH  21  22
ENDBRANCH  20  21
ENDBRANCH  19  20
ENDBRANCH  18  19
ENDBRANCH  17  18
ENDBRANCH  16  17
ENDBRANCH  15  16
ENDBRANCH  14  15
ENDBRANCH  13  14
ENDBRANCH   1  13
TORSDOF 20
ENDMDL
MODEL 8
REMARK VINA RESULT:     3.199      5.061      6.100
REMARK INTER + INTRA:           6.738
REMARK INTER:                   7.765
REMARK INTRA:                  -1.027
REMARK UNBOUND:                -0.201
REMARK SMILES CCCCCCCCCCCCCCCCCCCCCC(=O)[O-]
REMARK SMILES IDX 12 1 11 2 10 3 9 4 8 5 7 6 6 7 5 8 4 9 3 10 2 11 1 12 13 13
REMARK SMILES IDX 14 14 15 15 16 16 17 17 18 18 19 19 20 20 21 21 22 22 23 23
REMARK SMILES IDX 24 24
REMARK H PARENT
REMARK Flexibility Score: inf
ROOT
ATOM      1  C   UNL     1     -16.186   0.348  -0.544  1.00  0.00     0.000 C 
ENDROOT
BRANCH   1   2
ATOM      2  C   UNL     1     -17.026   0.138  -1.816  1.00  0.00     0.000 C 
BRANCH   2   3
ATOM      3  C   UNL     1     -16.581  -1.097  -2.621  1.00  0.00     0.000 C 
BRANCH   3   4
ATOM      4  C   UNL     1     -16.827  -2.412  -1.866  1.00  0.00    -0.000 C 
BRANCH   4   5
ATOM      5  C   UNL     1     -16.239  -3.633  -2.597  1.00  0.00    -0.000 C 
BRANCH   5   6
ATOM      6  C   UNL     1     -14.844  -4.017  -2.061  1.00  0.00    -0.000 C 
BRANCH   6   7
ATOM      7  C   UNL     1     -14.060  -4.968  -2.988  1.00  0.00    -0.000 C 
BRANCH   7   8
ATOM      8  C   UNL     1     -13.137  -4.274  -4.005  1.00  0.00    -0.000 C 
BRANCH   8   9
ATOM      9  C   UNL     1     -12.906  -5.118  -5.272  1.00  0.00    -0.000 C 
BRANCH   9  10
ATOM     10  C   UNL     1     -14.105  -5.083  -6.231  1.00  0.00    -0.000 C 
BRANCH  10  11
ATOM     11  C   UNL     1     -14.911  -3.779  -6.125  1.00  0.00    -0.003 C 
ATOM     12  C   UNL     1     -16.405  -4.041  -6.294  1.00  0.00     0.004 C 
ENDBRANCH  10  11
ENDBRANCH   9  10
ENDBRANCH   8   9
ENDBRANCH   7   8
ENDBRANCH   6   7
ENDBRANCH   5   6
ENDBRANCH   4   5
ENDBRANCH   3   4
ENDBRANCH   2   3
ENDBRANCH   1   2
BRANCH   1  13
ATOM     13  C   UNL     1     -15.699   1.800  -0.395  1.00  0.00     0.000 C 
BRANCH  13  14
ATOM     14  C   UNL     1     -14.399   1.908   0.420  1.00  0.00     0.000 C 
BRANCH  14  15
ATOM     15  C   UNL     1     -13.485   3.047  -0.064  1.00  0.00     0.000 C 
BRANCH  15  16
ATOM     16  C   UNL     1     -12.473   3.495   1.005  1.00  0.00     0.000 C 
BRANCH  16  17
ATOM     17  C   UNL     1     -10.995   3.218   0.667  1.00  0.00     0.000 C 
BRANCH  17  18
ATOM     18  C   UNL     1     -10.228   4.415   0.069  1.00  0.00     0.000 C 
BRANCH  18  19
ATOM     19  C   UNL     1      -8.705   4.404   0.317  1.00  0.00     0.000 C 
BRANCH  19  20
ATOM     20  C   UNL     1      -8.177   3.165   1.060  1.00  0.00     0.006 C 
BRANCH  20  21
ATOM     21  C   UNL     1      -6.826   2.677   0.521  1.00  0.00     0.053 C 
BRANCH  21  22
ATOM     22  C   UNL     1      -5.733   3.618   0.924  1.00  0.00     0.041 C 
ATOM     23  O   UNL     1      -4.634   3.612   0.310  1.00  0.00    -0.550 OA
ATOM     24  O   UNL     1      -5.948   4.536   1.945  1.00  0.00    -0.550 OA
ENDBRANCH  21  22
ENDBRANCH  20  21
ENDBRANCH  19  20
ENDBRANCH  18  19
ENDBRANCH  17  18
ENDBRANCH  16  17
ENDBRANCH  15  16
ENDBRANCH  14  15
ENDBRANCH  13  14
ENDBRANCH   1  13
TORSDOF 20
ENDMDL
MODEL 9
REMARK VINA RESULT:     3.221      1.705      2.625
REMARK INTER + INTRA:           6.786
REMARK INTER:                   6.106
REMARK INTRA:                   0.681
REMARK UNBOUND:                -0.201
REMARK SMILES CCCCCCCCCCCCCCCCCCCCCC(=O)[O-]
REMARK SMILES IDX 12 1 11 2 10 3 9 4 8 5 7 6 6 7 5 8 4 9 3 10 2 11 1 12 13 13
REMARK SMILES IDX 14 14 15 15 16 16 17 17 18 18 19 19 20 20 21 21 22 22 23 23
REMARK SMILES IDX 24 24
REMARK H PARENT
REMARK Flexibility Score: inf
ROOT
ATOM      1  C   UNL     1     -15.632  -1.534  -3.446  1.00  0.00     0.000 C 
ENDROOT
BRANCH   1   2
ATOM      2  C   UNL     1     -16.982  -2.147  -3.855  1.00  0.00     0.000 C 
BRANCH   2   3
ATOM      3  C   UNL     1     -17.115  -3.621  -3.434  1.00  0.00     0.000 C 
BRANCH   3   4
ATOM      4  C   UNL     1     -15.819  -4.417  -3.660  1.00  0.00    -0.000 C 
BRANCH   4   5
ATOM      5  C   UNL     1     -14.724  -4.067  -2.637  1.00  0.00    -0.000 C 
BRANCH   5   6
ATOM      6  C   UNL     1     -13.433  -3.561  -3.315  1.00  0.00    -0.000 C 
BRANCH   6   7
ATOM      7  C   UNL     1     -12.510  -4.689  -3.819  1.00  0.00    -0.000 C 
BRANCH   7   8
ATOM      8  C   UNL     1     -12.457  -4.854  -5.349  1.00  0.00    -0.000 C 
BRANCH   8   9
ATOM      9  C   UNL     1     -13.846  -5.077  -5.972  1.00  0.00    -0.000 C 
BRANCH   9  10
ATOM     10  C   UNL     1     -13.854  -4.850  -7.491  1.00  0.00    -0.000 C 
BRANCH  10  11
ATOM     11  C   UNL     1     -15.243  -4.472  -8.028  1.00  0.00    -0.003 C 
ATOM     12  C   UNL     1     -16.253  -4.334  -6.893  1.00  0.00     0.004 C 
ENDBRANCH  10  11
ENDBRANCH   9  10
ENDBRANCH   8   9
ENDBRANCH   7   8
ENDBRANCH   6   7
ENDBRANCH   5   6
ENDBRANCH   4   5
ENDBRANCH   3   4
ENDBRANCH   2   3
ENDBRANCH   1   2
BRANCH   1  13
ATOM     13  C   UNL     1     -15.795  -0.196  -2.704  1.00  0.00     0.000 C 
BRANCH  13  14
ATOM     14  C   UNL     1     -16.917  -0.233  -1.652  1.00  0.00     0.000 C 
BRANCH  14  15
ATOM     15  C   UNL     1     -17.053   1.091  -0.879  1.00  0.00     0.000 C 
BRANCH  15  16
ATOM     16  C   UNL     1     -17.039   0.894   0.647  1.00  0.00     0.000 C 
BRANCH  16  17
ATOM     17  C   UNL     1     -16.747  -0.545   1.120  1.00  0.00     0.000 C 
BRANCH  17  18
ATOM     18  C   UNL     1     -15.333  -0.767   1.695  1.00  0.00     0.000 C 
BRANCH  18  19
ATOM     19  C   UNL     1     -15.247  -0.768   3.235  1.00  0.00     0.000 C 
BRANCH  19  20
ATOM     20  C   UNL     1     -16.536  -1.197   3.958  1.00  0.00     0.006 C 
BRANCH  20  21
ATOM     21  C   UNL     1     -16.898  -0.276   5.129  1.00  0.00     0.053 C 
BRANCH  21  22
ATOM     22  C   UNL     1     -16.665   1.155   4.758  1.00  0.00     0.041 C 
ATOM     23  O   UNL     1     -16.119   1.941   5.576  1.00  0.00    -0.550 OA
ATOM     24  O   UNL     1     -17.005   1.609   3.489  1.00  0.00    -0.550 OA
ENDBRANCH  21  22
ENDBRANCH  20  21
ENDBRANCH  19  20
ENDBRANCH  18  19
ENDBRANCH  17  18
ENDBRANCH  16  17
ENDBRANCH  15  16
ENDBRANCH  14  15
ENDBRANCH  13  14
ENDBRANCH   1  13
TORSDOF 20
ENDMDL
