MODEL 1
REMARK VINA RESULT:    -5.812      0.000      0.000
REMARK INTER + INTRA:          -6.876
REMARK INTER:                  -7.001
REMARK INTRA:                   0.125
REMARK UNBOUND:                 0.125
REMARK SMILES O=c1c(O)c(-c2ccc(O)c(O)c2)oc2cc(O)cc(O)c12
REMARK SMILES IDX 5 1 3 2 2 3 1 4 22 5 20 6 19 7 17 8 16 9 15 10 14 11 6 12
REMARK SMILES IDX 7 13 8 14 9 15 13 16 11 17 10 18 12 20 4 22 21 24 18 26
REMARK H PARENT 10 19 12 21 4 23 21 25 18 27
REMARK Flexibility Score: inf
ROOT
ATOM      1  C   UNL     1      -6.977   3.560  -4.602  1.00  0.00     0.180 A 
ATOM      2  C   UNL     1      -7.377   2.787  -3.498  1.00  0.00     0.208 A 
ATOM      3  C   UNL     1      -7.285   3.339  -2.210  1.00  0.00     0.238 A 
ATOM      4  O   UNL     1      -7.696   2.662  -1.231  1.00  0.00    -0.285 OA
ATOM      5  C   UNL     1      -6.779   4.650  -2.041  1.00  0.00     0.111 A 
ATOM      6  C   UNL     1      -6.604   5.295  -0.779  1.00  0.00     0.134 A 
ATOM      7  C   UNL     1      -6.218   6.640  -0.739  1.00  0.00     0.093 A 
ATOM      8  C   UNL     1      -5.939   7.345  -1.909  1.00  0.00     0.123 A 
ATOM      9  C   UNL     1      -6.048   6.707  -3.145  1.00  0.00     0.094 A 
ATOM     10  C   UNL     1      -6.467   5.376  -3.219  1.00  0.00     0.146 A 
ATOM     11  O   UNL     1      -6.569   4.809  -4.415  1.00  0.00    -0.452 OA
ENDROOT
BRANCH   1  12
ATOM     12  C   UNL     1      -7.022   3.038  -5.986  1.00  0.00     0.025 A 
ATOM     13  C   UNL     1      -8.113   2.283  -6.450  1.00  0.00     0.016 A 
ATOM     14  C   UNL     1      -8.121   1.779  -7.754  1.00  0.00     0.051 A 
ATOM     15  C   UNL     1      -7.035   2.010  -8.608  1.00  0.00     0.157 A 
ATOM     16  C   UNL     1      -5.926   3.248  -6.840  1.00  0.00     0.062 A 
ATOM     17  C   UNL     1      -5.931   2.746  -8.146  1.00  0.00     0.158 A 
BRANCH  15  18
ATOM     18  O   UNL     1      -7.048   1.508  -9.908  1.00  0.00    -0.504 OA
ATOM     19  H   UNL     1      -6.459   0.731 -10.183  1.00  0.00     0.293 HD
ENDBRANCH  15  18
BRANCH  17  20
ATOM     20  O   UNL     1      -4.831   2.987  -8.970  1.00  0.00    -0.504 OA
ATOM     21  H   UNL     1      -3.892   2.717  -8.705  1.00  0.00     0.293 HD
ENDBRANCH  17  20
ENDBRANCH   1  12
BRANCH   2  22
ATOM     22  O   UNL     1      -7.894   1.503  -3.690  1.00  0.00    -0.502 OA
ATOM     23  H   UNL     1      -7.304   0.701  -3.878  1.00  0.00     0.293 HD
ENDBRANCH   2  22
BRANCH   6  24
ATOM     24  O   UNL     1      -6.768   4.655   0.453  1.00  0.00    -0.507 OA
ATOM     25  H   UNL     1      -6.940   5.127   1.327  1.00  0.00     0.293 HD
ENDBRANCH   6  24
BRANCH   8  26
ATOM     26  O   UNL     1      -5.542   8.678  -1.830  1.00  0.00    -0.508 OA
ATOM     27  H   UNL     1      -5.649   9.213  -0.976  1.00  0.00     0.293 HD
ENDBRANCH   8  26
TORSDOF 6
ENDMDL
MODEL 2
REMARK VINA RESULT:    -5.792      1.188      2.872
REMARK INTER + INTRA:          -6.852
REMARK INTER:                  -6.957
REMARK INTRA:                   0.106
REMARK UNBOUND:                 0.125
REMARK SMILES O=c1c(O)c(-c2ccc(O)c(O)c2)oc2cc(O)cc(O)c12
REMARK SMILES IDX 5 1 3 2 2 3 1 4 22 5 20 6 19 7 17 8 16 9 15 10 14 11 6 12
REMARK SMILES IDX 7 13 8 14 9 15 13 16 11 17 10 18 12 20 4 22 21 24 18 26
REMARK H PARENT 10 19 12 21 4 23 21 25 18 27
REMARK Flexibility Score: inf
ROOT
ATOM      1  C   UNL     1      -6.710   4.217  -5.110  1.00  0.00     0.180 A 
ATOM      2  C   UNL     1      -6.200   5.524  -5.030  1.00  0.00     0.208 A 
ATOM      3  C   UNL     1      -6.103   6.143  -3.774  1.00  0.00     0.238 A 
ATOM      4  O   UNL     1      -5.595   7.293  -3.703  1.00  0.00    -0.285 OA
ATOM      5  C   UNL     1      -6.534   5.453  -2.615  1.00  0.00     0.111 A 
ATOM      6  C   UNL     1      -6.519   5.998  -1.295  1.00  0.00     0.134 A 
ATOM      7  C   UNL     1      -6.846   5.181  -0.207  1.00  0.00     0.093 A 
ATOM      8  C   UNL     1      -7.249   3.859  -0.394  1.00  0.00     0.123 A 
ATOM      9  C   UNL     1      -7.324   3.334  -1.684  1.00  0.00     0.094 A 
ATOM     10  C   UNL     1      -6.969   4.114  -2.787  1.00  0.00     0.146 A 
ATOM     11  O   UNL     1      -7.044   3.574  -3.998  1.00  0.00    -0.452 OA
ENDROOT
BRANCH   1  12
ATOM     12  C   UNL     1      -6.866   3.510  -6.401  1.00  0.00     0.025 A 
ATOM     13  C   UNL     1      -8.027   2.777  -6.700  1.00  0.00     0.016 A 
ATOM     14  C   UNL     1      -8.141   2.097  -7.915  1.00  0.00     0.051 A 
ATOM     15  C   UNL     1      -7.092   2.127  -8.843  1.00  0.00     0.157 A 
ATOM     16  C   UNL     1      -5.809   3.519  -7.326  1.00  0.00     0.062 A 
ATOM     17  C   UNL     1      -5.919   2.839  -8.544  1.00  0.00     0.158 A 
BRANCH  15  18
ATOM     18  O   UNL     1      -7.210   1.449 -10.056  1.00  0.00    -0.504 OA
ATOM     19  H   UNL     1      -7.312   1.945 -10.934  1.00  0.00     0.293 HD
ENDBRANCH  15  18
BRANCH  17  20
ATOM     20  O   UNL     1      -4.854   2.883  -9.444  1.00  0.00    -0.504 OA
ATOM     21  H   UNL     1      -4.031   2.304  -9.331  1.00  0.00     0.293 HD
ENDBRANCH  17  20
ENDBRANCH   1  12
BRANCH   2  22
ATOM     22  O   UNL     1      -5.761   6.178  -6.185  1.00  0.00    -0.502 OA
ATOM     23  H   UNL     1      -5.640   7.183  -6.228  1.00  0.00     0.293 HD
ENDBRANCH   2  22
BRANCH   6  24
ATOM     24  O   UNL     1      -6.221   7.333  -1.006  1.00  0.00    -0.507 OA
ATOM     25  H   UNL     1      -6.408   7.786  -0.125  1.00  0.00     0.293 HD
ENDBRANCH   6  24
BRANCH   8  26
ATOM     26  O   UNL     1      -7.582   3.079   0.711  1.00  0.00    -0.508 OA
ATOM     27  H   UNL     1      -6.899   2.854   1.426  1.00  0.00     0.293 HD
ENDBRANCH   8  26
TORSDOF 6
ENDMDL
MODEL 3
REMARK VINA RESULT:    -5.777     10.871     13.426
REMARK INTER + INTRA:          -6.834
REMARK INTER:                  -6.556
REMARK INTRA:                  -0.278
REMARK UNBOUND:                 0.125
REMARK SMILES O=c1c(O)c(-c2ccc(O)c(O)c2)oc2cc(O)cc(O)c12
REMARK SMILES IDX 5 1 3 2 2 3 1 4 22 5 20 6 19 7 17 8 16 9 15 10 14 11 6 12
REMARK SMILES IDX 7 13 8 14 9 15 13 16 11 17 10 18 12 20 4 22 21 24 18 26
REMARK H PARENT 10 19 12 21 4 23 21 25 18 27
REMARK Flexibility Score: inf
ROOT
ATOM      1  C   UNL     1       5.033   4.307  -4.289  1.00  0.00     0.180 A 
ATOM      2  C   UNL     1       5.456   2.980  -4.102  1.00  0.00     0.208 A 
ATOM      3  C   UNL     1       5.368   2.079  -5.175  1.00  0.00     0.238 A 
ATOM      4  O   UNL     1       5.798   0.907  -5.017  1.00  0.00    -0.285 OA
ATOM      5  C   UNL     1       4.843   2.513  -6.416  1.00  0.00     0.111 A 
ATOM      6  C   UNL     1       4.671   1.675  -7.560  1.00  0.00     0.134 A 
ATOM      7  C   UNL     1       4.265   2.241  -8.775  1.00  0.00     0.093 A 
ATOM      8  C   UNL     1       3.963   3.598  -8.872  1.00  0.00     0.123 A 
ATOM      9  C   UNL     1       4.070   4.414  -7.746  1.00  0.00     0.094 A 
ATOM     10  C   UNL     1       4.508   3.886  -6.529  1.00  0.00     0.146 A 
ATOM     11  O   UNL     1       4.607   4.699  -5.484  1.00  0.00    -0.452 OA
ENDROOT
BRANCH   1  12
ATOM     12  C   UNL     1       5.072   5.307  -3.198  1.00  0.00     0.025 A 
ATOM     13  C   UNL     1       6.101   6.261  -3.114  1.00  0.00     0.016 A 
ATOM     14  C   UNL     1       6.130   7.179  -2.061  1.00  0.00     0.051 A 
ATOM     15  C   UNL     1       5.140   7.150  -1.070  1.00  0.00     0.157 A 
ATOM     16  C   UNL     1       4.094   5.269  -2.190  1.00  0.00     0.062 A 
ATOM     17  C   UNL     1       4.120   6.187  -1.134  1.00  0.00     0.158 A 
BRANCH  15  18
ATOM     18  O   UNL     1       5.171   8.069  -0.022  1.00  0.00    -0.504 OA
ATOM     19  H   UNL     1       5.315   7.776   0.937  1.00  0.00     0.293 HD
ENDBRANCH  15  18
BRANCH  17  20
ATOM     20  O   UNL     1       3.123   6.127  -0.160  1.00  0.00    -0.504 OA
ATOM     21  H   UNL     1       3.223   6.582   0.740  1.00  0.00     0.293 HD
ENDBRANCH  17  20
ENDBRANCH   1  12
BRANCH   2  22
ATOM     22  O   UNL     1       5.990   2.579  -2.874  1.00  0.00    -0.502 OA
ATOM     23  H   UNL     1       6.579   1.761  -2.778  1.00  0.00     0.293 HD
ENDBRANCH   2  22
BRANCH   6  24
ATOM     24  O   UNL     1       4.857   0.290  -7.548  1.00  0.00    -0.507 OA
ATOM     25  H   UNL     1       5.140  -0.245  -6.741  1.00  0.00     0.293 HD
ENDBRANCH   6  24
BRANCH   8  26
ATOM     26  O   UNL     1       3.546   4.123 -10.094  1.00  0.00    -0.508 OA
ATOM     27  H   UNL     1       4.212   4.437 -10.790  1.00  0.00     0.293 HD
ENDBRANCH   8  26
TORSDOF 6
ENDMDL
MODEL 4
REMARK VINA RESULT:    -5.615      9.875     11.576
REMARK INTER + INTRA:          -6.639
REMARK INTER:                  -6.536
REMARK INTRA:                  -0.102
REMARK UNBOUND:                 0.125
REMARK SMILES O=c1c(O)c(-c2ccc(O)c(O)c2)oc2cc(O)cc(O)c12
REMARK SMILES IDX 5 1 3 2 2 3 1 4 22 5 20 6 19 7 17 8 16 9 15 10 14 11 6 12
REMARK SMILES IDX 7 13 8 14 9 15 13 16 11 17 10 18 12 20 4 22 21 24 18 26
REMARK H PARENT 10 19 12 21 4 23 21 25 18 27
REMARK Flexibility Score: inf
ROOT
ATOM      1  C   UNL     1      -4.273  -4.210   2.466  1.00  0.00     0.180 A 
ATOM      2  C   UNL     1      -3.009  -4.805   2.622  1.00  0.00     0.208 A 
ATOM      3  C   UNL     1      -2.515  -5.025   3.918  1.00  0.00     0.238 A 
ATOM      4  O   UNL     1      -1.407  -5.607   4.051  1.00  0.00    -0.285 OA
ATOM      5  C   UNL     1      -3.283  -4.632   5.040  1.00  0.00     0.111 A 
ATOM      6  C   UNL     1      -2.863  -4.770   6.398  1.00  0.00     0.134 A 
ATOM      7  C   UNL     1      -3.757  -4.468   7.431  1.00  0.00     0.093 A 
ATOM      8  C   UNL     1      -5.032  -3.972   7.159  1.00  0.00     0.123 A 
ATOM      9  C   UNL     1      -5.431  -3.777   5.837  1.00  0.00     0.094 A 
ATOM     10  C   UNL     1      -4.574  -4.104   4.783  1.00  0.00     0.146 A 
ATOM     11  O   UNL     1      -4.997  -3.913   3.539  1.00  0.00    -0.452 OA
ENDROOT
BRANCH   1  12
ATOM     12  C   UNL     1      -4.850  -3.924   1.133  1.00  0.00     0.025 A 
ATOM     13  C   UNL     1      -5.081  -4.949   0.199  1.00  0.00     0.016 A 
ATOM     14  C   UNL     1      -5.603  -4.652  -1.062  1.00  0.00     0.051 A 
ATOM     15  C   UNL     1      -5.890  -3.326  -1.414  1.00  0.00     0.157 A 
ATOM     16  C   UNL     1      -5.119  -2.595   0.767  1.00  0.00     0.062 A 
ATOM     17  C   UNL     1      -5.643  -2.294  -0.495  1.00  0.00     0.158 A 
BRANCH  15  18
ATOM     18  O   UNL     1      -6.412  -3.033  -2.673  1.00  0.00    -0.504 OA
ATOM     19  H   UNL     1      -6.032  -3.449  -3.516  1.00  0.00     0.293 HD
ENDBRANCH  15  18
BRANCH  17  20
ATOM     20  O   UNL     1      -5.911  -0.963  -0.818  1.00  0.00    -0.504 OA
ATOM     21  H   UNL     1      -6.020  -0.249  -0.107  1.00  0.00     0.293 HD
ENDBRANCH  17  20
ENDBRANCH   1  12
BRANCH   2  22
ATOM     22  O   UNL     1      -2.278  -5.204   1.500  1.00  0.00    -0.502 OA
ATOM     23  H   UNL     1      -2.595  -5.033   0.554  1.00  0.00     0.293 HD
ENDBRANCH   2  22
BRANCH   6  24
ATOM     24  O   UNL     1      -1.579  -5.170   6.780  1.00  0.00    -0.507 OA
ATOM     25  H   UNL     1      -1.309  -5.416   7.720  1.00  0.00     0.293 HD
ENDBRANCH   6  24
BRANCH   8  26
ATOM     26  O   UNL     1      -5.890  -3.668   8.214  1.00  0.00    -0.508 OA
ATOM     27  H   UNL     1      -6.442  -2.818   8.219  1.00  0.00     0.293 HD
ENDBRANCH   8  26
TORSDOF 6
ENDMDL
MODEL 5
REMARK VINA RESULT:    -5.480      8.529     10.360
REMARK INTER + INTRA:          -6.476
REMARK INTER:                  -6.174
REMARK INTRA:                  -0.302
REMARK UNBOUND:                 0.125
REMARK SMILES O=c1c(O)c(-c2ccc(O)c(O)c2)oc2cc(O)cc(O)c12
REMARK SMILES IDX 5 1 3 2 2 3 1 4 22 5 20 6 19 7 17 8 16 9 15 10 14 11 6 12
REMARK SMILES IDX 7 13 8 14 9 15 13 16 11 17 10 18 12 20 4 22 21 24 18 26
REMARK H PARENT 10 19 12 21 4 23 21 25 18 27
REMARK Flexibility Score: inf
ROOT
ATOM      1  C   UNL     1      -5.748  -3.800   0.794  1.00  0.00     0.180 A 
ATOM      2  C   UNL     1      -4.649  -4.526   0.305  1.00  0.00     0.208 A 
ATOM      3  C   UNL     1      -3.666  -4.964   1.207  1.00  0.00     0.238 A 
ATOM      4  O   UNL     1      -2.713  -5.661   0.772  1.00  0.00    -0.285 OA
ATOM      5  C   UNL     1      -3.787  -4.655   2.584  1.00  0.00     0.111 A 
ATOM      6  C   UNL     1      -2.830  -5.014   3.582  1.00  0.00     0.134 A 
ATOM      7  C   UNL     1      -3.115  -4.770   4.930  1.00  0.00     0.093 A 
ATOM      8  C   UNL     1      -4.291  -4.125   5.313  1.00  0.00     0.123 A 
ATOM      9  C   UNL     1      -5.205  -3.717   4.342  1.00  0.00     0.094 A 
ATOM     10  C   UNL     1      -4.965  -3.978   2.990  1.00  0.00     0.146 A 
ATOM     11  O   UNL     1      -5.865  -3.583   2.098  1.00  0.00    -0.452 OA
ENDROOT
BRANCH   1  12
ATOM     12  C   UNL     1      -6.811  -3.283  -0.099  1.00  0.00     0.025 A 
ATOM     13  C   UNL     1      -7.864  -4.105  -0.536  1.00  0.00     0.016 A 
ATOM     14  C   UNL     1      -8.842  -3.602  -1.399  1.00  0.00     0.051 A 
ATOM     15  C   UNL     1      -8.775  -2.277  -1.847  1.00  0.00     0.157 A 
ATOM     16  C   UNL     1      -6.737  -1.962  -0.569  1.00  0.00     0.062 A 
ATOM     17  C   UNL     1      -7.715  -1.455  -1.432  1.00  0.00     0.158 A 
BRANCH  15  18
ATOM     18  O   UNL     1      -9.754  -1.778  -2.706  1.00  0.00    -0.504 OA
ATOM     19  H   UNL     1     -10.705  -2.127  -2.686  1.00  0.00     0.293 HD
ENDBRANCH  15  18
BRANCH  17  20
ATOM     20  O   UNL     1      -7.616  -0.133  -1.867  1.00  0.00    -0.504 OA
ATOM     21  H   UNL     1      -6.968   0.147  -2.593  1.00  0.00     0.293 HD
ENDBRANCH  17  20
ENDBRANCH   1  12
BRANCH   2  22
ATOM     22  O   UNL     1      -4.561  -4.838  -1.054  1.00  0.00    -0.502 OA
ATOM     23  H   UNL     1      -3.731  -4.651  -1.603  1.00  0.00     0.293 HD
ENDBRANCH   2  22
BRANCH   6  24
ATOM     24  O   UNL     1      -1.584  -5.581   3.299  1.00  0.00    -0.507 OA
ATOM     25  H   UNL     1      -0.696  -5.143   3.493  1.00  0.00     0.293 HD
ENDBRANCH   6  24
BRANCH   8  26
ATOM     26  O   UNL     1      -4.534  -3.885   6.664  1.00  0.00    -0.508 OA
ATOM     27  H   UNL     1      -4.854  -4.621   7.283  1.00  0.00     0.293 HD
ENDBRANCH   8  26
TORSDOF 6
ENDMDL
MODEL 6
REMARK VINA RESULT:    -5.470     10.988     12.064
REMARK INTER + INTRA:          -6.464
REMARK INTER:                  -6.185
REMARK INTRA:                  -0.279
REMARK UNBOUND:                 0.125
REMARK SMILES O=c1c(O)c(-c2ccc(O)c(O)c2)oc2cc(O)cc(O)c12
REMARK SMILES IDX 5 1 3 2 2 3 1 4 22 5 20 6 19 7 17 8 16 9 15 10 14 11 6 12
REMARK SMILES IDX 7 13 8 14 9 15 13 16 11 17 10 18 12 20 4 22 21 24 18 26
REMARK H PARENT 10 19 12 21 4 23 21 25 18 27
REMARK Flexibility Score: inf
ROOT
ATOM      1  C   UNL     1       4.712   5.806  -3.320  1.00  0.00     0.180 A 
ATOM      2  C   UNL     1       3.868   5.729  -2.198  1.00  0.00     0.208 A 
ATOM      3  C   UNL     1       4.139   6.540  -1.085  1.00  0.00     0.238 A 
ATOM      4  O   UNL     1       3.349   6.506  -0.105  1.00  0.00    -0.285 OA
ATOM      5  C   UNL     1       5.259   7.406  -1.101  1.00  0.00     0.111 A 
ATOM      6  C   UNL     1       5.651   8.244  -0.013  1.00  0.00     0.134 A 
ATOM      7  C   UNL     1       6.699   9.156  -0.187  1.00  0.00     0.093 A 
ATOM      8  C   UNL     1       7.410   9.216  -1.385  1.00  0.00     0.123 A 
ATOM      9  C   UNL     1       7.074   8.360  -2.434  1.00  0.00     0.094 A 
ATOM     10  C   UNL     1       6.009   7.465  -2.303  1.00  0.00     0.146 A 
ATOM     11  O   UNL     1       5.715   6.675  -3.329  1.00  0.00    -0.452 OA
ENDROOT
BRANCH   1  12
ATOM     12  C   UNL     1       4.505   4.964  -4.520  1.00  0.00     0.025 A 
ATOM     13  C   UNL     1       5.313   3.843  -4.777  1.00  0.00     0.016 A 
ATOM     14  C   UNL     1       5.115   3.078  -5.929  1.00  0.00     0.051 A 
ATOM     15  C   UNL     1       4.116   3.427  -6.847  1.00  0.00     0.157 A 
ATOM     16  C   UNL     1       3.519   5.322  -5.454  1.00  0.00     0.062 A 
ATOM     17  C   UNL     1       3.317   4.557  -6.609  1.00  0.00     0.158 A 
BRANCH  15  18
ATOM     18  O   UNL     1       3.920   2.660  -7.994  1.00  0.00    -0.504 OA
ATOM     19  H   UNL     1       3.349   1.823  -7.982  1.00  0.00     0.293 HD
ENDBRANCH  15  18
BRANCH  17  20
ATOM     20  O   UNL     1       2.319   4.936  -7.507  1.00  0.00    -0.504 OA
ATOM     21  H   UNL     1       2.319   4.628  -8.472  1.00  0.00     0.293 HD
ENDBRANCH  17  20
ENDBRANCH   1  12
BRANCH   2  22
ATOM     22  O   UNL     1       2.756   4.883  -2.212  1.00  0.00    -0.502 OA
ATOM     23  H   UNL     1       1.957   5.044  -2.812  1.00  0.00     0.293 HD
ENDBRANCH   2  22
BRANCH   6  24
ATOM     24  O   UNL     1       5.066   8.200   1.256  1.00  0.00    -0.507 OA
ATOM     25  H   UNL     1       5.014   8.980   1.892  1.00  0.00     0.293 HD
ENDBRANCH   6  24
BRANCH   8  26
ATOM     26  O   UNL     1       8.458  10.125  -1.517  1.00  0.00    -0.508 OA
ATOM     27  H   UNL     1       9.217   9.968  -2.170  1.00  0.00     0.293 HD
ENDBRANCH   8  26
TORSDOF 6
ENDMDL
MODEL 7
REMARK VINA RESULT:    -5.418      1.573      6.646
REMARK INTER + INTRA:          -6.402
REMARK INTER:                  -6.136
REMARK INTRA:                  -0.266
REMARK UNBOUND:                 0.125
REMARK SMILES O=c1c(O)c(-c2ccc(O)c(O)c2)oc2cc(O)cc(O)c12
REMARK SMILES IDX 5 1 3 2 2 3 1 4 22 5 20 6 19 7 17 8 16 9 15 10 14 11 6 12
REMARK SMILES IDX 7 13 8 14 9 15 13 16 11 17 10 18 12 20 4 22 21 24 18 26
REMARK H PARENT 10 19 12 21 4 23 21 25 18 27
REMARK Flexibility Score: inf
ROOT
ATOM      1  C   UNL     1      -7.562   3.805  -3.656  1.00  0.00     0.180 A 
ATOM      2  C   UNL     1      -8.273   2.596  -3.571  1.00  0.00     0.208 A 
ATOM      3  C   UNL     1      -8.234   1.705  -4.656  1.00  0.00     0.238 A 
ATOM      4  O   UNL     1      -8.828   0.600  -4.552  1.00  0.00    -0.285 OA
ATOM      5  C   UNL     1      -7.499   2.043  -5.818  1.00  0.00     0.111 A 
ATOM      6  C   UNL     1      -7.422   1.234  -6.992  1.00  0.00     0.134 A 
ATOM      7  C   UNL     1      -6.561   1.606  -8.031  1.00  0.00     0.093 A 
ATOM      8  C   UNL     1      -5.823   2.787  -7.967  1.00  0.00     0.123 A 
ATOM      9  C   UNL     1      -5.935   3.614  -6.850  1.00  0.00     0.094 A 
ATOM     10  C   UNL     1      -6.758   3.253  -5.782  1.00  0.00     0.146 A 
ATOM     11  O   UNL     1      -6.829   4.063  -4.732  1.00  0.00    -0.452 OA
ENDROOT
BRANCH   1  12
ATOM     12  C   UNL     1      -7.575   4.805  -2.564  1.00  0.00     0.025 A 
ATOM     13  C   UNL     1      -8.708   5.599  -2.311  1.00  0.00     0.016 A 
ATOM     14  C   UNL     1      -8.689   6.553  -1.290  1.00  0.00     0.051 A 
ATOM     15  C   UNL     1      -7.536   6.738  -0.516  1.00  0.00     0.157 A 
ATOM     16  C   UNL     1      -6.415   5.009  -1.799  1.00  0.00     0.062 A 
ATOM     17  C   UNL     1      -6.393   5.964  -0.776  1.00  0.00     0.158 A 
BRANCH  15  18
ATOM     18  O   UNL     1      -7.521   7.689   0.503  1.00  0.00    -0.504 OA
ATOM     19  H   UNL     1      -6.776   7.721   1.189  1.00  0.00     0.293 HD
ENDBRANCH  15  18
BRANCH  17  20
ATOM     20  O   UNL     1      -5.226   6.129  -0.028  1.00  0.00    -0.504 OA
ATOM     21  H   UNL     1      -4.329   6.305  -0.463  1.00  0.00     0.293 HD
ENDBRANCH  17  20
ENDBRANCH   1  12
BRANCH   2  22
ATOM     22  O   UNL     1      -8.974   2.273  -2.406  1.00  0.00    -0.502 OA
ATOM     23  H   UNL     1      -8.738   1.473  -1.833  1.00  0.00     0.293 HD
ENDBRANCH   2  22
BRANCH   6  24
ATOM     24  O   UNL     1      -8.187   0.082  -7.196  1.00  0.00    -0.507 OA
ATOM     25  H   UNL     1      -7.809  -0.832  -7.394  1.00  0.00     0.293 HD
ENDBRANCH   6  24
BRANCH   8  26
ATOM     26  O   UNL     1      -4.987   3.132  -9.027  1.00  0.00    -0.508 OA
ATOM     27  H   UNL     1      -5.357   3.344  -9.947  1.00  0.00     0.293 HD
ENDBRANCH   8  26
TORSDOF 6
ENDMDL
MODEL 8
REMARK VINA RESULT:    -5.398      9.111     11.815
REMARK INTER + INTRA:          -6.377
REMARK INTER:                  -6.160
REMARK INTRA:                  -0.217
REMARK UNBOUND:                 0.125
REMARK SMILES O=c1c(O)c(-c2ccc(O)c(O)c2)oc2cc(O)cc(O)c12
REMARK SMILES IDX 5 1 3 2 2 3 1 4 22 5 20 6 19 7 17 8 16 9 15 10 14 11 6 12
REMARK SMILES IDX 7 13 8 14 9 15 13 16 11 17 10 18 12 20 4 22 21 24 18 26
REMARK H PARENT 10 19 12 21 4 23 21 25 18 27
REMARK Flexibility Score: inf
ROOT
ATOM      1  C   UNL     1      -4.372  -4.378   1.769  1.00  0.00     0.180 A 
ATOM      2  C   UNL     1      -4.564  -5.481   0.920  1.00  0.00     0.208 A 
ATOM      3  C   UNL     1      -5.320  -5.315  -0.251  1.00  0.00     0.238 A 
ATOM      4  O   UNL     1      -5.443  -6.293  -1.035  1.00  0.00    -0.285 OA
ATOM      5  C   UNL     1      -5.887  -4.053  -0.550  1.00  0.00     0.111 A 
ATOM      6  C   UNL     1      -6.704  -3.781  -1.690  1.00  0.00     0.134 A 
ATOM      7  C   UNL     1      -7.104  -2.466  -1.954  1.00  0.00     0.093 A 
ATOM      8  C   UNL     1      -6.771  -1.424  -1.089  1.00  0.00     0.123 A 
ATOM      9  C   UNL     1      -6.024  -1.688   0.058  1.00  0.00     0.094 A 
ATOM     10  C   UNL     1      -5.580  -2.985   0.330  1.00  0.00     0.146 A 
ATOM     11  O   UNL     1      -4.862  -3.192   1.428  1.00  0.00    -0.452 OA
ENDROOT
BRANCH   1  12
ATOM     12  C   UNL     1      -3.608  -4.481   3.034  1.00  0.00     0.025 A 
ATOM     13  C   UNL     1      -4.244  -4.383   4.283  1.00  0.00     0.016 A 
ATOM     14  C   UNL     1      -3.499  -4.460   5.464  1.00  0.00     0.051 A 
ATOM     15  C   UNL     1      -2.109  -4.621   5.413  1.00  0.00     0.157 A 
ATOM     16  C   UNL     1      -2.211  -4.621   2.989  1.00  0.00     0.062 A 
ATOM     17  C   UNL     1      -1.462  -4.698   4.168  1.00  0.00     0.158 A 
BRANCH  15  18
ATOM     18  O   UNL     1      -1.369  -4.698   6.592  1.00  0.00    -0.504 OA
ATOM     19  H   UNL     1      -1.702  -5.220   7.395  1.00  0.00     0.293 HD
ENDBRANCH  15  18
BRANCH  17  20
ATOM     20  O   UNL     1      -0.078  -4.851   4.083  1.00  0.00    -0.504 OA
ATOM     21  H   UNL     1       0.453  -5.340   4.794  1.00  0.00     0.293 HD
ENDBRANCH  17  20
ENDBRANCH   1  12
BRANCH   2  22
ATOM     22  O   UNL     1      -3.977  -6.712   1.224  1.00  0.00    -0.502 OA
ATOM     23  H   UNL     1      -3.067  -6.983   0.871  1.00  0.00     0.293 HD
ENDBRANCH   2  22
BRANCH   6  24
ATOM     24  O   UNL     1      -7.170  -4.764  -2.568  1.00  0.00    -0.507 OA
ATOM     25  H   UNL     1      -6.680  -5.618  -2.786  1.00  0.00     0.293 HD
ENDBRANCH   6  24
BRANCH   8  26
ATOM     26  O   UNL     1      -7.200  -0.130  -1.376  1.00  0.00    -0.508 OA
ATOM     27  H   UNL     1      -7.493   0.137  -2.309  1.00  0.00     0.293 HD
ENDBRANCH   8  26
TORSDOF 6
ENDMDL
MODEL 9
REMARK VINA RESULT:    -5.375     13.302     14.923
REMARK INTER + INTRA:          -6.350
REMARK INTER:                  -6.209
REMARK INTRA:                  -0.141
REMARK UNBOUND:                 0.125
REMARK SMILES O=c1c(O)c(-c2ccc(O)c(O)c2)oc2cc(O)cc(O)c12
REMARK SMILES IDX 5 1 3 2 2 3 1 4 22 5 20 6 19 7 17 8 16 9 15 10 14 11 6 12
REMARK SMILES IDX 7 13 8 14 9 15 13 16 11 17 10 18 12 20 4 22 21 24 18 26
REMARK H PARENT 10 19 12 21 4 23 21 25 18 27
REMARK Flexibility Score: inf
ROOT
ATOM      1  C   UNL     1      -1.130  -5.210   5.119  1.00  0.00     0.180 A 
ATOM      2  C   UNL     1      -1.748  -5.068   6.374  1.00  0.00     0.208 A 
ATOM      3  C   UNL     1      -0.950  -5.060   7.529  1.00  0.00     0.238 A 
ATOM      4  O   UNL     1      -1.504  -4.878   8.645  1.00  0.00    -0.285 OA
ATOM      5  C   UNL     1       0.453  -5.210   7.417  1.00  0.00     0.111 A 
ATOM      6  C   UNL     1       1.354  -5.256   8.523  1.00  0.00     0.134 A 
ATOM      7  C   UNL     1       2.734  -5.277   8.289  1.00  0.00     0.093 A 
ATOM      8  C   UNL     1       3.244  -5.318   6.992  1.00  0.00     0.123 A 
ATOM      9  C   UNL     1       2.371  -5.334   5.904  1.00  0.00     0.094 A 
ATOM     10  C   UNL     1       0.989  -5.277   6.105  1.00  0.00     0.146 A 
ATOM     11  O   UNL     1       0.193  -5.284   5.043  1.00  0.00    -0.452 OA
ENDROOT
BRANCH   1  12
ATOM     12  C   UNL     1      -1.907  -5.254   3.860  1.00  0.00     0.025 A 
ATOM     13  C   UNL     1      -1.894  -6.388   3.030  1.00  0.00     0.016 A 
ATOM     14  C   UNL     1      -2.616  -6.397   1.833  1.00  0.00     0.051 A 
ATOM     15  C   UNL     1      -3.349  -5.269   1.441  1.00  0.00     0.157 A 
ATOM     16  C   UNL     1      -2.627  -4.118   3.452  1.00  0.00     0.062 A 
ATOM     17  C   UNL     1      -3.350  -4.124   2.254  1.00  0.00     0.158 A 
BRANCH  15  18
ATOM     18  O   UNL     1      -4.069  -5.282   0.248  1.00  0.00    -0.504 OA
ATOM     19  H   UNL     1      -4.987  -4.857   0.176  1.00  0.00     0.293 HD
ENDBRANCH  15  18
BRANCH  17  20
ATOM     20  O   UNL     1      -4.065  -2.982   1.889  1.00  0.00    -0.504 OA
ATOM     21  H   UNL     1      -4.454  -2.349   2.577  1.00  0.00     0.293 HD
ENDBRANCH  17  20
ENDBRANCH   1  12
BRANCH   2  22
ATOM     22  O   UNL     1      -3.133  -4.900   6.460  1.00  0.00    -0.502 OA
ATOM     23  H   UNL     1      -3.784  -5.457   5.920  1.00  0.00     0.293 HD
ENDBRANCH   2  22
BRANCH   6  24
ATOM     24  O   UNL     1       0.947  -5.311   9.859  1.00  0.00    -0.507 OA
ATOM     25  H   UNL     1       0.436  -6.076  10.273  1.00  0.00     0.293 HD
ENDBRANCH   6  24
BRANCH   8  26
ATOM     26  O   UNL     1       4.623  -5.354   6.797  1.00  0.00    -0.508 OA
ATOM     27  H   UNL     1       5.029  -5.737   5.951  1.00  0.00     0.293 HD
ENDBRANCH   8  26
TORSDOF 6
ENDMDL
