MODEL 1
REMARK VINA RESULT:    -3.419      0.000      0.000
REMARK INTER + INTRA:          -3.972
REMARK INTER:                  -3.919
REMARK INTRA:                  -0.052
REMARK UNBOUND:                -0.052
REMARK SMILES O=C([O-])c1cc(O)c(O)c(O)c1
REMARK SMILES IDX 4 1 5 2 12 3 6 4 10 5 8 6 2 7 1 8 3 9 7 10 11 12 9 14
REMARK H PARENT 7 11 11 13 9 15
REMARK Flexibility Score: inf
ROOT
ATOM      1  C   UNL     1     112.374 102.068 103.204  1.00  0.00     0.005 A 
ATOM      2  C   UNL     1     111.091 101.526 103.401  1.00  0.00     0.060 A 
ATOM      3  C   UNL     1     112.566 103.448 103.377  1.00  0.00     0.060 A 
ATOM      4  C   UNL     1     110.018 102.351 103.765  1.00  0.00     0.162 A 
ATOM      5  C   UNL     1     111.495 104.278 103.740  1.00  0.00     0.162 A 
ATOM      6  C   UNL     1     110.218 103.727 103.935  1.00  0.00     0.200 A 
ENDROOT
BRANCH   1   7
ATOM      7  C   UNL     1     113.509 101.198 102.820  1.00  0.00     0.072 C 
ATOM      8  O   UNL     1     114.689 101.638 102.839  1.00  0.00    -0.545 OA
ATOM      9  O   UNL     1     113.289  99.880 102.435  1.00  0.00    -0.545 OA
ENDBRANCH   1   7
BRANCH   4  10
ATOM     10  O   UNL     1     108.749 101.810 103.959  1.00  0.00    -0.504 OA
ATOM     11  H   UNL     1     108.619 100.833 104.201  1.00  0.00     0.293 HD
ENDBRANCH   4  10
BRANCH   5  12
ATOM     12  O   UNL     1     111.698 105.647 103.909  1.00  0.00    -0.504 OA
ATOM     13  H   UNL     1     110.979 106.248 104.293  1.00  0.00     0.293 HD
ENDBRANCH   5  12
BRANCH   6  14
ATOM     14  O   UNL     1     109.137 104.532 104.297  1.00  0.00    -0.502 OA
ATOM     15  H   UNL     1     108.277 104.552 103.764  1.00  0.00     0.293 HD
ENDBRANCH   6  14
TORSDOF 4
ENDMDL
MODEL 2
REMARK VINA RESULT:    -3.413      0.126      2.425
REMARK INTER + INTRA:          -3.964
REMARK INTER:                  -3.912
REMARK INTRA:                  -0.052
REMARK UNBOUND:                -0.052
REMARK SMILES O=C([O-])c1cc(O)c(O)c(O)c1
REMARK SMILES IDX 4 1 5 2 12 3 6 4 10 5 8 6 2 7 1 8 3 9 7 10 11 12 9 14
REMARK H PARENT 7 11 11 13 9 15
REMARK Flexibility Score: inf
ROOT
ATOM      1  C   UNL     1     112.400 101.951 103.172  1.00  0.00     0.005 A 
ATOM      2  C   UNL     1     112.613 103.328 103.357  1.00  0.00     0.060 A 
ATOM      3  C   UNL     1     111.114 101.425 103.374  1.00  0.00     0.060 A 
ATOM      4  C   UNL     1     111.556 104.166 103.740  1.00  0.00     0.162 A 
ATOM      5  C   UNL     1     110.054 102.260 103.757  1.00  0.00     0.162 A 
ATOM      6  C   UNL     1     110.277 103.634 103.941  1.00  0.00     0.200 A 
ENDROOT
BRANCH   1   7
ATOM      7  C   UNL     1     113.514 101.064 102.767  1.00  0.00     0.072 C 
ATOM      8  O   UNL     1     114.702 101.483 102.772  1.00  0.00    -0.545 OA
ATOM      9  O   UNL     1     113.265  99.753 102.376  1.00  0.00    -0.545 OA
ENDBRANCH   1   7
BRANCH   4  10
ATOM     10  O   UNL     1     111.772 105.531 103.923  1.00  0.00    -0.504 OA
ATOM     11  H   UNL     1     111.007 106.196 103.907  1.00  0.00     0.293 HD
ENDBRANCH   4  10
BRANCH   5  12
ATOM     12  O   UNL     1     108.781 101.726 103.955  1.00  0.00    -0.504 OA
ATOM     13  H   UNL     1     108.152 102.097 104.658  1.00  0.00     0.293 HD
ENDBRANCH   5  12
BRANCH   6  14
ATOM     14  O   UNL     1     109.237 104.485 104.322  1.00  0.00    -0.502 OA
ATOM     15  H   UNL     1     109.245 105.474 104.107  1.00  0.00     0.293 HD
ENDBRANCH   6  14
TORSDOF 4
ENDMDL
MODEL 3
REMARK VINA RESULT:    -3.411      3.087      5.615
REMARK INTER + INTRA:          -3.962
REMARK INTER:                  -3.912
REMARK INTRA:                  -0.050
REMARK UNBOUND:                -0.052
REMARK SMILES O=C([O-])c1cc(O)c(O)c(O)c1
REMARK SMILES IDX 4 1 5 2 12 3 6 4 10 5 8 6 2 7 1 8 3 9 7 10 11 12 9 14
REMARK H PARENT 7 11 11 13 9 15
REMARK Flexibility Score: inf
ROOT
ATOM      1  C   UNL     1     109.936 107.016 102.138  1.00  0.00     0.005 A 
ATOM      2  C   UNL     1     111.111 106.431 102.644  1.00  0.00     0.060 A 
ATOM      3  C   UNL     1     108.697 106.430 102.443  1.00  0.00     0.060 A 
ATOM      4  C   UNL     1     111.047 105.279 103.439  1.00  0.00     0.162 A 
ATOM      5  C   UNL     1     108.628 105.277 103.238  1.00  0.00     0.162 A 
ATOM      6  C   UNL     1     109.807 104.701 103.737  1.00  0.00     0.200 A 
ENDROOT
BRANCH   1   7
ATOM      7  C   UNL     1     110.001 108.234 101.298  1.00  0.00     0.072 C 
ATOM      8  O   UNL     1     110.967 108.419 100.511  1.00  0.00    -0.545 OA
ATOM      9  O   UNL     1     108.994 109.190 101.365  1.00  0.00    -0.545 OA
ENDBRANCH   1   7
BRANCH   4  10
ATOM     10  O   UNL     1     112.214 104.703 103.938  1.00  0.00    -0.504 OA
ATOM     11  H   UNL     1     112.196 103.836 104.464  1.00  0.00     0.293 HD
ENDBRANCH   4  10
BRANCH   5  12
ATOM     12  O   UNL     1     107.392 104.704 103.533  1.00  0.00    -0.504 OA
ATOM     13  H   UNL     1     107.183 103.741 103.302  1.00  0.00     0.293 HD
ENDBRANCH   5  12
BRANCH   6  14
ATOM     14  O   UNL     1     109.764 103.554 104.531  1.00  0.00    -0.502 OA
ATOM     15  H   UNL     1     110.486 103.339 105.208  1.00  0.00     0.293 HD
ENDBRANCH   6  14
TORSDOF 4
ENDMDL
MODEL 4
REMARK VINA RESULT:    -3.389      3.044      5.272
REMARK INTER + INTRA:          -3.936
REMARK INTER:                  -3.889
REMARK INTRA:                  -0.047
REMARK UNBOUND:                -0.052
REMARK SMILES O=C([O-])c1cc(O)c(O)c(O)c1
REMARK SMILES IDX 4 1 5 2 12 3 6 4 10 5 8 6 2 7 1 8 3 9 7 10 11 12 9 14
REMARK H PARENT 7 11 11 13 9 15
REMARK Flexibility Score: inf
ROOT
ATOM      1  C   UNL     1     110.062 107.004 102.113  1.00  0.00     0.005 A 
ATOM      2  C   UNL     1     108.807 106.446 102.413  1.00  0.00     0.060 A 
ATOM      3  C   UNL     1     111.219 106.403 102.635  1.00  0.00     0.060 A 
ATOM      4  C   UNL     1     108.710 105.306 103.223  1.00  0.00     0.162 A 
ATOM      5  C   UNL     1     111.127 105.263 103.447  1.00  0.00     0.162 A 
ATOM      6  C   UNL     1     109.868 104.714 103.741  1.00  0.00     0.200 A 
ENDROOT
BRANCH   1   7
ATOM      7  C   UNL     1     110.167 108.207 101.256  1.00  0.00     0.072 C 
ATOM      8  O   UNL     1     109.609 108.242 100.128  1.00  0.00    -0.545 OA
ATOM      9  O   UNL     1     110.883 109.319 101.687  1.00  0.00    -0.545 OA
ENDBRANCH   1   7
BRANCH   4  10
ATOM     10  O   UNL     1     107.464 104.757 103.518  1.00  0.00    -0.504 OA
ATOM     11  H   UNL     1     107.235 103.799 103.275  1.00  0.00     0.293 HD
ENDBRANCH   4  10
BRANCH   5  12
ATOM     12  O   UNL     1     112.282 104.676 103.960  1.00  0.00    -0.504 OA
ATOM     13  H   UNL     1     112.243 103.865 104.566  1.00  0.00     0.293 HD
ENDBRANCH   5  12
BRANCH   6  14
ATOM     14  O   UNL     1     109.752 103.579 104.546  1.00  0.00    -0.502 OA
ATOM     15  H   UNL     1     109.666 102.649 104.157  1.00  0.00     0.293 HD
ENDBRANCH   6  14
TORSDOF 4
ENDMDL
MODEL 5
REMARK VINA RESULT:    -3.370     12.042     14.291
REMARK INTER + INTRA:          -3.916
REMARK INTER:                  -3.867
REMARK INTRA:                  -0.048
REMARK UNBOUND:                -0.052
REMARK SMILES O=C([O-])c1cc(O)c(O)c(O)c1
REMARK SMILES IDX 4 1 5 2 12 3 6 4 10 5 8 6 2 7 1 8 3 9 7 10 11 12 9 14
REMARK H PARENT 7 11 11 13 9 15
REMARK Flexibility Score: inf
ROOT
ATOM      1  C   UNL     1      98.910  99.729 103.445  1.00  0.00     0.005 A 
ATOM      2  C   UNL     1      97.579 100.184 103.428  1.00  0.00     0.060 A 
ATOM      3  C   UNL     1      99.159  98.355 103.590  1.00  0.00     0.060 A 
ATOM      4  C   UNL     1      96.516  99.280 103.556  1.00  0.00     0.162 A 
ATOM      5  C   UNL     1      98.098  97.446 103.719  1.00  0.00     0.162 A 
ATOM      6  C   UNL     1      96.773  97.911 103.701  1.00  0.00     0.200 A 
ENDROOT
BRANCH   1   7
ATOM      7  C   UNL     1     100.035 100.682 103.310  1.00  0.00     0.072 C 
ATOM      8  O   UNL     1     100.047 101.757 103.966  1.00  0.00    -0.545 OA
ATOM      9  O   UNL     1     101.096 100.404 102.456  1.00  0.00    -0.545 OA
ENDBRANCH   1   7
BRANCH   4  10
ATOM     10  O   UNL     1      95.199  99.736 103.538  1.00  0.00    -0.504 OA
ATOM     11  H   UNL     1      94.640  99.711 102.693  1.00  0.00     0.293 HD
ENDBRANCH   4  10
BRANCH   5  12
ATOM     12  O   UNL     1      98.359  96.084 103.862  1.00  0.00    -0.504 OA
ATOM     13  H   UNL     1      97.767  95.486 104.426  1.00  0.00     0.293 HD
ENDBRANCH   5  12
BRANCH   6  14
ATOM     14  O   UNL     1      95.701  97.026 103.826  1.00  0.00    -0.502 OA
ATOM     15  H   UNL     1      95.333  96.750 104.728  1.00  0.00     0.293 HD
ENDBRANCH   6  14
TORSDOF 4
ENDMDL
MODEL 6
REMARK VINA RESULT:    -3.340     14.408     16.578
REMARK INTER + INTRA:          -3.880
REMARK INTER:                  -3.828
REMARK INTRA:                  -0.052
REMARK UNBOUND:                -0.052
REMARK SMILES O=C([O-])c1cc(O)c(O)c(O)c1
REMARK SMILES IDX 4 1 5 2 12 3 6 4 10 5 8 6 2 7 1 8 3 9 7 10 11 12 9 14
REMARK H PARENT 7 11 11 13 9 15
REMARK Flexibility Score: inf
ROOT
ATOM      1  C   UNL     1      99.052 110.963 107.781  1.00  0.00     0.005 A 
ATOM      2  C   UNL     1      99.827 112.061 107.368  1.00  0.00     0.060 A 
ATOM      3  C   UNL     1      97.662 110.996 107.581  1.00  0.00     0.060 A 
ATOM      4  C   UNL     1      99.223 113.174 106.767  1.00  0.00     0.162 A 
ATOM      5  C   UNL     1      97.053 112.108 106.980  1.00  0.00     0.162 A 
ATOM      6  C   UNL     1      97.837 113.199 106.572  1.00  0.00     0.200 A 
ENDROOT
BRANCH   1   7
ATOM      7  C   UNL     1      99.687 109.786 108.416  1.00  0.00     0.072 C 
ATOM      8  O   UNL     1      98.998 108.960 109.069  1.00  0.00    -0.545 OA
ATOM      9  O   UNL     1     101.057 109.576 108.298  1.00  0.00    -0.545 OA
ENDBRANCH   1   7
BRANCH   4  10
ATOM     10  O   UNL     1      99.996 114.260 106.360  1.00  0.00    -0.504 OA
ATOM     11  H   UNL     1      99.627 114.972 105.739  1.00  0.00     0.293 HD
ENDBRANCH   4  10
BRANCH   5  12
ATOM     12  O   UNL     1      95.672 112.128 106.787  1.00  0.00    -0.504 OA
ATOM     13  H   UNL     1      95.208 111.452 106.193  1.00  0.00     0.293 HD
ENDBRANCH   5  12
BRANCH   6  14
ATOM     14  O   UNL     1      97.254 114.316 105.971  1.00  0.00    -0.502 OA
ATOM     15  H   UNL     1      96.251 114.456 105.953  1.00  0.00     0.293 HD
ENDBRANCH   6  14
TORSDOF 4
ENDMDL
MODEL 7
REMARK VINA RESULT:    -3.337      1.399      2.617
REMARK INTER + INTRA:          -3.877
REMARK INTER:                  -3.830
REMARK INTRA:                  -0.047
REMARK UNBOUND:                -0.052
REMARK SMILES O=C([O-])c1cc(O)c(O)c(O)c1
REMARK SMILES IDX 4 1 5 2 12 3 6 4 10 5 8 6 2 7 1 8 3 9 7 10 11 12 9 14
REMARK H PARENT 7 11 11 13 9 15
REMARK Flexibility Score: inf
ROOT
ATOM      1  C   UNL     1     110.915 101.500 103.463  1.00  0.00     0.005 A 
ATOM      2  C   UNL     1     109.877 102.402 103.754  1.00  0.00     0.060 A 
ATOM      3  C   UNL     1     112.227 101.985 103.343  1.00  0.00     0.060 A 
ATOM      4  C   UNL     1     110.146 103.768 103.920  1.00  0.00     0.162 A 
ATOM      5  C   UNL     1     112.502 103.351 103.508  1.00  0.00     0.162 A 
ATOM      6  C   UNL     1     111.457 104.243 103.798  1.00  0.00     0.200 A 
ENDROOT
BRANCH   1   7
ATOM      7  C   UNL     1     110.633 100.057 103.286  1.00  0.00     0.072 C 
ATOM      8  O   UNL     1     109.771  99.669 102.454  1.00  0.00    -0.545 OA
ATOM      9  O   UNL     1     111.319  99.108 104.037  1.00  0.00    -0.545 OA
ENDBRANCH   1   7
BRANCH   4  10
ATOM     10  O   UNL     1     109.114 104.658 104.208  1.00  0.00    -0.504 OA
ATOM     11  H   UNL     1     109.292 105.554 104.650  1.00  0.00     0.293 HD
ENDBRANCH   4  10
BRANCH   5  12
ATOM     12  O   UNL     1     113.809 103.821 103.387  1.00  0.00    -0.504 OA
ATOM     13  H   UNL     1     114.607 103.214 103.530  1.00  0.00     0.293 HD
ENDBRANCH   5  12
BRANCH   6  14
ATOM     14  O   UNL     1     111.706 105.607 103.968  1.00  0.00    -0.502 OA
ATOM     15  H   UNL     1     112.637 105.968 104.135  1.00  0.00     0.293 HD
ENDBRANCH   6  14
TORSDOF 4
ENDMDL
MODEL 8
REMARK VINA RESULT:    -3.329      1.407      3.088
REMARK INTER + INTRA:          -3.868
REMARK INTER:                  -3.821
REMARK INTRA:                  -0.047
REMARK UNBOUND:                -0.052
REMARK SMILES O=C([O-])c1cc(O)c(O)c(O)c1
REMARK SMILES IDX 4 1 5 2 12 3 6 4 10 5 8 6 2 7 1 8 3 9 7 10 11 12 9 14
REMARK H PARENT 7 11 11 13 9 15
REMARK Flexibility Score: inf
ROOT
ATOM      1  C   UNL     1     110.944 101.450 103.450  1.00  0.00     0.005 A 
ATOM      2  C   UNL     1     112.256 101.942 103.327  1.00  0.00     0.060 A 
ATOM      3  C   UNL     1     109.905 102.347 103.747  1.00  0.00     0.060 A 
ATOM      4  C   UNL     1     112.525 103.307 103.499  1.00  0.00     0.162 A 
ATOM      5  C   UNL     1     110.169 103.714 103.920  1.00  0.00     0.162 A 
ATOM      6  C   UNL     1     111.482 104.194 103.796  1.00  0.00     0.200 A 
ENDROOT
BRANCH   1   7
ATOM      7  C   UNL     1     110.659 100.009 103.268  1.00  0.00     0.072 C 
ATOM      8  O   UNL     1     109.816  99.625 102.414  1.00  0.00    -0.545 OA
ATOM      9  O   UNL     1     111.318  99.057 104.038  1.00  0.00    -0.545 OA
ENDBRANCH   1   7
BRANCH   4  10
ATOM     10  O   UNL     1     113.826 103.789 103.376  1.00  0.00    -0.504 OA
ATOM     11  H   UNL     1     114.200 104.479 104.019  1.00  0.00     0.293 HD
ENDBRANCH   4  10
BRANCH   5  12
ATOM     12  O   UNL     1     109.128 104.594 104.214  1.00  0.00    -0.504 OA
ATOM     13  H   UNL     1     108.189 104.443 103.865  1.00  0.00     0.293 HD
ENDBRANCH   5  12
BRANCH   6  14
ATOM     14  O   UNL     1     111.769 105.550 103.963  1.00  0.00    -0.502 OA
ATOM     15  H   UNL     1     111.122 106.186 104.413  1.00  0.00     0.293 HD
ENDBRANCH   6  14
TORSDOF 4
ENDMDL
MODEL 9
REMARK VINA RESULT:    -3.282      8.884     10.261
REMARK INTER + INTRA:          -3.814
REMARK INTER:                  -3.769
REMARK INTRA:                  -0.045
REMARK UNBOUND:                -0.052
REMARK SMILES O=C([O-])c1cc(O)c(O)c(O)c1
REMARK SMILES IDX 4 1 5 2 12 3 6 4 10 5 8 6 2 7 1 8 3 9 7 10 11 12 9 14
REMARK H PARENT 7 11 11 13 9 15
REMARK Flexibility Score: inf
ROOT
ATOM      1  C   UNL     1     111.529 111.221 109.069  1.00  0.00     0.005 A 
ATOM      2  C   UNL     1     110.266 111.749 108.748  1.00  0.00     0.060 A 
ATOM      3  C   UNL     1     111.632 109.867 109.427  1.00  0.00     0.060 A 
ATOM      4  C   UNL     1     109.125 110.936 108.785  1.00  0.00     0.162 A 
ATOM      5  C   UNL     1     110.493 109.050 109.465  1.00  0.00     0.162 A 
ATOM      6  C   UNL     1     109.237 109.587 109.143  1.00  0.00     0.200 A 
ENDROOT
BRANCH   1   7
ATOM      7  C   UNL     1     112.736 112.078 109.031  1.00  0.00     0.072 C 
ATOM      8  O   UNL     1     113.049 112.790 110.022  1.00  0.00    -0.545 OA
ATOM      9  O   UNL     1     113.544 112.107 107.900  1.00  0.00    -0.545 OA
ENDBRANCH   1   7
BRANCH   4  10
ATOM     10  O   UNL     1     107.875 111.463 108.466  1.00  0.00    -0.504 OA
ATOM     11  H   UNL     1     107.700 111.913 107.574  1.00  0.00     0.293 HD
ENDBRANCH   4  10
BRANCH   5  12
ATOM     12  O   UNL     1     110.609 107.707 109.821  1.00  0.00    -0.504 OA
ATOM     13  H   UNL     1     111.135 107.051 109.257  1.00  0.00     0.293 HD
ENDBRANCH   5  12
BRANCH   6  14
ATOM     14  O   UNL     1     108.089 108.793 109.173  1.00  0.00    -0.502 OA
ATOM     15  H   UNL     1     107.325 108.974 109.814  1.00  0.00     0.293 HD
ENDBRANCH   6  14
TORSDOF 4
ENDMDL
