MODEL 1
REMARK VINA RESULT:     7.027      0.000      0.000
REMARK INTER + INTRA:           8.297
REMARK INTER:                   8.465
REMARK INTRA:                  -0.169
REMARK UNBOUND:                -0.169
REMARK SMILES Oc1cc(O)c2c(c1)O[C@H](c1ccc(O)c(O)c1)[C@H](O)C2
REMARK SMILES IDX 21 1 19 2 10 3 9 4 7 5 8 6 2 7 3 8 4 9 6 10 20 11 11 13
REMARK SMILES IDX 18 14 12 15 16 16 13 17 14 18 17 19 15 21 5 23 1 25
REMARK H PARENT 20 12 17 20 15 22 5 24 1 26
REMARK Flexibility Score: inf
ROOT
ATOM      1  C   UNL     1      10.922   9.320 -22.677  1.00  0.00     0.079 C 
ATOM      2  C   UNL     1      11.018   7.860 -23.168  1.00  0.00     0.164 C 
ATOM      3  C   UNL     1       9.817   7.520 -24.072  1.00  0.00     0.232 C 
ATOM      4  O   UNL     1       8.594   7.782 -23.386  1.00  0.00    -0.482 OA
ATOM      5  C   UNL     1       8.427   8.900 -22.563  1.00  0.00     0.131 A 
ATOM      6  C   UNL     1       7.148   9.214 -22.096  1.00  0.00     0.093 A 
ATOM      7  C   UNL     1       6.947  10.331 -21.284  1.00  0.00     0.122 A 
ATOM      8  C   UNL     1       8.032  11.145 -20.942  1.00  0.00     0.092 A 
ATOM      9  C   UNL     1       9.320  10.847 -21.398  1.00  0.00     0.126 A 
ATOM     10  C   UNL     1       9.536   9.692 -22.188  1.00  0.00     0.039 A 
ENDROOT
BRANCH   2  11
ATOM     11  O   UNL     1      11.124   6.970 -22.082  1.00  0.00    -0.389 OA
ATOM     12  H   UNL     1      11.474   6.107 -22.425  1.00  0.00     0.211 HD
ENDBRANCH   2  11
BRANCH   3  13
ATOM     13  C   UNL     1       9.867   6.084 -24.544  1.00  0.00    -0.001 A 
ATOM     14  C   UNL     1       8.672   5.385 -24.784  1.00  0.00     0.057 A 
ATOM     15  C   UNL     1      11.095   5.452 -24.809  1.00  0.00     0.012 A 
ATOM     16  C   UNL     1       8.702   4.064 -25.256  1.00  0.00     0.157 A 
ATOM     17  C   UNL     1      11.125   4.136 -25.278  1.00  0.00     0.050 A 
ATOM     18  C   UNL     1       9.930   3.438 -25.500  1.00  0.00     0.157 A 
BRANCH  16  19
ATOM     19  O   UNL     1       7.515   3.371 -25.484  1.00  0.00    -0.504 OA
ATOM     20  H   UNL     1       6.752   3.783 -26.008  1.00  0.00     0.293 HD
ENDBRANCH  16  19
BRANCH  18  21
ATOM     21  O   UNL     1       9.956   2.125 -25.967  1.00  0.00    -0.504 OA
ATOM     22  H   UNL     1      10.816   1.692 -26.286  1.00  0.00     0.293 HD
ENDBRANCH  18  21
ENDBRANCH   3  13
BRANCH   9  23
ATOM     23  O   UNL     1      10.356  11.720 -21.058  1.00  0.00    -0.507 OA
ATOM     24  H   UNL     1      11.120  11.947 -21.681  1.00  0.00     0.293 HD
ENDBRANCH   9  23
BRANCH   7  25
ATOM     25  O   UNL     1       5.664  10.627 -20.829  1.00  0.00    -0.508 OA
ATOM     26  H   UNL     1       5.108   9.943 -20.330  1.00  0.00     0.293 HD
ENDBRANCH   7  25
TORSDOF 6
ENDMDL
MODEL 2
REMARK VINA RESULT:     7.508      1.877      6.949
REMARK INTER + INTRA:           8.876
REMARK INTER:                   8.651
REMARK INTRA:                   0.225
REMARK UNBOUND:                -0.169
REMARK SMILES Oc1cc(O)c2c(c1)O[C@H](c1ccc(O)c(O)c1)[C@H](O)C2
REMARK SMILES IDX 21 1 19 2 10 3 9 4 7 5 8 6 2 7 3 8 4 9 6 10 20 11 11 13
REMARK SMILES IDX 18 14 12 15 16 16 13 17 14 18 17 19 15 21 5 23 1 25
REMARK H PARENT 20 12 17 20 15 22 5 24 1 26
REMARK Flexibility Score: inf
ROOT
ATOM      1  C   UNL     1      10.456   5.497 -25.424  1.00  0.00     0.079 C 
ATOM      2  C   UNL     1       9.895   6.803 -24.822  1.00  0.00     0.164 C 
ATOM      3  C   UNL     1      10.643   7.155 -23.521  1.00  0.00     0.232 C 
ATOM      4  O   UNL     1      10.579   6.063 -22.604  1.00  0.00    -0.482 OA
ATOM      5  C   UNL     1      10.696   4.734 -23.021  1.00  0.00     0.131 A 
ATOM      6  C   UNL     1      10.842   3.731 -22.059  1.00  0.00     0.093 A 
ATOM      7  C   UNL     1      10.975   2.396 -22.444  1.00  0.00     0.122 A 
ATOM      8  C   UNL     1      10.969   2.062 -23.803  1.00  0.00     0.092 A 
ATOM      9  C   UNL     1      10.823   3.051 -24.781  1.00  0.00     0.126 A 
ATOM     10  C   UNL     1      10.646   4.401 -24.394  1.00  0.00     0.039 A 
ENDROOT
BRANCH   2  11
ATOM     11  O   UNL     1       8.506   6.705 -24.616  1.00  0.00    -0.389 OA
ATOM     12  H   UNL     1       8.091   6.393 -25.462  1.00  0.00     0.211 HD
ENDBRANCH   2  11
BRANCH   3  13
ATOM     13  C   UNL     1      10.093   8.414 -22.889  1.00  0.00    -0.001 A 
ATOM     14  C   UNL     1       8.758   8.453 -22.453  1.00  0.00     0.057 A 
ATOM     15  C   UNL     1      10.917   9.533 -22.671  1.00  0.00     0.012 A 
ATOM     16  C   UNL     1       8.244   9.601 -21.833  1.00  0.00     0.157 A 
ATOM     17  C   UNL     1      10.405  10.677 -22.054  1.00  0.00     0.050 A 
ATOM     18  C   UNL     1       9.068  10.716 -21.636  1.00  0.00     0.157 A 
BRANCH  16  19
ATOM     19  O   UNL     1       6.917   9.640 -21.410  1.00  0.00    -0.504 OA
ATOM     20  H   UNL     1       6.492   8.858 -20.925  1.00  0.00     0.293 HD
ENDBRANCH  16  19
BRANCH  18  21
ATOM     21  O   UNL     1       8.554  11.856 -21.021  1.00  0.00    -0.504 OA
ATOM     22  H   UNL     1       8.064  12.569 -21.550  1.00  0.00     0.293 HD
ENDBRANCH  18  21
ENDBRANCH   3  13
BRANCH   9  23
ATOM     23  O   UNL     1      10.866   2.660 -26.121  1.00  0.00    -0.507 OA
ATOM     24  H   UNL     1      11.208   3.256 -26.864  1.00  0.00     0.293 HD
ENDBRANCH   9  23
BRANCH   7  25
ATOM     25  O   UNL     1      11.119   1.412 -21.470  1.00  0.00    -0.508 OA
ATOM     26  H   UNL     1      10.325   0.882 -21.130  1.00  0.00     0.293 HD
ENDBRANCH   7  25
TORSDOF 6
ENDMDL
