MODEL 1
REMARK VINA RESULT:     9.950      0.000      0.000
REMARK INTER + INTRA:          15.602
REMARK INTER:                  13.440
REMARK INTRA:                   2.163
REMARK UNBOUND:                 2.163
REMARK SMILES O=c1c(-c2ccc(O)cc2)coc2c([C@@H]3O[C@H](CO)[C@@H](O)[C@H](O)[C@@H]3O)c(O)ccc12
REMARK SMILES IDX 3 1 11 2 12 3 13 4 30 5 2 6 1 7 29 8 28 9 26 10 14 11 4 12
REMARK SMILES IDX 5 13 6 14 7 15 10 16 9 17 8 18 15 20 24 21 16 22 22 23 17 24
REMARK SMILES IDX 20 25 25 26 23 28 18 30 19 31 21 33 27 35
REMARK H PARENT 8 19 25 27 23 29 19 32 21 34 27 36
REMARK Flexibility Score: inf
ROOT
ATOM      1  C   UNL     1      11.444 -16.813   4.841  1.00  0.00     0.065 A 
ATOM      2  C   UNL     1      10.404 -15.891   4.655  1.00  0.00     0.208 A 
ATOM      3  O   UNL     1      10.647 -14.586   4.628  1.00  0.00    -0.463 OA
ATOM      4  C   UNL     1      11.865 -14.069   4.769  1.00  0.00     0.147 A 
ATOM      5  C   UNL     1      12.972 -14.928   4.962  1.00  0.00     0.066 A 
ATOM      6  C   UNL     1      12.751 -16.317   4.988  1.00  0.00     0.200 A 
ATOM      7  O   UNL     1      13.721 -17.113   5.125  1.00  0.00    -0.288 OA
ATOM      8  C   UNL     1      14.253 -14.380   5.125  1.00  0.00     0.020 A 
ATOM      9  C   UNL     1      14.433 -12.999   5.115  1.00  0.00     0.047 A 
ATOM     10  C   UNL     1      13.344 -12.139   4.930  1.00  0.00     0.125 A 
ATOM     11  C   UNL     1      12.046 -12.666   4.728  1.00  0.00     0.069 A 
ENDROOT
BRANCH   1  12
ATOM     12  C   UNL     1      11.145 -18.267   4.873  1.00  0.00    -0.011 A 
ATOM     13  C   UNL     1       9.827 -18.716   5.061  1.00  0.00     0.013 A 
ATOM     14  C   UNL     1       9.544 -20.086   5.101  1.00  0.00     0.047 A 
ATOM     15  C   UNL     1      10.574 -21.021   4.960  1.00  0.00     0.115 A 
ATOM     16  C   UNL     1      12.177 -19.214   4.739  1.00  0.00     0.013 A 
ATOM     17  C   UNL     1      11.892 -20.581   4.779  1.00  0.00     0.047 A 
BRANCH  15  18
ATOM     18  O   UNL     1      10.278 -22.381   5.001  1.00  0.00    -0.508 OA
ATOM     19  H   UNL     1      11.009 -23.082   5.028  1.00  0.00     0.293 HD
ENDBRANCH  15  18
ENDBRANCH   1  12
BRANCH  11  20
ATOM     20  C   UNL     1      10.840 -11.751   4.547  1.00  0.00     0.188 C 
ATOM     21  C   UNL     1      11.296 -10.286   4.458  1.00  0.00     0.179 C 
ATOM     22  O   UNL     1      10.094 -12.146   3.409  1.00  0.00    -0.362 OA
ATOM     23  C   UNL     1      10.069  -9.359   4.531  1.00  0.00     0.177 C 
ATOM     24  C   UNL     1       9.055 -11.249   3.006  1.00  0.00     0.176 C 
ATOM     25  C   UNL     1       8.794  -9.991   3.905  1.00  0.00     0.177 C 
BRANCH  21  26
ATOM     26  O   UNL     1      12.010 -10.083   3.263  1.00  0.00    -0.387 OA
ATOM     27  H   UNL     1      12.764 -10.730   3.259  1.00  0.00     0.211 HD
ENDBRANCH  21  26
BRANCH  23  28
ATOM     28  O   UNL     1      10.364  -8.130   3.913  1.00  0.00    -0.387 OA
ATOM     29  H   UNL     1      11.122  -7.729   4.414  1.00  0.00     0.211 HD
ENDBRANCH  23  28
BRANCH  24  30
ATOM     30  C   UNL     1       9.292 -10.838   1.542  1.00  0.00     0.191 C 
BRANCH  30  31
ATOM     31  O   UNL     1       8.080 -10.499   0.925  1.00  0.00    -0.394 OA
ATOM     32  H   UNL     1       8.297 -10.210   0.001  1.00  0.00     0.210 HD
ENDBRANCH  30  31
ENDBRANCH  24  30
BRANCH  25  33
ATOM     33  O   UNL     1       7.842 -10.278   4.903  1.00  0.00    -0.388 OA
ATOM     34  H   UNL     1       8.176 -11.036   5.445  1.00  0.00     0.211 HD
ENDBRANCH  25  33
ENDBRANCH  11  20
BRANCH  10  35
ATOM     35  O   UNL     1      13.556 -10.761   4.954  1.00  0.00    -0.507 OA
ATOM     36  H   UNL     1      12.841 -10.105   4.661  1.00  0.00     0.293 HD
ENDBRANCH  10  35
TORSDOF 9
ENDMDL
