MODEL 1
REMARK VINA RESULT:    -2.956      0.000      0.000
REMARK INTER + INTRA:          -4.278
REMARK INTER:                  -3.906
REMARK INTRA:                  -0.371
REMARK UNBOUND:                -0.371
REMARK SMILES CCCCCCCO
REMARK SMILES IDX 5 1 4 2 3 3 2 4 1 5 6 6 7 7 8 8
REMARK H PARENT 8 9
REMARK Flexibility Score: inf
ROOT
ATOM      1  C   UNL     1     140.913 148.575 139.167  1.00  0.00     0.002 C 
ENDROOT
BRANCH   1   2
ATOM      2  C   UNL     1     140.181 148.516 140.520  1.00  0.00     0.000 C 
BRANCH   2   3
ATOM      3  C   UNL     1     140.420 149.772 141.374  1.00  0.00    -0.000 C 
BRANCH   3   4
ATOM      4  C   UNL     1     141.719 150.503 141.003  1.00  0.00    -0.003 C 
ATOM      5  C   UNL     1     142.751 150.389 142.121  1.00  0.00     0.004 C 
ENDBRANCH   3   4
ENDBRANCH   2   3
ENDBRANCH   1   2
BRANCH   1   6
ATOM      6  C   UNL     1     141.807 147.348 138.927  1.00  0.00     0.028 C 
BRANCH   6   7
ATOM      7  C   UNL     1     143.294 147.640 139.161  1.00  0.00     0.156 C 
BRANCH   7   8
ATOM      8  O   UNL     1     143.638 147.357 140.490  1.00  0.00    -0.396 OA
ATOM      9  H   UNL     1     142.796 147.390 141.015  1.00  0.00     0.210 HD
ENDBRANCH   7   8
ENDBRANCH   6   7
ENDBRANCH   1   6
TORSDOF 6
ENDMDL
MODEL 2
REMARK VINA RESULT:    -2.901     10.419     11.644
REMARK INTER + INTRA:          -4.205
REMARK INTER:                  -3.835
REMARK INTRA:                  -0.370
REMARK UNBOUND:                -0.371
REMARK SMILES CCCCCCCO
REMARK SMILES IDX 5 1 4 2 3 3 2 4 1 5 6 6 7 7 8 8
REMARK H PARENT 8 9
REMARK Flexibility Score: inf
ROOT
ATOM      1  C   UNL     1     148.611 140.591 139.081  1.00  0.00     0.002 C 
ENDROOT
BRANCH   1   2
ATOM      2  C   UNL     1     148.501 141.372 140.403  1.00  0.00     0.000 C 
BRANCH   2   3
ATOM      3  C   UNL     1     149.714 141.149 141.321  1.00  0.00    -0.000 C 
BRANCH   3   4
ATOM      4  C   UNL     1     150.461 139.843 141.011  1.00  0.00    -0.003 C 
ATOM      5  C   UNL     1     150.296 138.834 142.143  1.00  0.00     0.004 C 
ENDBRANCH   3   4
ENDBRANCH   2   3
ENDBRANCH   1   2
BRANCH   1   6
ATOM      6  C   UNL     1     147.386 139.697 138.822  1.00  0.00     0.028 C 
BRANCH   6   7
ATOM      7  C   UNL     1     147.657 138.218 139.119  1.00  0.00     0.156 C 
BRANCH   7   8
ATOM      8  O   UNL     1     147.357 137.932 140.459  1.00  0.00    -0.396 OA
ATOM      9  H   UNL     1     148.225 137.827 140.929  1.00  0.00     0.210 HD
ENDBRANCH   7   8
ENDBRANCH   6   7
ENDBRANCH   1   6
TORSDOF 6
ENDMDL
MODEL 3
REMARK VINA RESULT:    -2.773     14.857     16.359
REMARK INTER + INTRA:          -4.036
REMARK INTER:                  -3.699
REMARK INTRA:                  -0.337
REMARK UNBOUND:                -0.371
REMARK SMILES CCCCCCCO
REMARK SMILES IDX 5 1 4 2 3 3 2 4 1 5 6 6 7 7 8 8
REMARK H PARENT 8 9
REMARK Flexibility Score: inf
ROOT
ATOM      1  C   UNL     1     140.443 132.786 138.952  1.00  0.00     0.002 C 
ENDROOT
BRANCH   1   2
ATOM      2  C   UNL     1     141.387 133.029 140.143  1.00  0.00     0.000 C 
BRANCH   2   3
ATOM      3  C   UNL     1     141.225 131.972 141.248  1.00  0.00    -0.000 C 
BRANCH   3   4
ATOM      4  C   UNL     1     140.022 131.046 141.012  1.00  0.00    -0.003 C 
ATOM      5  C   UNL     1     138.945 131.265 142.070  1.00  0.00     0.004 C 
ENDBRANCH   3   4
ENDBRANCH   2   3
ENDBRANCH   1   2
BRANCH   1   6
ATOM      6  C   UNL     1     139.820 134.087 138.420  1.00  0.00     0.028 C 
BRANCH   6   7
ATOM      7  C   UNL     1     139.036 134.854 139.492  1.00  0.00     0.156 C 
BRANCH   7   8
ATOM      8  O   UNL     1     137.988 134.062 139.981  1.00  0.00    -0.396 OA
ATOM      9  H   UNL     1     138.157 133.934 140.951  1.00  0.00     0.210 HD
ENDBRANCH   7   8
ENDBRANCH   6   7
ENDBRANCH   1   6
TORSDOF 6
ENDMDL
MODEL 4
REMARK VINA RESULT:    -2.696      1.167      2.072
REMARK INTER + INTRA:          -3.934
REMARK INTER:                  -3.532
REMARK INTRA:                  -0.402
REMARK UNBOUND:                -0.371
REMARK SMILES CCCCCCCO
REMARK SMILES IDX 5 1 4 2 3 3 2 4 1 5 6 6 7 7 8 8
REMARK H PARENT 8 9
REMARK Flexibility Score: inf
ROOT
ATOM      1  C   UNL     1     143.452 149.614 138.855  1.00  0.00     0.002 C 
ENDROOT
BRANCH   1   2
ATOM      2  C   UNL     1     142.111 150.337 139.077  1.00  0.00     0.000 C 
BRANCH   2   3
ATOM      3  C   UNL     1     142.040 151.038 140.443  1.00  0.00    -0.000 C 
BRANCH   3   4
ATOM      4  C   UNL     1     141.467 150.134 141.545  1.00  0.00    -0.003 C 
ATOM      5  C   UNL     1     140.308 149.293 141.018  1.00  0.00     0.004 C 
ENDBRANCH   3   4
ENDBRANCH   2   3
ENDBRANCH   1   2
BRANCH   1   6
ATOM      6  C   UNL     1     143.267 148.175 138.345  1.00  0.00     0.028 C 
BRANCH   6   7
ATOM      7  C   UNL     1     142.930 147.185 139.466  1.00  0.00     0.156 C 
BRANCH   7   8
ATOM      8  O   UNL     1     143.666 147.493 140.619  1.00  0.00    -0.396 OA
ATOM      9  H   UNL     1     144.596 147.674 140.323  1.00  0.00     0.210 HD
ENDBRANCH   7   8
ENDBRANCH   6   7
ENDBRANCH   1   6
TORSDOF 6
ENDMDL
MODEL 5
REMARK VINA RESULT:    -2.643     15.181     16.627
REMARK INTER + INTRA:          -3.864
REMARK INTER:                  -3.594
REMARK INTRA:                  -0.270
REMARK UNBOUND:                -0.371
REMARK SMILES CCCCCCCO
REMARK SMILES IDX 5 1 4 2 3 3 2 4 1 5 6 6 7 7 8 8
REMARK H PARENT 8 9
REMARK Flexibility Score: inf
ROOT
ATOM      1  C   UNL     1     138.214 131.914 138.867  1.00  0.00     0.002 C 
ENDROOT
BRANCH   1   2
ATOM      2  C   UNL     1     139.605 131.383 139.259  1.00  0.00     0.000 C 
BRANCH   2   3
ATOM      3  C   UNL     1     139.714 131.067 140.759  1.00  0.00    -0.000 C 
BRANCH   3   4
ATOM      4  C   UNL     1     140.959 131.688 141.408  1.00  0.00    -0.003 C 
ATOM      5  C   UNL     1     141.493 132.848 140.573  1.00  0.00     0.004 C 
ENDBRANCH   3   4
ENDBRANCH   2   3
ENDBRANCH   1   2
BRANCH   1   6
ATOM      6  C   UNL     1     138.266 133.345 138.307  1.00  0.00     0.028 C 
BRANCH   6   7
ATOM      7  C   UNL     1     138.630 134.387 139.371  1.00  0.00     0.156 C 
BRANCH   7   8
ATOM      8  O   UNL     1     137.937 134.124 140.561  1.00  0.00    -0.396 OA
ATOM      9  H   UNL     1     137.897 133.137 140.655  1.00  0.00     0.210 HD
ENDBRANCH   7   8
ENDBRANCH   6   7
ENDBRANCH   1   6
TORSDOF 6
ENDMDL
MODEL 6
REMARK VINA RESULT:    -2.606     10.261     11.504
REMARK INTER + INTRA:          -3.816
REMARK INTER:                  -3.549
REMARK INTRA:                  -0.266
REMARK UNBOUND:                -0.371
REMARK SMILES CCCCCCCO
REMARK SMILES IDX 5 1 4 2 3 3 2 4 1 5 6 6 7 7 8 8
REMARK H PARENT 8 9
REMARK Flexibility Score: inf
ROOT
ATOM      1  C   UNL     1     133.031 141.095 139.038  1.00  0.00     0.002 C 
ENDROOT
BRANCH   1   2
ATOM      2  C   UNL     1     133.122 140.191 140.280  1.00  0.00     0.000 C 
BRANCH   2   3
ATOM      3  C   UNL     1     131.976 140.439 141.274  1.00  0.00    -0.000 C 
BRANCH   3   4
ATOM      4  C   UNL     1     131.124 141.662 140.905  1.00  0.00    -0.003 C 
ATOM      5  C   UNL     1     131.291 142.778 141.932  1.00  0.00     0.004 C 
ENDBRANCH   3   4
ENDBRANCH   2   3
ENDBRANCH   1   2
BRANCH   1   6
ATOM      6  C   UNL     1     134.201 142.089 138.946  1.00  0.00     0.028 C 
BRANCH   6   7
ATOM      7  C   UNL     1     133.737 143.541 138.781  1.00  0.00     0.156 C 
BRANCH   7   8
ATOM      8  O   UNL     1     134.845 144.386 138.624  1.00  0.00    -0.396 OA
ATOM      9  H   UNL     1     135.139 144.642 139.537  1.00  0.00     0.210 HD
ENDBRANCH   7   8
ENDBRANCH   6   7
ENDBRANCH   1   6
TORSDOF 6
ENDMDL
MODEL 7
REMARK VINA RESULT:    -2.526     15.653     16.667
REMARK INTER + INTRA:          -3.710
REMARK INTER:                  -3.379
REMARK INTRA:                  -0.331
REMARK UNBOUND:                -0.371
REMARK SMILES CCCCCCCO
REMARK SMILES IDX 5 1 4 2 3 3 2 4 1 5 6 6 7 7 8 8
REMARK H PARENT 8 9
REMARK Flexibility Score: inf
ROOT
ATOM      1  C   UNL     1     138.907 132.039 140.641  1.00  0.00     0.002 C 
ENDROOT
BRANCH   1   2
ATOM      2  C   UNL     1     138.414 132.052 139.183  1.00  0.00     0.000 C 
BRANCH   2   3
ATOM      3  C   UNL     1     139.082 133.155 138.345  1.00  0.00    -0.000 C 
BRANCH   3   4
ATOM      4  C   UNL     1     140.220 132.622 137.462  1.00  0.00    -0.003 C 
ATOM      5  C   UNL     1     141.453 133.515 137.558  1.00  0.00     0.004 C 
ENDBRANCH   3   4
ENDBRANCH   2   3
ENDBRANCH   1   2
BRANCH   1   6
ATOM      6  C   UNL     1     140.137 131.137 140.838  1.00  0.00     0.028 C 
BRANCH   6   7
ATOM      7  C   UNL     1     141.265 131.831 141.611  1.00  0.00     0.156 C 
BRANCH   7   8
ATOM      8  O   UNL     1     141.545 133.080 141.038  1.00  0.00    -0.396 OA
ATOM      9  H   UNL     1     141.206 133.765 141.670  1.00  0.00     0.210 HD
ENDBRANCH   7   8
ENDBRANCH   6   7
ENDBRANCH   1   6
TORSDOF 6
ENDMDL
MODEL 8
REMARK VINA RESULT:    -2.476      9.253     10.017
REMARK INTER + INTRA:          -3.644
REMARK INTER:                  -3.391
REMARK INTRA:                  -0.253
REMARK UNBOUND:                -0.371
REMARK SMILES CCCCCCCO
REMARK SMILES IDX 5 1 4 2 3 3 2 4 1 5 6 6 7 7 8 8
REMARK H PARENT 8 9
REMARK Flexibility Score: inf
ROOT
ATOM      1  C   UNL     1     143.276 139.494 142.374  1.00  0.00     0.002 C 
ENDROOT
BRANCH   1   2
ATOM      2  C   UNL     1     141.975 139.162 143.125  1.00  0.00     0.000 C 
BRANCH   2   3
ATOM      3  C   UNL     1     140.735 139.779 142.456  1.00  0.00    -0.000 C 
BRANCH   3   4
ATOM      4  C   UNL     1     139.596 138.767 142.269  1.00  0.00    -0.003 C 
ATOM      5  C   UNL     1     139.984 137.683 141.268  1.00  0.00     0.004 C 
ENDBRANCH   3   4
ENDBRANCH   2   3
ENDBRANCH   1   2
BRANCH   1   6
ATOM      6  C   UNL     1     143.031 139.852 140.899  1.00  0.00     0.028 C 
BRANCH   6   7
ATOM      7  C   UNL     1     144.325 139.917 140.079  1.00  0.00     0.156 C 
BRANCH   7   8
ATOM      8  O   UNL     1     145.353 139.235 140.746  1.00  0.00    -0.396 OA
ATOM      9  H   UNL     1     145.337 138.300 140.413  1.00  0.00     0.210 HD
ENDBRANCH   7   8
ENDBRANCH   6   7
ENDBRANCH   1   6
TORSDOF 6
ENDMDL
MODEL 9
REMARK VINA RESULT:    -2.469      9.562     10.264
REMARK INTER + INTRA:          -3.635
REMARK INTER:                  -3.296
REMARK INTRA:                  -0.339
REMARK UNBOUND:                -0.371
REMARK SMILES CCCCCCCO
REMARK SMILES IDX 5 1 4 2 3 3 2 4 1 5 6 6 7 7 8 8
REMARK H PARENT 8 9
REMARK Flexibility Score: inf
ROOT
ATOM      1  C   UNL     1     139.974 139.630 142.654  1.00  0.00     0.002 C 
ENDROOT
BRANCH   1   2
ATOM      2  C   UNL     1     141.351 139.109 143.104  1.00  0.00     0.000 C 
BRANCH   2   3
ATOM      3  C   UNL     1     142.479 140.119 142.838  1.00  0.00    -0.000 C 
BRANCH   3   4
ATOM      4  C   UNL     1     143.596 139.543 141.955  1.00  0.00    -0.003 C 
ATOM      5  C   UNL     1     143.431 139.984 140.504  1.00  0.00     0.004 C 
ENDBRANCH   3   4
ENDBRANCH   2   3
ENDBRANCH   1   2
BRANCH   1   6
ATOM      6  C   UNL     1     139.598 139.156 141.240  1.00  0.00     0.028 C 
BRANCH   6   7
ATOM      7  C   UNL     1     140.219 137.801 140.883  1.00  0.00     0.156 C 
BRANCH   7   8
ATOM      8  O   UNL     1     139.345 136.762 141.235  1.00  0.00    -0.396 OA
ATOM      9  H   UNL     1     138.727 137.130 141.918  1.00  0.00     0.210 HD
ENDBRANCH   7   8
ENDBRANCH   6   7
ENDBRANCH   1   6
TORSDOF 6
ENDMDL
