MODEL 1
REMARK VINA RESULT:    -4.800      0.000      0.000
REMARK INTER + INTRA:          -6.618
REMARK INTER:                  -6.203
REMARK INTRA:                  -0.416
REMARK UNBOUND:                -0.416
REMARK SMILES CCO[C@H]1O[C@@H](CO)[C@H](O)[C@H](O)[C@@H]1O
REMARK SMILES IDX 4 1 13 2 11 3 9 4 6 5 5 6 3 7 2 8 1 9 14 10 12 12 7 14 8 15
REMARK SMILES IDX 10 17
REMARK H PARENT 14 11 12 13 8 16 10 18
REMARK Flexibility Score: inf
ROOT
ATOM      1  C   UNL     1      -5.416   7.406 -12.522  1.00  0.00     0.281 C 
ATOM      2  C   UNL     1      -3.965   7.130 -12.094  1.00  0.00     0.202 C 
ATOM      3  C   UNL     1      -3.941   6.258 -10.827  1.00  0.00     0.179 C 
ATOM      4  C   UNL     1      -4.811   6.890  -9.729  1.00  0.00     0.177 C 
ATOM      5  C   UNL     1      -6.220   7.234 -10.270  1.00  0.00     0.178 C 
ATOM      6  O   UNL     1      -6.189   7.990 -11.478  1.00  0.00    -0.341 OA
ENDROOT
BRANCH   1   7
ATOM      7  O   UNL     1      -6.012   6.218 -13.012  1.00  0.00    -0.350 OA
BRANCH   7   8
ATOM      8  C   UNL     1      -6.482   6.410 -14.331  1.00  0.00     0.160 C 
ATOM      9  C   UNL     1      -5.454   5.864 -15.310  1.00  0.00     0.035 C 
ENDBRANCH   7   8
ENDBRANCH   1   7
BRANCH   2  10
ATOM     10  O   UNL     1      -3.308   8.352 -11.871  1.00  0.00    -0.385 OA
ATOM     11  H   UNL     1      -3.397   8.886 -12.703  1.00  0.00     0.211 HD
ENDBRANCH   2  10
BRANCH   3  12
ATOM     12  O   UNL     1      -2.625   6.098 -10.361  1.00  0.00    -0.387 OA
ATOM     13  H   UNL     1      -2.522   5.141 -10.116  1.00  0.00     0.211 HD
ENDBRANCH   3  12
BRANCH   5  14
ATOM     14  C   UNL     1      -7.161   6.015 -10.355  1.00  0.00     0.191 C 
BRANCH  14  15
ATOM     15  O   UNL     1      -8.338   6.368 -11.031  1.00  0.00    -0.394 OA
ATOM     16  H   UNL     1      -8.654   7.211 -10.613  1.00  0.00     0.210 HD
ENDBRANCH  14  15
ENDBRANCH   5  14
BRANCH   4  17
ATOM     17  O   UNL     1      -4.211   8.067  -9.245  1.00  0.00    -0.387 OA
ATOM     18  H   UNL     1      -4.682   8.832  -9.667  1.00  0.00     0.211 HD
ENDBRANCH   4  17
TORSDOF 7
ENDMDL
MODEL 2
REMARK VINA RESULT:    -4.635      1.389      3.177
REMARK INTER + INTRA:          -6.406
REMARK INTER:                  -5.951
REMARK INTRA:                  -0.455
REMARK UNBOUND:                -0.416
REMARK SMILES CCO[C@H]1O[C@@H](CO)[C@H](O)[C@H](O)[C@@H]1O
REMARK SMILES IDX 4 1 13 2 11 3 9 4 6 5 5 6 3 7 2 8 1 9 14 10 12 12 7 14 8 15
REMARK SMILES IDX 10 17
REMARK H PARENT 14 11 12 13 8 16 10 18
REMARK Flexibility Score: inf
ROOT
ATOM      1  C   UNL     1      -5.686   6.349 -12.095  1.00  0.00     0.281 C 
ATOM      2  C   UNL     1      -6.515   6.918 -10.930  1.00  0.00     0.202 C 
ATOM      3  C   UNL     1      -5.822   8.157 -10.339  1.00  0.00     0.179 C 
ATOM      4  C   UNL     1      -4.366   7.829  -9.973  1.00  0.00     0.177 C 
ATOM      5  C   UNL     1      -3.633   7.165 -11.164  1.00  0.00     0.178 C 
ATOM      6  O   UNL     1      -4.344   6.060 -11.716  1.00  0.00    -0.341 OA
ENDROOT
BRANCH   1   7
ATOM      7  O   UNL     1      -5.738   7.231 -13.202  1.00  0.00    -0.350 OA
BRANCH   7   8
ATOM      8  C   UNL     1      -6.422   6.626 -14.282  1.00  0.00     0.160 C 
ATOM      9  C   UNL     1      -5.425   5.850 -15.129  1.00  0.00     0.035 C 
ENDBRANCH   7   8
ENDBRANCH   1   7
BRANCH   2  10
ATOM     10  O   UNL     1      -6.679   5.923  -9.951  1.00  0.00    -0.385 OA
ATOM     11  H   UNL     1      -5.772   5.674  -9.634  1.00  0.00     0.211 HD
ENDBRANCH   2  10
BRANCH   3  12
ATOM     12  O   UNL     1      -6.509   8.614  -9.202  1.00  0.00    -0.387 OA
ATOM     13  H   UNL     1      -6.416   7.908  -8.508  1.00  0.00     0.211 HD
ENDBRANCH   3  12
BRANCH   5  14
ATOM     14  C   UNL     1      -3.167   8.169 -12.237  1.00  0.00     0.191 C 
BRANCH  14  15
ATOM     15  O   UNL     1      -2.715   7.479 -13.371  1.00  0.00    -0.394 OA
ATOM     16  H   UNL     1      -2.637   6.527 -13.102  1.00  0.00     0.210 HD
ENDBRANCH  14  15
ENDBRANCH   5  14
BRANCH   4  17
ATOM     17  O   UNL     1      -4.322   6.957  -8.870  1.00  0.00    -0.387 OA
ATOM     18  H   UNL     1      -4.769   6.114  -9.144  1.00  0.00     0.211 HD
ENDBRANCH   4  17
TORSDOF 7
ENDMDL
MODEL 3
REMARK VINA RESULT:    -4.570      1.482      3.514
REMARK INTER + INTRA:          -6.321
REMARK INTER:                  -6.106
REMARK INTRA:                  -0.215
REMARK UNBOUND:                -0.416
REMARK SMILES CCO[C@H]1O[C@@H](CO)[C@H](O)[C@H](O)[C@@H]1O
REMARK SMILES IDX 4 1 13 2 11 3 9 4 6 5 5 6 3 7 2 8 1 9 14 10 12 12 7 14 8 15
REMARK SMILES IDX 10 17
REMARK H PARENT 14 11 12 13 8 16 10 18
REMARK Flexibility Score: inf
ROOT
ATOM      1  C   UNL     1      -4.843   6.706 -12.611  1.00  0.00     0.281 C 
ATOM      2  C   UNL     1      -6.333   7.059 -12.762  1.00  0.00     0.202 C 
ATOM      3  C   UNL     1      -6.848   7.749 -11.487  1.00  0.00     0.179 C 
ATOM      4  C   UNL     1      -6.527   6.893 -10.252  1.00  0.00     0.177 C 
ATOM      5  C   UNL     1      -5.032   6.492 -10.230  1.00  0.00     0.178 C 
ATOM      6  O   UNL     1      -4.588   5.913 -11.455  1.00  0.00    -0.341 OA
ENDROOT
BRANCH   1   7
ATOM      7  O   UNL     1      -4.061   7.887 -12.618  1.00  0.00    -0.350 OA
BRANCH   7   8
ATOM      8  C   UNL     1      -2.869   7.683 -13.349  1.00  0.00     0.160 C 
ATOM      9  C   UNL     1      -3.221   7.328 -14.786  1.00  0.00     0.035 C 
ENDBRANCH   7   8
ENDBRANCH   1   7
BRANCH   2  10
ATOM     10  O   UNL     1      -7.062   5.887 -13.025  1.00  0.00    -0.385 OA
ATOM     11  H   UNL     1      -7.663   6.084 -13.790  1.00  0.00     0.211 HD
ENDBRANCH   2  10
BRANCH   3  12
ATOM     12  O   UNL     1      -8.233   7.970 -11.568  1.00  0.00    -0.387 OA
ATOM     13  H   UNL     1      -8.599   7.274 -12.174  1.00  0.00     0.211 HD
ENDBRANCH   3  12
BRANCH   5  14
ATOM     14  C   UNL     1      -4.100   7.614  -9.729  1.00  0.00     0.191 C 
BRANCH  14  15
ATOM     15  O   UNL     1      -4.121   7.661  -8.328  1.00  0.00    -0.394 OA
ATOM     16  H   UNL     1      -3.243   7.313  -8.027  1.00  0.00     0.210 HD
ENDBRANCH  14  15
ENDBRANCH   5  14
BRANCH   4  17
ATOM     17  O   UNL     1      -7.310   5.724 -10.249  1.00  0.00    -0.387 OA
ATOM     18  H   UNL     1      -7.232   5.316 -11.150  1.00  0.00     0.211 HD
ENDBRANCH   4  17
TORSDOF 7
ENDMDL
MODEL 4
REMARK VINA RESULT:    -4.477      1.699      2.953
REMARK INTER + INTRA:          -6.202
REMARK INTER:                  -6.024
REMARK INTRA:                  -0.178
REMARK UNBOUND:                -0.416
REMARK SMILES CCO[C@H]1O[C@@H](CO)[C@H](O)[C@H](O)[C@@H]1O
REMARK SMILES IDX 4 1 13 2 11 3 9 4 6 5 5 6 3 7 2 8 1 9 14 10 12 12 7 14 8 15
REMARK SMILES IDX 10 17
REMARK H PARENT 14 11 12 13 8 16 10 18
REMARK Flexibility Score: inf
ROOT
ATOM      1  C   UNL     1      -6.404   6.753 -11.599  1.00  0.00     0.281 C 
ATOM      2  C   UNL     1      -5.028   6.071 -11.520  1.00  0.00     0.202 C 
ATOM      3  C   UNL     1      -4.176   6.718 -10.416  1.00  0.00     0.179 C 
ATOM      4  C   UNL     1      -4.112   8.241 -10.615  1.00  0.00     0.177 C 
ATOM      5  C   UNL     1      -5.530   8.835 -10.791  1.00  0.00     0.178 C 
ATOM      6  O   UNL     1      -6.302   8.162 -11.783  1.00  0.00    -0.341 OA
ENDROOT
BRANCH   1   7
ATOM      7  O   UNL     1      -7.172   6.430 -10.453  1.00  0.00    -0.350 OA
BRANCH   7   8
ATOM      8  C   UNL     1      -8.535   6.287 -10.798  1.00  0.00     0.160 C 
ATOM      9  C   UNL     1      -9.007   4.899 -10.393  1.00  0.00     0.035 C 
ENDBRANCH   7   8
ENDBRANCH   1   7
BRANCH   2  10
ATOM     10  O   UNL     1      -4.389   6.172 -12.767  1.00  0.00    -0.385 OA
ATOM     11  H   UNL     1      -5.007   5.788 -13.443  1.00  0.00     0.211 HD
ENDBRANCH   2  10
BRANCH   3  12
ATOM     12  O   UNL     1      -2.877   6.182 -10.413  1.00  0.00    -0.387 OA
ATOM     13  H   UNL     1      -2.654   5.976  -9.467  1.00  0.00     0.211 HD
ENDBRANCH   3  12
BRANCH   5  14
ATOM     14  C   UNL     1      -6.293   9.013  -9.463  1.00  0.00     0.191 C 
BRANCH  14  15
ATOM     15  O   UNL     1      -5.383   9.123  -8.402  1.00  0.00    -0.394 OA
ATOM     16  H   UNL     1      -5.526   8.325  -7.831  1.00  0.00     0.210 HD
ENDBRANCH  14  15
ENDBRANCH   5  14
BRANCH   4  17
ATOM     17  O   UNL     1      -3.345   8.554 -11.752  1.00  0.00    -0.387 OA
ATOM     18  H   UNL     1      -3.806   8.157 -12.536  1.00  0.00     0.211 HD
ENDBRANCH   4  17
TORSDOF 7
ENDMDL
MODEL 5
REMARK VINA RESULT:    -4.393     11.998     13.801
REMARK INTER + INTRA:          -6.093
REMARK INTER:                  -5.693
REMARK INTRA:                  -0.400
REMARK UNBOUND:                -0.416
REMARK SMILES CCO[C@H]1O[C@@H](CO)[C@H](O)[C@H](O)[C@@H]1O
REMARK SMILES IDX 4 1 13 2 11 3 9 4 6 5 5 6 3 7 2 8 1 9 14 10 12 12 7 14 8 15
REMARK SMILES IDX 10 17
REMARK H PARENT 14 11 12 13 8 16 10 18
REMARK Flexibility Score: inf
ROOT
ATOM      1  C   UNL     1      -7.784  -3.863 -20.397  1.00  0.00     0.281 C 
ATOM      2  C   UNL     1      -6.869  -3.192 -21.435  1.00  0.00     0.202 C 
ATOM      3  C   UNL     1      -5.437  -3.074 -20.885  1.00  0.00     0.179 C 
ATOM      4  C   UNL     1      -5.449  -2.379 -19.515  1.00  0.00     0.177 C 
ATOM      5  C   UNL     1      -6.470  -3.048 -18.564  1.00  0.00     0.178 C 
ATOM      6  O   UNL     1      -7.766  -3.190 -19.141  1.00  0.00    -0.341 OA
ENDROOT
BRANCH   1   7
ATOM      7  O   UNL     1      -7.442  -5.232 -20.261  1.00  0.00    -0.350 OA
BRANCH   7   8
ATOM      8  C   UNL     1      -8.603  -6.010 -20.050  1.00  0.00     0.160 C 
ATOM      9  C   UNL     1      -8.190  -7.426 -19.677  1.00  0.00     0.035 C 
ENDBRANCH   7   8
ENDBRANCH   1   7
BRANCH   2  10
ATOM     10  O   UNL     1      -7.385  -1.926 -21.758  1.00  0.00    -0.385 OA
ATOM     11  H   UNL     1      -7.824  -2.008 -22.644  1.00  0.00     0.211 HD
ENDBRANCH   2  10
BRANCH   3  12
ATOM     12  O   UNL     1      -4.621  -2.358 -21.777  1.00  0.00    -0.387 OA
ATOM     13  H   UNL     1      -5.011  -1.448 -21.855  1.00  0.00     0.211 HD
ENDBRANCH   3  12
BRANCH   5  14
ATOM     14  C   UNL     1      -5.955  -4.355 -17.928  1.00  0.00     0.191 C 
BRANCH  14  15
ATOM     15  O   UNL     1      -7.006  -5.013 -17.273  1.00  0.00    -0.394 OA
ATOM     16  H   UNL     1      -6.587  -5.568 -16.566  1.00  0.00     0.210 HD
ENDBRANCH  14  15
ENDBRANCH   5  14
BRANCH   4  17
ATOM     17  O   UNL     1      -5.785  -1.020 -19.658  1.00  0.00    -0.387 OA
ATOM     18  H   UNL     1      -6.050  -0.881 -20.604  1.00  0.00     0.211 HD
ENDBRANCH   4  17
TORSDOF 7
ENDMDL
MODEL 6
REMARK VINA RESULT:    -4.374      1.631      3.730
REMARK INTER + INTRA:          -6.068
REMARK INTER:                  -5.692
REMARK INTRA:                  -0.376
REMARK UNBOUND:                -0.416
REMARK SMILES CCO[C@H]1O[C@@H](CO)[C@H](O)[C@H](O)[C@@H]1O
REMARK SMILES IDX 4 1 13 2 11 3 9 4 6 5 5 6 3 7 2 8 1 9 14 10 12 12 7 14 8 15
REMARK SMILES IDX 10 17
REMARK H PARENT 14 11 12 13 8 16 10 18
REMARK Flexibility Score: inf
ROOT
ATOM      1  C   UNL     1      -7.271   7.039 -12.066  1.00  0.00     0.281 C 
ATOM      2  C   UNL     1      -6.973   6.302 -13.383  1.00  0.00     0.202 C 
ATOM      3  C   UNL     1      -5.589   5.633 -13.317  1.00  0.00     0.179 C 
ATOM      4  C   UNL     1      -4.520   6.662 -12.916  1.00  0.00     0.177 C 
ATOM      5  C   UNL     1      -4.943   7.433 -11.644  1.00  0.00     0.178 C 
ATOM      6  O   UNL     1      -6.256   7.982 -11.730  1.00  0.00    -0.341 OA
ENDROOT
BRANCH   1   7
ATOM      7  O   UNL     1      -7.482   6.104 -11.023  1.00  0.00    -0.350 OA
BRANCH   7   8
ATOM      8  C   UNL     1      -8.689   5.399 -11.231  1.00  0.00     0.160 C 
ATOM      9  C   UNL     1      -9.313   5.075  -9.883  1.00  0.00     0.035 C 
ENDBRANCH   7   8
ENDBRANCH   1   7
BRANCH   2  10
ATOM     10  O   UNL     1      -7.036   7.215 -14.449  1.00  0.00    -0.385 OA
ATOM     11  H   UNL     1      -6.183   7.724 -14.447  1.00  0.00     0.211 HD
ENDBRANCH   2  10
BRANCH   3  12
ATOM     12  O   UNL     1      -5.258   5.057 -14.554  1.00  0.00    -0.387 OA
ATOM     13  H   UNL     1      -4.961   4.127 -14.367  1.00  0.00     0.211 HD
ENDBRANCH   3  12
BRANCH   5  14
ATOM     14  C   UNL     1      -4.713   6.644 -10.339  1.00  0.00     0.191 C 
BRANCH  14  15
ATOM     15  O   UNL     1      -5.268   7.340  -9.257  1.00  0.00    -0.394 OA
ATOM     16  H   UNL     1      -5.136   8.304  -9.451  1.00  0.00     0.210 HD
ENDBRANCH  14  15
ENDBRANCH   5  14
BRANCH   4  17
ATOM     17  O   UNL     1      -4.312   7.584 -13.958  1.00  0.00    -0.387 OA
ATOM     18  H   UNL     1      -4.864   8.384 -13.757  1.00  0.00     0.211 HD
ENDBRANCH   4  17
TORSDOF 7
ENDMDL
MODEL 7
REMARK VINA RESULT:    -4.151      1.580      3.350
REMARK INTER + INTRA:          -5.780
REMARK INTER:                  -5.538
REMARK INTRA:                  -0.242
REMARK UNBOUND:                -0.416
REMARK SMILES CCO[C@H]1O[C@@H](CO)[C@H](O)[C@H](O)[C@@H]1O
REMARK SMILES IDX 4 1 13 2 11 3 9 4 6 5 5 6 3 7 2 8 1 9 14 10 12 12 7 14 8 15
REMARK SMILES IDX 10 17
REMARK H PARENT 14 11 12 13 8 16 10 18
REMARK Flexibility Score: inf
ROOT
ATOM      1  C   UNL     1      -5.935   6.173 -11.338  1.00  0.00     0.281 C 
ATOM      2  C   UNL     1      -5.656   7.094 -10.139  1.00  0.00     0.202 C 
ATOM      3  C   UNL     1      -4.867   8.334 -10.592  1.00  0.00     0.179 C 
ATOM      4  C   UNL     1      -3.608   7.910 -11.366  1.00  0.00     0.177 C 
ATOM      5  C   UNL     1      -3.961   6.903 -12.487  1.00  0.00     0.178 C 
ATOM      6  O   UNL     1      -4.744   5.804 -12.029  1.00  0.00    -0.341 OA
ENDROOT
BRANCH   1   7
ATOM      7  O   UNL     1      -6.876   6.778 -12.207  1.00  0.00    -0.350 OA
BRANCH   7   8
ATOM      8  C   UNL     1      -8.104   6.983 -11.537  1.00  0.00     0.160 C 
ATOM      9  C   UNL     1      -8.681   5.634 -11.136  1.00  0.00     0.035 C 
ENDBRANCH   7   8
ENDBRANCH   1   7
BRANCH   2  10
ATOM     10  O   UNL     1      -4.943   6.379  -9.162  1.00  0.00    -0.385 OA
ATOM     11  H   UNL     1      -4.847   6.977  -8.375  1.00  0.00     0.211 HD
ENDBRANCH   2  10
BRANCH   3  12
ATOM     12  O   UNL     1      -4.505   9.123  -9.488  1.00  0.00    -0.387 OA
ATOM     13  H   UNL     1      -3.512   9.133  -9.455  1.00  0.00     0.211 HD
ENDBRANCH   3  12
BRANCH   5  14
ATOM     14  C   UNL     1      -4.548   7.567 -13.749  1.00  0.00     0.191 C 
BRANCH  14  15
ATOM     15  O   UNL     1      -4.767   6.598 -14.739  1.00  0.00    -0.394 OA
ATOM     16  H   UNL     1      -4.388   6.969 -15.577  1.00  0.00     0.210 HD
ENDBRANCH  14  15
ENDBRANCH   5  14
BRANCH   4  17
ATOM     17  O   UNL     1      -2.676   7.314 -10.497  1.00  0.00    -0.387 OA
ATOM     18  H   UNL     1      -1.845   7.163 -11.017  1.00  0.00     0.211 HD
ENDBRANCH   4  17
TORSDOF 7
ENDMDL
MODEL 8
REMARK VINA RESULT:    -3.837      1.815      4.669
REMARK INTER + INTRA:          -5.375
REMARK INTER:                  -4.938
REMARK INTRA:                  -0.436
REMARK UNBOUND:                -0.416
REMARK SMILES CCO[C@H]1O[C@@H](CO)[C@H](O)[C@H](O)[C@@H]1O
REMARK SMILES IDX 4 1 13 2 11 3 9 4 6 5 5 6 3 7 2 8 1 9 14 10 12 12 7 14 8 15
REMARK SMILES IDX 10 17
REMARK H PARENT 14 11 12 13 8 16 10 18
REMARK Flexibility Score: inf
ROOT
ATOM      1  C   UNL     1      -5.367   7.301 -12.196  1.00  0.00     0.281 C 
ATOM      2  C   UNL     1      -6.015   6.434 -13.289  1.00  0.00     0.202 C 
ATOM      3  C   UNL     1      -4.937   5.872 -14.231  1.00  0.00     0.179 C 
ATOM      4  C   UNL     1      -4.055   7.009 -14.770  1.00  0.00     0.177 C 
ATOM      5  C   UNL     1      -3.529   7.896 -13.617  1.00  0.00     0.178 C 
ATOM      6  O   UNL     1      -4.558   8.342 -12.737  1.00  0.00    -0.341 OA
ENDROOT
BRANCH   1   7
ATOM      7  O   UNL     1      -4.637   6.484 -11.298  1.00  0.00    -0.350 OA
BRANCH   7   8
ATOM      8  C   UNL     1      -5.128   6.638  -9.982  1.00  0.00     0.160 C 
ATOM      9  C   UNL     1      -4.163   7.508  -9.190  1.00  0.00     0.035 C 
ENDBRANCH   7   8
ENDBRANCH   1   7
BRANCH   2  10
ATOM     10  O   UNL     1      -6.946   7.208 -14.003  1.00  0.00    -0.385 OA
ATOM     11  H   UNL     1      -6.683   8.159 -13.887  1.00  0.00     0.211 HD
ENDBRANCH   2  10
BRANCH   3  12
ATOM     12  O   UNL     1      -5.526   5.176 -15.299  1.00  0.00    -0.387 OA
ATOM     13  H   UNL     1      -6.503   5.350 -15.251  1.00  0.00     0.211 HD
ENDBRANCH   3  12
BRANCH   5  14
ATOM     14  C   UNL     1      -2.329   7.283 -12.867  1.00  0.00     0.191 C 
BRANCH  14  15
ATOM     15  O   UNL     1      -1.987   8.093 -11.774  1.00  0.00    -0.394 OA
ATOM     16  H   UNL     1      -1.032   8.332 -11.897  1.00  0.00     0.210 HD
ENDBRANCH  14  15
ENDBRANCH   5  14
BRANCH   4  17
ATOM     17  O   UNL     1      -4.786   7.813 -15.664  1.00  0.00    -0.387 OA
ATOM     18  H   UNL     1      -4.776   8.737 -15.303  1.00  0.00     0.211 HD
ENDBRANCH   4  17
TORSDOF 7
ENDMDL
MODEL 9
REMARK VINA RESULT:    -3.800      2.021      4.237
REMARK INTER + INTRA:          -5.326
REMARK INTER:                  -4.915
REMARK INTRA:                  -0.411
REMARK UNBOUND:                -0.416
REMARK SMILES CCO[C@H]1O[C@@H](CO)[C@H](O)[C@H](O)[C@@H]1O
REMARK SMILES IDX 4 1 13 2 11 3 9 4 6 5 5 6 3 7 2 8 1 9 14 10 12 12 7 14 8 15
REMARK SMILES IDX 10 17
REMARK H PARENT 14 11 12 13 8 16 10 18
REMARK Flexibility Score: inf
ROOT
ATOM      1  C   UNL     1      -4.338   7.004 -12.665  1.00  0.00     0.281 C 
ATOM      2  C   UNL     1      -3.540   7.825 -13.692  1.00  0.00     0.202 C 
ATOM      3  C   UNL     1      -4.367   8.023 -14.973  1.00  0.00     0.179 C 
ATOM      4  C   UNL     1      -4.864   6.667 -15.501  1.00  0.00     0.177 C 
ATOM      5  C   UNL     1      -5.562   5.860 -14.380  1.00  0.00     0.178 C 
ATOM      6  O   UNL     1      -4.781   5.757 -13.192  1.00  0.00    -0.341 OA
ENDROOT
BRANCH   1   7
ATOM      7  O   UNL     1      -5.417   7.772 -12.163  1.00  0.00    -0.350 OA
BRANCH   7   8
ATOM      8  C   UNL     1      -5.251   8.008 -10.779  1.00  0.00     0.160 C 
ATOM      9  C   UNL     1      -5.529   6.721 -10.019  1.00  0.00     0.035 C 
ENDBRANCH   7   8
ENDBRANCH   1   7
BRANCH   2  10
ATOM     10  O   UNL     1      -2.332   7.164 -13.975  1.00  0.00    -0.385 OA
ATOM     11  H   UNL     1      -2.483   6.619 -14.791  1.00  0.00     0.211 HD
ENDBRANCH   2  10
BRANCH   3  12
ATOM     12  O   UNL     1      -3.605   8.669 -15.961  1.00  0.00    -0.387 OA
ATOM     13  H   UNL     1      -2.848   8.065 -16.180  1.00  0.00     0.211 HD
ENDBRANCH   3  12
BRANCH   5  14
ATOM     14  C   UNL     1      -7.009   6.315 -14.103  1.00  0.00     0.191 C 
BRANCH  14  15
ATOM     15  O   UNL     1      -7.454   5.773 -12.889  1.00  0.00    -0.394 OA
ATOM     16  H   UNL     1      -7.749   6.542 -12.335  1.00  0.00     0.210 HD
ENDBRANCH  14  15
ENDBRANCH   5  14
BRANCH   4  17
ATOM     17  O   UNL     1      -3.788   5.912 -16.002  1.00  0.00    -0.387 OA
ATOM     18  H   UNL     1      -4.093   5.490 -16.846  1.00  0.00     0.211 HD
ENDBRANCH   4  17
TORSDOF 7
ENDMDL
