MODEL 1
REMARK VINA RESULT:    -3.494      0.000      0.000
REMARK INTER + INTRA:          -4.050
REMARK INTER:                  -4.004
REMARK INTRA:                  -0.046
REMARK UNBOUND:                -0.046
REMARK SMILES O=C([O-])c1cc(O)c(O)c(O)c1
REMARK SMILES IDX 4 1 5 2 12 3 6 4 10 5 8 6 2 7 1 8 3 9 7 10 11 12 9 14
REMARK H PARENT 7 11 11 13 9 15
REMARK Flexibility Score: inf
ROOT
ATOM      1  C   UNL     1      15.138  15.440  18.625  1.00  0.00     0.005 A 
ATOM      2  C   UNL     1      13.947  15.854  18.009  1.00  0.00     0.060 A 
ATOM      3  C   UNL     1      15.912  14.443  18.012  1.00  0.00     0.060 A 
ATOM      4  C   UNL     1      13.536  15.281  16.798  1.00  0.00     0.162 A 
ATOM      5  C   UNL     1      15.512  13.862  16.802  1.00  0.00     0.162 A 
ATOM      6  C   UNL     1      14.310  14.285  16.188  1.00  0.00     0.200 A 
ENDROOT
BRANCH   1   7
ATOM      7  C   UNL     1      15.567  16.050  19.904  1.00  0.00     0.072 C 
ATOM      8  O   UNL     1      15.592  15.368  20.963  1.00  0.00    -0.545 OA
ATOM      9  O   UNL     1      15.951  17.386  19.955  1.00  0.00    -0.545 OA
ENDBRANCH   1   7
BRANCH   4  10
ATOM     10  O   UNL     1      12.351  15.698  16.193  1.00  0.00    -0.504 OA
ATOM     11  H   UNL     1      11.449  15.344  16.491  1.00  0.00     0.293 HD
ENDBRANCH   4  10
BRANCH   5  12
ATOM     12  O   UNL     1      16.335  12.876  16.252  1.00  0.00    -0.504 OA
ATOM     13  H   UNL     1      16.826  12.973  15.375  1.00  0.00     0.293 HD
ENDBRANCH   5  12
BRANCH   6  14
ATOM     14  O   UNL     1      13.854  13.747  14.981  1.00  0.00    -0.502 OA
ATOM     15  H   UNL     1      13.864  12.762  14.761  1.00  0.00     0.293 HD
ENDBRANCH   6  14
TORSDOF 4
ENDMDL
MODEL 2
REMARK VINA RESULT:    -3.485      0.125      2.438
REMARK INTER + INTRA:          -4.040
REMARK INTER:                  -3.994
REMARK INTRA:                  -0.046
REMARK UNBOUND:                -0.046
REMARK SMILES O=C([O-])c1cc(O)c(O)c(O)c1
REMARK SMILES IDX 4 1 5 2 12 3 6 4 10 5 8 6 2 7 1 8 3 9 7 10 11 12 9 14
REMARK H PARENT 7 11 11 13 9 15
REMARK Flexibility Score: inf
ROOT
ATOM      1  C   UNL     1      15.091  15.449  18.573  1.00  0.00     0.005 A 
ATOM      2  C   UNL     1      15.837  14.445  17.938  1.00  0.00     0.060 A 
ATOM      3  C   UNL     1      13.886  15.874  17.992  1.00  0.00     0.060 A 
ATOM      4  C   UNL     1      15.386  13.873  16.741  1.00  0.00     0.162 A 
ATOM      5  C   UNL     1      13.424  15.310  16.796  1.00  0.00     0.162 A 
ATOM      6  C   UNL     1      14.183  14.298  16.162  1.00  0.00     0.200 A 
ENDROOT
BRANCH   1   7
ATOM      7  C   UNL     1      15.572  16.049  19.838  1.00  0.00     0.072 C 
ATOM      8  O   UNL     1      15.611  15.368  20.897  1.00  0.00    -0.545 OA
ATOM      9  O   UNL     1      15.989  17.375  19.875  1.00  0.00    -0.545 OA
ENDBRANCH   1   7
BRANCH   4  10
ATOM     10  O   UNL     1      16.135  12.875  16.117  1.00  0.00    -0.504 OA
ATOM     11  H   UNL     1      16.872  12.379  16.605  1.00  0.00     0.293 HD
ENDBRANCH   4  10
BRANCH   5  12
ATOM     12  O   UNL     1      12.216  15.783  16.278  1.00  0.00    -0.504 OA
ATOM     13  H   UNL     1      12.106  16.146  15.342  1.00  0.00     0.293 HD
ENDBRANCH   5  12
BRANCH   6  14
ATOM     14  O   UNL     1      13.780  13.694  14.967  1.00  0.00    -0.502 OA
ATOM     15  H   UNL     1      13.746  14.168  14.077  1.00  0.00     0.293 HD
ENDBRANCH   6  14
TORSDOF 4
ENDMDL
MODEL 3
REMARK VINA RESULT:    -3.267     12.299     13.279
REMARK INTER + INTRA:          -3.790
REMARK INTER:                  -3.737
REMARK INTRA:                  -0.052
REMARK UNBOUND:                -0.046
REMARK SMILES O=C([O-])c1cc(O)c(O)c(O)c1
REMARK SMILES IDX 4 1 5 2 12 3 6 4 10 5 8 6 2 7 1 8 3 9 7 10 11 12 9 14
REMARK H PARENT 7 11 11 13 9 15
REMARK Flexibility Score: inf
ROOT
ATOM      1  C   UNL     1      16.862  28.350  16.178  1.00  0.00     0.005 A 
ATOM      2  C   UNL     1      16.597  26.976  16.279  1.00  0.00     0.060 A 
ATOM      3  C   UNL     1      17.033  28.920  14.907  1.00  0.00     0.060 A 
ATOM      4  C   UNL     1      16.504  26.183  15.128  1.00  0.00     0.162 A 
ATOM      5  C   UNL     1      16.943  28.139  13.748  1.00  0.00     0.162 A 
ATOM      6  C   UNL     1      16.676  26.754  13.859  1.00  0.00     0.200 A 
ENDROOT
BRANCH   1   7
ATOM      7  C   UNL     1      16.959  29.183  17.399  1.00  0.00     0.072 C 
ATOM      8  O   UNL     1      17.125  28.648  18.528  1.00  0.00    -0.545 OA
ATOM      9  O   UNL     1      16.868  30.568  17.317  1.00  0.00    -0.545 OA
ENDBRANCH   1   7
BRANCH   4  10
ATOM     10  O   UNL     1      16.240  24.818  15.237  1.00  0.00    -0.504 OA
ATOM     11  H   UNL     1      16.835  24.204  15.782  1.00  0.00     0.293 HD
ENDBRANCH   4  10
BRANCH   5  12
ATOM     12  O   UNL     1      17.125  28.776  12.519  1.00  0.00    -0.504 OA
ATOM     13  H   UNL     1      16.389  29.243  12.010  1.00  0.00     0.293 HD
ENDBRANCH   5  12
BRANCH   6  14
ATOM     14  O   UNL     1      16.573  25.918  12.744  1.00  0.00    -0.502 OA
ATOM     15  H   UNL     1      16.174  24.990  12.767  1.00  0.00     0.293 HD
ENDBRANCH   6  14
TORSDOF 4
ENDMDL
MODEL 4
REMARK VINA RESULT:    -3.240     12.380     13.289
REMARK INTER + INTRA:          -3.759
REMARK INTER:                  -3.708
REMARK INTRA:                  -0.052
REMARK UNBOUND:                -0.046
REMARK SMILES O=C([O-])c1cc(O)c(O)c(O)c1
REMARK SMILES IDX 4 1 5 2 12 3 6 4 10 5 8 6 2 7 1 8 3 9 7 10 11 12 9 14
REMARK H PARENT 7 11 11 13 9 15
REMARK Flexibility Score: inf
ROOT
ATOM      1  C   UNL     1      16.786  28.444  16.112  1.00  0.00     0.005 A 
ATOM      2  C   UNL     1      17.003  28.979  14.833  1.00  0.00     0.060 A 
ATOM      3  C   UNL     1      16.473  27.081  16.236  1.00  0.00     0.060 A 
ATOM      4  C   UNL     1      16.908  28.166  13.696  1.00  0.00     0.162 A 
ATOM      5  C   UNL     1      16.375  26.258  15.108  1.00  0.00     0.162 A 
ATOM      6  C   UNL     1      16.595  26.806  13.822  1.00  0.00     0.200 A 
ENDROOT
BRANCH   1   7
ATOM      7  C   UNL     1      16.888  29.308  17.309  1.00  0.00     0.072 C 
ATOM      8  O   UNL     1      17.097  28.806  18.446  1.00  0.00    -0.545 OA
ATOM      9  O   UNL     1      16.754  30.688  17.197  1.00  0.00    -0.545 OA
ENDBRANCH   1   7
BRANCH   4  10
ATOM     10  O   UNL     1      17.125  28.707  12.429  1.00  0.00    -0.504 OA
ATOM     11  H   UNL     1      17.659  28.211  11.723  1.00  0.00     0.293 HD
ENDBRANCH   4  10
BRANCH   5  12
ATOM     12  O   UNL     1      16.060  24.913  15.311  1.00  0.00    -0.504 OA
ATOM     13  H   UNL     1      15.282  24.442  14.871  1.00  0.00     0.293 HD
ENDBRANCH   5  12
BRANCH   6  14
ATOM     14  O   UNL     1      16.513  26.041  12.656  1.00  0.00    -0.502 OA
ATOM     15  H   UNL     1      16.482  26.429  11.724  1.00  0.00     0.293 HD
ENDBRANCH   6  14
TORSDOF 4
ENDMDL
MODEL 5
REMARK VINA RESULT:    -3.153      1.317      4.449
REMARK INTER + INTRA:          -3.660
REMARK INTER:                  -3.615
REMARK INTRA:                  -0.045
REMARK UNBOUND:                -0.046
REMARK SMILES O=C([O-])c1cc(O)c(O)c(O)c1
REMARK SMILES IDX 4 1 5 2 12 3 6 4 10 5 8 6 2 7 1 8 3 9 7 10 11 12 9 14
REMARK H PARENT 7 11 11 13 9 15
REMARK Flexibility Score: inf
ROOT
ATOM      1  C   UNL     1      14.489  14.767  18.140  1.00  0.00     0.005 A 
ATOM      2  C   UNL     1      14.894  16.070  18.467  1.00  0.00     0.060 A 
ATOM      3  C   UNL     1      14.755  13.723  19.040  1.00  0.00     0.060 A 
ATOM      4  C   UNL     1      15.554  16.326  19.676  1.00  0.00     0.162 A 
ATOM      5  C   UNL     1      15.414  13.966  20.251  1.00  0.00     0.162 A 
ATOM      6  C   UNL     1      15.820  15.283  20.574  1.00  0.00     0.200 A 
ENDROOT
BRANCH   1   7
ATOM      7  C   UNL     1      13.791  14.502  16.861  1.00  0.00     0.072 C 
ATOM      8  O   UNL     1      14.396  13.952  15.902  1.00  0.00    -0.545 OA
ATOM      9  O   UNL     1      12.456  14.857  16.699  1.00  0.00    -0.545 OA
ENDBRANCH   1   7
BRANCH   4  10
ATOM     10  O   UNL     1      15.953  17.624  19.994  1.00  0.00    -0.504 OA
ATOM     11  H   UNL     1      16.822  17.809  20.483  1.00  0.00     0.293 HD
ENDBRANCH   4  10
BRANCH   5  12
ATOM     12  O   UNL     1      15.644  12.878  21.095  1.00  0.00    -0.504 OA
ATOM     13  H   UNL     1      16.424  12.244  21.000  1.00  0.00     0.293 HD
ENDBRANCH   5  12
BRANCH   6  14
ATOM     14  O   UNL     1      16.482  15.594  21.764  1.00  0.00    -0.502 OA
ATOM     15  H   UNL     1      16.181  16.311  22.409  1.00  0.00     0.293 HD
ENDBRANCH   6  14
TORSDOF 4
ENDMDL
MODEL 6
REMARK VINA RESULT:    -3.147      1.335      4.818
REMARK INTER + INTRA:          -3.653
REMARK INTER:                  -3.607
REMARK INTRA:                  -0.046
REMARK UNBOUND:                -0.046
REMARK SMILES O=C([O-])c1cc(O)c(O)c(O)c1
REMARK SMILES IDX 4 1 5 2 12 3 6 4 10 5 8 6 2 7 1 8 3 9 7 10 11 12 9 14
REMARK H PARENT 7 11 11 13 9 15
REMARK Flexibility Score: inf
ROOT
ATOM      1  C   UNL     1      14.532  14.777  18.234  1.00  0.00     0.005 A 
ATOM      2  C   UNL     1      14.849  13.710  19.087  1.00  0.00     0.060 A 
ATOM      3  C   UNL     1      14.879  16.083  18.616  1.00  0.00     0.060 A 
ATOM      4  C   UNL     1      15.503  13.943  20.304  1.00  0.00     0.162 A 
ATOM      5  C   UNL     1      15.533  16.328  19.830  1.00  0.00     0.162 A 
ATOM      6  C   UNL     1      15.849  15.247  20.685  1.00  0.00     0.200 A 
ENDROOT
BRANCH   1   7
ATOM      7  C   UNL     1      13.841  14.525  16.949  1.00  0.00     0.072 C 
ATOM      8  O   UNL     1      14.420  13.896  16.022  1.00  0.00    -0.545 OA
ATOM      9  O   UNL     1      12.542  14.978  16.746  1.00  0.00    -0.545 OA
ENDBRANCH   1   7
BRANCH   4  10
ATOM     10  O   UNL     1      15.814  12.876  21.147  1.00  0.00    -0.504 OA
ATOM     11  H   UNL     1      16.433  12.989  21.942  1.00  0.00     0.293 HD
ENDBRANCH   4  10
BRANCH   5  12
ATOM     12  O   UNL     1      15.846  17.653  20.142  1.00  0.00    -0.504 OA
ATOM     13  H   UNL     1      15.254  18.260  20.690  1.00  0.00     0.293 HD
ENDBRANCH   5  12
BRANCH   6  14
ATOM     14  O   UNL     1      16.500  15.422  21.909  1.00  0.00    -0.502 OA
ATOM     15  H   UNL     1      17.501  15.499  22.012  1.00  0.00     0.293 HD
ENDBRANCH   6  14
TORSDOF 4
ENDMDL
MODEL 7
REMARK VINA RESULT:    -3.082      2.146      5.123
REMARK INTER + INTRA:          -3.578
REMARK INTER:                  -3.526
REMARK INTRA:                  -0.052
REMARK UNBOUND:                -0.046
REMARK SMILES O=C([O-])c1cc(O)c(O)c(O)c1
REMARK SMILES IDX 4 1 5 2 12 3 6 4 10 5 8 6 2 7 1 8 3 9 7 10 11 12 9 14
REMARK H PARENT 7 11 11 13 9 15
REMARK Flexibility Score: inf
ROOT
ATOM      1  C   UNL     1      15.376  15.266  19.645  1.00  0.00     0.005 A 
ATOM      2  C   UNL     1      15.193  16.608  20.009  1.00  0.00     0.060 A 
ATOM      3  C   UNL     1      15.647  14.319  20.646  1.00  0.00     0.060 A 
ATOM      4  C   UNL     1      15.278  16.999  21.352  1.00  0.00     0.162 A 
ATOM      5  C   UNL     1      15.735  14.697  21.992  1.00  0.00     0.162 A 
ATOM      6  C   UNL     1      15.549  16.053  22.350  1.00  0.00     0.200 A 
ENDROOT
BRANCH   1   7
ATOM      7  C   UNL     1      15.285  14.858  18.225  1.00  0.00     0.072 C 
ATOM      8  O   UNL     1      15.171  13.642  17.913  1.00  0.00    -0.545 OA
ATOM      9  O   UNL     1      15.323  15.811  17.214  1.00  0.00    -0.545 OA
ENDBRANCH   1   7
BRANCH   4  10
ATOM     10  O   UNL     1      15.094  18.336  21.704  1.00  0.00    -0.504 OA
ATOM     11  H   UNL     1      15.378  19.092  21.090  1.00  0.00     0.293 HD
ENDBRANCH   4  10
BRANCH   5  12
ATOM     12  O   UNL     1      16.007  13.700  22.930  1.00  0.00    -0.504 OA
ATOM     13  H   UNL     1      16.403  12.800  22.700  1.00  0.00     0.293 HD
ENDBRANCH   5  12
BRANCH   6  14
ATOM     14  O   UNL     1      15.623  16.498  23.672  1.00  0.00    -0.502 OA
ATOM     15  H   UNL     1      16.380  16.276  24.303  1.00  0.00     0.293 HD
ENDBRANCH   6  14
TORSDOF 4
ENDMDL
MODEL 8
REMARK VINA RESULT:    -2.934      4.433      5.982
REMARK INTER + INTRA:          -3.409
REMARK INTER:                  -3.358
REMARK INTRA:                  -0.050
REMARK UNBOUND:                -0.046
REMARK SMILES O=C([O-])c1cc(O)c(O)c(O)c1
REMARK SMILES IDX 4 1 5 2 12 3 6 4 10 5 8 6 2 7 1 8 3 9 7 10 11 12 9 14
REMARK H PARENT 7 11 11 13 9 15
REMARK Flexibility Score: inf
ROOT
ATOM      1  C   UNL     1      16.211  16.391  22.273  1.00  0.00     0.005 A 
ATOM      2  C   UNL     1      16.121  17.552  23.055  1.00  0.00     0.060 A 
ATOM      3  C   UNL     1      16.503  16.511  20.905  1.00  0.00     0.060 A 
ATOM      4  C   UNL     1      16.319  18.815  22.480  1.00  0.00     0.162 A 
ATOM      5  C   UNL     1      16.703  17.767  20.318  1.00  0.00     0.162 A 
ATOM      6  C   UNL     1      16.609  18.933  21.114  1.00  0.00     0.200 A 
ENDROOT
BRANCH   1   7
ATOM      7  C   UNL     1      16.002  15.060  22.887  1.00  0.00     0.072 C 
ATOM      8  O   UNL     1      15.509  14.115  22.214  1.00  0.00    -0.545 OA
ATOM      9  O   UNL     1      16.345  14.834  24.215  1.00  0.00    -0.545 OA
ENDBRANCH   1   7
BRANCH   4  10
ATOM     10  O   UNL     1      16.226  19.964  23.265  1.00  0.00    -0.504 OA
ATOM     11  H   UNL     1      15.356  20.476  23.358  1.00  0.00     0.293 HD
ENDBRANCH   4  10
BRANCH   5  12
ATOM     12  O   UNL     1      16.989  17.807  18.952  1.00  0.00    -0.504 OA
ATOM     13  H   UNL     1      17.922  17.769  18.569  1.00  0.00     0.293 HD
ENDBRANCH   5  12
BRANCH   6  14
ATOM     14  O   UNL     1      16.797  20.215  20.592  1.00  0.00    -0.502 OA
ATOM     15  H   UNL     1      16.808  21.057  21.149  1.00  0.00     0.293 HD
ENDBRANCH   6  14
TORSDOF 4
ENDMDL
