MODEL 1
REMARK VINA RESULT:    -4.070      0.000      0.000
REMARK INTER + INTRA:          -6.373
REMARK INTER:                  -5.974
REMARK INTRA:                  -0.399
REMARK UNBOUND:                -0.399
REMARK SMILES O=C([O-])CCCCCCCC(=O)[O-]
REMARK SMILES IDX 7 1 6 2 5 3 4 4 2 5 1 6 3 7 8 8 9 9 10 10 11 11 12 12 13 13
REMARK H PARENT
REMARK Flexibility Score: inf
ROOT
ATOM      1  C   UNL     1       8.592 -19.087  31.590  1.00  0.00     0.000 C 
ENDROOT
BRANCH   1   2
ATOM      2  C   UNL     1      10.105 -19.327  31.431  1.00  0.00     0.000 C 
BRANCH   2   3
ATOM      3  C   UNL     1      10.482 -20.545  30.567  1.00  0.00     0.006 C 
BRANCH   3   4
ATOM      4  C   UNL     1       9.362 -20.967  29.608  1.00  0.00     0.053 C 
BRANCH   4   5
ATOM      5  C   UNL     1       9.629 -20.444  28.231  1.00  0.00     0.041 C 
ATOM      6  O   UNL     1      10.250 -21.151  27.395  1.00  0.00    -0.550 OA
ATOM      7  O   UNL     1       9.235 -19.157  27.888  1.00  0.00    -0.550 OA
ENDBRANCH   4   5
ENDBRANCH   3   4
ENDBRANCH   2   3
ENDBRANCH   1   2
BRANCH   1   8
ATOM      8  C   UNL     1       8.260 -18.048  32.672  1.00  0.00     0.000 C 
BRANCH   8   9
ATOM      9  C   UNL     1       9.528 -17.593  33.405  1.00  0.00     0.006 C 
BRANCH   9  10
ATOM     10  C   UNL     1       9.216 -17.207  34.854  1.00  0.00     0.053 C 
BRANCH  10  11
ATOM     11  C   UNL     1       9.791 -15.863  35.172  1.00  0.00     0.041 C 
ATOM     12  O   UNL     1       9.698 -14.921  34.343  1.00  0.00    -0.550 OA
ATOM     13  O   UNL     1      10.388 -15.637  36.406  1.00  0.00    -0.550 OA
ENDBRANCH  10  11
ENDBRANCH   9  10
ENDBRANCH   8   9
ENDBRANCH   1   8
TORSDOF 8
ENDMDL
MODEL 2
REMARK VINA RESULT:    -4.016      0.500      6.932
REMARK INTER + INTRA:          -6.294
REMARK INTER:                  -5.940
REMARK INTRA:                  -0.354
REMARK UNBOUND:                -0.399
REMARK SMILES O=C([O-])CCCCCCCC(=O)[O-]
REMARK SMILES IDX 7 1 6 2 5 3 4 4 2 5 1 6 3 7 8 8 9 9 10 10 11 11 12 12 13 13
REMARK H PARENT
REMARK Flexibility Score: inf
ROOT
ATOM      1  C   UNL     1       8.658 -19.012  31.627  1.00  0.00     0.000 C 
ENDROOT
BRANCH   1   2
ATOM      2  C   UNL     1       8.372 -17.912  32.665  1.00  0.00     0.000 C 
BRANCH   2   3
ATOM      3  C   UNL     1       9.565 -17.541  33.565  1.00  0.00     0.006 C 
BRANCH   3   4
ATOM      4  C   UNL     1       9.142 -17.130  34.980  1.00  0.00     0.053 C 
BRANCH   4   5
ATOM      5  C   UNL     1       9.718 -15.793  35.330  1.00  0.00     0.041 C 
ATOM      6  O   UNL     1      10.665 -15.315  34.652  1.00  0.00    -0.550 OA
ATOM      7  O   UNL     1       9.242 -15.099  36.434  1.00  0.00    -0.550 OA
ENDBRANCH   4   5
ENDBRANCH   3   4
ENDBRANCH   2   3
ENDBRANCH   1   2
BRANCH   1   8
ATOM      8  C   UNL     1      10.157 -19.190  31.340  1.00  0.00     0.000 C 
BRANCH   8   9
ATOM      9  C   UNL     1      10.421 -20.503  30.593  1.00  0.00     0.006 C 
BRANCH   9  10
ATOM     10  C   UNL     1       9.320 -20.783  29.567  1.00  0.00     0.053 C 
BRANCH  10  11
ATOM     11  C   UNL     1       9.750 -20.342  28.204  1.00  0.00     0.041 C 
ATOM     12  O   UNL     1       9.688 -19.126  27.882  1.00  0.00    -0.550 OA
ATOM     13  O   UNL     1      10.264 -21.265  27.304  1.00  0.00    -0.550 OA
ENDBRANCH  10  11
ENDBRANCH   9  10
ENDBRANCH   8   9
ENDBRANCH   1   8
TORSDOF 8
ENDMDL
MODEL 3
REMARK VINA RESULT:    -4.000      1.349      6.650
REMARK INTER + INTRA:          -6.269
REMARK INTER:                  -5.731
REMARK INTRA:                  -0.538
REMARK UNBOUND:                -0.399
REMARK SMILES O=C([O-])CCCCCCCC(=O)[O-]
REMARK SMILES IDX 7 1 6 2 5 3 4 4 2 5 1 6 3 7 8 8 9 9 10 10 11 11 12 12 13 13
REMARK H PARENT
REMARK Flexibility Score: inf
ROOT
ATOM      1  C   UNL     1      10.265 -17.399  31.693  1.00  0.00     0.000 C 
ENDROOT
BRANCH   1   2
ATOM      2  C   UNL     1       9.545 -18.076  32.873  1.00  0.00     0.000 C 
BRANCH   2   3
ATOM      3  C   UNL     1       8.759 -17.120  33.789  1.00  0.00     0.006 C 
BRANCH   3   4
ATOM      4  C   UNL     1       9.334 -17.044  35.208  1.00  0.00     0.053 C 
BRANCH   4   5
ATOM      5  C   UNL     1      10.033 -15.737  35.418  1.00  0.00     0.041 C 
ATOM      6  O   UNL     1       9.811 -15.059  36.455  1.00  0.00    -0.550 OA
ATOM      7  O   UNL     1      10.893 -15.244  34.445  1.00  0.00    -0.550 OA
ENDBRANCH   4   5
ENDBRANCH   3   4
ENDBRANCH   2   3
ENDBRANCH   1   2
BRANCH   1   8
ATOM      8  C   UNL     1      10.964 -18.401  30.762  1.00  0.00     0.000 C 
BRANCH   8   9
ATOM      9  C   UNL     1      10.721 -19.843  31.223  1.00  0.00     0.006 C 
BRANCH   9  10
ATOM     10  C   UNL     1      10.173 -20.701  30.079  1.00  0.00     0.053 C 
BRANCH  10  11
ATOM     11  C   UNL     1       8.769 -20.303  29.753  1.00  0.00     0.041 C 
ATOM     12  O   UNL     1       7.883 -20.312  30.647  1.00  0.00    -0.550 OA
ATOM     13  O   UNL     1       8.447 -19.876  28.471  1.00  0.00    -0.550 OA
ENDBRANCH  10  11
ENDBRANCH   9  10
ENDBRANCH   8   9
ENDBRANCH   1   8
TORSDOF 8
ENDMDL
MODEL 4
REMARK VINA RESULT:    -3.905      1.396      1.862
REMARK INTER + INTRA:          -6.130
REMARK INTER:                  -5.614
REMARK INTRA:                  -0.515
REMARK UNBOUND:                -0.399
REMARK SMILES O=C([O-])CCCCCCCC(=O)[O-]
REMARK SMILES IDX 7 1 6 2 5 3 4 4 2 5 1 6 3 7 8 8 9 9 10 10 11 11 12 12 13 13
REMARK H PARENT
REMARK Flexibility Score: inf
ROOT
ATOM      1  C   UNL     1      10.183 -17.205  31.914  1.00  0.00     0.000 C 
ENDROOT
BRANCH   1   2
ATOM      2  C   UNL     1      10.867 -18.180  30.939  1.00  0.00     0.000 C 
BRANCH   2   3
ATOM      3  C   UNL     1      10.763 -19.666  31.327  1.00  0.00     0.006 C 
BRANCH   3   4
ATOM      4  C   UNL     1      10.193 -20.540  30.203  1.00  0.00     0.053 C 
BRANCH   4   5
ATOM      5  C   UNL     1       8.806 -20.100  29.852  1.00  0.00     0.041 C 
ATOM      6  O   UNL     1       8.542 -19.712  28.684  1.00  0.00    -0.550 OA
ATOM      7  O   UNL     1       7.818 -20.072  30.827  1.00  0.00    -0.550 OA
ENDBRANCH   4   5
ENDBRANCH   3   4
ENDBRANCH   2   3
ENDBRANCH   1   2
BRANCH   1   8
ATOM      8  C   UNL     1       9.446 -17.918  33.057  1.00  0.00     0.000 C 
BRANCH   8   9
ATOM      9  C   UNL     1       8.810 -16.905  34.018  1.00  0.00     0.006 C 
BRANCH   9  10
ATOM     10  C   UNL     1       9.598 -16.822  35.328  1.00  0.00     0.053 C 
BRANCH  10  11
ATOM     11  C   UNL     1       9.955 -15.402  35.634  1.00  0.00     0.041 C 
ATOM     12  O   UNL     1       9.424 -14.810  36.610  1.00  0.00    -0.550 OA
ATOM     13  O   UNL     1      10.912 -14.745  34.871  1.00  0.00    -0.550 OA
ENDBRANCH  10  11
ENDBRANCH   9  10
ENDBRANCH   8   9
ENDBRANCH   1   8
TORSDOF 8
ENDMDL
MODEL 5
REMARK VINA RESULT:    -3.899      1.457      1.584
REMARK INTER + INTRA:          -6.122
REMARK INTER:                  -5.670
REMARK INTRA:                  -0.451
REMARK UNBOUND:                -0.399
REMARK SMILES O=C([O-])CCCCCCCC(=O)[O-]
REMARK SMILES IDX 7 1 6 2 5 3 4 4 2 5 1 6 3 7 8 8 9 9 10 10 11 11 12 12 13 13
REMARK H PARENT
REMARK Flexibility Score: inf
ROOT
ATOM      1  C   UNL     1       8.597 -18.710  32.015  1.00  0.00     0.000 C 
ENDROOT
BRANCH   1   2
ATOM      2  C   UNL     1      10.133 -18.735  31.904  1.00  0.00     0.000 C 
BRANCH   2   3
ATOM      3  C   UNL     1      10.702 -19.863  31.025  1.00  0.00     0.006 C 
BRANCH   3   4
ATOM      4  C   UNL     1       9.633 -20.553  30.171  1.00  0.00     0.053 C 
BRANCH   4   5
ATOM      5  C   UNL     1       9.748 -20.124  28.741  1.00  0.00     0.041 C 
ATOM      6  O   UNL     1      10.121 -20.944  27.862  1.00  0.00    -0.550 OA
ATOM      7  O   UNL     1       9.491 -18.806  28.389  1.00  0.00    -0.550 OA
ENDBRANCH   4   5
ENDBRANCH   3   4
ENDBRANCH   2   3
ENDBRANCH   1   2
BRANCH   1   8
ATOM      8  C   UNL     1       8.084 -17.658  33.010  1.00  0.00     0.000 C 
BRANCH   8   9
ATOM      9  C   UNL     1       9.232 -17.096  33.858  1.00  0.00     0.006 C 
BRANCH   9  10
ATOM     10  C   UNL     1       8.909 -17.192  35.351  1.00  0.00     0.053 C 
BRANCH  10  11
ATOM     11  C   UNL     1       7.761 -16.297  35.696  1.00  0.00     0.041 C 
ATOM     12  O   UNL     1       6.719 -16.775  36.218  1.00  0.00    -0.550 OA
ATOM     13  O   UNL     1       7.858 -14.928  35.487  1.00  0.00    -0.550 OA
ENDBRANCH  10  11
ENDBRANCH   9  10
ENDBRANCH   8   9
ENDBRANCH   1   8
TORSDOF 8
ENDMDL
MODEL 6
REMARK VINA RESULT:    -3.841      1.166      1.706
REMARK INTER + INTRA:          -6.037
REMARK INTER:                  -5.744
REMARK INTRA:                  -0.293
REMARK UNBOUND:                -0.399
REMARK SMILES O=C([O-])CCCCCCCC(=O)[O-]
REMARK SMILES IDX 7 1 6 2 5 3 4 4 2 5 1 6 3 7 8 8 9 9 10 10 11 11 12 12 13 13
REMARK H PARENT
REMARK Flexibility Score: inf
ROOT
ATOM      1  C   UNL     1       8.420 -17.713  32.506  1.00  0.00     0.000 C 
ENDROOT
BRANCH   1   2
ATOM      2  C   UNL     1       8.722 -19.010  31.734  1.00  0.00     0.000 C 
BRANCH   2   3
ATOM      3  C   UNL     1      10.205 -19.225  31.380  1.00  0.00     0.006 C 
BRANCH   3   4
ATOM      4  C   UNL     1      10.455 -20.533  30.620  1.00  0.00     0.053 C 
BRANCH   4   5
ATOM      5  C   UNL     1       9.588 -20.603  29.402  1.00  0.00     0.041 C 
ATOM      6  O   UNL     1       8.760 -21.541  29.267  1.00  0.00    -0.550 OA
ATOM      7  O   UNL     1       9.729 -19.659  28.393  1.00  0.00    -0.550 OA
ENDBRANCH   4   5
ENDBRANCH   3   4
ENDBRANCH   2   3
ENDBRANCH   1   2
BRANCH   1   8
ATOM      8  C   UNL     1       9.533 -17.329  33.494  1.00  0.00     0.000 C 
BRANCH   8   9
ATOM      9  C   UNL     1       8.966 -17.102  34.900  1.00  0.00     0.006 C 
BRANCH   9  10
ATOM     10  C   UNL     1       9.954 -16.324  35.773  1.00  0.00     0.053 C 
BRANCH  10  11
ATOM     11  C   UNL     1       9.460 -14.932  36.009  1.00  0.00     0.041 C 
ATOM     12  O   UNL     1       8.352 -14.740  36.575  1.00  0.00    -0.550 OA
ATOM     13  O   UNL     1      10.246 -13.844  35.649  1.00  0.00    -0.550 OA
ENDBRANCH  10  11
ENDBRANCH   9  10
ENDBRANCH   8   9
ENDBRANCH   1   8
TORSDOF 8
ENDMDL
MODEL 7
REMARK VINA RESULT:    -3.805      1.710      7.237
REMARK INTER + INTRA:          -5.983
REMARK INTER:                  -5.734
REMARK INTRA:                  -0.249
REMARK UNBOUND:                -0.399
REMARK SMILES O=C([O-])CCCCCCCC(=O)[O-]
REMARK SMILES IDX 7 1 6 2 5 3 4 4 2 5 1 6 3 7 8 8 9 9 10 10 11 11 12 12 13 13
REMARK H PARENT
REMARK Flexibility Score: inf
ROOT
ATOM      1  C   UNL     1       9.440 -18.879  31.621  1.00  0.00     0.000 C 
ENDROOT
BRANCH   1   2
ATOM      2  C   UNL     1       9.704 -17.814  32.701  1.00  0.00     0.000 C 
BRANCH   2   3
ATOM      3  C   UNL     1       8.509 -17.514  33.624  1.00  0.00     0.006 C 
BRANCH   3   4
ATOM      4  C   UNL     1       8.933 -17.084  35.033  1.00  0.00     0.053 C 
BRANCH   4   5
ATOM      5  C   UNL     1       7.749 -16.601  35.810  1.00  0.00     0.041 C 
ATOM      6  O   UNL     1       7.686 -15.403  36.191  1.00  0.00    -0.550 OA
ATOM      7  O   UNL     1       6.737 -17.488  36.156  1.00  0.00    -0.550 OA
ENDBRANCH   4   5
ENDBRANCH   3   4
ENDBRANCH   2   3
ENDBRANCH   1   2
BRANCH   1   8
ATOM      8  C   UNL     1      10.717 -19.603  31.168  1.00  0.00     0.000 C 
BRANCH   8   9
ATOM      9  C   UNL     1      10.379 -20.866  30.367  1.00  0.00     0.006 C 
BRANCH   9  10
ATOM     10  C   UNL     1       8.948 -20.806  29.824  1.00  0.00     0.053 C 
BRANCH  10  11
ATOM     11  C   UNL     1       8.933 -21.098  28.357  1.00  0.00     0.041 C 
ATOM     12  O   UNL     1       7.860 -21.429  27.788  1.00  0.00    -0.550 OA
ATOM     13  O   UNL     1      10.093 -20.957  27.607  1.00  0.00    -0.550 OA
ENDBRANCH  10  11
ENDBRANCH   9  10
ENDBRANCH   8   9
ENDBRANCH   1   8
TORSDOF 8
ENDMDL
MODEL 8
REMARK VINA RESULT:    -3.762      1.374      7.063
REMARK INTER + INTRA:          -5.920
REMARK INTER:                  -5.620
REMARK INTRA:                  -0.300
REMARK UNBOUND:                -0.399
REMARK SMILES O=C([O-])CCCCCCCC(=O)[O-]
REMARK SMILES IDX 7 1 6 2 5 3 4 4 2 5 1 6 3 7 8 8 9 9 10 10 11 11 12 12 13 13
REMARK H PARENT
REMARK Flexibility Score: inf
ROOT
ATOM      1  C   UNL     1       9.418 -18.623  31.677  1.00  0.00     0.000 C 
ENDROOT
BRANCH   1   2
ATOM      2  C   UNL     1       9.660 -17.461  32.659  1.00  0.00     0.000 C 
BRANCH   2   3
ATOM      3  C   UNL     1       8.674 -17.393  33.840  1.00  0.00     0.006 C 
BRANCH   3   4
ATOM      4  C   UNL     1       9.369 -17.153  35.185  1.00  0.00     0.053 C 
BRANCH   4   5
ATOM      5  C   UNL     1       9.514 -15.686  35.444  1.00  0.00     0.041 C 
ATOM      6  O   UNL     1       8.567 -15.038  35.961  1.00  0.00    -0.550 OA
ATOM      7  O   UNL     1      10.677 -15.026  35.069  1.00  0.00    -0.550 OA
ENDBRANCH   4   5
ENDBRANCH   3   4
ENDBRANCH   2   3
ENDBRANCH   1   2
BRANCH   1   8
ATOM      8  C   UNL     1      10.711 -19.353  31.282  1.00  0.00     0.000 C 
BRANCH   8   9
ATOM      9  C   UNL     1      10.400 -20.659  30.541  1.00  0.00     0.006 C 
BRANCH   9  10
ATOM     10  C   UNL     1       9.961 -20.382  29.101  1.00  0.00     0.053 C 
BRANCH  10  11
ATOM     11  C   UNL     1       8.681 -21.095  28.797  1.00  0.00     0.041 C 
ATOM     12  O   UNL     1       8.457 -21.531  27.638  1.00  0.00    -0.550 OA
ATOM     13  O   UNL     1       7.756 -21.322  29.808  1.00  0.00    -0.550 OA
ENDBRANCH  10  11
ENDBRANCH   9  10
ENDBRANCH   8   9
ENDBRANCH   1   8
TORSDOF 8
ENDMDL
MODEL 9
REMARK VINA RESULT:    -3.751      1.471      1.884
REMARK INTER + INTRA:          -5.904
REMARK INTER:                  -5.555
REMARK INTRA:                  -0.350
REMARK UNBOUND:                -0.399
REMARK SMILES O=C([O-])CCCCCCCC(=O)[O-]
REMARK SMILES IDX 7 1 6 2 5 3 4 4 2 5 1 6 3 7 8 8 9 9 10 10 11 11 12 12 13 13
REMARK H PARENT
REMARK Flexibility Score: inf
ROOT
ATOM      1  C   UNL     1      10.173 -19.031  31.698  1.00  0.00     0.000 C 
ENDROOT
BRANCH   1   2
ATOM      2  C   UNL     1       8.704 -19.291  31.320  1.00  0.00     0.000 C 
BRANCH   2   3
ATOM      3  C   UNL     1       8.485 -20.430  30.307  1.00  0.00     0.006 C 
BRANCH   3   4
ATOM      4  C   UNL     1       9.781 -20.876  29.620  1.00  0.00     0.053 C 
BRANCH   4   5
ATOM      5  C   UNL     1       9.839 -20.347  28.220  1.00  0.00     0.041 C 
ATOM      6  O   UNL     1      10.104 -21.119  27.262  1.00  0.00    -0.550 OA
ATOM      7  O   UNL     1       9.648 -18.993  27.981  1.00  0.00    -0.550 OA
ENDBRANCH   4   5
ENDBRANCH   3   4
ENDBRANCH   2   3
ENDBRANCH   1   2
BRANCH   1   8
ATOM      8  C   UNL     1      10.587 -17.562  31.524  1.00  0.00     0.000 C 
BRANCH   8   9
ATOM      9  C   UNL     1      10.097 -16.709  32.700  1.00  0.00     0.006 C 
BRANCH   9  10
ATOM     10  C   UNL     1      10.660 -15.287  32.620  1.00  0.00     0.053 C 
BRANCH  10  11
ATOM     11  C   UNL     1      11.191 -14.859  33.951  1.00  0.00     0.041 C 
ATOM     12  O   UNL     1      10.624 -15.235  35.011  1.00  0.00    -0.550 OA
ATOM     13  O   UNL     1      12.340 -14.083  34.025  1.00  0.00    -0.550 OA
ENDBRANCH  10  11
ENDBRANCH   9  10
ENDBRANCH   8   9
ENDBRANCH   1   8
TORSDOF 8
ENDMDL
