MODEL 1
REMARK VINA RESULT:    -6.092      0.000      0.000
REMARK INTER + INTRA:          -7.673
REMARK INTER:                  -7.338
REMARK INTRA:                  -0.335
REMARK UNBOUND:                -0.335
REMARK SMILES O=c1c(O)c(-c2ccc(O)c(O)c2)oc2cc(O)cc(O)c12
REMARK SMILES IDX 5 1 3 2 2 3 1 4 22 5 20 6 19 7 17 8 16 9 15 10 14 11 6 12
REMARK SMILES IDX 7 13 8 14 9 15 13 16 11 17 10 18 12 20 4 22 21 24 18 26
REMARK H PARENT 10 19 12 21 4 23 21 25 18 27
REMARK Flexibility Score: inf
ROOT
ATOM      1  C   UNL     1     163.184 157.621 163.835  1.00  0.00     0.180 A 
ATOM      2  C   UNL     1     164.130 157.097 162.938  1.00  0.00     0.208 A 
ATOM      3  C   UNL     1     164.047 155.744 162.572  1.00  0.00     0.238 A 
ATOM      4  O   UNL     1     164.929 155.267 161.811  1.00  0.00    -0.285 OA
ATOM      5  C   UNL     1     163.008 154.937 163.095  1.00  0.00     0.111 A 
ATOM      6  C   UNL     1     162.803 153.564 162.761  1.00  0.00     0.134 A 
ATOM      7  C   UNL     1     161.823 152.827 163.438  1.00  0.00     0.093 A 
ATOM      8  C   UNL     1     160.997 153.431 164.389  1.00  0.00     0.123 A 
ATOM      9  C   UNL     1     161.150 154.785 164.678  1.00  0.00     0.094 A 
ATOM     10  C   UNL     1     162.143 155.538 164.046  1.00  0.00     0.146 A 
ATOM     11  O   UNL     1     162.261 156.822 164.358  1.00  0.00    -0.452 OA
ENDROOT
BRANCH   1  12
ATOM     12  C   UNL     1     163.192 159.044 164.247  1.00  0.00     0.025 A 
ATOM     13  C   UNL     1     163.863 159.417 165.421  1.00  0.00     0.016 A 
ATOM     14  C   UNL     1     163.866 160.749 165.838  1.00  0.00     0.051 A 
ATOM     15  C   UNL     1     163.191 161.730 165.104  1.00  0.00     0.157 A 
ATOM     16  C   UNL     1     162.493 160.022 163.520  1.00  0.00     0.062 A 
ATOM     17  C   UNL     1     162.488 161.360 163.933  1.00  0.00     0.158 A 
BRANCH  15  18
ATOM     18  O   UNL     1     163.239 163.045 165.572  1.00  0.00    -0.504 OA
ATOM     19  H   UNL     1     162.564 163.755 165.330  1.00  0.00     0.293 HD
ENDBRANCH  15  18
BRANCH  17  20
ATOM     20  O   UNL     1     161.774 162.278 163.160  1.00  0.00    -0.504 OA
ATOM     21  H   UNL     1     162.202 163.016 162.621  1.00  0.00     0.293 HD
ENDBRANCH  17  20
ENDBRANCH   1  12
BRANCH   2  22
ATOM     22  O   UNL     1     165.161 157.907 162.450  1.00  0.00    -0.502 OA
ATOM     23  H   UNL     1     165.627 157.723 161.571  1.00  0.00     0.293 HD
ENDBRANCH   2  22
BRANCH   6  24
ATOM     24  O   UNL     1     163.511 152.890 161.762  1.00  0.00    -0.507 OA
ATOM     25  H   UNL     1     164.270 152.247 161.929  1.00  0.00     0.293 HD
ENDBRANCH   6  24
BRANCH   8  26
ATOM     26  O   UNL     1     160.014 152.695 165.047  1.00  0.00    -0.508 OA
ATOM     27  H   UNL     1     159.494 153.084 165.826  1.00  0.00     0.293 HD
ENDBRANCH   8  26
TORSDOF 6
ENDMDL
MODEL 2
REMARK VINA RESULT:    -5.973      1.672      6.805
REMARK INTER + INTRA:          -7.530
REMARK INTER:                  -7.206
REMARK INTRA:                  -0.324
REMARK UNBOUND:                -0.335
REMARK SMILES O=c1c(O)c(-c2ccc(O)c(O)c2)oc2cc(O)cc(O)c12
REMARK SMILES IDX 5 1 3 2 2 3 1 4 22 5 20 6 19 7 17 8 16 9 15 10 14 11 6 12
REMARK SMILES IDX 7 13 8 14 9 15 13 16 11 17 10 18 12 20 4 22 21 24 18 26
REMARK H PARENT 10 19 12 21 4 23 21 25 18 27
REMARK Flexibility Score: inf
ROOT
ATOM      1  C   UNL     1     162.899 156.549 164.138  1.00  0.00     0.180 A 
ATOM      2  C   UNL     1     164.246 156.473 164.530  1.00  0.00     0.208 A 
ATOM      3  C   UNL     1     164.903 157.644 164.944  1.00  0.00     0.238 A 
ATOM      4  O   UNL     1     166.124 157.579 165.243  1.00  0.00    -0.285 OA
ATOM      5  C   UNL     1     164.198 158.871 164.976  1.00  0.00     0.111 A 
ATOM      6  C   UNL     1     164.752 160.111 165.417  1.00  0.00     0.134 A 
ATOM      7  C   UNL     1     164.004 161.287 165.283  1.00  0.00     0.093 A 
ATOM      8  C   UNL     1     162.699 161.259 164.785  1.00  0.00     0.123 A 
ATOM      9  C   UNL     1     162.130 160.045 164.409  1.00  0.00     0.094 A 
ATOM     10  C   UNL     1     162.863 158.859 164.496  1.00  0.00     0.146 A 
ATOM     11  O   UNL     1     162.286 157.726 164.117  1.00  0.00    -0.452 OA
ENDROOT
BRANCH   1  12
ATOM     12  C   UNL     1     162.133 155.354 163.713  1.00  0.00     0.025 A 
ATOM     13  C   UNL     1     162.138 154.976 162.363  1.00  0.00     0.016 A 
ATOM     14  C   UNL     1     161.407 153.865 161.939  1.00  0.00     0.051 A 
ATOM     15  C   UNL     1     160.647 153.120 162.847  1.00  0.00     0.157 A 
ATOM     16  C   UNL     1     161.353 154.621 164.625  1.00  0.00     0.062 A 
ATOM     17  C   UNL     1     160.614 153.508 164.207  1.00  0.00     0.158 A 
BRANCH  15  18
ATOM     18  O   UNL     1     159.945 152.015 162.359  1.00  0.00    -0.504 OA
ATOM     19  H   UNL     1     159.164 151.589 162.835  1.00  0.00     0.293 HD
ENDBRANCH  15  18
BRANCH  17  20
ATOM     20  O   UNL     1     159.864 152.826 165.167  1.00  0.00    -0.504 OA
ATOM     21  H   UNL     1     158.938 152.459 165.004  1.00  0.00     0.293 HD
ENDBRANCH  17  20
ENDBRANCH   1  12
BRANCH   2  22
ATOM     22  O   UNL     1     164.929 155.254 164.470  1.00  0.00    -0.502 OA
ATOM     23  H   UNL     1     164.657 154.450 165.021  1.00  0.00     0.293 HD
ENDBRANCH   2  22
BRANCH   6  24
ATOM     24  O   UNL     1     166.010 160.236 166.014  1.00  0.00    -0.507 OA
ATOM     25  H   UNL     1     166.696 160.934 165.769  1.00  0.00     0.293 HD
ENDBRANCH   6  24
BRANCH   8  26
ATOM     26  O   UNL     1     161.956 162.432 164.669  1.00  0.00    -0.508 OA
ATOM     27  H   UNL     1     162.250 163.292 165.119  1.00  0.00     0.293 HD
ENDBRANCH   8  26
TORSDOF 6
ENDMDL
MODEL 3
REMARK VINA RESULT:    -5.852      1.994      2.331
REMARK INTER + INTRA:          -7.385
REMARK INTER:                  -7.050
REMARK INTRA:                  -0.335
REMARK UNBOUND:                -0.335
REMARK SMILES O=c1c(O)c(-c2ccc(O)c(O)c2)oc2cc(O)cc(O)c12
REMARK SMILES IDX 5 1 3 2 2 3 1 4 22 5 20 6 19 7 17 8 16 9 15 10 14 11 6 12
REMARK SMILES IDX 7 13 8 14 9 15 13 16 11 17 10 18 12 20 4 22 21 24 18 26
REMARK H PARENT 10 19 12 21 4 23 21 25 18 27
REMARK Flexibility Score: inf
ROOT
ATOM      1  C   UNL     1     162.630 156.487 164.506  1.00  0.00     0.180 A 
ATOM      2  C   UNL     1     163.594 155.770 165.235  1.00  0.00     0.208 A 
ATOM      3  C   UNL     1     163.617 154.368 165.140  1.00  0.00     0.238 A 
ATOM      4  O   UNL     1     164.448 153.729 165.837  1.00  0.00    -0.285 OA
ATOM      5  C   UNL     1     162.687 153.705 164.305  1.00  0.00     0.111 A 
ATOM      6  C   UNL     1     162.646 152.292 164.101  1.00  0.00     0.134 A 
ATOM      7  C   UNL     1     161.601 151.732 163.356  1.00  0.00     0.093 A 
ATOM      8  C   UNL     1     160.634 152.539 162.752  1.00  0.00     0.123 A 
ATOM      9  C   UNL     1     160.701 153.922 162.896  1.00  0.00     0.094 A 
ATOM     10  C   UNL     1     161.710 154.509 163.663  1.00  0.00     0.146 A 
ATOM     11  O   UNL     1     161.730 155.830 163.783  1.00  0.00    -0.452 OA
ENDROOT
BRANCH   1  12
ATOM     12  C   UNL     1     162.559 157.966 164.536  1.00  0.00     0.025 A 
ATOM     13  C   UNL     1     161.713 158.597 165.459  1.00  0.00     0.016 A 
ATOM     14  C   UNL     1     161.617 159.989 165.491  1.00  0.00     0.051 A 
ATOM     15  C   UNL     1     162.347 160.777 164.595  1.00  0.00     0.157 A 
ATOM     16  C   UNL     1     163.277 158.753 163.619  1.00  0.00     0.062 A 
ATOM     17  C   UNL     1     163.183 160.150 163.641  1.00  0.00     0.158 A 
BRANCH  15  18
ATOM     18  O   UNL     1     162.211 162.164 164.683  1.00  0.00    -0.504 OA
ATOM     19  H   UNL     1     162.147 162.777 163.884  1.00  0.00     0.293 HD
ENDBRANCH  15  18
BRANCH  17  20
ATOM     20  O   UNL     1     163.926 160.867 162.702  1.00  0.00    -0.504 OA
ATOM     21  H   UNL     1     163.872 160.717 161.705  1.00  0.00     0.293 HD
ENDBRANCH  17  20
ENDBRANCH   1  12
BRANCH   2  22
ATOM     22  O   UNL     1     164.489 156.444 166.071  1.00  0.00    -0.502 OA
ATOM     23  H   UNL     1     164.183 157.077 166.798  1.00  0.00     0.293 HD
ENDBRANCH   2  22
BRANCH   6  24
ATOM     24  O   UNL     1     163.614 151.406 164.582  1.00  0.00    -0.507 OA
ATOM     25  H   UNL     1     164.095 150.719 164.021  1.00  0.00     0.293 HD
ENDBRANCH   6  24
BRANCH   8  26
ATOM     26  O   UNL     1     159.606 151.975 161.999  1.00  0.00    -0.508 OA
ATOM     27  H   UNL     1     159.244 151.051 162.205  1.00  0.00     0.293 HD
ENDBRANCH   8  26
TORSDOF 6
ENDMDL
MODEL 4
REMARK VINA RESULT:    -5.824      2.272      6.865
REMARK INTER + INTRA:          -7.351
REMARK INTER:                  -7.027
REMARK INTRA:                  -0.323
REMARK UNBOUND:                -0.335
REMARK SMILES O=c1c(O)c(-c2ccc(O)c(O)c2)oc2cc(O)cc(O)c12
REMARK SMILES IDX 5 1 3 2 2 3 1 4 22 5 20 6 19 7 17 8 16 9 15 10 14 11 6 12
REMARK SMILES IDX 7 13 8 14 9 15 13 16 11 17 10 18 12 20 4 22 21 24 18 26
REMARK H PARENT 10 19 12 21 4 23 21 25 18 27
REMARK Flexibility Score: inf
ROOT
ATOM      1  C   UNL     1     163.940 154.807 162.702  1.00  0.00     0.180 A 
ATOM      2  C   UNL     1     164.911 154.599 161.707  1.00  0.00     0.208 A 
ATOM      3  C   UNL     1     165.755 155.662 161.347  1.00  0.00     0.238 A 
ATOM      4  O   UNL     1     166.586 155.486 160.418  1.00  0.00    -0.285 OA
ATOM      5  C   UNL     1     165.629 156.913 161.998  1.00  0.00     0.111 A 
ATOM      6  C   UNL     1     166.458 158.046 161.742  1.00  0.00     0.134 A 
ATOM      7  C   UNL     1     166.159 159.272 162.350  1.00  0.00     0.093 A 
ATOM      8  C   UNL     1     165.102 159.388 163.256  1.00  0.00     0.123 A 
ATOM      9  C   UNL     1     164.325 158.272 163.557  1.00  0.00     0.094 A 
ATOM     10  C   UNL     1     164.575 157.045 162.939  1.00  0.00     0.146 A 
ATOM     11  O   UNL     1     163.803 156.010 163.247  1.00  0.00    -0.452 OA
ENDROOT
BRANCH   1  12
ATOM     12  C   UNL     1     163.030 153.728 163.152  1.00  0.00     0.025 A 
ATOM     13  C   UNL     1     163.442 152.860 164.174  1.00  0.00     0.016 A 
ATOM     14  C   UNL     1     162.609 151.825 164.599  1.00  0.00     0.051 A 
ATOM     15  C   UNL     1     161.358 151.624 164.005  1.00  0.00     0.157 A 
ATOM     16  C   UNL     1     161.785 153.515 162.537  1.00  0.00     0.062 A 
ATOM     17  C   UNL     1     160.943 152.477 162.955  1.00  0.00     0.158 A 
BRANCH  15  18
ATOM     18  O   UNL     1     160.569 150.574 164.481  1.00  0.00    -0.504 OA
ATOM     19  H   UNL     1     159.701 150.702 164.980  1.00  0.00     0.293 HD
ENDBRANCH  15  18
BRANCH  17  20
ATOM     20  O   UNL     1     159.719 152.327 162.300  1.00  0.00    -0.504 OA
ATOM     21  H   UNL     1     158.906 152.896 162.486  1.00  0.00     0.293 HD
ENDBRANCH  17  20
ENDBRANCH   1  12
BRANCH   2  22
ATOM     22  O   UNL     1     165.004 153.362 161.062  1.00  0.00    -0.502 OA
ATOM     23  H   UNL     1     165.750 153.141 160.415  1.00  0.00     0.293 HD
ENDBRANCH   2  22
BRANCH   6  24
ATOM     24  O   UNL     1     167.593 158.015 160.927  1.00  0.00    -0.507 OA
ATOM     25  H   UNL     1     167.940 158.798 160.393  1.00  0.00     0.293 HD
ENDBRANCH   6  24
BRANCH   8  26
ATOM     26  O   UNL     1     164.821 160.607 163.869  1.00  0.00    -0.508 OA
ATOM     27  H   UNL     1     163.868 160.932 163.989  1.00  0.00     0.293 HD
ENDBRANCH   8  26
TORSDOF 6
ENDMDL
MODEL 5
REMARK VINA RESULT:    -5.619      1.465      2.982
REMARK INTER + INTRA:          -7.104
REMARK INTER:                  -6.781
REMARK INTRA:                  -0.322
REMARK UNBOUND:                -0.335
REMARK SMILES O=c1c(O)c(-c2ccc(O)c(O)c2)oc2cc(O)cc(O)c12
REMARK SMILES IDX 5 1 3 2 2 3 1 4 22 5 20 6 19 7 17 8 16 9 15 10 14 11 6 12
REMARK SMILES IDX 7 13 8 14 9 15 13 16 11 17 10 18 12 20 4 22 21 24 18 26
REMARK H PARENT 10 19 12 21 4 23 21 25 18 27
REMARK Flexibility Score: inf
ROOT
ATOM      1  C   UNL     1     163.381 156.874 163.946  1.00  0.00     0.180 A 
ATOM      2  C   UNL     1     162.535 156.085 164.743  1.00  0.00     0.208 A 
ATOM      3  C   UNL     1     162.454 154.705 164.494  1.00  0.00     0.238 A 
ATOM      4  O   UNL     1     161.654 154.013 165.176  1.00  0.00    -0.285 OA
ATOM      5  C   UNL     1     163.234 154.130 163.462  1.00  0.00     0.111 A 
ATOM      6  C   UNL     1     163.262 152.737 163.149  1.00  0.00     0.134 A 
ATOM      7  C   UNL     1     163.970 152.297 162.023  1.00  0.00     0.093 A 
ATOM      8  C   UNL     1     164.704 153.190 161.239  1.00  0.00     0.123 A 
ATOM      9  C   UNL     1     164.730 154.542 161.573  1.00  0.00     0.094 A 
ATOM     10  C   UNL     1     164.005 155.017 162.668  1.00  0.00     0.146 A 
ATOM     11  O   UNL     1     164.049 156.314 162.944  1.00  0.00    -0.452 OA
ENDROOT
BRANCH   1  12
ATOM     12  C   UNL     1     163.537 158.330 164.164  1.00  0.00     0.025 A 
ATOM     13  C   UNL     1     164.476 158.791 165.098  1.00  0.00     0.016 A 
ATOM     14  C   UNL     1     164.625 160.158 165.334  1.00  0.00     0.051 A 
ATOM     15  C   UNL     1     163.832 161.091 164.656  1.00  0.00     0.157 A 
ATOM     16  C   UNL     1     162.723 159.262 163.499  1.00  0.00     0.062 A 
ATOM     17  C   UNL     1     162.862 160.636 163.731  1.00  0.00     0.158 A 
BRANCH  15  18
ATOM     18  O   UNL     1     164.035 162.445 164.932  1.00  0.00    -0.504 OA
ATOM     19  H   UNL     1     164.844 162.967 164.630  1.00  0.00     0.293 HD
ENDBRANCH  15  18
BRANCH  17  20
ATOM     20  O   UNL     1     162.021 161.504 163.032  1.00  0.00    -0.504 OA
ATOM     21  H   UNL     1     161.343 161.203 162.347  1.00  0.00     0.293 HD
ENDBRANCH  17  20
ENDBRANCH   1  12
BRANCH   2  22
ATOM     22  O   UNL     1     161.757 156.677 165.743  1.00  0.00    -0.502 OA
ATOM     23  H   UNL     1     161.211 156.134 166.401  1.00  0.00     0.293 HD
ENDBRANCH   2  22
BRANCH   6  24
ATOM     24  O   UNL     1     162.640 151.751 163.920  1.00  0.00    -0.507 OA
ATOM     25  H   UNL     1     161.663 151.508 163.863  1.00  0.00     0.293 HD
ENDBRANCH   6  24
BRANCH   8  26
ATOM     26  O   UNL     1     165.418 152.742 160.130  1.00  0.00    -0.508 OA
ATOM     27  H   UNL     1     166.425 152.843 160.072  1.00  0.00     0.293 HD
ENDBRANCH   8  26
TORSDOF 6
ENDMDL
MODEL 6
REMARK VINA RESULT:    -5.575      1.585      3.317
REMARK INTER + INTRA:          -7.051
REMARK INTER:                  -6.739
REMARK INTRA:                  -0.311
REMARK UNBOUND:                -0.335
REMARK SMILES O=c1c(O)c(-c2ccc(O)c(O)c2)oc2cc(O)cc(O)c12
REMARK SMILES IDX 5 1 3 2 2 3 1 4 22 5 20 6 19 7 17 8 16 9 15 10 14 11 6 12
REMARK SMILES IDX 7 13 8 14 9 15 13 16 11 17 10 18 12 20 4 22 21 24 18 26
REMARK H PARENT 10 19 12 21 4 23 21 25 18 27
REMARK Flexibility Score: inf
ROOT
ATOM      1  C   UNL     1     163.366 158.317 163.938  1.00  0.00     0.180 A 
ATOM      2  C   UNL     1     162.494 157.278 164.305  1.00  0.00     0.208 A 
ATOM      3  C   UNL     1     162.713 155.990 163.789  1.00  0.00     0.238 A 
ATOM      4  O   UNL     1     161.898 155.076 164.078  1.00  0.00    -0.285 OA
ATOM      5  C   UNL     1     163.812 155.755 162.927  1.00  0.00     0.111 A 
ATOM      6  C   UNL     1     164.153 154.482 162.380  1.00  0.00     0.134 A 
ATOM      7  C   UNL     1     165.183 154.390 161.435  1.00  0.00     0.093 A 
ATOM      8  C   UNL     1     165.926 155.514 161.069  1.00  0.00     0.123 A 
ATOM      9  C   UNL     1     165.639 156.749 161.643  1.00  0.00     0.094 A 
ATOM     10  C   UNL     1     164.594 156.881 162.561  1.00  0.00     0.146 A 
ATOM     11  O   UNL     1     164.348 158.078 163.076  1.00  0.00    -0.452 OA
ENDROOT
BRANCH   1  12
ATOM     12  C   UNL     1     163.213 159.695 164.459  1.00  0.00     0.025 A 
ATOM     13  C   UNL     1     163.923 160.081 165.605  1.00  0.00     0.016 A 
ATOM     14  C   UNL     1     163.778 161.368 166.125  1.00  0.00     0.051 A 
ATOM     15  C   UNL     1     162.913 162.289 165.523  1.00  0.00     0.157 A 
ATOM     16  C   UNL     1     162.326 160.609 163.866  1.00  0.00     0.062 A 
ATOM     17  C   UNL     1     162.171 161.902 164.382  1.00  0.00     0.158 A 
BRANCH  15  18
ATOM     18  O   UNL     1     162.819 163.563 166.088  1.00  0.00    -0.504 OA
ATOM     19  H   UNL     1     162.938 163.754 167.072  1.00  0.00     0.293 HD
ENDBRANCH  15  18
BRANCH  17  20
ATOM     20  O   UNL     1     161.275 162.757 163.740  1.00  0.00    -0.504 OA
ATOM     21  H   UNL     1     161.503 163.695 163.444  1.00  0.00     0.293 HD
ENDBRANCH  17  20
ENDBRANCH   1  12
BRANCH   2  22
ATOM     22  O   UNL     1     161.403 157.537 165.140  1.00  0.00    -0.502 OA
ATOM     23  H   UNL     1     161.202 156.981 165.960  1.00  0.00     0.293 HD
ENDBRANCH   2  22
BRANCH   6  24
ATOM     24  O   UNL     1     163.535 153.283 162.748  1.00  0.00    -0.507 OA
ATOM     25  H   UNL     1     163.974 152.375 162.712  1.00  0.00     0.293 HD
ENDBRANCH   6  24
BRANCH   8  26
ATOM     26  O   UNL     1     166.959 155.411 160.140  1.00  0.00    -0.508 OA
ATOM     27  H   UNL     1     167.801 154.882 160.339  1.00  0.00     0.293 HD
ENDBRANCH   8  26
TORSDOF 6
ENDMDL
MODEL 7
REMARK VINA RESULT:    -5.378      2.479      7.042
REMARK INTER + INTRA:          -6.814
REMARK INTER:                  -6.486
REMARK INTRA:                  -0.328
REMARK UNBOUND:                -0.335
REMARK SMILES O=c1c(O)c(-c2ccc(O)c(O)c2)oc2cc(O)cc(O)c12
REMARK SMILES IDX 5 1 3 2 2 3 1 4 22 5 20 6 19 7 17 8 16 9 15 10 14 11 6 12
REMARK SMILES IDX 7 13 8 14 9 15 13 16 11 17 10 18 12 20 4 22 21 24 18 26
REMARK H PARENT 10 19 12 21 4 23 21 25 18 27
REMARK Flexibility Score: inf
ROOT
ATOM      1  C   UNL     1     163.368 155.309 163.204  1.00  0.00     0.180 A 
ATOM      2  C   UNL     1     163.058 156.536 163.815  1.00  0.00     0.208 A 
ATOM      3  C   UNL     1     163.819 157.671 163.488  1.00  0.00     0.238 A 
ATOM      4  O   UNL     1     163.572 158.755 164.078  1.00  0.00    -0.285 OA
ATOM      5  C   UNL     1     164.867 157.567 162.543  1.00  0.00     0.111 A 
ATOM      6  C   UNL     1     165.675 158.659 162.106  1.00  0.00     0.134 A 
ATOM      7  C   UNL     1     166.769 158.417 161.266  1.00  0.00     0.093 A 
ATOM      8  C   UNL     1     167.043 157.132 160.794  1.00  0.00     0.123 A 
ATOM      9  C   UNL     1     166.224 156.069 161.167  1.00  0.00     0.094 A 
ATOM     10  C   UNL     1     165.148 156.272 162.033  1.00  0.00     0.146 A 
ATOM     11  O   UNL     1     164.399 155.230 162.372  1.00  0.00    -0.452 OA
ENDROOT
BRANCH   1  12
ATOM     12  C   UNL     1     162.596 154.075 163.480  1.00  0.00     0.025 A 
ATOM     13  C   UNL     1     163.086 153.147 164.409  1.00  0.00     0.016 A 
ATOM     14  C   UNL     1     162.385 151.969 164.668  1.00  0.00     0.051 A 
ATOM     15  C   UNL     1     161.190 151.686 163.997  1.00  0.00     0.157 A 
ATOM     16  C   UNL     1     161.409 153.784 162.786  1.00  0.00     0.062 A 
ATOM     17  C   UNL     1     160.699 152.602 163.037  1.00  0.00     0.158 A 
BRANCH  15  18
ATOM     18  O   UNL     1     160.533 150.493 164.307  1.00  0.00    -0.504 OA
ATOM     19  H   UNL     1     160.995 149.671 164.666  1.00  0.00     0.293 HD
ENDBRANCH  15  18
BRANCH  17  20
ATOM     20  O   UNL     1     159.527 152.380 162.312  1.00  0.00    -0.504 OA
ATOM     21  H   UNL     1     158.644 152.128 162.731  1.00  0.00     0.293 HD
ENDBRANCH  17  20
ENDBRANCH   1  12
BRANCH   2  22
ATOM     22  O   UNL     1     162.032 156.612 164.762  1.00  0.00    -0.502 OA
ATOM     23  H   UNL     1     162.202 156.531 165.756  1.00  0.00     0.293 HD
ENDBRANCH   2  22
BRANCH   6  24
ATOM     24  O   UNL     1     165.432 159.994 162.444  1.00  0.00    -0.507 OA
ATOM     25  H   UNL     1     166.111 160.616 162.856  1.00  0.00     0.293 HD
ENDBRANCH   6  24
BRANCH   8  26
ATOM     26  O   UNL     1     168.124 156.901 159.945  1.00  0.00    -0.508 OA
ATOM     27  H   UNL     1     169.013 156.565 160.298  1.00  0.00     0.293 HD
ENDBRANCH   8  26
TORSDOF 6
ENDMDL
MODEL 8
REMARK VINA RESULT:    -5.376      1.967      7.029
REMARK INTER + INTRA:          -6.812
REMARK INTER:                  -7.042
REMARK INTRA:                   0.231
REMARK UNBOUND:                -0.335
REMARK SMILES O=c1c(O)c(-c2ccc(O)c(O)c2)oc2cc(O)cc(O)c12
REMARK SMILES IDX 5 1 3 2 2 3 1 4 22 5 20 6 19 7 17 8 16 9 15 10 14 11 6 12
REMARK SMILES IDX 7 13 8 14 9 15 13 16 11 17 10 18 12 20 4 22 21 24 18 26
REMARK H PARENT 10 19 12 21 4 23 21 25 18 27
REMARK Flexibility Score: inf
ROOT
ATOM      1  C   UNL     1     162.964 156.661 163.620  1.00  0.00     0.180 A 
ATOM      2  C   UNL     1     162.536 157.655 164.516  1.00  0.00     0.208 A 
ATOM      3  C   UNL     1     163.311 158.817 164.666  1.00  0.00     0.238 A 
ATOM      4  O   UNL     1     162.951 159.679 165.510  1.00  0.00    -0.285 OA
ATOM      5  C   UNL     1     164.494 158.977 163.905  1.00  0.00     0.111 A 
ATOM      6  C   UNL     1     165.333 160.131 163.947  1.00  0.00     0.134 A 
ATOM      7  C   UNL     1     166.548 160.126 163.250  1.00  0.00     0.093 A 
ATOM      8  C   UNL     1     166.922 159.036 162.461  1.00  0.00     0.123 A 
ATOM      9  C   UNL     1     166.081 157.930 162.368  1.00  0.00     0.094 A 
ATOM     10  C   UNL     1     164.879 157.889 163.079  1.00  0.00     0.146 A 
ATOM     11  O   UNL     1     164.112 156.812 162.970  1.00  0.00    -0.452 OA
ENDROOT
BRANCH   1  12
ATOM     12  C   UNL     1     162.188 155.421 163.390  1.00  0.00     0.025 A 
ATOM     13  C   UNL     1     162.125 154.876 162.099  1.00  0.00     0.016 A 
ATOM     14  C   UNL     1     161.383 153.719 161.857  1.00  0.00     0.051 A 
ATOM     15  C   UNL     1     160.678 153.093 162.891  1.00  0.00     0.157 A 
ATOM     16  C   UNL     1     161.463 154.808 164.426  1.00  0.00     0.062 A 
ATOM     17  C   UNL     1     160.712 153.649 164.191  1.00  0.00     0.158 A 
BRANCH  15  18
ATOM     18  O   UNL     1     159.960 151.934 162.584  1.00  0.00    -0.504 OA
ATOM     19  H   UNL     1     160.290 151.216 161.957  1.00  0.00     0.293 HD
ENDBRANCH  15  18
BRANCH  17  20
ATOM     20  O   UNL     1     160.019 153.092 165.268  1.00  0.00    -0.504 OA
ATOM     21  H   UNL     1     159.893 152.100 165.406  1.00  0.00     0.293 HD
ENDBRANCH  17  20
ENDBRANCH   1  12
BRANCH   2  22
ATOM     22  O   UNL     1     161.376 157.468 165.273  1.00  0.00    -0.502 OA
ATOM     23  H   UNL     1     161.353 156.881 166.098  1.00  0.00     0.293 HD
ENDBRANCH   2  22
BRANCH   6  24
ATOM     24  O   UNL     1     165.010 161.307 164.629  1.00  0.00    -0.507 OA
ATOM     25  H   UNL     1     164.079 161.688 164.711  1.00  0.00     0.293 HD
ENDBRANCH   6  24
BRANCH   8  26
ATOM     26  O   UNL     1     168.125 159.045 161.759  1.00  0.00    -0.508 OA
ATOM     27  H   UNL     1     168.811 158.308 161.874  1.00  0.00     0.293 HD
ENDBRANCH   8  26
TORSDOF 6
ENDMDL
MODEL 9
REMARK VINA RESULT:    -5.277      4.237      9.443
REMARK INTER + INTRA:          -6.691
REMARK INTER:                  -6.651
REMARK INTRA:                  -0.040
REMARK UNBOUND:                -0.335
REMARK SMILES O=c1c(O)c(-c2ccc(O)c(O)c2)oc2cc(O)cc(O)c12
REMARK SMILES IDX 5 1 3 2 2 3 1 4 22 5 20 6 19 7 17 8 16 9 15 10 14 11 6 12
REMARK SMILES IDX 7 13 8 14 9 15 13 16 11 17 10 18 12 20 4 22 21 24 18 26
REMARK H PARENT 10 19 12 21 4 23 21 25 18 27
REMARK Flexibility Score: inf
ROOT
ATOM      1  C   UNL     1     162.738 163.532 162.988  1.00  0.00     0.180 A 
ATOM      2  C   UNL     1     162.001 164.611 163.506  1.00  0.00     0.208 A 
ATOM      3  C   UNL     1     161.908 165.795 162.757  1.00  0.00     0.238 A 
ATOM      4  O   UNL     1     161.294 166.776 163.250  1.00  0.00    -0.285 OA
ATOM      5  C   UNL     1     162.539 165.878 161.492  1.00  0.00     0.111 A 
ATOM      6  C   UNL     1     162.476 167.014 160.629  1.00  0.00     0.134 A 
ATOM      7  C   UNL     1     163.245 167.035 159.459  1.00  0.00     0.093 A 
ATOM      8  C   UNL     1     164.023 165.936 159.088  1.00  0.00     0.123 A 
ATOM      9  C   UNL     1     164.043 164.801 159.894  1.00  0.00     0.094 A 
ATOM     10  C   UNL     1     163.316 164.762 161.086  1.00  0.00     0.146 A 
ATOM     11  O   UNL     1     163.371 163.665 161.829  1.00  0.00    -0.452 OA
ENDROOT
BRANCH   1  12
ATOM     12  C   UNL     1     162.860 162.243 163.709  1.00  0.00     0.025 A 
ATOM     13  C   UNL     1     163.382 162.227 165.010  1.00  0.00     0.016 A 
ATOM     14  C   UNL     1     163.524 161.022 165.699  1.00  0.00     0.051 A 
ATOM     15  C   UNL     1     163.164 159.810 165.100  1.00  0.00     0.157 A 
ATOM     16  C   UNL     1     162.519 161.026 163.095  1.00  0.00     0.062 A 
ATOM     17  C   UNL     1     162.661 159.811 163.778  1.00  0.00     0.158 A 
BRANCH  15  18
ATOM     18  O   UNL     1     163.324 158.640 165.846  1.00  0.00    -0.504 OA
ATOM     19  H   UNL     1     164.060 158.497 166.521  1.00  0.00     0.293 HD
ENDBRANCH  15  18
BRANCH  17  20
ATOM     20  O   UNL     1     162.300 158.641 163.107  1.00  0.00    -0.504 OA
ATOM     21  H   UNL     1     162.660 157.726 163.335  1.00  0.00     0.293 HD
ENDBRANCH  17  20
ENDBRANCH   1  12
BRANCH   2  22
ATOM     22  O   UNL     1     161.405 164.515 164.767  1.00  0.00    -0.502 OA
ATOM     23  H   UNL     1     161.932 164.603 165.627  1.00  0.00     0.293 HD
ENDBRANCH   2  22
BRANCH   6  24
ATOM     24  O   UNL     1     161.660 168.125 160.860  1.00  0.00    -0.507 OA
ATOM     25  H   UNL     1     160.860 168.134 161.475  1.00  0.00     0.293 HD
ENDBRANCH   6  24
BRANCH   8  26
ATOM     26  O   UNL     1     164.773 165.959 157.914  1.00  0.00    -0.508 OA
ATOM     27  H   UNL     1     165.071 165.104 157.459  1.00  0.00     0.293 HD
ENDBRANCH   8  26
TORSDOF 6
ENDMDL
