MODEL 1
REMARK VINA RESULT:    -3.844      0.000      0.000
REMARK INTER + INTRA:          -5.895
REMARK INTER:                  -5.192
REMARK INTRA:                  -0.703
REMARK UNBOUND:                -0.703
REMARK SMILES CCCCCCC=CC(=O)[O-]
REMARK SMILES IDX 5 1 6 2 7 3 8 4 9 5 10 6 11 7 4 8 3 9 2 10 1 11
REMARK H PARENT
REMARK Flexibility Score: inf
ROOT
ATOM      1  C   UNL     1      98.463   2.332 -25.949  1.00  0.00     0.004 C 
ENDROOT
BRANCH   1   2
ATOM      2  C   UNL     1      99.669   1.540 -26.475  1.00  0.00     0.027 C 
BRANCH   2   3
ATOM      3  C   UNL     1      99.338   0.838 -27.760  1.00  0.00    -0.025 C 
ATOM      4  C   UNL     1      99.526   1.426 -28.947  1.00  0.00     0.020 C 
BRANCH   4   5
ATOM      5  C   UNL     1      99.193   0.763 -30.217  1.00  0.00     0.064 C 
ATOM      6  O   UNL     1      99.535   1.262 -31.322  1.00  0.00    -0.545 OA
ATOM      7  O   UNL     1      98.488  -0.434 -30.198  1.00  0.00    -0.545 OA
ENDBRANCH   4   5
ENDBRANCH   2   3
ENDBRANCH   1   2
BRANCH   1   8
ATOM      8  C   UNL     1      98.611   3.850 -26.149  1.00  0.00     0.000 C 
BRANCH   8   9
ATOM      9  C   UNL     1      97.710   4.418 -27.266  1.00  0.00    -0.000 C 
BRANCH   9  10
ATOM     10  C   UNL     1      98.524   5.058 -28.399  1.00  0.00    -0.003 C 
ATOM     11  C   UNL     1     100.012   5.085 -28.060  1.00  0.00     0.004 C 
ENDBRANCH   9  10
ENDBRANCH   8   9
ENDBRANCH   1   8
TORSDOF 6
ENDMDL
MODEL 2
REMARK VINA RESULT:    -3.795      2.148      3.954
REMARK INTER + INTRA:          -5.829
REMARK INTER:                  -5.117
REMARK INTRA:                  -0.712
REMARK UNBOUND:                -0.703
REMARK SMILES CCCCCCC=CC(=O)[O-]
REMARK SMILES IDX 5 1 6 2 7 3 8 4 9 5 10 6 11 7 4 8 3 9 2 10 1 11
REMARK H PARENT
REMARK Flexibility Score: inf
ROOT
ATOM      1  C   UNL     1      98.886   2.186 -24.708  1.00  0.00     0.004 C 
ENDROOT
BRANCH   1   2
ATOM      2  C   UNL     1      98.183   3.526 -24.967  1.00  0.00     0.027 C 
BRANCH   2   3
ATOM      3  C   UNL     1      98.663   4.154 -26.243  1.00  0.00    -0.025 C 
ATOM      4  C   UNL     1      97.908   4.162 -27.347  1.00  0.00     0.020 C 
BRANCH   4   5
ATOM      5  C   UNL     1      98.366   4.756 -28.612  1.00  0.00     0.064 C 
ATOM      6  O   UNL     1      99.183   5.715 -28.623  1.00  0.00    -0.545 OA
ATOM      7  O   UNL     1      97.887   4.254 -29.815  1.00  0.00    -0.545 OA
ENDBRANCH   4   5
ENDBRANCH   2   3
ENDBRANCH   1   2
BRANCH   1   8
ATOM      8  C   UNL     1      98.175   0.998 -25.380  1.00  0.00     0.000 C 
BRANCH   8   9
ATOM      9  C   UNL     1      99.113   0.119 -26.235  1.00  0.00    -0.000 C 
BRANCH   9  10
ATOM     10  C   UNL     1      98.995   0.432 -27.733  1.00  0.00    -0.003 C 
ATOM     11  C   UNL     1     100.124   1.350 -28.194  1.00  0.00     0.004 C 
ENDBRANCH   9  10
ENDBRANCH   8   9
ENDBRANCH   1   8
TORSDOF 6
ENDMDL
MODEL 3
REMARK VINA RESULT:    -3.653      1.978      3.281
REMARK INTER + INTRA:          -5.637
REMARK INTER:                  -4.902
REMARK INTRA:                  -0.735
REMARK UNBOUND:                -0.703
REMARK SMILES CCCCCCC=CC(=O)[O-]
REMARK SMILES IDX 5 1 6 2 7 3 8 4 9 5 10 6 11 7 4 8 3 9 2 10 1 11
REMARK H PARENT
REMARK Flexibility Score: inf
ROOT
ATOM      1  C   UNL     1      98.323   4.628 -27.325  1.00  0.00     0.004 C 
ENDROOT
BRANCH   1   2
ATOM      2  C   UNL     1      98.539   4.017 -25.933  1.00  0.00     0.027 C 
BRANCH   2   3
ATOM      3  C   UNL     1      98.469   2.518 -25.982  1.00  0.00    -0.025 C 
ATOM      4  C   UNL     1      99.506   1.782 -26.397  1.00  0.00     0.020 C 
BRANCH   4   5
ATOM      5  C   UNL     1      99.453   0.314 -26.468  1.00  0.00     0.064 C 
ATOM      6  O   UNL     1      98.913  -0.272 -27.444  1.00  0.00    -0.545 OA
ATOM      7  O   UNL     1     100.007  -0.440 -25.441  1.00  0.00    -0.545 OA
ENDBRANCH   4   5
ENDBRANCH   2   3
ENDBRANCH   1   2
BRANCH   1   8
ATOM      8  C   UNL     1      99.620   5.178 -27.945  1.00  0.00     0.000 C 
BRANCH   8   9
ATOM      9  C   UNL     1     100.125   4.359 -29.152  1.00  0.00    -0.000 C 
BRANCH   9  10
ATOM     10  C   UNL     1      99.006   3.530 -29.799  1.00  0.00    -0.003 C 
ATOM     11  C   UNL     1      99.460   2.096 -30.056  1.00  0.00     0.004 C 
ENDBRANCH   9  10
ENDBRANCH   8   9
ENDBRANCH   1   8
TORSDOF 6
ENDMDL
MODEL 4
REMARK VINA RESULT:    -3.592      2.559      3.426
REMARK INTER + INTRA:          -5.555
REMARK INTER:                  -4.887
REMARK INTRA:                  -0.668
REMARK UNBOUND:                -0.703
REMARK SMILES CCCCCCC=CC(=O)[O-]
REMARK SMILES IDX 5 1 6 2 7 3 8 4 9 5 10 6 11 7 4 8 3 9 2 10 1 11
REMARK H PARENT
REMARK Flexibility Score: inf
ROOT
ATOM      1  C   UNL     1      99.021   2.812 -29.446  1.00  0.00     0.004 C 
ENDROOT
BRANCH   1   2
ATOM      2  C   UNL     1      99.984   1.622 -29.336  1.00  0.00     0.027 C 
BRANCH   2   3
ATOM      3  C   UNL     1     100.125   1.168 -27.912  1.00  0.00    -0.025 C 
ATOM      4  C   UNL     1      99.165   0.460 -27.305  1.00  0.00     0.020 C 
BRANCH   4   5
ATOM      5  C   UNL     1      99.275   0.019 -25.906  1.00  0.00     0.064 C 
ATOM      6  O   UNL     1      99.736   0.783 -25.017  1.00  0.00    -0.545 OA
ATOM      7  O   UNL     1      98.864  -1.262 -25.560  1.00  0.00    -0.545 OA
ENDBRANCH   4   5
ENDBRANCH   2   3
ENDBRANCH   1   2
BRANCH   1   8
ATOM      8  C   UNL     1      99.695   4.159 -29.131  1.00  0.00     0.000 C 
BRANCH   8   9
ATOM      9  C   UNL     1      98.796   5.130 -28.336  1.00  0.00    -0.000 C 
BRANCH   9  10
ATOM     10  C   UNL     1      97.860   4.393 -27.367  1.00  0.00    -0.003 C 
ATOM     11  C   UNL     1      98.583   4.030 -26.073  1.00  0.00     0.004 C 
ENDBRANCH   9  10
ENDBRANCH   8   9
ENDBRANCH   1   8
TORSDOF 6
ENDMDL
MODEL 5
REMARK VINA RESULT:    -3.589      1.045      2.849
REMARK INTER + INTRA:          -5.551
REMARK INTER:                  -4.782
REMARK INTRA:                  -0.769
REMARK UNBOUND:                -0.703
REMARK SMILES CCCCCCC=CC(=O)[O-]
REMARK SMILES IDX 5 1 6 2 7 3 8 4 9 5 10 6 11 7 4 8 3 9 2 10 1 11
REMARK H PARENT
REMARK Flexibility Score: inf
ROOT
ATOM      1  C   UNL     1      99.275   4.749 -27.435  1.00  0.00     0.004 C 
ENDROOT
BRANCH   1   2
ATOM      2  C   UNL     1      98.904   4.713 -28.924  1.00  0.00     0.027 C 
BRANCH   2   3
ATOM      3  C   UNL     1      99.310   3.412 -29.553  1.00  0.00    -0.025 C 
ATOM      4  C   UNL     1      98.415   2.452 -29.814  1.00  0.00     0.020 C 
BRANCH   4   5
ATOM      5  C   UNL     1      98.792   1.164 -30.415  1.00  0.00     0.064 C 
ATOM      6  O   UNL     1      98.670   0.086 -29.774  1.00  0.00    -0.545 OA
ATOM      7  O   UNL     1      99.295   1.134 -31.709  1.00  0.00    -0.545 OA
ENDBRANCH   4   5
ENDBRANCH   2   3
ENDBRANCH   1   2
BRANCH   1   8
ATOM      8  C   UNL     1      98.182   4.154 -26.531  1.00  0.00     0.000 C 
BRANCH   8   9
ATOM      9  C   UNL     1      98.690   3.031 -25.602  1.00  0.00    -0.000 C 
BRANCH   9  10
ATOM     10  C   UNL     1      98.573   1.644 -26.251  1.00  0.00    -0.003 C 
ATOM     11  C   UNL     1      99.951   1.064 -26.560  1.00  0.00     0.004 C 
ENDBRANCH   9  10
ENDBRANCH   8   9
ENDBRANCH   1   8
TORSDOF 6
ENDMDL
MODEL 6
REMARK VINA RESULT:    -3.503      3.369      4.340
REMARK INTER + INTRA:          -5.435
REMARK INTER:                  -4.722
REMARK INTRA:                  -0.712
REMARK UNBOUND:                -0.703
REMARK SMILES CCCCCCC=CC(=O)[O-]
REMARK SMILES IDX 5 1 6 2 7 3 8 4 9 5 10 6 11 7 4 8 3 9 2 10 1 11
REMARK H PARENT
REMARK Flexibility Score: inf
ROOT
ATOM      1  C   UNL     1      99.026   2.440 -26.207  1.00  0.00     0.004 C 
ENDROOT
BRANCH   1   2
ATOM      2  C   UNL     1      98.023   3.271 -25.394  1.00  0.00     0.027 C 
BRANCH   2   3
ATOM      3  C   UNL     1      96.609   2.924 -25.759  1.00  0.00    -0.025 C 
ATOM      4  C   UNL     1      95.840   3.767 -26.457  1.00  0.00     0.020 C 
BRANCH   4   5
ATOM      5  C   UNL     1      94.447   3.455 -26.811  1.00  0.00     0.064 C 
ATOM      6  O   UNL     1      94.139   3.075 -27.972  1.00  0.00    -0.545 OA
ATOM      7  O   UNL     1      93.453   3.582 -25.849  1.00  0.00    -0.545 OA
ENDBRANCH   4   5
ENDBRANCH   2   3
ENDBRANCH   1   2
BRANCH   1   8
ATOM      8  C   UNL     1      99.383   3.085 -27.557  1.00  0.00     0.000 C 
BRANCH   8   9
ATOM      9  C   UNL     1      99.439   4.627 -27.511  1.00  0.00    -0.000 C 
BRANCH   9  10
ATOM     10  C   UNL     1      98.640   5.271 -28.653  1.00  0.00    -0.003 C 
ATOM     11  C   UNL     1      97.990   4.210 -29.537  1.00  0.00     0.004 C 
ENDBRANCH   9  10
ENDBRANCH   8   9
ENDBRANCH   1   8
TORSDOF 6
ENDMDL
MODEL 7
REMARK VINA RESULT:    -3.454      1.427      2.605
REMARK INTER + INTRA:          -5.368
REMARK INTER:                  -4.825
REMARK INTRA:                  -0.544
REMARK UNBOUND:                -0.703
REMARK SMILES CCCCCCC=CC(=O)[O-]
REMARK SMILES IDX 5 1 6 2 7 3 8 4 9 5 10 6 11 7 4 8 3 9 2 10 1 11
REMARK H PARENT
REMARK Flexibility Score: inf
ROOT
ATOM      1  C   UNL     1      98.724   4.876 -27.423  1.00  0.00     0.004 C 
ENDROOT
BRANCH   1   2
ATOM      2  C   UNL     1     100.058   4.640 -28.144  1.00  0.00     0.027 C 
BRANCH   2   3
ATOM      3  C   UNL     1     100.115   3.265 -28.743  1.00  0.00    -0.025 C 
ATOM      4  C   UNL     1      99.187   2.839 -29.608  1.00  0.00     0.020 C 
BRANCH   4   5
ATOM      5  C   UNL     1      99.214   1.490 -30.194  1.00  0.00     0.064 C 
ATOM      6  O   UNL     1      99.524   1.311 -31.402  1.00  0.00    -0.545 OA
ATOM      7  O   UNL     1      98.890   0.395 -29.403  1.00  0.00    -0.545 OA
ENDBRANCH   4   5
ENDBRANCH   2   3
ENDBRANCH   1   2
BRANCH   1   8
ATOM      8  C   UNL     1      98.613   4.098 -26.100  1.00  0.00     0.000 C 
BRANCH   8   9
ATOM      9  C   UNL     1      97.418   3.121 -26.055  1.00  0.00    -0.000 C 
BRANCH   9  10
ATOM     10  C   UNL     1      96.330   3.489 -27.074  1.00  0.00    -0.003 C 
ATOM     11  C   UNL     1      95.035   3.892 -26.375  1.00  0.00     0.004 C 
ENDBRANCH   9  10
ENDBRANCH   8   9
ENDBRANCH   1   8
TORSDOF 6
ENDMDL
MODEL 8
REMARK VINA RESULT:    -3.431      2.558      4.372
REMARK INTER + INTRA:          -5.337
REMARK INTER:                  -4.641
REMARK INTRA:                  -0.696
REMARK UNBOUND:                -0.703
REMARK SMILES CCCCCCC=CC(=O)[O-]
REMARK SMILES IDX 5 1 6 2 7 3 8 4 9 5 10 6 11 7 4 8 3 9 2 10 1 11
REMARK H PARENT
REMARK Flexibility Score: inf
ROOT
ATOM      1  C   UNL     1      98.522   4.520 -29.113  1.00  0.00     0.004 C 
ENDROOT
BRANCH   1   2
ATOM      2  C   UNL     1      98.103   4.579 -27.637  1.00  0.00     0.027 C 
BRANCH   2   3
ATOM      3  C   UNL     1      98.946   3.664 -26.797  1.00  0.00    -0.025 C 
ATOM      4  C   UNL     1      98.463   2.514 -26.314  1.00  0.00     0.020 C 
BRANCH   4   5
ATOM      5  C   UNL     1      99.265   1.611 -25.476  1.00  0.00     0.064 C 
ATOM      6  O   UNL     1      99.332   1.768 -24.228  1.00  0.00    -0.545 OA
ATOM      7  O   UNL     1      99.964   0.568 -26.070  1.00  0.00    -0.545 OA
ENDBRANCH   4   5
ENDBRANCH   2   3
ENDBRANCH   1   2
BRANCH   1   8
ATOM      8  C   UNL     1      99.960   4.008 -29.307  1.00  0.00     0.000 C 
BRANCH   8   9
ATOM      9  C   UNL     1     100.061   2.794 -30.256  1.00  0.00    -0.000 C 
BRANCH   9  10
ATOM     10  C   UNL     1     100.125   1.464 -29.492  1.00  0.00    -0.003 C 
ATOM     11  C   UNL     1      98.912   0.592 -29.803  1.00  0.00     0.004 C 
ENDBRANCH   9  10
ENDBRANCH   8   9
ENDBRANCH   1   8
TORSDOF 6
ENDMDL
MODEL 9
REMARK VINA RESULT:    -3.351      3.282      3.982
REMARK INTER + INTRA:          -5.229
REMARK INTER:                  -4.809
REMARK INTRA:                  -0.420
REMARK UNBOUND:                -0.703
REMARK SMILES CCCCCCC=CC(=O)[O-]
REMARK SMILES IDX 5 1 6 2 7 3 8 4 9 5 10 6 11 7 4 8 3 9 2 10 1 11
REMARK H PARENT
REMARK Flexibility Score: inf
ROOT
ATOM      1  C   UNL     1      98.227   2.043 -27.756  1.00  0.00     0.004 C 
ENDROOT
BRANCH   1   2
ATOM      2  C   UNL     1      99.286   0.936 -27.657  1.00  0.00     0.027 C 
BRANCH   2   3
ATOM      3  C   UNL     1      99.478   0.493 -26.236  1.00  0.00    -0.025 C 
ATOM      4  C   UNL     1      99.018  -0.686 -25.803  1.00  0.00     0.020 C 
BRANCH   4   5
ATOM      5  C   UNL     1      99.181  -1.133 -24.411  1.00  0.00     0.064 C 
ATOM      6  O   UNL     1      99.501  -2.321 -24.141  1.00  0.00    -0.545 OA
ATOM      7  O   UNL     1      98.975  -0.230 -23.375  1.00  0.00    -0.545 OA
ENDBRANCH   4   5
ENDBRANCH   2   3
ENDBRANCH   1   2
BRANCH   1   8
ATOM      8  C   UNL     1      98.082   2.849 -26.453  1.00  0.00     0.000 C 
BRANCH   8   9
ATOM      9  C   UNL     1      98.745   4.242 -26.509  1.00  0.00    -0.000 C 
BRANCH   9  10
ATOM     10  C   UNL     1      98.711   4.844 -27.921  1.00  0.00    -0.003 C 
ATOM     11  C   UNL     1     100.119   5.152 -28.423  1.00  0.00     0.004 C 
ENDBRANCH   9  10
ENDBRANCH   8   9
ENDBRANCH   1   8
TORSDOF 6
ENDMDL
