MODEL 1
REMARK VINA RESULT:    -5.830      0.000      0.000
REMARK INTER + INTRA:          -8.480
REMARK INTER:                  -7.875
REMARK INTRA:                  -0.604
REMARK UNBOUND:                -0.604
REMARK SMILES COc1ccc(-c2cc(=O)c3c(OC)c(OC)c(OC)c(OC)c3o2)cc1
REMARK SMILES IDX 7 1 8 2 9 3 10 4 11 5 24 6 25 7 21 8 18 9 15 10 12 11 6 12
REMARK SMILES IDX 3 13 4 14 27 15 5 16 26 17 2 18 1 19 22 20 23 21 13 22 14 23
REMARK SMILES IDX 19 24 20 25 16 26 17 27
REMARK H PARENT
REMARK Flexibility Score: inf
ROOT
ATOM      1  C   UNL     1     124.238 126.946 145.557  1.00  0.00     0.138 A 
ATOM      2  C   UNL     1     125.246 126.340 146.319  1.00  0.00     0.100 A 
ATOM      3  C   UNL     1     125.453 124.965 146.211  1.00  0.00     0.197 A 
ATOM      4  O   UNL     1     126.359 124.431 146.905  1.00  0.00    -0.289 OA
ATOM      5  C   UNL     1     124.643 124.203 145.340  1.00  0.00     0.115 A 
ATOM      6  C   UNL     1     123.646 124.882 144.611  1.00  0.00     0.188 A 
ATOM      7  O   UNL     1     123.491 126.198 144.751  1.00  0.00    -0.452 OA
ATOM      8  C   UNL     1     122.809 124.198 143.721  1.00  0.00     0.209 A 
ATOM      9  C   UNL     1     122.941 122.795 143.565  1.00  0.00     0.211 A 
ATOM     10  C   UNL     1     123.912 122.101 144.333  1.00  0.00     0.208 A 
ATOM     11  C   UNL     1     124.801 122.812 145.166  1.00  0.00     0.179 A 
ENDROOT
BRANCH   1  12
ATOM     12  C   UNL     1     123.968 128.404 145.630  1.00  0.00     0.018 A 
ATOM     13  C   UNL     1     123.450 131.174 145.837  1.00  0.00     0.118 A 
ATOM     14  C   UNL     1     124.012 130.475 146.910  1.00  0.00     0.047 A 
ATOM     15  C   UNL     1     123.138 130.479 144.656  1.00  0.00     0.047 A 
ATOM     16  C   UNL     1     124.264 129.104 146.812  1.00  0.00     0.016 A 
ATOM     17  C   UNL     1     123.390 129.107 144.555  1.00  0.00     0.016 A 
BRANCH  13  18
ATOM     18  O   UNL     1     123.217 132.550 145.986  1.00  0.00    -0.497 OA
ATOM     19  C   UNL     1     122.268 133.112 146.885  1.00  0.00     0.278 C 
ENDBRANCH  13  18
ENDBRANCH   1  12
BRANCH   8  20
ATOM     20  O   UNL     1     121.865 124.981 143.026  1.00  0.00    -0.490 OA
ATOM     21  C   UNL     1     120.501 125.194 143.377  1.00  0.00     0.278 C 
ENDBRANCH   8  20
BRANCH  11  22
ATOM     22  O   UNL     1     125.847 122.147 145.817  1.00  0.00    -0.492 OA
ATOM     23  C   UNL     1     127.057 121.796 145.154  1.00  0.00     0.278 C 
ENDBRANCH  11  22
BRANCH   9  24
ATOM     24  O   UNL     1     122.087 122.140 142.657  1.00  0.00    -0.490 OA
ATOM     25  C   UNL     1     120.894 121.423 142.958  1.00  0.00     0.279 C 
ENDBRANCH   9  24
BRANCH  10  26
ATOM     26  O   UNL     1     123.980 120.706 144.281  1.00  0.00    -0.490 OA
ATOM     27  C   UNL     1     124.547 120.008 143.175  1.00  0.00     0.278 C 
ENDBRANCH  10  26
TORSDOF 6
ENDMDL
MODEL 2
REMARK VINA RESULT:    -5.810      5.106      7.340
REMARK INTER + INTRA:          -8.452
REMARK INTER:                  -7.927
REMARK INTRA:                  -0.525
REMARK UNBOUND:                -0.604
REMARK SMILES COc1ccc(-c2cc(=O)c3c(OC)c(OC)c(OC)c(OC)c3o2)cc1
REMARK SMILES IDX 7 1 8 2 9 3 10 4 11 5 24 6 25 7 21 8 18 9 15 10 12 11 6 12
REMARK SMILES IDX 3 13 4 14 27 15 5 16 26 17 2 18 1 19 22 20 23 21 13 22 14 23
REMARK SMILES IDX 19 24 20 25 16 26 17 27
REMARK H PARENT
REMARK Flexibility Score: inf
ROOT
ATOM      1  C   UNL     1     122.487 124.623 139.586  1.00  0.00     0.138 A 
ATOM      2  C   UNL     1     121.460 124.156 140.418  1.00  0.00     0.100 A 
ATOM      3  C   UNL     1     121.786 123.472 141.589  1.00  0.00     0.197 A 
ATOM      4  O   UNL     1     120.854 123.053 142.327  1.00  0.00    -0.289 OA
ATOM      5  C   UNL     1     123.143 123.256 141.917  1.00  0.00     0.115 A 
ATOM      6  C   UNL     1     124.118 123.750 141.027  1.00  0.00     0.188 A 
ATOM      7  O   UNL     1     123.753 124.397 139.922  1.00  0.00    -0.452 OA
ATOM      8  C   UNL     1     125.485 123.584 141.287  1.00  0.00     0.209 A 
ATOM      9  C   UNL     1     125.902 122.883 142.448  1.00  0.00     0.211 A 
ATOM     10  C   UNL     1     124.922 122.343 143.320  1.00  0.00     0.208 A 
ATOM     11  C   UNL     1     123.551 122.587 143.089  1.00  0.00     0.179 A 
ENDROOT
BRANCH   1  12
ATOM     12  C   UNL     1     122.204 125.356 138.325  1.00  0.00     0.018 A 
ATOM     13  C   UNL     1     121.660 126.690 135.894  1.00  0.00     0.118 A 
ATOM     14  C   UNL     1     121.242 125.369 136.088  1.00  0.00     0.047 A 
ATOM     15  C   UNL     1     122.363 127.342 136.922  1.00  0.00     0.047 A 
ATOM     16  C   UNL     1     121.514 124.705 137.288  1.00  0.00     0.016 A 
ATOM     17  C   UNL     1     122.636 126.681 138.124  1.00  0.00     0.016 A 
BRANCH  13  18
ATOM     18  O   UNL     1     121.362 127.312 134.673  1.00  0.00    -0.497 OA
ATOM     19  C   UNL     1     120.835 126.637 133.535  1.00  0.00     0.278 C 
ENDBRANCH  13  18
ENDBRANCH   1  12
BRANCH   8  20
ATOM     20  O   UNL     1     126.371 124.140 140.343  1.00  0.00    -0.490 OA
ATOM     21  C   UNL     1     127.081 123.449 139.319  1.00  0.00     0.278 C 
ENDBRANCH   8  20
BRANCH  11  22
ATOM     22  O   UNL     1     122.592 122.174 144.021  1.00  0.00    -0.492 OA
ATOM     23  C   UNL     1     122.264 120.803 144.221  1.00  0.00     0.278 C 
ENDBRANCH  11  22
BRANCH   9  24
ATOM     24  O   UNL     1     127.283 122.739 142.681  1.00  0.00    -0.490 OA
ATOM     25  C   UNL     1     128.095 121.607 142.384  1.00  0.00     0.279 C 
ENDBRANCH   9  24
BRANCH  10  26
ATOM     26  O   UNL     1     125.310 121.552 144.405  1.00  0.00    -0.490 OA
ATOM     27  C   UNL     1     125.657 122.106 145.671  1.00  0.00     0.278 C 
ENDBRANCH  10  26
TORSDOF 6
ENDMDL
MODEL 3
REMARK VINA RESULT:    -5.791     15.180     17.975
REMARK INTER + INTRA:          -8.427
REMARK INTER:                  -7.822
REMARK INTRA:                  -0.605
REMARK UNBOUND:                -0.604
REMARK SMILES COc1ccc(-c2cc(=O)c3c(OC)c(OC)c(OC)c(OC)c3o2)cc1
REMARK SMILES IDX 7 1 8 2 9 3 10 4 11 5 24 6 25 7 21 8 18 9 15 10 12 11 6 12
REMARK SMILES IDX 3 13 4 14 27 15 5 16 26 17 2 18 1 19 22 20 23 21 13 22 14 23
REMARK SMILES IDX 19 24 20 25 16 26 17 27
REMARK H PARENT
REMARK Flexibility Score: inf
ROOT
ATOM      1  C   UNL     1     136.038 132.909 138.185  1.00  0.00     0.138 A 
ATOM      2  C   UNL     1     135.962 133.853 139.219  1.00  0.00     0.100 A 
ATOM      3  C   UNL     1     135.534 135.149 138.931  1.00  0.00     0.197 A 
ATOM      4  O   UNL     1     135.474 135.990 139.868  1.00  0.00    -0.289 OA
ATOM      5  C   UNL     1     135.189 135.493 137.605  1.00  0.00     0.115 A 
ATOM      6  C   UNL     1     135.298 134.491 136.619  1.00  0.00     0.188 A 
ATOM      7  O   UNL     1     135.712 133.268 136.948  1.00  0.00    -0.452 OA
ATOM      8  C   UNL     1     134.967 134.752 135.284  1.00  0.00     0.209 A 
ATOM      9  C   UNL     1     134.540 136.050 134.903  1.00  0.00     0.211 A 
ATOM     10  C   UNL     1     134.476 137.073 135.884  1.00  0.00     0.208 A 
ATOM     11  C   UNL     1     134.735 136.777 137.239  1.00  0.00     0.179 A 
ENDROOT
BRANCH   1  12
ATOM     12  C   UNL     1     136.488 131.515 138.428  1.00  0.00     0.018 A 
ATOM     13  C   UNL     1     137.286 128.838 138.856  1.00  0.00     0.118 A 
ATOM     14  C   UNL     1     136.426 129.162 137.802  1.00  0.00     0.047 A 
ATOM     15  C   UNL     1     137.742 129.861 139.706  1.00  0.00     0.047 A 
ATOM     16  C   UNL     1     136.026 130.484 137.591  1.00  0.00     0.016 A 
ATOM     17  C   UNL     1     137.343 131.185 139.497  1.00  0.00     0.016 A 
BRANCH  13  18
ATOM     18  O   UNL     1     137.660 127.496 139.025  1.00  0.00    -0.497 OA
ATOM     19  C   UNL     1     136.980 126.393 138.435  1.00  0.00     0.278 C 
ENDBRANCH  13  18
ENDBRANCH   1  12
BRANCH   8  20
ATOM     20  O   UNL     1     135.088 133.670 134.388  1.00  0.00    -0.490 OA
ATOM     21  C   UNL     1     136.186 133.389 133.525  1.00  0.00     0.278 C 
ENDBRANCH   8  20
BRANCH  11  22
ATOM     22  O   UNL     1     134.538 137.750 138.227  1.00  0.00    -0.492 OA
ATOM     23  C   UNL     1     133.247 138.072 138.732  1.00  0.00     0.278 C 
ENDBRANCH  11  22
BRANCH   9  24
ATOM     24  O   UNL     1     134.208 136.275 133.554  1.00  0.00    -0.490 OA
ATOM     25  C   UNL     1     135.018 136.893 132.558  1.00  0.00     0.279 C 
ENDBRANCH   9  24
BRANCH  10  26
ATOM     26  O   UNL     1     134.170 138.384 135.509  1.00  0.00    -0.490 OA
ATOM     27  C   UNL     1     132.844 138.801 135.192  1.00  0.00     0.278 C 
ENDBRANCH  10  26
TORSDOF 6
ENDMDL
MODEL 4
REMARK VINA RESULT:    -5.714      6.314      9.584
REMARK INTER + INTRA:          -8.323
REMARK INTER:                  -7.595
REMARK INTRA:                  -0.727
REMARK UNBOUND:                -0.604
REMARK SMILES COc1ccc(-c2cc(=O)c3c(OC)c(OC)c(OC)c(OC)c3o2)cc1
REMARK SMILES IDX 7 1 8 2 9 3 10 4 11 5 24 6 25 7 21 8 18 9 15 10 12 11 6 12
REMARK SMILES IDX 3 13 4 14 27 15 5 16 26 17 2 18 1 19 22 20 23 21 13 22 14 23
REMARK SMILES IDX 19 24 20 25 16 26 17 27
REMARK H PARENT
REMARK Flexibility Score: inf
ROOT
ATOM      1  C   UNL     1     122.091 124.500 139.527  1.00  0.00     0.138 A 
ATOM      2  C   UNL     1     120.922 124.740 138.792  1.00  0.00     0.100 A 
ATOM      3  C   UNL     1     120.998 125.467 137.604  1.00  0.00     0.197 A 
ATOM      4  O   UNL     1     119.940 125.681 136.954  1.00  0.00    -0.289 OA
ATOM      5  C   UNL     1     122.249 125.954 137.162  1.00  0.00     0.115 A 
ATOM      6  C   UNL     1     123.378 125.677 137.959  1.00  0.00     0.188 A 
ATOM      7  O   UNL     1     123.250 124.977 139.085  1.00  0.00    -0.452 OA
ATOM      8  C   UNL     1     124.653 126.118 137.584  1.00  0.00     0.209 A 
ATOM      9  C   UNL     1     124.816 126.879 136.398  1.00  0.00     0.211 A 
ATOM     10  C   UNL     1     123.674 127.201 135.619  1.00  0.00     0.208 A 
ATOM     11  C   UNL     1     122.408 126.683 135.965  1.00  0.00     0.179 A 
ENDROOT
BRANCH   1  12
ATOM     12  C   UNL     1     122.074 123.734 140.800  1.00  0.00     0.018 A 
ATOM     13  C   UNL     1     122.103 122.250 143.204  1.00  0.00     0.118 A 
ATOM     14  C   UNL     1     123.298 122.560 142.547  1.00  0.00     0.047 A 
ATOM     15  C   UNL     1     120.885 122.679 142.647  1.00  0.00     0.047 A 
ATOM     16  C   UNL     1     123.286 123.290 141.355  1.00  0.00     0.016 A 
ATOM     17  C   UNL     1     120.871 123.410 141.455  1.00  0.00     0.016 A 
BRANCH  13  18
ATOM     18  O   UNL     1     122.169 121.517 144.398  1.00  0.00    -0.497 OA
ATOM     19  C   UNL     1     123.377 121.049 144.988  1.00  0.00     0.278 C 
ENDBRANCH  13  18
ENDBRANCH   1  12
BRANCH   8  20
ATOM     20  O   UNL     1     125.714 125.762 138.442  1.00  0.00    -0.490 OA
ATOM     21  C   UNL     1     126.599 124.656 138.299  1.00  0.00     0.278 C 
ENDBRANCH   8  20
BRANCH  11  22
ATOM     22  O   UNL     1     121.307 126.884 135.124  1.00  0.00    -0.492 OA
ATOM     23  C   UNL     1     121.167 126.208 133.879  1.00  0.00     0.278 C 
ENDBRANCH  11  22
BRANCH   9  24
ATOM     24  O   UNL     1     126.113 127.301 136.047  1.00  0.00    -0.490 OA
ATOM     25  C   UNL     1     127.018 126.657 135.156  1.00  0.00     0.279 C 
ENDBRANCH   9  24
BRANCH  10  26
ATOM     26  O   UNL     1     123.797 128.046 134.513  1.00  0.00    -0.490 OA
ATOM     27  C   UNL     1     123.669 129.462 134.613  1.00  0.00     0.278 C 
ENDBRANCH  10  26
TORSDOF 6
ENDMDL
MODEL 5
REMARK VINA RESULT:    -5.533     15.274     18.128
REMARK INTER + INTRA:          -8.077
REMARK INTER:                  -7.630
REMARK INTRA:                  -0.447
REMARK UNBOUND:                -0.604
REMARK SMILES COc1ccc(-c2cc(=O)c3c(OC)c(OC)c(OC)c(OC)c3o2)cc1
REMARK SMILES IDX 7 1 8 2 9 3 10 4 11 5 24 6 25 7 21 8 18 9 15 10 12 11 6 12
REMARK SMILES IDX 3 13 4 14 27 15 5 16 26 17 2 18 1 19 22 20 23 21 13 22 14 23
REMARK SMILES IDX 19 24 20 25 16 26 17 27
REMARK H PARENT
REMARK Flexibility Score: inf
ROOT
ATOM      1  C   UNL     1     135.873 132.401 136.769  1.00  0.00     0.138 A 
ATOM      2  C   UNL     1     136.037 132.460 135.378  1.00  0.00     0.100 A 
ATOM      3  C   UNL     1     135.850 133.675 134.718  1.00  0.00     0.197 A 
ATOM      4  O   UNL     1     135.995 133.715 133.467  1.00  0.00    -0.289 OA
ATOM      5  C   UNL     1     135.494 134.825 135.458  1.00  0.00     0.115 A 
ATOM      6  C   UNL     1     135.342 134.684 136.853  1.00  0.00     0.188 A 
ATOM      7  O   UNL     1     135.533 133.501 137.433  1.00  0.00    -0.452 OA
ATOM      8  C   UNL     1     134.999 135.779 137.656  1.00  0.00     0.209 A 
ATOM      9  C   UNL     1     134.773 137.047 137.062  1.00  0.00     0.211 A 
ATOM     10  C   UNL     1     134.878 137.180 135.653  1.00  0.00     0.208 A 
ATOM     11  C   UNL     1     135.302 136.089 134.865  1.00  0.00     0.179 A 
ENDROOT
BRANCH   1  12
ATOM     12  C   UNL     1     136.057 131.138 137.528  1.00  0.00     0.018 A 
ATOM     13  C   UNL     1     136.457 128.765 139.009  1.00  0.00     0.118 A 
ATOM     14  C   UNL     1     136.814 130.006 139.546  1.00  0.00     0.047 A 
ATOM     15  C   UNL     1     135.904 128.713 137.717  1.00  0.00     0.047 A 
ATOM     16  C   UNL     1     136.622 131.181 138.814  1.00  0.00     0.016 A 
ATOM     17  C   UNL     1     135.711 129.887 136.982  1.00  0.00     0.016 A 
BRANCH  13  18
ATOM     18  O   UNL     1     136.669 127.615 139.784  1.00  0.00    -0.497 OA
ATOM     19  C   UNL     1     137.797 127.412 140.628  1.00  0.00     0.278 C 
ENDBRANCH  13  18
ENDBRANCH   1  12
BRANCH   8  20
ATOM     20  O   UNL     1     134.899 135.530 139.040  1.00  0.00    -0.490 OA
ATOM     21  C   UNL     1     135.889 135.783 140.032  1.00  0.00     0.278 C 
ENDBRANCH   8  20
BRANCH  11  22
ATOM     22  O   UNL     1     135.540 136.256 133.495  1.00  0.00    -0.492 OA
ATOM     23  C   UNL     1     134.484 136.407 132.551  1.00  0.00     0.278 C 
ENDBRANCH  11  22
BRANCH   9  24
ATOM     24  O   UNL     1     134.437 138.128 137.900  1.00  0.00    -0.490 OA
ATOM     25  C   UNL     1     133.168 138.403 138.485  1.00  0.00     0.279 C 
ENDBRANCH   9  24
BRANCH  10  26
ATOM     26  O   UNL     1     134.547 138.390 135.038  1.00  0.00    -0.490 OA
ATOM     27  C   UNL     1     133.198 138.791 134.813  1.00  0.00     0.278 C 
ENDBRANCH  10  26
TORSDOF 6
ENDMDL
MODEL 6
REMARK VINA RESULT:    -5.487     13.763     15.775
REMARK INTER + INTRA:          -8.016
REMARK INTER:                  -7.324
REMARK INTRA:                  -0.692
REMARK UNBOUND:                -0.604
REMARK SMILES COc1ccc(-c2cc(=O)c3c(OC)c(OC)c(OC)c(OC)c3o2)cc1
REMARK SMILES IDX 7 1 8 2 9 3 10 4 11 5 24 6 25 7 21 8 18 9 15 10 12 11 6 12
REMARK SMILES IDX 3 13 4 14 27 15 5 16 26 17 2 18 1 19 22 20 23 21 13 22 14 23
REMARK SMILES IDX 19 24 20 25 16 26 17 27
REMARK H PARENT
REMARK Flexibility Score: inf
ROOT
ATOM      1  C   UNL     1     129.872 134.488 135.788  1.00  0.00     0.138 A 
ATOM      2  C   UNL     1     130.683 135.209 136.676  1.00  0.00     0.100 A 
ATOM      3  C   UNL     1     132.059 135.264 136.454  1.00  0.00     0.197 A 
ATOM      4  O   UNL     1     132.779 135.910 137.261  1.00  0.00    -0.289 OA
ATOM      5  C   UNL     1     132.616 134.591 135.343  1.00  0.00     0.115 A 
ATOM      6  C   UNL     1     131.736 133.883 134.499  1.00  0.00     0.188 A 
ATOM      7  O   UNL     1     130.429 133.863 134.756  1.00  0.00    -0.452 OA
ATOM      8  C   UNL     1     132.209 133.198 133.373  1.00  0.00     0.209 A 
ATOM      9  C   UNL     1     133.598 133.189 133.085  1.00  0.00     0.211 A 
ATOM     10  C   UNL     1     134.491 133.861 133.960  1.00  0.00     0.208 A 
ATOM     11  C   UNL     1     133.994 134.613 135.045  1.00  0.00     0.179 A 
ENDROOT
BRANCH   1  12
ATOM     12  C   UNL     1     128.402 134.391 135.971  1.00  0.00     0.018 A 
ATOM     13  C   UNL     1     125.603 134.149 136.280  1.00  0.00     0.118 A 
ATOM     14  C   UNL     1     126.381 133.032 135.957  1.00  0.00     0.047 A 
ATOM     15  C   UNL     1     126.231 135.396 136.440  1.00  0.00     0.047 A 
ATOM     16  C   UNL     1     127.764 133.150 135.798  1.00  0.00     0.016 A 
ATOM     17  C   UNL     1     127.616 135.517 136.283  1.00  0.00     0.016 A 
BRANCH  13  18
ATOM     18  O   UNL     1     124.219 133.977 136.428  1.00  0.00    -0.497 OA
ATOM     19  C   UNL     1     123.516 132.784 136.098  1.00  0.00     0.278 C 
ENDBRANCH  13  18
ENDBRANCH   1  12
BRANCH   8  20
ATOM     20  O   UNL     1     131.239 132.546 132.585  1.00  0.00    -0.490 OA
ATOM     21  C   UNL     1     130.829 131.186 132.680  1.00  0.00     0.278 C 
ENDBRANCH   8  20
BRANCH  11  22
ATOM     22  O   UNL     1     134.860 135.388 135.826  1.00  0.00    -0.492 OA
ATOM     23  C   UNL     1     135.420 136.610 135.358  1.00  0.00     0.278 C 
ENDBRANCH  11  22
BRANCH   9  24
ATOM     24  O   UNL     1     134.040 132.496 131.941  1.00  0.00    -0.490 OA
ATOM     25  C   UNL     1     134.417 131.126 131.855  1.00  0.00     0.279 C 
ENDBRANCH   9  24
BRANCH  10  26
ATOM     26  O   UNL     1     135.871 133.767 133.759  1.00  0.00    -0.490 OA
ATOM     27  C   UNL     1     136.648 132.688 134.273  1.00  0.00     0.278 C 
ENDBRANCH  10  26
TORSDOF 6
ENDMDL
MODEL 7
REMARK VINA RESULT:    -5.479      1.034      3.437
REMARK INTER + INTRA:          -8.006
REMARK INTER:                  -7.574
REMARK INTRA:                  -0.432
REMARK UNBOUND:                -0.604
REMARK SMILES COc1ccc(-c2cc(=O)c3c(OC)c(OC)c(OC)c(OC)c3o2)cc1
REMARK SMILES IDX 7 1 8 2 9 3 10 4 11 5 24 6 25 7 21 8 18 9 15 10 12 11 6 12
REMARK SMILES IDX 3 13 4 14 27 15 5 16 26 17 2 18 1 19 22 20 23 21 13 22 14 23
REMARK SMILES IDX 19 24 20 25 16 26 17 27
REMARK H PARENT
REMARK Flexibility Score: inf
ROOT
ATOM      1  C   UNL     1     123.358 126.774 144.896  1.00  0.00     0.138 A 
ATOM      2  C   UNL     1     122.150 126.336 144.337  1.00  0.00     0.100 A 
ATOM      3  C   UNL     1     121.942 124.970 144.141  1.00  0.00     0.197 A 
ATOM      4  O   UNL     1     120.854 124.588 143.633  1.00  0.00    -0.289 OA
ATOM      5  C   UNL     1     122.952 124.051 144.503  1.00  0.00     0.115 A 
ATOM      6  C   UNL     1     124.142 124.569 145.053  1.00  0.00     0.188 A 
ATOM      7  O   UNL     1     124.289 125.882 145.220  1.00  0.00    -0.452 OA
ATOM      8  C   UNL     1     125.186 123.721 145.445  1.00  0.00     0.209 A 
ATOM      9  C   UNL     1     125.064 122.320 145.263  1.00  0.00     0.211 A 
ATOM     10  C   UNL     1     123.886 121.800 144.665  1.00  0.00     0.208 A 
ATOM     11  C   UNL     1     122.811 122.656 144.349  1.00  0.00     0.179 A 
ENDROOT
BRANCH   1  12
ATOM     12  C   UNL     1     123.639 128.214 145.128  1.00  0.00     0.018 A 
ATOM     13  C   UNL     1     124.186 130.939 145.635  1.00  0.00     0.118 A 
ATOM     14  C   UNL     1     124.729 129.942 146.453  1.00  0.00     0.047 A 
ATOM     15  C   UNL     1     123.357 130.568 144.562  1.00  0.00     0.047 A 
ATOM     16  C   UNL     1     124.455 128.593 146.207  1.00  0.00     0.016 A 
ATOM     17  C   UNL     1     123.083 129.219 144.314  1.00  0.00     0.016 A 
BRANCH  13  18
ATOM     18  O   UNL     1     124.492 132.277 145.924  1.00  0.00    -0.497 OA
ATOM     19  C   UNL     1     123.798 133.073 146.879  1.00  0.00     0.278 C 
ENDBRANCH  13  18
ENDBRANCH   1  12
BRANCH   8  20
ATOM     20  O   UNL     1     126.319 124.345 146.006  1.00  0.00    -0.490 OA
ATOM     21  C   UNL     1     127.508 124.737 145.328  1.00  0.00     0.278 C 
ENDBRANCH   8  20
BRANCH  11  22
ATOM     22  O   UNL     1     121.598 122.129 143.888  1.00  0.00    -0.492 OA
ATOM     23  C   UNL     1     121.419 121.690 142.546  1.00  0.00     0.278 C 
ENDBRANCH  11  22
BRANCH   9  24
ATOM     24  O   UNL     1     126.129 121.496 145.673  1.00  0.00    -0.490 OA
ATOM     25  C   UNL     1     127.265 121.109 144.906  1.00  0.00     0.279 C 
ENDBRANCH   9  24
BRANCH  10  26
ATOM     26  O   UNL     1     123.794 120.437 144.371  1.00  0.00    -0.490 OA
ATOM     27  C   UNL     1     124.334 119.871 143.179  1.00  0.00     0.278 C 
ENDBRANCH  10  26
TORSDOF 6
ENDMDL
MODEL 8
REMARK VINA RESULT:    -5.471      4.803      6.734
REMARK INTER + INTRA:          -7.995
REMARK INTER:                  -7.308
REMARK INTRA:                  -0.686
REMARK UNBOUND:                -0.604
REMARK SMILES COc1ccc(-c2cc(=O)c3c(OC)c(OC)c(OC)c(OC)c3o2)cc1
REMARK SMILES IDX 7 1 8 2 9 3 10 4 11 5 24 6 25 7 21 8 18 9 15 10 12 11 6 12
REMARK SMILES IDX 3 13 4 14 27 15 5 16 26 17 2 18 1 19 22 20 23 21 13 22 14 23
REMARK SMILES IDX 19 24 20 25 16 26 17 27
REMARK H PARENT
REMARK Flexibility Score: inf
ROOT
ATOM      1  C   UNL     1     123.831 124.901 139.232  1.00  0.00     0.138 A 
ATOM      2  C   UNL     1     125.233 124.920 139.228  1.00  0.00     0.100 A 
ATOM      3  C   UNL     1     125.928 124.321 140.278  1.00  0.00     0.197 A 
ATOM      4  O   UNL     1     127.188 124.349 140.266  1.00  0.00    -0.289 OA
ATOM      5  C   UNL     1     125.212 123.710 141.332  1.00  0.00     0.115 A 
ATOM      6  C   UNL     1     123.804 123.737 141.269  1.00  0.00     0.188 A 
ATOM      7  O   UNL     1     123.189 124.322 140.242  1.00  0.00    -0.452 OA
ATOM      8  C   UNL     1     123.024 123.145 142.270  1.00  0.00     0.209 A 
ATOM      9  C   UNL     1     123.653 122.530 143.383  1.00  0.00     0.211 A 
ATOM     10  C   UNL     1     125.069 122.544 143.474  1.00  0.00     0.208 A 
ATOM     11  C   UNL     1     125.844 123.072 142.420  1.00  0.00     0.179 A 
ENDROOT
BRANCH   1  12
ATOM     12  C   UNL     1     123.035 125.523 138.144  1.00  0.00     0.018 A 
ATOM     13  C   UNL     1     121.562 126.759 136.073  1.00  0.00     0.118 A 
ATOM     14  C   UNL     1     122.915 127.062 136.261  1.00  0.00     0.047 A 
ATOM     15  C   UNL     1     120.942 125.837 136.935  1.00  0.00     0.047 A 
ATOM     16  C   UNL     1     123.644 126.456 137.288  1.00  0.00     0.016 A 
ATOM     17  C   UNL     1     121.670 125.229 137.963  1.00  0.00     0.016 A 
BRANCH  13  18
ATOM     18  O   UNL     1     120.876 127.394 135.028  1.00  0.00    -0.497 OA
ATOM     19  C   UNL     1     121.028 127.067 133.651  1.00  0.00     0.278 C 
ENDBRANCH  13  18
ENDBRANCH   1  12
BRANCH   8  20
ATOM     20  O   UNL     1     121.627 123.209 142.092  1.00  0.00    -0.490 OA
ATOM     21  C   UNL     1     120.724 124.119 142.711  1.00  0.00     0.278 C 
ENDBRANCH   8  20
BRANCH  11  22
ATOM     22  O   UNL     1     127.240 122.962 142.443  1.00  0.00    -0.492 OA
ATOM     23  C   UNL     1     127.909 121.719 142.261  1.00  0.00     0.278 C 
ENDBRANCH  11  22
BRANCH   9  24
ATOM     24  O   UNL     1     122.838 121.939 144.369  1.00  0.00    -0.490 OA
ATOM     25  C   UNL     1     122.285 120.627 144.357  1.00  0.00     0.279 C 
ENDBRANCH   9  24
BRANCH  10  26
ATOM     26  O   UNL     1     125.702 122.047 144.616  1.00  0.00    -0.490 OA
ATOM     27  C   UNL     1     125.934 122.848 145.773  1.00  0.00     0.278 C 
ENDBRANCH  10  26
TORSDOF 6
ENDMDL
MODEL 9
REMARK VINA RESULT:    -5.456      4.579      7.467
REMARK INTER + INTRA:          -7.975
REMARK INTER:                  -7.412
REMARK INTRA:                  -0.562
REMARK UNBOUND:                -0.604
REMARK SMILES COc1ccc(-c2cc(=O)c3c(OC)c(OC)c(OC)c(OC)c3o2)cc1
REMARK SMILES IDX 7 1 8 2 9 3 10 4 11 5 24 6 25 7 21 8 18 9 15 10 12 11 6 12
REMARK SMILES IDX 3 13 4 14 27 15 5 16 26 17 2 18 1 19 22 20 23 21 13 22 14 23
REMARK SMILES IDX 19 24 20 25 16 26 17 27
REMARK H PARENT
REMARK Flexibility Score: inf
ROOT
ATOM      1  C   UNL     1     122.364 126.560 139.831  1.00  0.00     0.138 A 
ATOM      2  C   UNL     1     122.464 127.862 140.341  1.00  0.00     0.100 A 
ATOM      3  C   UNL     1     122.675 128.048 141.707  1.00  0.00     0.197 A 
ATOM      4  O   UNL     1     122.759 129.223 142.154  1.00  0.00    -0.289 OA
ATOM      5  C   UNL     1     122.780 126.924 142.558  1.00  0.00     0.115 A 
ATOM      6  C   UNL     1     122.662 125.648 141.972  1.00  0.00     0.188 A 
ATOM      7  O   UNL     1     122.462 125.526 140.661  1.00  0.00    -0.452 OA
ATOM      8  C   UNL     1     122.764 124.485 142.746  1.00  0.00     0.209 A 
ATOM      9  C   UNL     1     122.961 124.586 144.148  1.00  0.00     0.211 A 
ATOM     10  C   UNL     1     123.031 125.870 144.746  1.00  0.00     0.208 A 
ATOM     11  C   UNL     1     123.007 127.031 143.945  1.00  0.00     0.179 A 
ENDROOT
BRANCH   1  12
ATOM     12  C   UNL     1     122.138 126.298 138.388  1.00  0.00     0.018 A 
ATOM     13  C   UNL     1     121.716 125.730 135.652  1.00  0.00     0.118 A 
ATOM     14  C   UNL     1     121.459 124.760 136.626  1.00  0.00     0.047 A 
ATOM     15  C   UNL     1     122.196 126.990 136.051  1.00  0.00     0.047 A 
ATOM     16  C   UNL     1     121.672 125.036 137.979  1.00  0.00     0.016 A 
ATOM     17  C   UNL     1     122.409 127.269 137.405  1.00  0.00     0.016 A 
BRANCH  13  18
ATOM     18  O   UNL     1     121.485 125.403 134.307  1.00  0.00    -0.497 OA
ATOM     19  C   UNL     1     122.435 125.581 133.262  1.00  0.00     0.278 C 
ENDBRANCH  13  18
ENDBRANCH   1  12
BRANCH   8  20
ATOM     20  O   UNL     1     122.657 123.262 142.053  1.00  0.00    -0.490 OA
ATOM     21  C   UNL     1     121.502 122.438 141.939  1.00  0.00     0.278 C 
ENDBRANCH   8  20
BRANCH  11  22
ATOM     22  O   UNL     1     123.215 128.292 144.518  1.00  0.00    -0.492 OA
ATOM     23  C   UNL     1     124.516 128.790 144.812  1.00  0.00     0.278 C 
ENDBRANCH  11  22
BRANCH   9  24
ATOM     24  O   UNL     1     123.065 123.397 144.895  1.00  0.00    -0.490 OA
ATOM     25  C   UNL     1     124.177 122.509 144.953  1.00  0.00     0.279 C 
ENDBRANCH   9  24
BRANCH  10  26
ATOM     26  O   UNL     1     123.108 125.991 146.136  1.00  0.00    -0.490 OA
ATOM     27  C   UNL     1     124.343 125.921 146.845  1.00  0.00     0.278 C 
ENDBRANCH  10  26
TORSDOF 6
ENDMDL
