MODEL 1
REMARK VINA RESULT:    -5.454      0.000      0.000
REMARK INTER + INTRA:          -5.454
REMARK INTER:                  -5.454
REMARK INTRA:                   0.000
REMARK UNBOUND:                 0.000
REMARK SMILES O=c1ccc2ccccc2o1
REMARK SMILES IDX 7 1 8 2 9 3 10 4 5 5 6 6 4 7 3 8 2 9 1 10 11 11
REMARK H PARENT
REMARK Flexibility Score: inf
ROOT
ATOM      1  C   UNL     1      12.734  11.401  13.537  1.00  0.00     0.001 A 
ATOM      2  C   UNL     1      12.205  12.042  14.663  1.00  0.00     0.004 A 
ATOM      3  C   UNL     1      10.900  11.762  15.085  1.00  0.00     0.048 A 
ATOM      4  C   UNL     1      10.120  10.838  14.381  1.00  0.00     0.138 A 
ATOM      5  C   UNL     1      10.654  10.191  13.244  1.00  0.00     0.018 A 
ATOM      6  C   UNL     1      11.962  10.475  12.827  1.00  0.00     0.012 A 
ATOM      7  C   UNL     1       9.851   9.273  12.561  1.00  0.00     0.019 A 
ATOM      8  C   UNL     1       8.556   9.025  13.017  1.00  0.00     0.094 A 
ATOM      9  C   UNL     1       8.094   9.704  14.150  1.00  0.00     0.336 A 
ATOM     10  O   UNL     1       6.929   9.493  14.577  1.00  0.00    -0.246 OA
ATOM     11  O   UNL     1       8.879  10.572  14.782  1.00  0.00    -0.423 OA
ENDROOT
TORSDOF 0
ENDMDL
MODEL 2
REMARK VINA RESULT:    -5.446      1.514      3.793
REMARK INTER + INTRA:          -5.446
REMARK INTER:                  -5.446
REMARK INTRA:                   0.000
REMARK UNBOUND:                 0.000
REMARK SMILES O=c1ccc2ccccc2o1
REMARK SMILES IDX 7 1 8 2 9 3 10 4 5 5 6 6 4 7 3 8 2 9 1 10 11 11
REMARK H PARENT
REMARK Flexibility Score: inf
ROOT
ATOM      1  C   UNL     1       8.621   8.942  12.846  1.00  0.00     0.001 A 
ATOM      2  C   UNL     1       8.031   9.390  14.032  1.00  0.00     0.004 A 
ATOM      3  C   UNL     1       8.720  10.274  14.871  1.00  0.00     0.048 A 
ATOM      4  C   UNL     1      10.003  10.711  14.524  1.00  0.00     0.138 A 
ATOM      5  C   UNL     1      10.599  10.258  13.326  1.00  0.00     0.018 A 
ATOM      6  C   UNL     1       9.903   9.373  12.489  1.00  0.00     0.012 A 
ATOM      7  C   UNL     1      11.882  10.712  13.007  1.00  0.00     0.019 A 
ATOM      8  C   UNL     1      12.531  11.592  13.873  1.00  0.00     0.094 A 
ATOM      9  C   UNL     1      11.880  11.998  15.042  1.00  0.00     0.336 A 
ATOM     10  O   UNL     1      12.449  12.792  15.835  1.00  0.00    -0.246 OA
ATOM     11  O   UNL     1      10.658  11.551  15.323  1.00  0.00    -0.423 OA
ENDROOT
TORSDOF 0
ENDMDL
MODEL 3
REMARK VINA RESULT:    -5.429      1.538      2.303
REMARK INTER + INTRA:          -5.429
REMARK INTER:                  -5.429
REMARK INTRA:                   0.000
REMARK UNBOUND:                 0.000
REMARK SMILES O=c1ccc2ccccc2o1
REMARK SMILES IDX 7 1 8 2 9 3 10 4 5 5 6 6 4 7 3 8 2 9 1 10 11 11
REMARK H PARENT
REMARK Flexibility Score: inf
ROOT
ATOM      1  C   UNL     1      12.237  11.245  15.349  1.00  0.00     0.001 A 
ATOM      2  C   UNL     1      12.895  10.753  14.217  1.00  0.00     0.004 A 
ATOM      3  C   UNL     1      12.182  10.057  13.234  1.00  0.00     0.048 A 
ATOM      4  C   UNL     1      10.806   9.851  13.382  1.00  0.00     0.138 A 
ATOM      5  C   UNL     1      10.141  10.348  14.525  1.00  0.00     0.018 A 
ATOM      6  C   UNL     1      10.861  11.045  15.506  1.00  0.00     0.012 A 
ATOM      7  C   UNL     1       8.766  10.126  14.645  1.00  0.00     0.019 A 
ATOM      8  C   UNL     1       8.096   9.427  13.640  1.00  0.00     0.094 A 
ATOM      9  C   UNL     1       8.820   8.964  12.537  1.00  0.00     0.336 A 
ATOM     10  O   UNL     1       8.233   8.332  11.620  1.00  0.00    -0.246 OA
ATOM     11  O   UNL     1      10.128   9.189  12.447  1.00  0.00    -0.423 OA
ENDROOT
TORSDOF 0
ENDMDL
MODEL 4
REMARK VINA RESULT:    -5.273      2.178      4.410
REMARK INTER + INTRA:          -5.273
REMARK INTER:                  -5.273
REMARK INTRA:                   0.000
REMARK UNBOUND:                 0.000
REMARK SMILES O=c1ccc2ccccc2o1
REMARK SMILES IDX 7 1 8 2 9 3 10 4 5 5 6 6 4 7 3 8 2 9 1 10 11 11
REMARK H PARENT
REMARK Flexibility Score: inf
ROOT
ATOM      1  C   UNL     1       8.168   9.764  14.374  1.00  0.00     0.001 A 
ATOM      2  C   UNL     1       8.429   9.172  13.134  1.00  0.00     0.004 A 
ATOM      3  C   UNL     1       9.729   9.170  12.614  1.00  0.00     0.048 A 
ATOM      4  C   UNL     1      10.772   9.761  13.336  1.00  0.00     0.138 A 
ATOM      5  C   UNL     1      10.507  10.359  14.589  1.00  0.00     0.018 A 
ATOM      6  C   UNL     1       9.203  10.357  15.104  1.00  0.00     0.012 A 
ATOM      7  C   UNL     1      11.569  10.942  15.286  1.00  0.00     0.019 A 
ATOM      8  C   UNL     1      12.849  10.917  14.730  1.00  0.00     0.094 A 
ATOM      9  C   UNL     1      13.036  10.308  13.485  1.00  0.00     0.336 A 
ATOM     10  O   UNL     1      14.182  10.275  12.967  1.00  0.00    -0.246 OA
ATOM     11  O   UNL     1      12.008   9.760  12.842  1.00  0.00    -0.423 OA
ENDROOT
TORSDOF 0
ENDMDL
MODEL 5
REMARK VINA RESULT:    -5.213      1.549      2.346
REMARK INTER + INTRA:          -5.213
REMARK INTER:                  -5.213
REMARK INTRA:                   0.000
REMARK UNBOUND:                 0.000
REMARK SMILES O=c1ccc2ccccc2o1
REMARK SMILES IDX 7 1 8 2 9 3 10 4 5 5 6 6 4 7 3 8 2 9 1 10 11 11
REMARK H PARENT
REMARK Flexibility Score: inf
ROOT
ATOM      1  C   UNL     1      13.237   9.754  12.703  1.00  0.00     0.001 A 
ATOM      2  C   UNL     1      12.433   9.796  11.559  1.00  0.00     0.004 A 
ATOM      3  C   UNL     1      11.039   9.765  11.677  1.00  0.00     0.048 A 
ATOM      4  C   UNL     1      10.445   9.691  12.942  1.00  0.00     0.138 A 
ATOM      5  C   UNL     1      11.257   9.648  14.097  1.00  0.00     0.018 A 
ATOM      6  C   UNL     1      12.654   9.680  13.972  1.00  0.00     0.012 A 
ATOM      7  C   UNL     1      10.635   9.574  15.347  1.00  0.00     0.019 A 
ATOM      8  C   UNL     1       9.242   9.545  15.417  1.00  0.00     0.094 A 
ATOM      9  C   UNL     1       8.502   9.591  14.231  1.00  0.00     0.336 A 
ATOM     10  O   UNL     1       7.244   9.566  14.274  1.00  0.00    -0.246 OA
ATOM     11  O   UNL     1       9.119   9.662  13.054  1.00  0.00    -0.423 OA
ENDROOT
TORSDOF 0
ENDMDL
MODEL 6
REMARK VINA RESULT:    -5.150      2.263      4.037
REMARK INTER + INTRA:          -5.150
REMARK INTER:                  -5.150
REMARK INTRA:                   0.000
REMARK UNBOUND:                 0.000
REMARK SMILES O=c1ccc2ccccc2o1
REMARK SMILES IDX 7 1 8 2 9 3 10 4 5 5 6 6 4 7 3 8 2 9 1 10 11 11
REMARK H PARENT
REMARK Flexibility Score: inf
ROOT
ATOM      1  C   UNL     1       8.378   9.272  13.440  1.00  0.00     0.001 A 
ATOM      2  C   UNL     1       8.624   9.429  14.809  1.00  0.00     0.004 A 
ATOM      3  C   UNL     1       9.922   9.679  15.267  1.00  0.00     0.048 A 
ATOM      4  C   UNL     1      10.980   9.772  14.356  1.00  0.00     0.138 A 
ATOM      5  C   UNL     1      10.732   9.614  12.974  1.00  0.00     0.018 A 
ATOM      6  C   UNL     1       9.429   9.365  12.521  1.00  0.00     0.012 A 
ATOM      7  C   UNL     1      11.809   9.713  12.089  1.00  0.00     0.019 A 
ATOM      8  C   UNL     1      13.087   9.963  12.591  1.00  0.00     0.094 A 
ATOM      9  C   UNL     1      13.257  10.108  13.971  1.00  0.00     0.336 A 
ATOM     10  O   UNL     1      14.402  10.334  14.443  1.00  0.00    -0.246 OA
ATOM     11  O   UNL     1      12.215  10.010  14.793  1.00  0.00    -0.423 OA
ENDROOT
TORSDOF 0
ENDMDL
MODEL 7
REMARK VINA RESULT:    -4.978      1.802      2.407
REMARK INTER + INTRA:          -4.978
REMARK INTER:                  -4.978
REMARK INTRA:                   0.000
REMARK UNBOUND:                 0.000
REMARK SMILES O=c1ccc2ccccc2o1
REMARK SMILES IDX 7 1 8 2 9 3 10 4 5 5 6 6 4 7 3 8 2 9 1 10 11 11
REMARK H PARENT
REMARK Flexibility Score: inf
ROOT
ATOM      1  C   UNL     1      12.771  10.127  10.921  1.00  0.00     0.001 A 
ATOM      2  C   UNL     1      13.627  10.327  12.010  1.00  0.00     0.004 A 
ATOM      3  C   UNL     1      13.145  10.200  13.317  1.00  0.00     0.048 A 
ATOM      4  C   UNL     1      11.803   9.872  13.540  1.00  0.00     0.138 A 
ATOM      5  C   UNL     1      10.939   9.670  12.440  1.00  0.00     0.018 A 
ATOM      6  C   UNL     1      11.428   9.798  11.133  1.00  0.00     0.012 A 
ATOM      7  C   UNL     1       9.603   9.344  12.694  1.00  0.00     0.019 A 
ATOM      8  C   UNL     1       9.166   9.228  14.014  1.00  0.00     0.094 A 
ATOM      9  C   UNL     1      10.078   9.443  15.052  1.00  0.00     0.336 A 
ATOM     10  O   UNL     1       9.703   9.343  16.249  1.00  0.00    -0.246 OA
ATOM     11  O   UNL     1      11.344   9.752  14.784  1.00  0.00    -0.423 OA
ENDROOT
TORSDOF 0
ENDMDL
MODEL 8
REMARK VINA RESULT:    -4.790      3.272      4.261
REMARK INTER + INTRA:          -4.790
REMARK INTER:                  -4.790
REMARK INTRA:                   0.000
REMARK UNBOUND:                 0.000
REMARK SMILES O=c1ccc2ccccc2o1
REMARK SMILES IDX 7 1 8 2 9 3 10 4 5 5 6 6 4 7 3 8 2 9 1 10 11 11
REMARK H PARENT
REMARK Flexibility Score: inf
ROOT
ATOM      1  C   UNL     1      14.569   8.382  11.737  1.00  0.00     0.001 A 
ATOM      2  C   UNL     1      15.003   8.151  13.046  1.00  0.00     0.004 A 
ATOM      3  C   UNL     1      14.553   8.965  14.091  1.00  0.00     0.048 A 
ATOM      4  C   UNL     1      13.666  10.016  13.828  1.00  0.00     0.138 A 
ATOM      5  C   UNL     1      13.229  10.249  12.505  1.00  0.00     0.018 A 
ATOM      6  C   UNL     1      13.683   9.429  11.462  1.00  0.00     0.012 A 
ATOM      7  C   UNL     1      12.343  11.306  12.273  1.00  0.00     0.019 A 
ATOM      8  C   UNL     1      11.921  12.093  13.345  1.00  0.00     0.094 A 
ATOM      9  C   UNL     1      12.397  11.803  14.628  1.00  0.00     0.336 A 
ATOM     10  O   UNL     1      12.027  12.501  15.608  1.00  0.00    -0.246 OA
ATOM     11  O   UNL     1      13.239  10.791  14.822  1.00  0.00    -0.423 OA
ENDROOT
TORSDOF 0
ENDMDL
MODEL 9
REMARK VINA RESULT:    -4.740      2.383      3.838
REMARK INTER + INTRA:          -4.740
REMARK INTER:                  -4.740
REMARK INTRA:                   0.000
REMARK UNBOUND:                 0.000
REMARK SMILES O=c1ccc2ccccc2o1
REMARK SMILES IDX 7 1 8 2 9 3 10 4 5 5 6 6 4 7 3 8 2 9 1 10 11 11
REMARK H PARENT
REMARK Flexibility Score: inf
ROOT
ATOM      1  C   UNL     1       9.231   9.664  15.042  1.00  0.00     0.001 A 
ATOM      2  C   UNL     1       9.540  10.881  15.659  1.00  0.00     0.004 A 
ATOM      3  C   UNL     1      10.450  11.762  15.063  1.00  0.00     0.048 A 
ATOM      4  C   UNL     1      11.054  11.426  13.846  1.00  0.00     0.138 A 
ATOM      5  C   UNL     1      10.742  10.197  13.223  1.00  0.00     0.018 A 
ATOM      6  C   UNL     1       9.829   9.319  13.825  1.00  0.00     0.012 A 
ATOM      7  C   UNL     1      11.362   9.889  12.009  1.00  0.00     0.019 A 
ATOM      8  C   UNL     1      12.263  10.797  11.451  1.00  0.00     0.094 A 
ATOM      9  C   UNL     1      12.523  11.995  12.125  1.00  0.00     0.336 A 
ATOM     10  O   UNL     1      13.333  12.827  11.637  1.00  0.00    -0.246 OA
ATOM     11  O   UNL     1      11.920  12.264  13.280  1.00  0.00    -0.423 OA
ENDROOT
TORSDOF 0
ENDMDL
