MODEL 1
REMARK VINA RESULT:    -3.254      0.000      0.000
REMARK INTER + INTRA:          -7.413
REMARK INTER:                  -5.727
REMARK INTRA:                  -1.686
REMARK UNBOUND:                -1.686
REMARK SMILES CCCCCCCCCCCCCCC(=O)[O-]
REMARK SMILES IDX 9 1 10 2 11 3 12 4 13 5 14 6 15 7 16 8 17 9 8 10 7 11 6 12
REMARK SMILES IDX 5 13 4 14 3 15 2 16 1 17
REMARK H PARENT
REMARK Flexibility Score: inf
ROOT
ATOM      1  C   UNL     1      -3.778  -8.246   7.294  1.00  0.00     0.000 C 
ENDROOT
BRANCH   1   2
ATOM      2  C   UNL     1      -2.960  -8.639   8.537  1.00  0.00     0.000 C 
BRANCH   2   3
ATOM      3  C   UNL     1      -2.528 -10.118   8.591  1.00  0.00     0.000 C 
BRANCH   3   4
ATOM      4  C   UNL     1      -1.068 -10.358   9.027  1.00  0.00     0.000 C 
BRANCH   4   5
ATOM      5  C   UNL     1      -0.082  -9.245   8.633  1.00  0.00     0.006 C 
BRANCH   5   6
ATOM      6  C   UNL     1       1.372  -9.586   8.982  1.00  0.00     0.053 C 
BRANCH   6   7
ATOM      7  C   UNL     1       2.143  -9.915   7.743  1.00  0.00     0.041 C 
ATOM      8  O   UNL     1       2.972  -9.090   7.276  1.00  0.00    -0.550 OA
ATOM      9  O   UNL     1       1.912 -11.112   7.077  1.00  0.00    -0.550 OA
ENDBRANCH   6   7
ENDBRANCH   5   6
ENDBRANCH   4   5
ENDBRANCH   3   4
ENDBRANCH   2   3
ENDBRANCH   1   2
BRANCH   1  10
ATOM     10  C   UNL     1      -4.825  -7.162   7.588  1.00  0.00     0.000 C 
BRANCH  10  11
ATOM     11  C   UNL     1      -5.045  -7.003   9.100  1.00  0.00    -0.000 C 
BRANCH  11  12
ATOM     12  C   UNL     1      -6.537  -6.861   9.471  1.00  0.00    -0.000 C 
BRANCH  12  13
ATOM     13  C   UNL     1      -7.244  -8.206   9.724  1.00  0.00    -0.000 C 
BRANCH  13  14
ATOM     14  C   UNL     1      -6.302  -9.400   9.965  1.00  0.00    -0.000 C 
BRANCH  14  15
ATOM     15  C   UNL     1      -6.344 -10.496   8.880  1.00  0.00    -0.000 C 
BRANCH  15  16
ATOM     16  C   UNL     1      -7.118 -10.120   7.605  1.00  0.00    -0.003 C 
ATOM     17  C   UNL     1      -6.401 -10.543   6.324  1.00  0.00     0.004 C 
ENDBRANCH  15  16
ENDBRANCH  14  15
ENDBRANCH  13  14
ENDBRANCH  12  13
ENDBRANCH  11  12
ENDBRANCH  10  11
ENDBRANCH   1  10
TORSDOF 13
ENDMDL
MODEL 2
REMARK VINA RESULT:    -3.229     14.823     16.803
REMARK INTER + INTRA:          -7.368
REMARK INTER:                  -6.182
REMARK INTRA:                  -1.186
REMARK UNBOUND:                -1.686
REMARK SMILES CCCCCCCCCCCCCCC(=O)[O-]
REMARK SMILES IDX 9 1 10 2 11 3 12 4 13 5 14 6 15 7 16 8 17 9 8 10 7 11 6 12
REMARK SMILES IDX 5 13 4 14 3 15 2 16 1 17
REMARK H PARENT
REMARK Flexibility Score: inf
ROOT
ATOM      1  C   UNL     1      -7.906  -3.272  -4.131  1.00  0.00     0.000 C 
ENDROOT
BRANCH   1   2
ATOM      2  C   UNL     1      -7.637  -2.369  -5.348  1.00  0.00     0.000 C 
BRANCH   2   3
ATOM      3  C   UNL     1      -8.875  -1.637  -5.901  1.00  0.00     0.000 C 
BRANCH   3   4
ATOM      4  C   UNL     1      -9.399  -2.164  -7.252  1.00  0.00     0.000 C 
BRANCH   4   5
ATOM      5  C   UNL     1      -8.882  -3.558  -7.649  1.00  0.00     0.006 C 
BRANCH   5   6
ATOM      6  C   UNL     1      -8.428  -3.630  -9.112  1.00  0.00     0.053 C 
BRANCH   6   7
ATOM      7  C   UNL     1      -7.240  -2.748  -9.335  1.00  0.00     0.041 C 
ATOM      8  O   UNL     1      -7.380  -1.626  -9.889  1.00  0.00    -0.550 OA
ATOM      9  O   UNL     1      -5.972  -3.185  -8.974  1.00  0.00    -0.550 OA
ENDBRANCH   6   7
ENDBRANCH   5   6
ENDBRANCH   4   5
ENDBRANCH   3   4
ENDBRANCH   2   3
ENDBRANCH   1   2
BRANCH   1  10
ATOM     10  C   UNL     1      -9.359  -3.193  -3.640  1.00  0.00     0.000 C 
BRANCH  10  11
ATOM     11  C   UNL     1     -10.117  -4.491  -3.956  1.00  0.00    -0.000 C 
BRANCH  11  12
ATOM     12  C   UNL     1      -9.192  -5.602  -4.497  1.00  0.00    -0.000 C 
BRANCH  12  13
ATOM     13  C   UNL     1      -9.907  -6.947  -4.731  1.00  0.00    -0.000 C 
BRANCH  13  14
ATOM     14  C   UNL     1      -9.399  -8.112  -3.862  1.00  0.00    -0.000 C 
BRANCH  14  15
ATOM     15  C   UNL     1      -8.923  -9.353  -4.645  1.00  0.00    -0.000 C 
BRANCH  15  16
ATOM     16  C   UNL     1      -9.923  -9.887  -5.686  1.00  0.00    -0.003 C 
ATOM     17  C   UNL     1      -9.250 -10.671  -6.812  1.00  0.00     0.004 C 
ENDBRANCH  15  16
ENDBRANCH  14  15
ENDBRANCH  13  14
ENDBRANCH  12  13
ENDBRANCH  11  12
ENDBRANCH  10  11
ENDBRANCH   1  10
TORSDOF 13
ENDMDL
MODEL 3
REMARK VINA RESULT:    -3.222     14.998     16.954
REMARK INTER + INTRA:          -7.356
REMARK INTER:                  -6.517
REMARK INTRA:                  -0.839
REMARK UNBOUND:                -1.686
REMARK SMILES CCCCCCCCCCCCCCC(=O)[O-]
REMARK SMILES IDX 9 1 10 2 11 3 12 4 13 5 14 6 15 7 16 8 17 9 8 10 7 11 6 12
REMARK SMILES IDX 5 13 4 14 3 15 2 16 1 17
REMARK H PARENT
REMARK Flexibility Score: inf
ROOT
ATOM      1  C   UNL     1      -9.092  -4.006  -4.233  1.00  0.00     0.000 C 
ENDROOT
BRANCH   1   2
ATOM      2  C   UNL     1      -8.066  -2.863  -4.156  1.00  0.00     0.000 C 
BRANCH   2   3
ATOM      3  C   UNL     1      -7.788  -2.147  -5.493  1.00  0.00     0.000 C 
BRANCH   3   4
ATOM      4  C   UNL     1      -9.013  -1.987  -6.417  1.00  0.00     0.000 C 
BRANCH   4   5
ATOM      5  C   UNL     1      -9.018  -2.903  -7.653  1.00  0.00     0.006 C 
BRANCH   5   6
ATOM      6  C   UNL     1      -7.701  -3.669  -7.832  1.00  0.00     0.053 C 
BRANCH   6   7
ATOM      7  C   UNL     1      -7.063  -3.311  -9.137  1.00  0.00     0.041 C 
ATOM      8  O   UNL     1      -6.424  -4.179  -9.788  1.00  0.00    -0.550 OA
ATOM      9  O   UNL     1      -7.132  -2.007  -9.610  1.00  0.00    -0.550 OA
ENDBRANCH   6   7
ENDBRANCH   5   6
ENDBRANCH   4   5
ENDBRANCH   3   4
ENDBRANCH   2   3
ENDBRANCH   1   2
BRANCH   1  10
ATOM     10  C   UNL     1      -8.437  -5.396  -4.253  1.00  0.00     0.000 C 
BRANCH  10  11
ATOM     11  C   UNL     1      -9.479  -6.492  -4.524  1.00  0.00    -0.000 C 
BRANCH  11  12
ATOM     12  C   UNL     1      -8.945  -7.907  -4.214  1.00  0.00    -0.000 C 
BRANCH  12  13
ATOM     13  C   UNL     1      -9.910  -9.037  -4.622  1.00  0.00    -0.000 C 
BRANCH  13  14
ATOM     14  C   UNL     1      -9.284 -10.141  -5.494  1.00  0.00    -0.000 C 
BRANCH  14  15
ATOM     15  C   UNL     1      -9.767 -10.171  -6.959  1.00  0.00    -0.000 C 
BRANCH  15  16
ATOM     16  C   UNL     1      -8.835 -10.910  -7.936  1.00  0.00    -0.003 C 
ATOM     17  C   UNL     1      -9.082 -10.534  -9.396  1.00  0.00     0.004 C 
ENDBRANCH  15  16
ENDBRANCH  14  15
ENDBRANCH  13  14
ENDBRANCH  12  13
ENDBRANCH  11  12
ENDBRANCH  10  11
ENDBRANCH   1  10
TORSDOF 13
ENDMDL
MODEL 4
REMARK VINA RESULT:    -3.215      5.284      7.597
REMARK INTER + INTRA:          -7.343
REMARK INTER:                  -6.609
REMARK INTRA:                  -0.734
REMARK UNBOUND:                -1.686
REMARK SMILES CCCCCCCCCCCCCCC(=O)[O-]
REMARK SMILES IDX 9 1 10 2 11 3 12 4 13 5 14 6 15 7 16 8 17 9 8 10 7 11 6 12
REMARK SMILES IDX 5 13 4 14 3 15 2 16 1 17
REMARK H PARENT
REMARK Flexibility Score: inf
ROOT
ATOM      1  C   UNL     1      -4.199  -7.804   8.669  1.00  0.00     0.000 C 
ENDROOT
BRANCH   1   2
ATOM      2  C   UNL     1      -4.907  -6.821   9.618  1.00  0.00     0.000 C 
BRANCH   2   3
ATOM      3  C   UNL     1      -6.038  -5.995   8.973  1.00  0.00     0.000 C 
BRANCH   3   4
ATOM      4  C   UNL     1      -6.400  -4.691   9.711  1.00  0.00     0.000 C 
BRANCH   4   5
ATOM      5  C   UNL     1      -7.353  -3.755   8.948  1.00  0.00     0.006 C 
BRANCH   5   6
ATOM      6  C   UNL     1      -7.836  -2.574   9.798  1.00  0.00     0.053 C 
BRANCH   6   7
ATOM      7  C   UNL     1      -7.486  -1.278   9.137  1.00  0.00     0.041 C 
ATOM      8  O   UNL     1      -8.390  -0.557   8.637  1.00  0.00    -0.550 OA
ATOM      9  O   UNL     1      -6.157  -0.889   9.030  1.00  0.00    -0.550 OA
ENDBRANCH   6   7
ENDBRANCH   5   6
ENDBRANCH   4   5
ENDBRANCH   3   4
ENDBRANCH   2   3
ENDBRANCH   1   2
BRANCH   1  10
ATOM     10  C   UNL     1      -4.455  -7.492   7.187  1.00  0.00     0.000 C 
BRANCH  10  11
ATOM     11  C   UNL     1      -4.961  -8.737   6.442  1.00  0.00    -0.000 C 
BRANCH  11  12
ATOM     12  C   UNL     1      -5.607  -9.772   7.387  1.00  0.00    -0.000 C 
BRANCH  12  13
ATOM     13  C   UNL     1      -6.756 -10.570   6.742  1.00  0.00    -0.000 C 
BRANCH  13  14
ATOM     14  C   UNL     1      -6.536 -10.947   5.266  1.00  0.00    -0.000 C 
BRANCH  14  15
ATOM     15  C   UNL     1      -7.799 -11.420   4.516  1.00  0.00    -0.000 C 
BRANCH  15  16
ATOM     16  C   UNL     1      -9.105 -10.722   4.937  1.00  0.00    -0.003 C 
ATOM     17  C   UNL     1      -9.934 -10.239   3.748  1.00  0.00     0.004 C 
ENDBRANCH  15  16
ENDBRANCH  14  15
ENDBRANCH  13  14
ENDBRANCH  12  13
ENDBRANCH  11  12
ENDBRANCH  10  11
ENDBRANCH   1  10
TORSDOF 13
ENDMDL
MODEL 5
REMARK VINA RESULT:    -3.195     17.671     19.127
REMARK INTER + INTRA:          -7.309
REMARK INTER:                  -6.372
REMARK INTRA:                  -0.936
REMARK UNBOUND:                -1.686
REMARK SMILES CCCCCCCCCCCCCCC(=O)[O-]
REMARK SMILES IDX 9 1 10 2 11 3 12 4 13 5 14 6 15 7 16 8 17 9 8 10 7 11 6 12
REMARK SMILES IDX 5 13 4 14 3 15 2 16 1 17
REMARK H PARENT
REMARK Flexibility Score: inf
ROOT
ATOM      1  C   UNL     1      -7.602   6.225  -0.313  1.00  0.00     0.000 C 
ENDROOT
BRANCH   1   2
ATOM      2  C   UNL     1      -6.304   6.917  -0.765  1.00  0.00     0.000 C 
BRANCH   2   3
ATOM      3  C   UNL     1      -5.376   6.051  -1.640  1.00  0.00     0.000 C 
BRANCH   3   4
ATOM      4  C   UNL     1      -3.878   6.410  -1.559  1.00  0.00     0.000 C 
BRANCH   4   5
ATOM      5  C   UNL     1      -3.015   5.416  -0.763  1.00  0.00     0.006 C 
BRANCH   5   6
ATOM      6  C   UNL     1      -1.829   6.087  -0.059  1.00  0.00     0.053 C 
BRANCH   6   7
ATOM      7  C   UNL     1      -0.686   6.256  -1.009  1.00  0.00     0.041 C 
ATOM      8  O   UNL     1      -0.758   5.790  -2.177  1.00  0.00    -0.550 OA
ATOM      9  O   UNL     1       0.480   6.884  -0.589  1.00  0.00    -0.550 OA
ENDBRANCH   6   7
ENDBRANCH   5   6
ENDBRANCH   4   5
ENDBRANCH   3   4
ENDBRANCH   2   3
ENDBRANCH   1   2
BRANCH   1  10
ATOM     10  C   UNL     1      -8.865   6.931  -0.826  1.00  0.00     0.000 C 
BRANCH  10  11
ATOM     11  C   UNL     1      -9.366   6.286  -2.127  1.00  0.00    -0.000 C 
BRANCH  11  12
ATOM     12  C   UNL     1      -8.870   7.028  -3.387  1.00  0.00    -0.000 C 
BRANCH  12  13
ATOM     13  C   UNL     1      -9.236   6.324  -4.707  1.00  0.00    -0.000 C 
BRANCH  13  14
ATOM     14  C   UNL     1      -8.074   5.582  -5.392  1.00  0.00    -0.000 C 
BRANCH  14  15
ATOM     15  C   UNL     1      -6.680   6.208  -5.178  1.00  0.00    -0.000 C 
BRANCH  15  16
ATOM     16  C   UNL     1      -5.496   5.252  -5.406  1.00  0.00    -0.003 C 
ATOM     17  C   UNL     1      -5.837   4.091  -6.339  1.00  0.00     0.004 C 
ENDBRANCH  15  16
ENDBRANCH  14  15
ENDBRANCH  13  14
ENDBRANCH  12  13
ENDBRANCH  11  12
ENDBRANCH  10  11
ENDBRANCH   1  10
TORSDOF 13
ENDMDL
MODEL 6
REMARK VINA RESULT:    -3.192     17.859     19.706
REMARK INTER + INTRA:          -7.304
REMARK INTER:                  -6.274
REMARK INTRA:                  -1.030
REMARK UNBOUND:                -1.686
REMARK SMILES CCCCCCCCCCCCCCC(=O)[O-]
REMARK SMILES IDX 9 1 10 2 11 3 12 4 13 5 14 6 15 7 16 8 17 9 8 10 7 11 6 12
REMARK SMILES IDX 5 13 4 14 3 15 2 16 1 17
REMARK H PARENT
REMARK Flexibility Score: inf
ROOT
ATOM      1  C   UNL     1      -4.951   6.895  -4.418  1.00  0.00     0.000 C 
ENDROOT
BRANCH   1   2
ATOM      2  C   UNL     1      -4.039   6.738  -3.189  1.00  0.00     0.000 C 
BRANCH   2   3
ATOM      3  C   UNL     1      -4.489   5.664  -2.178  1.00  0.00     0.000 C 
BRANCH   3   4
ATOM      4  C   UNL     1      -4.346   6.061  -0.695  1.00  0.00     0.000 C 
BRANCH   4   5
ATOM      5  C   UNL     1      -3.116   6.925  -0.369  1.00  0.00     0.006 C 
BRANCH   5   6
ATOM      6  C   UNL     1      -1.912   6.097   0.095  1.00  0.00     0.053 C 
BRANCH   6   7
ATOM      7  C   UNL     1      -0.798   6.193  -0.899  1.00  0.00     0.041 C 
ATOM      8  O   UNL     1      -0.927   5.687  -2.045  1.00  0.00    -0.550 OA
ATOM      9  O   UNL     1       0.401   6.797  -0.544  1.00  0.00    -0.550 OA
ENDBRANCH   6   7
ENDBRANCH   5   6
ENDBRANCH   4   5
ENDBRANCH   3   4
ENDBRANCH   2   3
ENDBRANCH   1   2
BRANCH   1  10
ATOM     10  C   UNL     1      -6.123   5.902  -4.422  1.00  0.00     0.000 C 
BRANCH  10  11
ATOM     11  C   UNL     1      -7.459   6.628  -4.644  1.00  0.00    -0.000 C 
BRANCH  11  12
ATOM     12  C   UNL     1      -8.565   5.687  -5.167  1.00  0.00    -0.000 C 
BRANCH  12  13
ATOM     13  C   UNL     1      -8.463   5.387  -6.674  1.00  0.00    -0.000 C 
BRANCH  13  14
ATOM     14  C   UNL     1      -7.736   4.077  -7.028  1.00  0.00    -0.000 C 
BRANCH  14  15
ATOM     15  C   UNL     1      -7.182   4.003  -8.466  1.00  0.00    -0.000 C 
BRANCH  15  16
ATOM     16  C   UNL     1      -5.663   4.214  -8.589  1.00  0.00    -0.003 C 
ATOM     17  C   UNL     1      -4.935   4.114  -7.249  1.00  0.00     0.004 C 
ENDBRANCH  15  16
ENDBRANCH  14  15
ENDBRANCH  13  14
ENDBRANCH  12  13
ENDBRANCH  11  12
ENDBRANCH  10  11
ENDBRANCH   1  10
TORSDOF 13
ENDMDL
MODEL 7
REMARK VINA RESULT:    -3.120      1.913      3.328
REMARK INTER + INTRA:          -7.177
REMARK INTER:                  -5.771
REMARK INTRA:                  -1.406
REMARK UNBOUND:                -1.686
REMARK SMILES CCCCCCCCCCCCCCC(=O)[O-]
REMARK SMILES IDX 9 1 10 2 11 3 12 4 13 5 14 6 15 7 16 8 17 9 8 10 7 11 6 12
REMARK SMILES IDX 5 13 4 14 3 15 2 16 1 17
REMARK H PARENT
REMARK Flexibility Score: inf
ROOT
ATOM      1  C   UNL     1      -4.220  -8.082   6.937  1.00  0.00     0.000 C 
ENDROOT
BRANCH   1   2
ATOM      2  C   UNL     1      -4.851  -7.161   7.996  1.00  0.00     0.000 C 
BRANCH   2   3
ATOM      3  C   UNL     1      -4.311  -7.350   9.427  1.00  0.00     0.000 C 
BRANCH   3   4
ATOM      4  C   UNL     1      -3.554  -8.671   9.673  1.00  0.00     0.000 C 
BRANCH   4   5
ATOM      5  C   UNL     1      -2.041  -8.518   9.905  1.00  0.00     0.006 C 
BRANCH   5   6
ATOM      6  C   UNL     1      -1.202  -9.051   8.737  1.00  0.00     0.053 C 
BRANCH   6   7
ATOM      7  C   UNL     1       0.258  -8.936   9.047  1.00  0.00     0.041 C 
ATOM      8  O   UNL     1       1.102  -9.569   8.360  1.00  0.00    -0.550 OA
ATOM      9  O   UNL     1       0.681  -8.169  10.125  1.00  0.00    -0.550 OA
ENDBRANCH   6   7
ENDBRANCH   5   6
ENDBRANCH   4   5
ENDBRANCH   3   4
ENDBRANCH   2   3
ENDBRANCH   1   2
BRANCH   1  10
ATOM     10  C   UNL     1      -5.247  -9.000   6.257  1.00  0.00     0.000 C 
BRANCH  10  11
ATOM     11  C   UNL     1      -5.590 -10.201   7.151  1.00  0.00    -0.000 C 
BRANCH  11  12
ATOM     12  C   UNL     1      -7.003 -10.100   7.763  1.00  0.00    -0.000 C 
BRANCH  12  13
ATOM     13  C   UNL     1      -8.006 -11.114   7.181  1.00  0.00    -0.000 C 
BRANCH  13  14
ATOM     14  C   UNL     1      -8.850 -10.591   6.005  1.00  0.00    -0.000 C 
BRANCH  14  15
ATOM     15  C   UNL     1      -8.499 -11.191   4.628  1.00  0.00    -0.000 C 
BRANCH  15  16
ATOM     16  C   UNL     1      -7.515 -12.374   4.667  1.00  0.00    -0.003 C 
ATOM     17  C   UNL     1      -6.192 -12.073   3.964  1.00  0.00     0.004 C 
ENDBRANCH  15  16
ENDBRANCH  14  15
ENDBRANCH  13  14
ENDBRANCH  12  13
ENDBRANCH  11  12
ENDBRANCH  10  11
ENDBRANCH   1  10
TORSDOF 13
ENDMDL
MODEL 8
REMARK VINA RESULT:    -3.113      2.951      6.141
REMARK INTER + INTRA:          -7.165
REMARK INTER:                  -5.075
REMARK INTRA:                  -2.090
REMARK UNBOUND:                -1.686
REMARK SMILES CCCCCCCCCCCCCCC(=O)[O-]
REMARK SMILES IDX 9 1 10 2 11 3 12 4 13 5 14 6 15 7 16 8 17 9 8 10 7 11 6 12
REMARK SMILES IDX 5 13 4 14 3 15 2 16 1 17
REMARK H PARENT
REMARK Flexibility Score: inf
ROOT
ATOM      1  C   UNL     1      -4.465  -7.504   7.437  1.00  0.00     0.000 C 
ENDROOT
BRANCH   1   2
ATOM      2  C   UNL     1      -5.191  -7.124   8.739  1.00  0.00     0.000 C 
BRANCH   2   3
ATOM      3  C   UNL     1      -6.517  -7.871   8.987  1.00  0.00     0.000 C 
BRANCH   3   4
ATOM      4  C   UNL     1      -6.390  -9.179   9.794  1.00  0.00     0.000 C 
BRANCH   4   5
ATOM      5  C   UNL     1      -6.225 -10.452   8.946  1.00  0.00     0.006 C 
BRANCH   5   6
ATOM      6  C   UNL     1      -6.889 -10.341   7.569  1.00  0.00     0.053 C 
BRANCH   6   7
ATOM      7  C   UNL     1      -6.002 -10.919   6.513  1.00  0.00     0.041 C 
ATOM      8  O   UNL     1      -5.676 -10.229   5.511  1.00  0.00    -0.550 OA
ATOM      9  O   UNL     1      -5.574 -12.237   6.609  1.00  0.00    -0.550 OA
ENDBRANCH   6   7
ENDBRANCH   5   6
ENDBRANCH   4   5
ENDBRANCH   3   4
ENDBRANCH   2   3
ENDBRANCH   1   2
BRANCH   1  10
ATOM     10  C   UNL     1      -3.347  -8.535   7.657  1.00  0.00     0.000 C 
BRANCH  10  11
ATOM     11  C   UNL     1      -2.811  -8.467   9.095  1.00  0.00    -0.000 C 
BRANCH  11  12
ATOM     12  C   UNL     1      -2.606  -9.864   9.718  1.00  0.00    -0.000 C 
BRANCH  12  13
ATOM     13  C   UNL     1      -2.534 -11.002   8.682  1.00  0.00    -0.000 C 
BRANCH  13  14
ATOM     14  C   UNL     1      -1.236 -11.829   8.714  1.00  0.00    -0.000 C 
BRANCH  14  15
ATOM     15  C   UNL     1      -0.139 -11.290   9.656  1.00  0.00    -0.000 C 
BRANCH  15  16
ATOM     16  C   UNL     1       1.094 -10.701   8.948  1.00  0.00    -0.003 C 
ATOM     17  C   UNL     1       0.789  -9.409   8.191  1.00  0.00     0.004 C 
ENDBRANCH  15  16
ENDBRANCH  14  15
ENDBRANCH  13  14
ENDBRANCH  12  13
ENDBRANCH  11  12
ENDBRANCH  10  11
ENDBRANCH   1  10
TORSDOF 13
ENDMDL
MODEL 9
REMARK VINA RESULT:    -3.110      4.875      6.713
REMARK INTER + INTRA:          -7.160
REMARK INTER:                  -5.730
REMARK INTRA:                  -1.429
REMARK UNBOUND:                -1.686
REMARK SMILES CCCCCCCCCCCCCCC(=O)[O-]
REMARK SMILES IDX 9 1 10 2 11 3 12 4 13 5 14 6 15 7 16 8 17 9 8 10 7 11 6 12
REMARK SMILES IDX 5 13 4 14 3 15 2 16 1 17
REMARK H PARENT
REMARK Flexibility Score: inf
ROOT
ATOM      1  C   UNL     1      -4.860  -8.604   6.448  1.00  0.00     0.000 C 
ENDROOT
BRANCH   1   2
ATOM      2  C   UNL     1      -3.805  -8.262   7.514  1.00  0.00     0.000 C 
BRANCH   2   3
ATOM      3  C   UNL     1      -4.349  -7.521   8.752  1.00  0.00     0.000 C 
BRANCH   3   4
ATOM      4  C   UNL     1      -5.550  -6.592   8.485  1.00  0.00     0.000 C 
BRANCH   4   5
ATOM      5  C   UNL     1      -5.872  -5.604   9.620  1.00  0.00     0.006 C 
BRANCH   5   6
ATOM      6  C   UNL     1      -7.356  -5.222   9.674  1.00  0.00     0.053 C 
BRANCH   6   7
ATOM      7  C   UNL     1      -7.594  -3.947   8.928  1.00  0.00     0.041 C 
ATOM      8  O   UNL     1      -6.772  -2.997   9.018  1.00  0.00    -0.550 OA
ATOM      9  O   UNL     1      -8.749  -3.789   8.172  1.00  0.00    -0.550 OA
ENDBRANCH   6   7
ENDBRANCH   5   6
ENDBRANCH   4   5
ENDBRANCH   3   4
ENDBRANCH   2   3
ENDBRANCH   1   2
BRANCH   1  10
ATOM     10  C   UNL     1      -5.626  -9.898   6.760  1.00  0.00     0.000 C 
BRANCH  10  11
ATOM     11  C   UNL     1      -6.267 -10.478   5.490  1.00  0.00    -0.000 C 
BRANCH  11  12
ATOM     12  C   UNL     1      -7.444 -11.427   5.801  1.00  0.00    -0.000 C 
BRANCH  12  13
ATOM     13  C   UNL     1      -8.816 -10.727   5.831  1.00  0.00    -0.000 C 
BRANCH  13  14
ATOM     14  C   UNL     1      -9.343 -10.390   7.238  1.00  0.00    -0.000 C 
BRANCH  14  15
ATOM     15  C   UNL     1      -8.859 -11.330   8.361  1.00  0.00    -0.000 C 
BRANCH  15  16
ATOM     16  C   UNL     1      -7.993 -10.658   9.442  1.00  0.00    -0.003 C 
ATOM     17  C   UNL     1      -8.122  -9.136   9.450  1.00  0.00     0.004 C 
ENDBRANCH  15  16
ENDBRANCH  14  15
ENDBRANCH  13  14
ENDBRANCH  12  13
ENDBRANCH  11  12
ENDBRANCH  10  11
ENDBRANCH   1  10
TORSDOF 13
ENDMDL
