MODEL 1
REMARK VINA RESULT:    -3.912      0.000      0.000
REMARK INTER + INTRA:          -4.273
REMARK INTER:                  -4.255
REMARK INTRA:                  -0.018
REMARK UNBOUND:                -0.018
REMARK SMILES OCc1ccccc1
REMARK SMILES IDX 2 1 3 2 6 3 5 4 7 5 4 6 8 7 1 8
REMARK H PARENT 1 9
REMARK Flexibility Score: inf
ROOT
ATOM      1  C   UNL     1     -16.363  16.282  -0.302  1.00  0.00     0.191 C 
ENDROOT
BRANCH   1   2
ATOM      2  C   UNL     1     -14.887  16.093  -0.521  1.00  0.00    -0.023 A 
ATOM      3  C   UNL     1     -12.125  15.818  -0.936  1.00  0.00     0.000 A 
ATOM      4  C   UNL     1     -12.624  15.981   0.360  1.00  0.00     0.000 A 
ATOM      5  C   UNL     1     -13.000  15.804  -2.026  1.00  0.00     0.000 A 
ATOM      6  C   UNL     1     -14.001  16.123   0.568  1.00  0.00     0.006 A 
ATOM      7  C   UNL     1     -14.376  15.945  -1.821  1.00  0.00     0.006 A 
ENDBRANCH   1   2
BRANCH   1   8
ATOM      8  O   UNL     1     -16.586  16.959   0.904  1.00  0.00    -0.392 OA
ATOM      9  H   UNL     1     -15.711  17.339   1.183  1.00  0.00     0.211 HD
ENDBRANCH   1   8
TORSDOF 2
ENDMDL
MODEL 2
REMARK VINA RESULT:    -3.893      0.078      1.715
REMARK INTER + INTRA:          -4.253
REMARK INTER:                  -4.237
REMARK INTRA:                  -0.017
REMARK UNBOUND:                -0.018
REMARK SMILES OCc1ccccc1
REMARK SMILES IDX 2 1 3 2 6 3 5 4 7 5 4 6 8 7 1 8
REMARK H PARENT 1 9
REMARK Flexibility Score: inf
ROOT
ATOM      1  C   UNL     1     -16.414  16.228  -0.347  1.00  0.00     0.191 C 
ENDROOT
BRANCH   1   2
ATOM      2  C   UNL     1     -14.928  16.113  -0.551  1.00  0.00    -0.023 A 
ATOM      3  C   UNL     1     -12.162  15.822  -0.925  1.00  0.00     0.000 A 
ATOM      4  C   UNL     1     -13.023  15.793  -2.026  1.00  0.00     0.000 A 
ATOM      5  C   UNL     1     -12.680  15.985   0.363  1.00  0.00     0.000 A 
ATOM      6  C   UNL     1     -14.403  15.933  -1.841  1.00  0.00     0.006 A 
ATOM      7  C   UNL     1     -14.058  16.126   0.552  1.00  0.00     0.006 A 
ENDBRANCH   1   2
BRANCH   1   8
ATOM      8  O   UNL     1     -16.686  17.012   0.781  1.00  0.00    -0.392 OA
ATOM      9  H   UNL     1     -17.481  16.610   1.221  1.00  0.00     0.211 HD
ENDBRANCH   1   8
TORSDOF 2
ENDMDL
MODEL 3
REMARK VINA RESULT:    -3.833     16.577     18.056
REMARK INTER + INTRA:          -4.188
REMARK INTER:                  -4.169
REMARK INTRA:                  -0.019
REMARK UNBOUND:                -0.018
REMARK SMILES OCc1ccccc1
REMARK SMILES IDX 2 1 3 2 6 3 5 4 7 5 4 6 8 7 1 8
REMARK H PARENT 1 9
REMARK Flexibility Score: inf
ROOT
ATOM      1  C   UNL     1     -22.952  30.200  -0.011  1.00  0.00     0.191 C 
ENDROOT
BRANCH   1   2
ATOM      2  C   UNL     1     -24.436  30.298  -0.232  1.00  0.00    -0.023 A 
ATOM      3  C   UNL     1     -27.209  30.402  -0.655  1.00  0.00     0.000 A 
ATOM      4  C   UNL     1     -26.706  30.171   0.629  1.00  0.00     0.000 A 
ATOM      5  C   UNL     1     -26.331  30.570  -1.730  1.00  0.00     0.000 A 
ATOM      6  C   UNL     1     -25.324  30.114   0.841  1.00  0.00     0.006 A 
ATOM      7  C   UNL     1     -24.950  30.514  -1.522  1.00  0.00     0.006 A 
ENDBRANCH   1   2
BRANCH   1   8
ATOM      8  O   UNL     1     -22.686  29.472   1.155  1.00  0.00    -0.392 OA
ATOM      9  H   UNL     1     -23.391  29.719   1.810  1.00  0.00     0.211 HD
ENDBRANCH   1   8
TORSDOF 2
ENDMDL
MODEL 4
REMARK VINA RESULT:    -3.822     13.809     14.559
REMARK INTER + INTRA:          -4.175
REMARK INTER:                  -4.165
REMARK INTRA:                  -0.011
REMARK UNBOUND:                -0.018
REMARK SMILES OCc1ccccc1
REMARK SMILES IDX 2 1 3 2 6 3 5 4 7 5 4 6 8 7 1 8
REMARK H PARENT 1 9
REMARK Flexibility Score: inf
ROOT
ATOM      1  C   UNL     1     -24.898  16.954  -9.614  1.00  0.00     0.191 C 
ENDROOT
BRANCH   1   2
ATOM      2  C   UNL     1     -24.077  16.696 -10.847  1.00  0.00    -0.023 A 
ATOM      3  C   UNL     1     -22.490  16.263 -13.121  1.00  0.00     0.000 A 
ATOM      4  C   UNL     1     -22.306  15.476 -11.981  1.00  0.00     0.000 A 
ATOM      5  C   UNL     1     -23.457  17.273 -13.125  1.00  0.00     0.000 A 
ATOM      6  C   UNL     1     -23.093  15.694 -10.844  1.00  0.00     0.006 A 
ATOM      7  C   UNL     1     -24.245  17.493 -11.991  1.00  0.00     0.006 A 
ENDBRANCH   1   2
BRANCH   1   8
ATOM      8  O   UNL     1     -25.752  15.871  -9.369  1.00  0.00    -0.392 OA
ATOM      9  H   UNL     1     -25.187  15.055  -9.387  1.00  0.00     0.211 HD
ENDBRANCH   1   8
TORSDOF 2
ENDMDL
MODEL 5
REMARK VINA RESULT:    -3.788     17.163     17.824
REMARK INTER + INTRA:          -4.139
REMARK INTER:                  -4.128
REMARK INTRA:                  -0.010
REMARK UNBOUND:                -0.018
REMARK SMILES OCc1ccccc1
REMARK SMILES IDX 2 1 3 2 6 3 5 4 7 5 4 6 8 7 1 8
REMARK H PARENT 1 9
REMARK Flexibility Score: inf
ROOT
ATOM      1  C   UNL     1     -14.307  29.505  -9.305  1.00  0.00     0.191 C 
ENDROOT
BRANCH   1   2
ATOM      2  C   UNL     1     -15.082  29.870 -10.540  1.00  0.00    -0.023 A 
ATOM      3  C   UNL     1     -16.588  30.503 -12.823  1.00  0.00     0.000 A 
ATOM      4  C   UNL     1     -16.771  31.228 -11.642  1.00  0.00     0.000 A 
ATOM      5  C   UNL     1     -15.663  29.455 -12.863  1.00  0.00     0.000 A 
ATOM      6  C   UNL     1     -16.025  30.911 -10.501  1.00  0.00     0.006 A 
ATOM      7  C   UNL     1     -14.916  29.136 -11.726  1.00  0.00     0.006 A 
ENDBRANCH   1   2
BRANCH   1   8
ATOM      8  O   UNL     1     -13.384  30.514  -9.000  1.00  0.00    -0.392 OA
ATOM      9  H   UNL     1     -12.684  30.480  -9.704  1.00  0.00     0.211 HD
ENDBRANCH   1   8
TORSDOF 2
ENDMDL
MODEL 6
REMARK VINA RESULT:    -3.752     10.699     11.933
REMARK INTER + INTRA:          -4.100
REMARK INTER:                  -4.087
REMARK INTRA:                  -0.013
REMARK UNBOUND:                -0.018
REMARK SMILES OCc1ccccc1
REMARK SMILES IDX 2 1 3 2 6 3 5 4 7 5 4 6 8 7 1 8
REMARK H PARENT 1 9
REMARK Flexibility Score: inf
ROOT
ATOM      1  C   UNL     1     -17.409  14.377 -10.443  1.00  0.00     0.191 C 
ENDROOT
BRANCH   1   2
ATOM      2  C   UNL     1     -18.898  14.531 -10.299  1.00  0.00    -0.023 A 
ATOM      3  C   UNL     1     -21.666  14.895 -10.010  1.00  0.00     0.000 A 
ATOM      4  C   UNL     1     -21.051  15.152 -11.239  1.00  0.00     0.000 A 
ATOM      5  C   UNL     1     -20.900  14.467  -8.922  1.00  0.00     0.000 A 
ATOM      6  C   UNL     1     -19.671  14.977 -11.384  1.00  0.00     0.006 A 
ATOM      7  C   UNL     1     -19.520  14.289  -9.063  1.00  0.00     0.006 A 
ENDBRANCH   1   2
BRANCH   1   8
ATOM      8  O   UNL     1     -17.113  13.604 -11.574  1.00  0.00    -0.392 OA
ATOM      9  H   UNL     1     -16.129  13.653 -11.700  1.00  0.00     0.211 HD
ENDBRANCH   1   8
TORSDOF 2
ENDMDL
MODEL 7
REMARK VINA RESULT:    -3.708      9.986     11.200
REMARK INTER + INTRA:          -4.052
REMARK INTER:                  -4.036
REMARK INTRA:                  -0.016
REMARK UNBOUND:                -0.018
REMARK SMILES OCc1ccccc1
REMARK SMILES IDX 2 1 3 2 6 3 5 4 7 5 4 6 8 7 1 8
REMARK H PARENT 1 9
REMARK Flexibility Score: inf
ROOT
ATOM      1  C   UNL     1     -15.570  14.749 -10.763  1.00  0.00     0.191 C 
ENDROOT
BRANCH   1   2
ATOM      2  C   UNL     1     -17.047  14.695 -10.486  1.00  0.00    -0.023 A 
ATOM      3  C   UNL     1     -19.797  14.517  -9.954  1.00  0.00     0.000 A 
ATOM      4  C   UNL     1     -18.895  14.729  -8.907  1.00  0.00     0.000 A 
ATOM      5  C   UNL     1     -19.328  14.383 -11.264  1.00  0.00     0.000 A 
ATOM      6  C   UNL     1     -17.523  14.813  -9.170  1.00  0.00     0.006 A 
ATOM      7  C   UNL     1     -17.958  14.467 -11.530  1.00  0.00     0.006 A 
ENDBRANCH   1   2
BRANCH   1   8
ATOM      8  O   UNL     1     -15.336  15.352 -12.006  1.00  0.00    -0.392 OA
ATOM      9  H   UNL     1     -15.453  14.642 -12.692  1.00  0.00     0.211 HD
ENDBRANCH   1   8
TORSDOF 2
ENDMDL
MODEL 8
REMARK VINA RESULT:    -3.690     10.821     11.070
REMARK INTER + INTRA:          -4.032
REMARK INTER:                  -4.021
REMARK INTRA:                  -0.011
REMARK UNBOUND:                -0.018
REMARK SMILES OCc1ccccc1
REMARK SMILES IDX 2 1 3 2 6 3 5 4 7 5 4 6 8 7 1 8
REMARK H PARENT 1 9
REMARK Flexibility Score: inf
ROOT
ATOM      1  C   UNL     1     -22.235  19.252   6.604  1.00  0.00     0.191 C 
ENDROOT
BRANCH   1   2
ATOM      2  C   UNL     1     -23.028  18.682   5.461  1.00  0.00    -0.023 A 
ATOM      3  C   UNL     1     -24.442  17.609   3.286  1.00  0.00     0.000 A 
ATOM      4  C   UNL     1     -23.918  16.761   4.266  1.00  0.00     0.000 A 
ATOM      5  C   UNL     1     -24.252  18.991   3.384  1.00  0.00     0.000 A 
ATOM      6  C   UNL     1     -23.208  17.293   5.348  1.00  0.00     0.006 A 
ATOM      7  C   UNL     1     -23.544  19.526   4.464  1.00  0.00     0.006 A 
ENDBRANCH   1   2
BRANCH   1   8
ATOM      8  O   UNL     1     -20.875  18.954   6.442  1.00  0.00    -0.392 OA
ATOM      9  H   UNL     1     -20.701  18.132   6.972  1.00  0.00     0.211 HD
ENDBRANCH   1   8
TORSDOF 2
ENDMDL
MODEL 9
REMARK VINA RESULT:    -3.636     18.014     19.297
REMARK INTER + INTRA:          -3.973
REMARK INTER:                  -3.956
REMARK INTRA:                  -0.018
REMARK UNBOUND:                -0.018
REMARK SMILES OCc1ccccc1
REMARK SMILES IDX 2 1 3 2 6 3 5 4 7 5 4 6 8 7 1 8
REMARK H PARENT 1 9
REMARK Flexibility Score: inf
ROOT
ATOM      1  C   UNL     1     -24.911  30.503  -0.529  1.00  0.00     0.191 C 
ENDROOT
BRANCH   1   2
ATOM      2  C   UNL     1     -26.376  30.215  -0.713  1.00  0.00    -0.023 A 
ATOM      3  C   UNL     1     -29.125  29.753  -1.038  1.00  0.00     0.000 A 
ATOM      4  C   UNL     1     -28.358  30.197  -2.119  1.00  0.00     0.000 A 
ATOM      5  C   UNL     1     -28.524  29.550   0.208  1.00  0.00     0.000 A 
ATOM      6  C   UNL     1     -26.988  30.433  -1.958  1.00  0.00     0.006 A 
ATOM      7  C   UNL     1     -27.156  29.784   0.373  1.00  0.00     0.006 A 
ENDBRANCH   1   2
BRANCH   1   8
ATOM      8  O   UNL     1     -24.657  30.876   0.798  1.00  0.00    -0.392 OA
ATOM      9  H   UNL     1     -23.960  30.256   1.138  1.00  0.00     0.211 HD
ENDBRANCH   1   8
TORSDOF 2
ENDMDL
