MODEL 1
REMARK VINA RESULT:    -4.558      0.000      0.000
REMARK INTER + INTRA:          -4.824
REMARK INTER:                  -4.824
REMARK INTRA:                   0.000
REMARK UNBOUND:                 0.000
REMARK SMILES O=c1ccc2cc(O)c(O)cc2o1
REMARK SMILES IDX 4 1 3 2 2 3 1 4 13 5 12 6 11 7 9 8 7 9 6 10 5 11 8 12 10 14
REMARK H PARENT 8 13 10 15
REMARK Flexibility Score: inf
ROOT
ATOM      1  C   UNL     1      19.668  -8.235  25.531  1.00  0.00     0.019 A 
ATOM      2  C   UNL     1      18.286  -8.400  25.610  1.00  0.00     0.094 A 
ATOM      3  C   UNL     1      17.617  -9.021  24.550  1.00  0.00     0.336 A 
ATOM      4  O   UNL     1      16.369  -9.179  24.601  1.00  0.00    -0.246 OA
ATOM      5  O   UNL     1      18.291  -9.446  23.485  1.00  0.00    -0.423 OA
ATOM      6  C   UNL     1      19.610  -9.308  23.371  1.00  0.00     0.142 A 
ATOM      7  C   UNL     1      20.265  -9.775  22.228  1.00  0.00     0.098 A 
ATOM      8  C   UNL     1      21.653  -9.637  22.093  1.00  0.00     0.161 A 
ATOM      9  C   UNL     1      22.398  -9.017  23.127  1.00  0.00     0.158 A 
ATOM     10  C   UNL     1      21.738  -8.551  24.272  1.00  0.00     0.062 A 
ATOM     11  C   UNL     1      20.351  -8.692  24.400  1.00  0.00     0.022 A 
ENDROOT
BRANCH   9  12
ATOM     12  O   UNL     1      23.783  -8.846  23.060  1.00  0.00    -0.504 OA
ATOM     13  H   UNL     1      24.273  -8.056  23.453  1.00  0.00     0.293 HD
ENDBRANCH   9  12
BRANCH   8  14
ATOM     14  O   UNL     1      22.245 -10.125  20.927  1.00  0.00    -0.504 OA
ATOM     15  H   UNL     1      21.944 -10.962  20.449  1.00  0.00     0.293 HD
ENDBRANCH   8  14
TORSDOF 2
ENDMDL
MODEL 2
REMARK VINA RESULT:    -4.527      2.846      4.301
REMARK INTER + INTRA:          -4.792
REMARK INTER:                  -4.792
REMARK INTRA:                   0.000
REMARK UNBOUND:                 0.000
REMARK SMILES O=c1ccc2cc(O)c(O)cc2o1
REMARK SMILES IDX 4 1 3 2 2 3 1 4 13 5 12 6 11 7 9 8 7 9 6 10 5 11 8 12 10 14
REMARK H PARENT 8 13 10 15
REMARK Flexibility Score: inf
ROOT
ATOM      1  C   UNL     1      21.864  -9.091  20.854  1.00  0.00     0.019 A 
ATOM      2  C   UNL     1      21.271  -8.254  19.908  1.00  0.00     0.094 A 
ATOM      3  C   UNL     1      20.556  -7.136  20.347  1.00  0.00     0.336 A 
ATOM      4  O   UNL     1      20.013  -6.368  19.510  1.00  0.00    -0.246 OA
ATOM      5  O   UNL     1      20.443  -6.876  21.647  1.00  0.00    -0.423 OA
ATOM      6  C   UNL     1      20.993  -7.648  22.582  1.00  0.00     0.142 A 
ATOM      7  C   UNL     1      20.842  -7.326  23.933  1.00  0.00     0.098 A 
ATOM      8  C   UNL     1      21.414  -8.129  24.928  1.00  0.00     0.161 A 
ATOM      9  C   UNL     1      22.154  -9.280  24.559  1.00  0.00     0.158 A 
ATOM     10  C   UNL     1      22.304  -9.600  23.203  1.00  0.00     0.062 A 
ATOM     11  C   UNL     1      21.729  -8.793  22.214  1.00  0.00     0.022 A 
ENDROOT
BRANCH   9  12
ATOM     12  O   UNL     1      22.752 -10.125  25.496  1.00  0.00    -0.504 OA
ATOM     13  H   UNL     1      22.324 -10.387  26.373  1.00  0.00     0.293 HD
ENDBRANCH   9  12
BRANCH   8  14
ATOM     14  O   UNL     1      21.225  -7.750  26.259  1.00  0.00    -0.504 OA
ATOM     15  H   UNL     1      21.938  -7.813  26.970  1.00  0.00     0.293 HD
ENDBRANCH   8  14
TORSDOF 2
ENDMDL
MODEL 3
REMARK VINA RESULT:    -4.492     11.817     12.395
REMARK INTER + INTRA:          -4.754
REMARK INTER:                  -4.754
REMARK INTRA:                   0.000
REMARK UNBOUND:                 0.000
REMARK SMILES O=c1ccc2cc(O)c(O)cc2o1
REMARK SMILES IDX 4 1 3 2 2 3 1 4 13 5 12 6 11 7 9 8 7 9 6 10 5 11 8 12 10 14
REMARK H PARENT 8 13 10 15
REMARK Flexibility Score: inf
ROOT
ATOM      1  C   UNL     1      21.430  -0.661  13.915  1.00  0.00     0.019 A 
ATOM      2  C   UNL     1      20.829  -1.539  13.013  1.00  0.00     0.094 A 
ATOM      3  C   UNL     1      21.426  -2.782  12.779  1.00  0.00     0.336 A 
ATOM      4  O   UNL     1      20.899  -3.589  11.968  1.00  0.00    -0.246 OA
ATOM      5  O   UNL     1      22.549  -3.119  13.406  1.00  0.00    -0.423 OA
ATOM      6  C   UNL     1      23.155  -2.311  14.274  1.00  0.00     0.142 A 
ATOM      7  C   UNL     1      24.333  -2.719  14.904  1.00  0.00     0.098 A 
ATOM      8  C   UNL     1      24.982  -1.880  15.819  1.00  0.00     0.161 A 
ATOM      9  C   UNL     1      24.436  -0.604  16.108  1.00  0.00     0.158 A 
ATOM     10  C   UNL     1      23.254  -0.198  15.475  1.00  0.00     0.062 A 
ATOM     11  C   UNL     1      22.611  -1.043  14.561  1.00  0.00     0.022 A 
ENDROOT
BRANCH   9  12
ATOM     12  O   UNL     1      25.028   0.284  17.009  1.00  0.00    -0.504 OA
ATOM     13  H   UNL     1      24.518   0.805  17.706  1.00  0.00     0.293 HD
ENDBRANCH   9  12
BRANCH   8  14
ATOM     14  O   UNL     1      26.155  -2.349  16.413  1.00  0.00    -0.504 OA
ATOM     15  H   UNL     1      26.722  -1.806  17.048  1.00  0.00     0.293 HD
ENDBRANCH   8  14
TORSDOF 2
ENDMDL
MODEL 4
REMARK VINA RESULT:    -4.460      1.676      4.564
REMARK INTER + INTRA:          -4.720
REMARK INTER:                  -4.720
REMARK INTRA:                   0.000
REMARK UNBOUND:                 0.000
REMARK SMILES O=c1ccc2cc(O)c(O)cc2o1
REMARK SMILES IDX 4 1 3 2 2 3 1 4 13 5 12 6 11 7 9 8 7 9 6 10 5 11 8 12 10 14
REMARK H PARENT 8 13 10 15
REMARK Flexibility Score: inf
ROOT
ATOM      1  C   UNL     1      19.922  -7.909  25.611  1.00  0.00     0.019 A 
ATOM      2  C   UNL     1      21.242  -8.297  25.383  1.00  0.00     0.094 A 
ATOM      3  C   UNL     1      21.512  -9.209  24.356  1.00  0.00     0.336 A 
ATOM      4  O   UNL     1      22.696  -9.572  24.134  1.00  0.00    -0.246 OA
ATOM      5  O   UNL     1      20.523  -9.697  23.612  1.00  0.00    -0.423 OA
ATOM      6  C   UNL     1      19.251  -9.352  23.797  1.00  0.00     0.142 A 
ATOM      7  C   UNL     1      18.254  -9.897  22.983  1.00  0.00     0.098 A 
ATOM      8  C   UNL     1      16.910  -9.544  23.166  1.00  0.00     0.161 A 
ATOM      9  C   UNL     1      16.560  -8.625  24.187  1.00  0.00     0.158 A 
ATOM     10  C   UNL     1      17.562  -8.081  25.001  1.00  0.00     0.062 A 
ATOM     11  C   UNL     1      18.903  -8.438  24.812  1.00  0.00     0.022 A 
ENDROOT
BRANCH   9  12
ATOM     12  O   UNL     1      15.242  -8.230  24.425  1.00  0.00    -0.504 OA
ATOM     13  H   UNL     1      14.439  -8.635  23.967  1.00  0.00     0.293 HD
ENDBRANCH   9  12
BRANCH   8  14
ATOM     14  O   UNL     1      15.964 -10.125  22.318  1.00  0.00    -0.504 OA
ATOM     15  H   UNL     1      16.192 -10.767  21.574  1.00  0.00     0.293 HD
ENDBRANCH   8  14
TORSDOF 2
ENDMDL
MODEL 5
REMARK VINA RESULT:    -4.341      9.921     11.380
REMARK INTER + INTRA:          -4.595
REMARK INTER:                  -4.595
REMARK INTRA:                   0.000
REMARK UNBOUND:                 0.000
REMARK SMILES O=c1ccc2cc(O)c(O)cc2o1
REMARK SMILES IDX 4 1 3 2 2 3 1 4 13 5 12 6 11 7 9 8 7 9 6 10 5 11 8 12 10 14
REMARK H PARENT 8 13 10 15
REMARK Flexibility Score: inf
ROOT
ATOM      1  C   UNL     1      20.522  -3.612  14.742  1.00  0.00     0.019 A 
ATOM      2  C   UNL     1      20.249  -3.540  13.377  1.00  0.00     0.094 A 
ATOM      3  C   UNL     1      21.279  -3.189  12.498  1.00  0.00     0.336 A 
ATOM      4  O   UNL     1      21.053  -3.118  11.262  1.00  0.00    -0.246 OA
ATOM      5  O   UNL     1      22.499  -2.928  12.960  1.00  0.00    -0.423 OA
ATOM      6  C   UNL     1      22.802  -2.986  14.255  1.00  0.00     0.142 A 
ATOM      7  C   UNL     1      24.101  -2.703  14.682  1.00  0.00     0.098 A 
ATOM      8  C   UNL     1      24.435  -2.759  16.042  1.00  0.00     0.161 A 
ATOM      9  C   UNL     1      23.443  -3.107  16.992  1.00  0.00     0.158 A 
ATOM     10  C   UNL     1      22.141  -3.392  16.560  1.00  0.00     0.062 A 
ATOM     11  C   UNL     1      21.814  -3.333  15.199  1.00  0.00     0.022 A 
ENDROOT
BRANCH   9  12
ATOM     12  O   UNL     1      23.704  -3.182  18.362  1.00  0.00    -0.504 OA
ATOM     13  H   UNL     1      24.614  -3.028  18.773  1.00  0.00     0.293 HD
ENDBRANCH   9  12
BRANCH   8  14
ATOM     14  O   UNL     1      25.752  -2.464  16.402  1.00  0.00    -0.504 OA
ATOM     15  H   UNL     1      26.286  -1.702  16.010  1.00  0.00     0.293 HD
ENDBRANCH   8  14
TORSDOF 2
ENDMDL
MODEL 6
REMARK VINA RESULT:    -4.321     15.168     15.878
REMARK INTER + INTRA:          -4.574
REMARK INTER:                  -4.574
REMARK INTRA:                   0.000
REMARK UNBOUND:                 0.000
REMARK SMILES O=c1ccc2cc(O)c(O)cc2o1
REMARK SMILES IDX 4 1 3 2 2 3 1 4 13 5 12 6 11 7 9 8 7 9 6 10 5 11 8 12 10 14
REMARK H PARENT 8 13 10 15
REMARK Flexibility Score: inf
ROOT
ATOM      1  C   UNL     1      18.130   3.666  15.914  1.00  0.00     0.019 A 
ATOM      2  C   UNL     1      18.726   3.875  14.671  1.00  0.00     0.094 A 
ATOM      3  C   UNL     1      17.963   3.687  13.514  1.00  0.00     0.336 A 
ATOM      4  O   UNL     1      18.482   3.869  12.382  1.00  0.00    -0.246 OA
ATOM      5  O   UNL     1      16.689   3.314  13.601  1.00  0.00    -0.423 OA
ATOM      6  C   UNL     1      16.082   3.105  14.767  1.00  0.00     0.142 A 
ATOM      7  C   UNL     1      14.740   2.716  14.797  1.00  0.00     0.098 A 
ATOM      8  C   UNL     1      14.088   2.491  16.017  1.00  0.00     0.161 A 
ATOM      9  C   UNL     1      14.798   2.662  17.232  1.00  0.00     0.158 A 
ATOM     10  C   UNL     1      16.143   3.053  17.198  1.00  0.00     0.062 A 
ATOM     11  C   UNL     1      16.788   3.276  15.975  1.00  0.00     0.022 A 
ENDROOT
BRANCH   9  12
ATOM     12  O   UNL     1      14.212   2.456  18.482  1.00  0.00    -0.504 OA
ATOM     13  H   UNL     1      13.886   3.199  19.083  1.00  0.00     0.293 HD
ENDBRANCH   9  12
BRANCH   8  14
ATOM     14  O   UNL     1      12.747   2.104  15.976  1.00  0.00    -0.504 OA
ATOM     15  H   UNL     1      11.989   2.719  15.720  1.00  0.00     0.293 HD
ENDBRANCH   8  14
TORSDOF 2
ENDMDL
MODEL 7
REMARK VINA RESULT:    -4.313      5.644      8.453
REMARK INTER + INTRA:          -4.565
REMARK INTER:                  -4.565
REMARK INTRA:                   0.000
REMARK UNBOUND:                 0.000
REMARK SMILES O=c1ccc2cc(O)c(O)cc2o1
REMARK SMILES IDX 4 1 3 2 2 3 1 4 13 5 12 6 11 7 9 8 7 9 6 10 5 11 8 12 10 14
REMARK H PARENT 8 13 10 15
REMARK Flexibility Score: inf
ROOT
ATOM      1  C   UNL     1      14.151  -7.090  23.577  1.00  0.00     0.019 A 
ATOM      2  C   UNL     1      15.390  -7.631  23.919  1.00  0.00     0.094 A 
ATOM      3  C   UNL     1      16.387  -6.782  24.411  1.00  0.00     0.336 A 
ATOM      4  O   UNL     1      17.513  -7.250  24.725  1.00  0.00    -0.246 OA
ATOM      5  O   UNL     1      16.155  -5.479  24.549  1.00  0.00    -0.423 OA
ATOM      6  C   UNL     1      14.987  -4.923  24.235  1.00  0.00     0.142 A 
ATOM      7  C   UNL     1      14.799  -3.549  24.402  1.00  0.00     0.098 A 
ATOM      8  C   UNL     1      13.576  -2.949  24.076  1.00  0.00     0.161 A 
ATOM      9  C   UNL     1      12.518  -3.746  23.571  1.00  0.00     0.158 A 
ATOM     10  C   UNL     1      12.709  -5.124  23.405  1.00  0.00     0.062 A 
ATOM     11  C   UNL     1      13.935  -5.717  23.734  1.00  0.00     0.022 A 
ENDROOT
BRANCH   9  12
ATOM     12  O   UNL     1      11.273  -3.216  23.225  1.00  0.00    -0.504 OA
ATOM     13  H   UNL     1      10.996  -2.999  22.279  1.00  0.00     0.293 HD
ENDBRANCH   9  12
BRANCH   8  14
ATOM     14  O   UNL     1      13.455  -1.571  24.266  1.00  0.00    -0.504 OA
ATOM     15  H   UNL     1      13.961  -0.881  23.731  1.00  0.00     0.293 HD
ENDBRANCH   8  14
TORSDOF 2
ENDMDL
MODEL 8
REMARK VINA RESULT:    -4.186      2.944      5.628
REMARK INTER + INTRA:          -4.430
REMARK INTER:                  -4.430
REMARK INTRA:                   0.000
REMARK UNBOUND:                 0.000
REMARK SMILES O=c1ccc2cc(O)c(O)cc2o1
REMARK SMILES IDX 4 1 3 2 2 3 1 4 13 5 12 6 11 7 9 8 7 9 6 10 5 11 8 12 10 14
REMARK H PARENT 8 13 10 15
REMARK Flexibility Score: inf
ROOT
ATOM      1  C   UNL     1      18.218  -8.628  25.354  1.00  0.00     0.019 A 
ATOM      2  C   UNL     1      19.570  -8.297  25.433  1.00  0.00     0.094 A 
ATOM      3  C   UNL     1      20.039  -7.188  24.721  1.00  0.00     0.336 A 
ATOM      4  O   UNL     1      21.257  -6.874  24.778  1.00  0.00    -0.246 OA
ATOM      5  O   UNL     1      19.206  -6.463  23.979  1.00  0.00    -0.423 OA
ATOM      6  C   UNL     1      17.909  -6.744  23.877  1.00  0.00     0.142 A 
ATOM      7  C   UNL     1      17.082  -5.945  23.084  1.00  0.00     0.098 A 
ATOM      8  C   UNL     1      15.714  -6.228  22.966  1.00  0.00     0.161 A 
ATOM      9  C   UNL     1      15.167  -7.337  23.659  1.00  0.00     0.158 A 
ATOM     10  C   UNL     1      15.999  -8.135  24.454  1.00  0.00     0.062 A 
ATOM     11  C   UNL     1      17.365  -7.846  24.567  1.00  0.00     0.022 A 
ENDROOT
BRANCH   9  12
ATOM     12  O   UNL     1      13.814  -7.678  23.587  1.00  0.00    -0.504 OA
ATOM     13  H   UNL     1      13.272  -8.002  24.374  1.00  0.00     0.293 HD
ENDBRANCH   9  12
BRANCH   8  14
ATOM     14  O   UNL     1      14.944  -5.391  22.157  1.00  0.00    -0.504 OA
ATOM     15  H   UNL     1      15.308  -4.878  21.367  1.00  0.00     0.293 HD
ENDBRANCH   8  14
TORSDOF 2
ENDMDL
MODEL 9
REMARK VINA RESULT:    -4.157      1.928      4.215
REMARK INTER + INTRA:          -4.400
REMARK INTER:                  -4.400
REMARK INTRA:                   0.000
REMARK UNBOUND:                 0.000
REMARK SMILES O=c1ccc2cc(O)c(O)cc2o1
REMARK SMILES IDX 4 1 3 2 2 3 1 4 13 5 12 6 11 7 9 8 7 9 6 10 5 11 8 12 10 14
REMARK H PARENT 8 13 10 15
REMARK Flexibility Score: inf
ROOT
ATOM      1  C   UNL     1      22.510  -8.964  22.068  1.00  0.00     0.019 A 
ATOM      2  C   UNL     1      22.162  -9.429  20.800  1.00  0.00     0.094 A 
ATOM      3  C   UNL     1      20.818  -9.703  20.526  1.00  0.00     0.336 A 
ATOM      4  O   UNL     1      20.482 -10.125  19.388  1.00  0.00    -0.246 OA
ATOM      5  O   UNL     1      19.889  -9.523  21.461  1.00  0.00    -0.423 OA
ATOM      6  C   UNL     1      20.179  -9.081  22.682  1.00  0.00     0.142 A 
ATOM      7  C   UNL     1      19.161  -8.909  23.624  1.00  0.00     0.098 A 
ATOM      8  C   UNL     1      19.451  -8.444  24.914  1.00  0.00     0.161 A 
ATOM      9  C   UNL     1      20.791  -8.145  25.265  1.00  0.00     0.158 A 
ATOM     10  C   UNL     1      21.810  -8.318  24.318  1.00  0.00     0.062 A 
ATOM     11  C   UNL     1      21.512  -8.783  23.031  1.00  0.00     0.022 A 
ENDROOT
BRANCH   9  12
ATOM     12  O   UNL     1      21.153  -7.679  26.531  1.00  0.00    -0.504 OA
ATOM     13  H   UNL     1      21.581  -8.253  27.242  1.00  0.00     0.293 HD
ENDBRANCH   9  12
BRANCH   8  14
ATOM     14  O   UNL     1      18.388  -8.296  25.806  1.00  0.00    -0.504 OA
ATOM     15  H   UNL     1      18.181  -8.945  26.551  1.00  0.00     0.293 HD
ENDBRANCH   8  14
TORSDOF 2
ENDMDL
