MODEL 1
REMARK VINA RESULT:    -3.878      0.000      0.000
REMARK INTER + INTRA:         -10.029
REMARK INTER:                  -7.279
REMARK INTRA:                  -2.750
REMARK UNBOUND:                -2.750
REMARK SMILES CCCCCCCCC=CCCCCCCCC(=O)[O-]
REMARK SMILES IDX 10 1 9 2 11 3 12 4 13 5 14 6 15 7 16 8 17 9 18 10 19 11
REMARK SMILES IDX 20 12 8 13 7 14 6 15 5 16 4 17 3 18 2 19 1 20
REMARK H PARENT
REMARK Flexibility Score: inf
ROOT
ATOM      1  C   UNL     1       7.854  27.428   8.527  1.00  0.00    -0.031 C 
ATOM      2  C   UNL     1       9.037  26.947   8.102  1.00  0.00    -0.031 C 
ENDROOT
BRANCH   1   3
ATOM      3  C   UNL     1       7.460  28.883   8.490  1.00  0.00     0.027 C 
BRANCH   3   4
ATOM      4  C   UNL     1       7.424  29.473   9.904  1.00  0.00     0.004 C 
BRANCH   4   5
ATOM      5  C   UNL     1       8.820  29.951  10.333  1.00  0.00     0.000 C 
BRANCH   5   6
ATOM      6  C   UNL     1       9.432  29.082  11.444  1.00  0.00     0.000 C 
BRANCH   6   7
ATOM      7  C   UNL     1       8.438  28.044  11.994  1.00  0.00     0.000 C 
BRANCH   7   8
ATOM      8  C   UNL     1       9.092  26.673  12.250  1.00  0.00     0.006 C 
BRANCH   8   9
ATOM      9  C   UNL     1      10.405  26.444  11.484  1.00  0.00     0.053 C 
BRANCH   9  10
ATOM     10  C   UNL     1      10.668  24.991  11.238  1.00  0.00     0.041 C 
ATOM     11  O   UNL     1      10.729  24.186  12.204  1.00  0.00    -0.550 OA
ATOM     12  O   UNL     1      10.880  24.530   9.944  1.00  0.00    -0.550 OA
ENDBRANCH   9  10
ENDBRANCH   8   9
ENDBRANCH   7   8
ENDBRANCH   6   7
ENDBRANCH   5   6
ENDBRANCH   4   5
ENDBRANCH   3   4
ENDBRANCH   1   3
BRANCH   2  13
ATOM     13  C   UNL     1      10.179  27.799   7.609  1.00  0.00     0.027 C 
BRANCH  13  14
ATOM     14  C   UNL     1      11.405  27.648   8.518  1.00  0.00     0.004 C 
BRANCH  14  15
ATOM     15  C   UNL     1      12.244  28.934   8.524  1.00  0.00     0.000 C 
BRANCH  15  16
ATOM     16  C   UNL     1      13.204  29.011   9.722  1.00  0.00     0.000 C 
BRANCH  16  17
ATOM     17  C   UNL     1      12.839  30.138  10.701  1.00  0.00    -0.000 C 
BRANCH  17  18
ATOM     18  C   UNL     1      13.025  29.732  12.174  1.00  0.00    -0.000 C 
BRANCH  18  19
ATOM     19  C   UNL     1      12.688  30.859  13.173  1.00  0.00    -0.003 C 
ATOM     20  C   UNL     1      11.500  30.507  14.068  1.00  0.00     0.004 C 
ENDBRANCH  18  19
ENDBRANCH  17  18
ENDBRANCH  16  17
ENDBRANCH  15  16
ENDBRANCH  14  15
ENDBRANCH  13  14
ENDBRANCH   2  13
TORSDOF 15
ENDMDL
MODEL 2
REMARK VINA RESULT:    -3.725      1.333      4.272
REMARK INTER + INTRA:          -9.741
REMARK INTER:                  -6.886
REMARK INTRA:                  -2.856
REMARK UNBOUND:                -2.750
REMARK SMILES CCCCCCCCC=CCCCCCCCC(=O)[O-]
REMARK SMILES IDX 10 1 9 2 11 3 12 4 13 5 14 6 15 7 16 8 17 9 18 10 19 11
REMARK SMILES IDX 20 12 8 13 7 14 6 15 5 16 4 17 3 18 2 19 1 20
REMARK H PARENT
REMARK Flexibility Score: inf
ROOT
ATOM      1  C   UNL     1      12.622  28.940   8.630  1.00  0.00    -0.031 C 
ATOM      2  C   UNL     1      13.115  28.830   9.877  1.00  0.00    -0.031 C 
ENDROOT
BRANCH   1   3
ATOM      3  C   UNL     1      11.781  30.092   8.141  1.00  0.00     0.027 C 
BRANCH   3   4
ATOM      4  C   UNL     1      10.321  29.662   7.962  1.00  0.00     0.004 C 
BRANCH   4   5
ATOM      5  C   UNL     1      10.224  28.155   7.681  1.00  0.00     0.000 C 
BRANCH   5   6
ATOM      6  C   UNL     1       9.120  27.466   8.500  1.00  0.00     0.000 C 
BRANCH   6   7
ATOM      7  C   UNL     1       9.532  26.065   8.984  1.00  0.00     0.000 C 
BRANCH   7   8
ATOM      8  C   UNL     1      10.630  26.108  10.064  1.00  0.00     0.006 C 
BRANCH   8   9
ATOM      9  C   UNL     1      10.260  25.390  11.372  1.00  0.00     0.053 C 
BRANCH   9  10
ATOM     10  C   UNL     1      10.938  24.060  11.495  1.00  0.00     0.041 C 
ATOM     11  O   UNL     1      11.221  23.596  12.630  1.00  0.00    -0.550 OA
ATOM     12  O   UNL     1      11.291  23.349  10.353  1.00  0.00    -0.550 OA
ENDBRANCH   9  10
ENDBRANCH   8   9
ENDBRANCH   7   8
ENDBRANCH   6   7
ENDBRANCH   5   6
ENDBRANCH   4   5
ENDBRANCH   3   4
ENDBRANCH   1   3
BRANCH   2  13
ATOM     13  C   UNL     1      12.826  29.796  10.998  1.00  0.00     0.027 C 
BRANCH  13  14
ATOM     14  C   UNL     1      11.605  29.343  11.807  1.00  0.00     0.004 C 
BRANCH  14  15
ATOM     15  C   UNL     1      10.541  30.450  11.857  1.00  0.00     0.000 C 
BRANCH  15  16
ATOM     16  C   UNL     1       9.167  29.974  11.358  1.00  0.00     0.000 C 
BRANCH  16  17
ATOM     17  C   UNL     1       8.712  28.671  12.033  1.00  0.00    -0.000 C 
BRANCH  17  18
ATOM     18  C   UNL     1       7.181  28.567  12.158  1.00  0.00    -0.000 C 
BRANCH  18  19
ATOM     19  C   UNL     1       6.463  28.362  10.807  1.00  0.00    -0.003 C 
ATOM     20  C   UNL     1       5.042  28.927  10.812  1.00  0.00     0.004 C 
ENDBRANCH  18  19
ENDBRANCH  17  18
ENDBRANCH  16  17
ENDBRANCH  15  16
ENDBRANCH  14  15
ENDBRANCH  13  14
ENDBRANCH   2  13
TORSDOF 15
ENDMDL
MODEL 3
REMARK VINA RESULT:    -3.715      2.924      5.409
REMARK INTER + INTRA:          -9.723
REMARK INTER:                  -6.737
REMARK INTRA:                  -2.986
REMARK UNBOUND:                -2.750
REMARK SMILES CCCCCCCCC=CCCCCCCCC(=O)[O-]
REMARK SMILES IDX 10 1 9 2 11 3 12 4 13 5 14 6 15 7 16 8 17 9 18 10 19 11
REMARK SMILES IDX 20 12 8 13 7 14 6 15 5 16 4 17 3 18 2 19 1 20
REMARK H PARENT
REMARK Flexibility Score: inf
ROOT
ATOM      1  C   UNL     1      10.228  26.030  11.368  1.00  0.00    -0.031 C 
ATOM      2  C   UNL     1      10.507  25.677  10.099  1.00  0.00    -0.031 C 
ENDROOT
BRANCH   1   3
ATOM      3  C   UNL     1       9.017  26.825  11.787  1.00  0.00     0.027 C 
BRANCH   3   4
ATOM      4  C   UNL     1       9.433  28.171  12.391  1.00  0.00     0.004 C 
BRANCH   4   5
ATOM      5  C   UNL     1       9.330  29.294  11.348  1.00  0.00     0.000 C 
BRANCH   5   6
ATOM      6  C   UNL     1      10.704  29.767  10.845  1.00  0.00     0.000 C 
BRANCH   6   7
ATOM      7  C   UNL     1      11.846  29.383  11.803  1.00  0.00     0.000 C 
BRANCH   7   8
ATOM      8  C   UNL     1      12.303  30.560  12.684  1.00  0.00     0.006 C 
BRANCH   8   9
ATOM      9  C   UNL     1      11.762  30.523  14.123  1.00  0.00     0.053 C 
BRANCH   9  10
ATOM     10  C   UNL     1      10.753  31.600  14.372  1.00  0.00     0.041 C 
ATOM     11  O   UNL     1      10.357  32.330  13.426  1.00  0.00    -0.550 OA
ATOM     12  O   UNL     1      10.273  31.821  15.658  1.00  0.00    -0.550 OA
ENDBRANCH   9  10
ENDBRANCH   8   9
ENDBRANCH   7   8
ENDBRANCH   6   7
ENDBRANCH   5   6
ENDBRANCH   4   5
ENDBRANCH   3   4
ENDBRANCH   1   3
BRANCH   2  13
ATOM     13  C   UNL     1       9.701  26.099   8.897  1.00  0.00     0.027 C 
BRANCH  13  14
ATOM     14  C   UNL     1      10.394  27.246   8.151  1.00  0.00     0.004 C 
BRANCH  14  15
ATOM     15  C   UNL     1       9.362  28.230   7.581  1.00  0.00     0.000 C 
BRANCH  15  16
ATOM     16  C   UNL     1       7.953  28.010   8.154  1.00  0.00     0.000 C 
BRANCH  16  17
ATOM     17  C   UNL     1       7.120  29.302   8.185  1.00  0.00    -0.000 C 
BRANCH  17  18
ATOM     18  C   UNL     1       5.911  29.208   9.134  1.00  0.00    -0.000 C 
BRANCH  18  19
ATOM     19  C   UNL     1       6.061  28.125  10.223  1.00  0.00    -0.003 C 
ATOM     20  C   UNL     1       5.304  28.478  11.503  1.00  0.00     0.004 C 
ENDBRANCH  18  19
ENDBRANCH  17  18
ENDBRANCH  16  17
ENDBRANCH  15  16
ENDBRANCH  14  15
ENDBRANCH  13  14
ENDBRANCH   2  13
TORSDOF 15
ENDMDL
MODEL 4
REMARK VINA RESULT:    -3.705      0.929      4.343
REMARK INTER + INTRA:          -9.704
REMARK INTER:                  -6.793
REMARK INTRA:                  -2.912
REMARK UNBOUND:                -2.750
REMARK SMILES CCCCCCCCC=CCCCCCCCC(=O)[O-]
REMARK SMILES IDX 10 1 9 2 11 3 12 4 13 5 14 6 15 7 16 8 17 9 18 10 19 11
REMARK SMILES IDX 20 12 8 13 7 14 6 15 5 16 4 17 3 18 2 19 1 20
REMARK H PARENT
REMARK Flexibility Score: inf
ROOT
ATOM      1  C   UNL     1      12.656  29.793  12.878  1.00  0.00    -0.031 C 
ATOM      2  C   UNL     1      13.125  29.988  11.632  1.00  0.00    -0.031 C 
ENDROOT
BRANCH   1   3
ATOM      3  C   UNL     1      11.706  30.724  13.590  1.00  0.00     0.027 C 
BRANCH   3   4
ATOM      4  C   UNL     1      10.287  30.145  13.604  1.00  0.00     0.004 C 
BRANCH   4   5
ATOM      5  C   UNL     1       9.511  30.568  12.347  1.00  0.00     0.000 C 
BRANCH   5   6
ATOM      6  C   UNL     1       9.348  29.422  11.335  1.00  0.00     0.000 C 
BRANCH   6   7
ATOM      7  C   UNL     1       9.323  28.039  12.010  1.00  0.00     0.000 C 
BRANCH   7   8
ATOM      8  C   UNL     1      10.418  27.097  11.475  1.00  0.00     0.006 C 
BRANCH   8   9
ATOM      9  C   UNL     1       9.884  25.837  10.774  1.00  0.00     0.053 C 
BRANCH   9  10
ATOM     10  C   UNL     1      10.709  24.627  11.086  1.00  0.00     0.041 C 
ATOM     11  O   UNL     1      10.953  24.318  12.281  1.00  0.00    -0.550 OA
ATOM     12  O   UNL     1      11.236  23.859  10.054  1.00  0.00    -0.550 OA
ENDBRANCH   9  10
ENDBRANCH   8   9
ENDBRANCH   7   8
ENDBRANCH   6   7
ENDBRANCH   5   6
ENDBRANCH   4   5
ENDBRANCH   3   4
ENDBRANCH   1   3
BRANCH   2  13
ATOM     13  C   UNL     1      12.843  31.209  10.794  1.00  0.00     0.027 C 
BRANCH  13  14
ATOM     14  C   UNL     1      12.705  30.834   9.313  1.00  0.00     0.004 C 
BRANCH  14  15
ATOM     15  C   UNL     1      12.347  29.349   9.155  1.00  0.00     0.000 C 
BRANCH  15  16
ATOM     16  C   UNL     1      11.757  29.025   7.774  1.00  0.00     0.000 C 
BRANCH  16  17
ATOM     17  C   UNL     1      10.659  27.950   7.839  1.00  0.00    -0.000 C 
BRANCH  17  18
ATOM     18  C   UNL     1       9.241  28.547   7.851  1.00  0.00    -0.000 C 
BRANCH  18  19
ATOM     19  C   UNL     1       8.148  27.536   8.258  1.00  0.00    -0.003 C 
ATOM     20  C   UNL     1       6.863  28.222   8.721  1.00  0.00     0.004 C 
ENDBRANCH  18  19
ENDBRANCH  17  18
ENDBRANCH  16  17
ENDBRANCH  15  16
ENDBRANCH  14  15
ENDBRANCH  13  14
ENDBRANCH   2  13
TORSDOF 15
ENDMDL
MODEL 5
REMARK VINA RESULT:    -3.696      2.567      4.653
REMARK INTER + INTRA:          -9.687
REMARK INTER:                  -6.459
REMARK INTRA:                  -3.228
REMARK UNBOUND:                -2.750
REMARK SMILES CCCCCCCCC=CCCCCCCCC(=O)[O-]
REMARK SMILES IDX 10 1 9 2 11 3 12 4 13 5 14 6 15 7 16 8 17 9 18 10 19 11
REMARK SMILES IDX 20 12 8 13 7 14 6 15 5 16 4 17 3 18 2 19 1 20
REMARK H PARENT
REMARK Flexibility Score: inf
ROOT
ATOM      1  C   UNL     1      10.573  25.412  10.346  1.00  0.00    -0.031 C 
ATOM      2  C   UNL     1      10.042  25.834  11.508  1.00  0.00    -0.031 C 
ENDROOT
BRANCH   1   3
ATOM      3  C   UNL     1      10.181  25.934   8.986  1.00  0.00     0.027 C 
BRANCH   3   4
ATOM      4  C   UNL     1      11.228  26.922   8.460  1.00  0.00     0.004 C 
BRANCH   4   5
ATOM      5  C   UNL     1      10.561  28.052   7.660  1.00  0.00     0.000 C 
BRANCH   5   6
ATOM      6  C   UNL     1       9.026  27.965   7.673  1.00  0.00     0.000 C 
BRANCH   6   7
ATOM      7  C   UNL     1       8.357  29.344   7.541  1.00  0.00     0.000 C 
BRANCH   7   8
ATOM      8  C   UNL     1       6.897  29.346   8.033  1.00  0.00     0.006 C 
BRANCH   8   9
ATOM      9  C   UNL     1       6.556  28.211   9.011  1.00  0.00     0.053 C 
BRANCH   9  10
ATOM     10  C   UNL     1       5.736  28.692  10.168  1.00  0.00     0.041 C 
ATOM     11  O   UNL     1       5.466  27.914  11.120  1.00  0.00    -0.550 OA
ATOM     12  O   UNL     1       5.239  29.990  10.178  1.00  0.00    -0.550 OA
ENDBRANCH   9  10
ENDBRANCH   8   9
ENDBRANCH   7   8
ENDBRANCH   6   7
ENDBRANCH   5   6
ENDBRANCH   4   5
ENDBRANCH   3   4
ENDBRANCH   1   3
BRANCH   2  13
ATOM     13  C   UNL     1       8.913  26.827  11.621  1.00  0.00     0.027 C 
BRANCH  13  14
ATOM     14  C   UNL     1       9.408  28.149  12.221  1.00  0.00     0.004 C 
BRANCH  14  15
ATOM     15  C   UNL     1       9.285  29.292  11.203  1.00  0.00     0.000 C 
BRANCH  15  16
ATOM     16  C   UNL     1      10.637  29.945  10.877  1.00  0.00     0.000 C 
BRANCH  16  17
ATOM     17  C   UNL     1      11.827  29.155  11.447  1.00  0.00    -0.000 C 
BRANCH  17  18
ATOM     18  C   UNL     1      13.115  29.343  10.626  1.00  0.00    -0.000 C 
BRANCH  18  19
ATOM     19  C   UNL     1      12.947  30.289   9.418  1.00  0.00    -0.003 C 
ATOM     20  C   UNL     1      14.287  30.693   8.803  1.00  0.00     0.004 C 
ENDBRANCH  18  19
ENDBRANCH  17  18
ENDBRANCH  16  17
ENDBRANCH  15  16
ENDBRANCH  14  15
ENDBRANCH  13  14
ENDBRANCH   2  13
TORSDOF 15
ENDMDL
MODEL 6
REMARK VINA RESULT:    -3.681      1.198      3.419
REMARK INTER + INTRA:          -9.659
REMARK INTER:                  -7.198
REMARK INTRA:                  -2.461
REMARK UNBOUND:                -2.750
REMARK SMILES CCCCCCCCC=CCCCCCCCC(=O)[O-]
REMARK SMILES IDX 10 1 9 2 11 3 12 4 13 5 14 6 15 7 16 8 17 9 18 10 19 11
REMARK SMILES IDX 20 12 8 13 7 14 6 15 5 16 4 17 3 18 2 19 1 20
REMARK H PARENT
REMARK Flexibility Score: inf
ROOT
ATOM      1  C   UNL     1       6.573  28.531  10.881  1.00  0.00    -0.031 C 
ATOM      2  C   UNL     1       7.254  28.701  12.029  1.00  0.00    -0.031 C 
ENDROOT
BRANCH   1   3
ATOM      3  C   UNL     1       6.908  27.500   9.833  1.00  0.00     0.027 C 
BRANCH   3   4
ATOM      4  C   UNL     1       7.735  28.122   8.703  1.00  0.00     0.004 C 
BRANCH   4   5
ATOM      5  C   UNL     1       8.779  27.126   8.176  1.00  0.00     0.000 C 
BRANCH   5   6
ATOM      6  C   UNL     1      10.223  27.613   8.381  1.00  0.00     0.000 C 
BRANCH   6   7
ATOM      7  C   UNL     1      11.026  26.699   9.323  1.00  0.00     0.000 C 
BRANCH   7   8
ATOM      8  C   UNL     1      10.181  25.542   9.891  1.00  0.00     0.006 C 
BRANCH   8   9
ATOM      9  C   UNL     1      10.444  25.235  11.374  1.00  0.00     0.053 C 
BRANCH   9  10
ATOM     10  C   UNL     1      11.063  23.885  11.568  1.00  0.00     0.041 C 
ATOM     11  O   UNL     1      11.326  23.160  10.573  1.00  0.00    -0.550 OA
ATOM     12  O   UNL     1      11.318  23.413  12.850  1.00  0.00    -0.550 OA
ENDBRANCH   9  10
ENDBRANCH   8   9
ENDBRANCH   7   8
ENDBRANCH   6   7
ENDBRANCH   5   6
ENDBRANCH   4   5
ENDBRANCH   3   4
ENDBRANCH   1   3
BRANCH   2  13
ATOM     13  C   UNL     1       8.506  27.948  12.400  1.00  0.00     0.027 C 
BRANCH  13  14
ATOM     14  C   UNL     1       9.626  28.916  12.799  1.00  0.00     0.004 C 
BRANCH  14  15
ATOM     15  C   UNL     1      10.336  29.474  11.557  1.00  0.00     0.000 C 
BRANCH  15  16
ATOM     16  C   UNL     1      11.363  30.565  11.900  1.00  0.00     0.000 C 
BRANCH  16  17
ATOM     17  C   UNL     1      12.810  30.047  11.861  1.00  0.00    -0.000 C 
BRANCH  17  18
ATOM     18  C   UNL     1      13.577  30.516  10.612  1.00  0.00    -0.000 C 
BRANCH  18  19
ATOM     19  C   UNL     1      13.695  29.434   9.517  1.00  0.00    -0.003 C 
ATOM     20  C   UNL     1      13.057  29.869   8.198  1.00  0.00     0.004 C 
ENDBRANCH  18  19
ENDBRANCH  17  18
ENDBRANCH  16  17
ENDBRANCH  15  16
ENDBRANCH  14  15
ENDBRANCH  13  14
ENDBRANCH   2  13
TORSDOF 15
ENDMDL
MODEL 7
REMARK VINA RESULT:    -3.658      8.446     11.398
REMARK INTER + INTRA:          -9.616
REMARK INTER:                  -6.777
REMARK INTRA:                  -2.840
REMARK UNBOUND:                -2.750
REMARK SMILES CCCCCCCCC=CCCCCCCCC(=O)[O-]
REMARK SMILES IDX 10 1 9 2 11 3 12 4 13 5 14 6 15 7 16 8 17 9 18 10 19 11
REMARK SMILES IDX 20 12 8 13 7 14 6 15 5 16 4 17 3 18 2 19 1 20
REMARK H PARENT
REMARK Flexibility Score: inf
ROOT
ATOM      1  C   UNL     1       6.523  31.598  19.968  1.00  0.00    -0.031 C 
ATOM      2  C   UNL     1       5.492  31.572  20.834  1.00  0.00    -0.031 C 
ENDROOT
BRANCH   1   3
ATOM      3  C   UNL     1       6.758  32.685  18.950  1.00  0.00     0.027 C 
BRANCH   3   4
ATOM      4  C   UNL     1       6.598  32.142  17.526  1.00  0.00     0.004 C 
BRANCH   4   5
ATOM      5  C   UNL     1       5.614  30.963  17.498  1.00  0.00     0.000 C 
BRANCH   5   6
ATOM      6  C   UNL     1       6.182  29.730  16.775  1.00  0.00     0.000 C 
BRANCH   6   7
ATOM      7  C   UNL     1       6.760  28.690  17.751  1.00  0.00     0.000 C 
BRANCH   7   8
ATOM      8  C   UNL     1       5.673  27.800  18.383  1.00  0.00     0.006 C 
BRANCH   8   9
ATOM      9  C   UNL     1       5.512  27.979  19.901  1.00  0.00     0.053 C 
BRANCH   9  10
ATOM     10  C   UNL     1       5.852  26.731  20.655  1.00  0.00     0.041 C 
ATOM     11  O   UNL     1       5.663  26.670  21.898  1.00  0.00    -0.550 OA
ATOM     12  O   UNL     1       6.411  25.646  19.989  1.00  0.00    -0.550 OA
ENDBRANCH   9  10
ENDBRANCH   8   9
ENDBRANCH   7   8
ENDBRANCH   6   7
ENDBRANCH   5   6
ENDBRANCH   4   5
ENDBRANCH   3   4
ENDBRANCH   1   3
BRANCH   2  13
ATOM     13  C   UNL     1       4.371  32.580  20.857  1.00  0.00     0.027 C 
BRANCH  13  14
ATOM     14  C   UNL     1       3.046  31.930  20.438  1.00  0.00     0.004 C 
BRANCH  14  15
ATOM     15  C   UNL     1       2.688  32.299  18.991  1.00  0.00     0.000 C 
BRANCH  15  16
ATOM     16  C   UNL     1       1.906  31.189  18.272  1.00  0.00     0.000 C 
BRANCH  16  17
ATOM     17  C   UNL     1       2.160  29.800  18.878  1.00  0.00    -0.000 C 
BRANCH  17  18
ATOM     18  C   UNL     1       2.234  28.690  17.814  1.00  0.00    -0.000 C 
BRANCH  18  19
ATOM     19  C   UNL     1       2.125  29.212  16.366  1.00  0.00    -0.003 C 
ATOM     20  C   UNL     1       3.006  28.426  15.395  1.00  0.00     0.004 C 
ENDBRANCH  18  19
ENDBRANCH  17  18
ENDBRANCH  16  17
ENDBRANCH  15  16
ENDBRANCH  14  15
ENDBRANCH  13  14
ENDBRANCH   2  13
TORSDOF 15
ENDMDL
MODEL 8
REMARK VINA RESULT:    -3.595      1.228      3.401
REMARK INTER + INTRA:          -9.498
REMARK INTER:                  -6.906
REMARK INTRA:                  -2.592
REMARK UNBOUND:                -2.750
REMARK SMILES CCCCCCCCC=CCCCCCCCC(=O)[O-]
REMARK SMILES IDX 10 1 9 2 11 3 12 4 13 5 14 6 15 7 16 8 17 9 18 10 19 11
REMARK SMILES IDX 20 12 8 13 7 14 6 15 5 16 4 17 3 18 2 19 1 20
REMARK H PARENT
REMARK Flexibility Score: inf
ROOT
ATOM      1  C   UNL     1       9.253  30.456   9.021  1.00  0.00    -0.031 C 
ATOM      2  C   UNL     1       8.981  30.908  10.259  1.00  0.00    -0.031 C 
ENDROOT
BRANCH   1   3
ATOM      3  C   UNL     1       8.633  29.227   8.405  1.00  0.00     0.027 C 
BRANCH   3   4
ATOM      4  C   UNL     1       9.692  28.147   8.161  1.00  0.00     0.004 C 
BRANCH   4   5
ATOM      5  C   UNL     1       9.141  26.753   8.498  1.00  0.00     0.000 C 
BRANCH   5   6
ATOM      6  C   UNL     1       8.323  26.735   9.800  1.00  0.00     0.000 C 
BRANCH   6   7
ATOM      7  C   UNL     1       9.205  26.888  11.051  1.00  0.00     0.000 C 
BRANCH   7   8
ATOM      8  C   UNL     1      10.466  26.005  11.001  1.00  0.00     0.006 C 
BRANCH   8   9
ATOM      9  C   UNL     1      10.437  24.803  11.959  1.00  0.00     0.053 C 
BRANCH   9  10
ATOM     10  C   UNL     1      11.274  23.666  11.461  1.00  0.00     0.041 C 
ATOM     11  O   UNL     1      11.945  22.971  12.269  1.00  0.00    -0.550 OA
ATOM     12  O   UNL     1      11.341  23.394  10.099  1.00  0.00    -0.550 OA
ENDBRANCH   9  10
ENDBRANCH   8   9
ENDBRANCH   7   8
ENDBRANCH   6   7
ENDBRANCH   5   6
ENDBRANCH   4   5
ENDBRANCH   3   4
ENDBRANCH   1   3
BRANCH   2  13
ATOM     13  C   UNL     1       8.085  30.207  11.249  1.00  0.00     0.027 C 
BRANCH  13  14
ATOM     14  C   UNL     1       8.643  30.330  12.672  1.00  0.00     0.004 C 
BRANCH  14  15
ATOM     15  C   UNL     1       9.911  31.196  12.690  1.00  0.00     0.000 C 
BRANCH  15  16
ATOM     16  C   UNL     1      10.966  30.682  13.683  1.00  0.00     0.000 C 
BRANCH  16  17
ATOM     17  C   UNL     1      12.224  30.144  12.982  1.00  0.00    -0.000 C 
BRANCH  17  18
ATOM     18  C   UNL     1      11.902  29.359  11.698  1.00  0.00    -0.000 C 
BRANCH  18  19
ATOM     19  C   UNL     1      12.656  29.872  10.452  1.00  0.00    -0.003 C 
ATOM     20  C   UNL     1      13.106  28.736   9.535  1.00  0.00     0.004 C 
ENDBRANCH  18  19
ENDBRANCH  17  18
ENDBRANCH  16  17
ENDBRANCH  15  16
ENDBRANCH  14  15
ENDBRANCH  13  14
ENDBRANCH   2  13
TORSDOF 15
ENDMDL
MODEL 9
REMARK VINA RESULT:    -3.592      3.093      4.915
REMARK INTER + INTRA:          -9.492
REMARK INTER:                  -6.649
REMARK INTRA:                  -2.843
REMARK UNBOUND:                -2.750
REMARK SMILES CCCCCCCCC=CCCCCCCCC(=O)[O-]
REMARK SMILES IDX 10 1 9 2 11 3 12 4 13 5 14 6 15 7 16 8 17 9 18 10 19 11
REMARK SMILES IDX 20 12 8 13 7 14 6 15 5 16 4 17 3 18 2 19 1 20
REMARK H PARENT
REMARK Flexibility Score: inf
ROOT
ATOM      1  C   UNL     1      10.502  25.573  10.995  1.00  0.00    -0.031 C 
ATOM      2  C   UNL     1       9.855  26.348  11.884  1.00  0.00    -0.031 C 
ENDROOT
BRANCH   1   3
ATOM      3  C   UNL     1      10.321  25.653   9.499  1.00  0.00     0.027 C 
BRANCH   3   4
ATOM      4  C   UNL     1      11.243  26.718   8.896  1.00  0.00     0.004 C 
BRANCH   4   5
ATOM      5  C   UNL     1      10.483  27.593   7.888  1.00  0.00     0.000 C 
BRANCH   5   6
ATOM      6  C   UNL     1       8.991  27.233   7.793  1.00  0.00     0.000 C 
BRANCH   6   7
ATOM      7  C   UNL     1       8.086  28.477   7.757  1.00  0.00     0.000 C 
BRANCH   7   8
ATOM      8  C   UNL     1       6.785  28.288   8.561  1.00  0.00     0.006 C 
BRANCH   8   9
ATOM      9  C   UNL     1       5.905  29.546   8.646  1.00  0.00     0.053 C 
BRANCH   9  10
ATOM     10  C   UNL     1       5.631  30.134   7.296  1.00  0.00     0.041 C 
ATOM     11  O   UNL     1       4.894  29.524   6.478  1.00  0.00    -0.550 OA
ATOM     12  O   UNL     1       6.218  31.339   6.929  1.00  0.00    -0.550 OA
ENDBRANCH   9  10
ENDBRANCH   8   9
ENDBRANCH   7   8
ENDBRANCH   6   7
ENDBRANCH   5   6
ENDBRANCH   4   5
ENDBRANCH   3   4
ENDBRANCH   1   3
BRANCH   2  13
ATOM     13  C   UNL     1       8.787  27.351  11.527  1.00  0.00     0.027 C 
BRANCH  13  14
ATOM     14  C   UNL     1       9.197  28.762  11.963  1.00  0.00     0.004 C 
BRANCH  14  15
ATOM     15  C   UNL     1       9.504  29.644  10.744  1.00  0.00     0.000 C 
BRANCH  15  16
ATOM     16  C   UNL     1      10.868  30.346  10.848  1.00  0.00     0.000 C 
BRANCH  16  17
ATOM     17  C   UNL     1      11.997  29.385  11.256  1.00  0.00    -0.000 C 
BRANCH  17  18
ATOM     18  C   UNL     1      12.636  29.755  12.606  1.00  0.00    -0.000 C 
BRANCH  18  19
ATOM     19  C   UNL     1      12.088  31.065  13.212  1.00  0.00    -0.003 C 
ATOM     20  C   UNL     1      11.336  30.831  14.522  1.00  0.00     0.004 C 
ENDBRANCH  18  19
ENDBRANCH  17  18
ENDBRANCH  16  17
ENDBRANCH  15  16
ENDBRANCH  14  15
ENDBRANCH  13  14
ENDBRANCH   2  13
TORSDOF 15
ENDMDL
