MODEL 1
REMARK VINA RESULT:    -3.639      0.000      0.000
REMARK INTER + INTRA:          -3.639
REMARK INTER:                  -3.639
REMARK INTRA:                   0.000
REMARK UNBOUND:                 0.000
REMARK SMILES C=C1CCC[C@]2(C)CC(=O)C(=C(C)C)C[C@H]12
REMARK SMILES IDX 13 1 12 2 11 3 15 4 16 5 2 6 1 7 3 8 4 9 5 10 6 11 8 12 9 13
REMARK SMILES IDX 10 14 7 15 14 16
REMARK H PARENT
REMARK Flexibility Score: inf
ROOT
ATOM      1  C   UNL     1     158.407 152.175 147.583  1.00  0.00     0.039 C 
ATOM      2  C   UNL     1     157.154 152.469 146.791  1.00  0.00    -0.070 C 
ATOM      3  C   UNL     1     156.003 152.866 147.407  1.00  0.00    -0.006 C 
ATOM      4  C   UNL     1     155.920 153.040 148.912  1.00  0.00     0.047 C 
ATOM      5  C   UNL     1     154.945 154.161 149.348  1.00  0.00     0.025 C 
ATOM      6  C   UNL     1     154.784 154.127 150.858  1.00  0.00    -0.073 C 
ATOM      7  C   UNL     1     155.646 154.789 151.644  1.00  0.00     0.008 C 
ATOM      8  C   UNL     1     153.639 153.364 151.486  1.00  0.00     0.031 C 
ATOM      9  C   UNL     1     153.036 152.325 150.531  1.00  0.00     0.005 C 
ATOM     10  C   UNL     1     152.727 152.848 149.109  1.00  0.00     0.008 C 
ATOM     11  C   UNL     1     153.552 154.095 148.647  1.00  0.00    -0.018 C 
ATOM     12  C   UNL     1     153.747 154.073 147.107  1.00  0.00     0.088 C 
ATOM     13  C   UNL     1     154.726 153.028 146.670  1.00  0.00     0.159 C 
ATOM     14  O   UNL     1     154.441 152.296 145.683  1.00  0.00    -0.295 OA
ATOM     15  C   UNL     1     152.747 155.384 148.970  1.00  0.00     0.012 C 
ATOM     16  C   UNL     1     157.243 152.340 145.287  1.00  0.00     0.039 C 
ENDROOT
TORSDOF 0
ENDMDL
MODEL 2
REMARK VINA RESULT:    -3.637     21.322     22.700
REMARK INTER + INTRA:          -3.637
REMARK INTER:                  -3.637
REMARK INTRA:                   0.000
REMARK UNBOUND:                 0.000
REMARK SMILES C=C1CCC[C@]2(C)CC(=O)C(=C(C)C)C[C@H]12
REMARK SMILES IDX 13 1 12 2 11 3 15 4 16 5 2 6 1 7 3 8 4 9 5 10 6 11 8 12 9 13
REMARK SMILES IDX 10 14 7 15 14 16
REMARK H PARENT
REMARK Flexibility Score: inf
ROOT
ATOM      1  C   UNL     1     165.596 171.836 147.581  1.00  0.00     0.039 C 
ATOM      2  C   UNL     1     166.840 171.543 146.775  1.00  0.00    -0.070 C 
ATOM      3  C   UNL     1     167.996 171.138 147.377  1.00  0.00    -0.006 C 
ATOM      4  C   UNL     1     168.091 170.953 148.880  1.00  0.00     0.047 C 
ATOM      5  C   UNL     1     169.067 169.826 149.299  1.00  0.00     0.025 C 
ATOM      6  C   UNL     1     169.243 169.848 150.807  1.00  0.00    -0.073 C 
ATOM      7  C   UNL     1     168.386 169.184 151.597  1.00  0.00     0.008 C 
ATOM      8  C   UNL     1     170.396 170.604 151.429  1.00  0.00     0.031 C 
ATOM      9  C   UNL     1     170.993 171.647 150.477  1.00  0.00     0.005 C 
ATOM     10  C   UNL     1     171.288 171.133 149.047  1.00  0.00     0.008 C 
ATOM     11  C   UNL     1     170.454 169.892 148.585  1.00  0.00    -0.018 C 
ATOM     12  C   UNL     1     170.244 169.926 147.047  1.00  0.00     0.088 C 
ATOM     13  C   UNL     1     169.265 170.977 146.626  1.00  0.00     0.159 C 
ATOM     14  O   UNL     1     169.543 171.715 145.643  1.00  0.00    -0.295 OA
ATOM     15  C   UNL     1     171.257 168.599 148.891  1.00  0.00     0.012 C 
ATOM     16  C   UNL     1     166.737 171.683 145.273  1.00  0.00     0.039 C 
ENDROOT
TORSDOF 0
ENDMDL
MODEL 3
REMARK VINA RESULT:    -3.557      1.636      4.921
REMARK INTER + INTRA:          -3.557
REMARK INTER:                  -3.557
REMARK INTRA:                   0.000
REMARK UNBOUND:                 0.000
REMARK SMILES C=C1CCC[C@]2(C)CC(=O)C(=C(C)C)C[C@H]12
REMARK SMILES IDX 13 1 12 2 11 3 15 4 16 5 2 6 1 7 3 8 4 9 5 10 6 11 8 12 9 13
REMARK SMILES IDX 10 14 7 15 14 16
REMARK H PARENT
REMARK Flexibility Score: inf
ROOT
ATOM      1  C   UNL     1     156.210 152.883 150.914  1.00  0.00     0.039 C 
ATOM      2  C   UNL     1     155.048 152.918 149.948  1.00  0.00    -0.070 C 
ATOM      3  C   UNL     1     155.249 153.005 148.601  1.00  0.00    -0.006 C 
ATOM      4  C   UNL     1     156.642 153.066 148.003  1.00  0.00     0.047 C 
ATOM      5  C   UNL     1     156.743 152.395 146.611  1.00  0.00     0.025 C 
ATOM      6  C   UNL     1     158.111 152.676 146.014  1.00  0.00    -0.073 C 
ATOM      7  C   UNL     1     159.149 151.876 146.300  1.00  0.00     0.008 C 
ATOM      8  C   UNL     1     158.309 153.849 145.080  1.00  0.00     0.031 C 
ATOM      9  C   UNL     1     157.194 154.894 145.209  1.00  0.00     0.005 C 
ATOM     10  C   UNL     1     155.757 154.322 145.190  1.00  0.00     0.008 C 
ATOM     11  C   UNL     1     155.615 152.823 145.620  1.00  0.00    -0.018 C 
ATOM     12  C   UNL     1     154.229 152.580 146.274  1.00  0.00     0.088 C 
ATOM     13  C   UNL     1     154.130 153.178 147.643  1.00  0.00     0.159 C 
ATOM     14  O   UNL     1     153.095 153.828 147.955  1.00  0.00    -0.295 OA
ATOM     15  C   UNL     1     155.667 151.925 144.354  1.00  0.00     0.012 C 
ATOM     16  C   UNL     1     153.659 152.813 150.536  1.00  0.00     0.039 C 
ENDROOT
TORSDOF 0
ENDMDL
MODEL 4
REMARK VINA RESULT:    -3.547     21.163     22.445
REMARK INTER + INTRA:          -3.547
REMARK INTER:                  -3.547
REMARK INTRA:                   0.000
REMARK UNBOUND:                 0.000
REMARK SMILES C=C1CCC[C@]2(C)CC(=O)C(=C(C)C)C[C@H]12
REMARK SMILES IDX 13 1 12 2 11 3 15 4 16 5 2 6 1 7 3 8 4 9 5 10 6 11 8 12 9 13
REMARK SMILES IDX 10 14 7 15 14 16
REMARK H PARENT
REMARK Flexibility Score: inf
ROOT
ATOM      1  C   UNL     1     168.118 171.101 151.178  1.00  0.00     0.039 C 
ATOM      2  C   UNL     1     169.239 171.027 150.167  1.00  0.00    -0.070 C 
ATOM      3  C   UNL     1     168.982 170.929 148.831  1.00  0.00    -0.006 C 
ATOM      4  C   UNL     1     167.565 170.895 148.289  1.00  0.00     0.047 C 
ATOM      5  C   UNL     1     167.425 171.551 146.894  1.00  0.00     0.025 C 
ATOM      6  C   UNL     1     166.027 171.297 146.356  1.00  0.00    -0.073 C 
ATOM      7  C   UNL     1     165.021 172.125 146.673  1.00  0.00     0.008 C 
ATOM      8  C   UNL     1     165.764 170.118 145.446  1.00  0.00     0.031 C 
ATOM      9  C   UNL     1     166.858 169.048 145.543  1.00  0.00     0.005 C 
ATOM     10  C   UNL     1     168.306 169.585 145.459  1.00  0.00     0.008 C 
ATOM     11  C   UNL     1     168.501 171.084 145.864  1.00  0.00    -0.018 C 
ATOM     12  C   UNL     1     169.918 171.302 146.460  1.00  0.00     0.088 C 
ATOM     13  C   UNL     1     170.058 170.718 147.831  1.00  0.00     0.159 C 
ATOM     14  O   UNL     1     171.088 170.047 148.110  1.00  0.00    -0.295 OA
ATOM     15  C   UNL     1     168.419 171.969 144.591  1.00  0.00     0.012 C 
ATOM     16  C   UNL     1     170.652 171.105 150.698  1.00  0.00     0.039 C 
ENDROOT
TORSDOF 0
ENDMDL
MODEL 5
REMARK VINA RESULT:    -3.445     21.146     22.379
REMARK INTER + INTRA:          -3.445
REMARK INTER:                  -3.445
REMARK INTRA:                   0.000
REMARK UNBOUND:                 0.000
REMARK SMILES C=C1CCC[C@]2(C)CC(=O)C(=C(C)C)C[C@H]12
REMARK SMILES IDX 13 1 12 2 11 3 15 4 16 5 2 6 1 7 3 8 4 9 5 10 6 11 8 12 9 13
REMARK SMILES IDX 10 14 7 15 14 16
REMARK H PARENT
REMARK Flexibility Score: inf
ROOT
ATOM      1  C   UNL     1     165.570 171.628 148.903  1.00  0.00     0.039 C 
ATOM      2  C   UNL     1     166.995 171.687 148.405  1.00  0.00    -0.070 C 
ATOM      3  C   UNL     1     167.298 171.463 147.093  1.00  0.00    -0.006 C 
ATOM      4  C   UNL     1     166.224 171.151 146.067  1.00  0.00     0.047 C 
ATOM      5  C   UNL     1     166.553 171.685 144.652  1.00  0.00     0.025 C 
ATOM      6  C   UNL     1     165.526 171.159 143.664  1.00  0.00    -0.073 C 
ATOM      7  C   UNL     1     164.373 171.818 143.474  1.00  0.00     0.008 C 
ATOM      8  C   UNL     1     165.802 169.898 142.876  1.00  0.00     0.031 C 
ATOM      9  C   UNL     1     166.905 169.042 143.510  1.00  0.00     0.005 C 
ATOM     10  C   UNL     1     168.184 169.816 143.910  1.00  0.00     0.008 C 
ATOM     11  C   UNL     1     167.999 171.349 144.169  1.00  0.00    -0.018 C 
ATOM     12  C   UNL     1     169.026 171.845 145.221  1.00  0.00     0.088 C 
ATOM     13  C   UNL     1     168.696 171.380 146.606  1.00  0.00     0.159 C 
ATOM     14  O   UNL     1     169.617 170.917 147.332  1.00  0.00    -0.295 OA
ATOM     15  C   UNL     1     168.302 172.125 142.858  1.00  0.00     0.012 C 
ATOM     16  C   UNL     1     168.064 172.042 149.414  1.00  0.00     0.039 C 
ENDROOT
TORSDOF 0
ENDMDL
MODEL 6
REMARK VINA RESULT:    -3.432      2.791      5.236
REMARK INTER + INTRA:          -3.432
REMARK INTER:                  -3.432
REMARK INTRA:                   0.000
REMARK UNBOUND:                 0.000
REMARK SMILES C=C1CCC[C@]2(C)CC(=O)C(=C(C)C)C[C@H]12
REMARK SMILES IDX 13 1 12 2 11 3 15 4 16 5 2 6 1 7 3 8 4 9 5 10 6 11 8 12 9 13
REMARK SMILES IDX 10 14 7 15 14 16
REMARK H PARENT
REMARK Flexibility Score: inf
ROOT
ATOM      1  C   UNL     1     154.023 153.860 155.111  1.00  0.00     0.039 C 
ATOM      2  C   UNL     1     155.216 153.439 154.284  1.00  0.00    -0.070 C 
ATOM      3  C   UNL     1     155.145 153.364 152.923  1.00  0.00    -0.006 C 
ATOM      4  C   UNL     1     153.872 153.704 152.170  1.00  0.00     0.047 C 
ATOM      5  C   UNL     1     154.131 154.318 150.773  1.00  0.00     0.025 C 
ATOM      6  C   UNL     1     152.815 154.441 150.025  1.00  0.00    -0.073 C 
ATOM      7  C   UNL     1     152.045 155.527 150.187  1.00  0.00     0.008 C 
ATOM      8  C   UNL     1     152.371 153.347 149.080  1.00  0.00     0.031 C 
ATOM      9  C   UNL     1     153.094 152.020 149.340  1.00  0.00     0.005 C 
ATOM     10  C   UNL     1     154.630 152.130 149.482  1.00  0.00     0.008 C 
ATOM     11  C   UNL     1     155.175 153.531 149.919  1.00  0.00    -0.018 C 
ATOM     12  C   UNL     1     156.490 153.370 150.727  1.00  0.00     0.088 C 
ATOM     13  C   UNL     1     156.255 152.824 152.101  1.00  0.00     0.159 C 
ATOM     14  O   UNL     1     157.002 151.905 152.532  1.00  0.00    -0.295 OA
ATOM     15  C   UNL     1     155.535 154.353 148.652  1.00  0.00     0.012 C 
ATOM     16  C   UNL     1     156.499 153.142 155.027  1.00  0.00     0.039 C 
ENDROOT
TORSDOF 0
ENDMDL
MODEL 7
REMARK VINA RESULT:    -3.404     21.459     23.092
REMARK INTER + INTRA:          -3.404
REMARK INTER:                  -3.404
REMARK INTRA:                   0.000
REMARK UNBOUND:                 0.000
REMARK SMILES C=C1CCC[C@]2(C)CC(=O)C(=C(C)C)C[C@H]12
REMARK SMILES IDX 13 1 12 2 11 3 15 4 16 5 2 6 1 7 3 8 4 9 5 10 6 11 8 12 9 13
REMARK SMILES IDX 10 14 7 15 14 16
REMARK H PARENT
REMARK Flexibility Score: inf
ROOT
ATOM      1  C   UNL     1     170.033 170.028 155.212  1.00  0.00     0.039 C 
ATOM      2  C   UNL     1     168.835 170.481 154.411  1.00  0.00    -0.070 C 
ATOM      3  C   UNL     1     168.885 170.568 153.050  1.00  0.00    -0.006 C 
ATOM      4  C   UNL     1     170.137 170.211 152.271  1.00  0.00     0.047 C 
ATOM      5  C   UNL     1     169.841 169.616 150.872  1.00  0.00     0.025 C 
ATOM      6  C   UNL     1     171.142 169.474 150.100  1.00  0.00    -0.073 C 
ATOM      7  C   UNL     1     171.892 168.371 150.238  1.00  0.00     0.008 C 
ATOM      8  C   UNL     1     171.591 170.568 149.158  1.00  0.00     0.031 C 
ATOM      9  C   UNL     1     170.900 171.907 149.444  1.00  0.00     0.005 C 
ATOM     10  C   UNL     1     169.364 171.826 149.612  1.00  0.00     0.008 C 
ATOM     11  C   UNL     1     168.799 170.432 150.045  1.00  0.00    -0.018 C 
ATOM     12  C   UNL     1     167.502 170.611 150.877  1.00  0.00     0.088 C 
ATOM     13  C   UNL     1     167.772 171.139 152.252  1.00  0.00     0.159 C 
ATOM     14  O   UNL     1     167.050 172.068 152.705  1.00  0.00    -0.295 OA
ATOM     15  C   UNL     1     168.401 169.630 148.776  1.00  0.00     0.012 C 
ATOM     16  C   UNL     1     167.572 170.796 155.178  1.00  0.00     0.039 C 
ENDROOT
TORSDOF 0
ENDMDL
MODEL 8
REMARK VINA RESULT:    -3.280      2.187      5.581
REMARK INTER + INTRA:          -3.280
REMARK INTER:                  -3.280
REMARK INTRA:                   0.000
REMARK UNBOUND:                 0.000
REMARK SMILES C=C1CCC[C@]2(C)CC(=O)C(=C(C)C)C[C@H]12
REMARK SMILES IDX 13 1 12 2 11 3 15 4 16 5 2 6 1 7 3 8 4 9 5 10 6 11 8 12 9 13
REMARK SMILES IDX 10 14 7 15 14 16
REMARK H PARENT
REMARK Flexibility Score: inf
ROOT
ATOM      1  C   UNL     1     157.954 152.662 149.289  1.00  0.00     0.039 C 
ATOM      2  C   UNL     1     156.568 152.605 148.689  1.00  0.00    -0.070 C 
ATOM      3  C   UNL     1     156.369 152.759 147.348  1.00  0.00    -0.006 C 
ATOM      4  C   UNL     1     157.523 152.990 146.390  1.00  0.00     0.047 C 
ATOM      5  C   UNL     1     157.285 152.382 144.986  1.00  0.00     0.025 C 
ATOM      6  C   UNL     1     158.395 152.828 144.050  1.00  0.00    -0.073 C 
ATOM      7  C   UNL     1     159.542 152.135 143.984  1.00  0.00     0.008 C 
ATOM      8  C   UNL     1     158.210 154.047 143.174  1.00  0.00     0.031 C 
ATOM      9  C   UNL     1     157.085 154.961 143.675  1.00  0.00     0.005 C 
ATOM     10  C   UNL     1     155.761 154.239 144.021  1.00  0.00     0.008 C 
ATOM     11  C   UNL     1     155.888 152.720 144.378  1.00  0.00    -0.018 C 
ATOM     12  C   UNL     1     154.774 152.307 145.377  1.00  0.00     0.088 C 
ATOM     13  C   UNL     1     155.012 152.843 146.754  1.00  0.00     0.159 C 
ATOM     14  O   UNL     1     154.053 153.367 147.382  1.00  0.00    -0.295 OA
ATOM     15  C   UNL     1     155.662 151.876 143.094  1.00  0.00     0.012 C 
ATOM     16  C   UNL     1     155.419 152.332 149.634  1.00  0.00     0.039 C 
ENDROOT
TORSDOF 0
ENDMDL
MODEL 9
REMARK VINA RESULT:    -3.235      1.529      2.045
REMARK INTER + INTRA:          -3.235
REMARK INTER:                  -3.235
REMARK INTRA:                   0.000
REMARK UNBOUND:                 0.000
REMARK SMILES C=C1CCC[C@]2(C)CC(=O)C(=C(C)C)C[C@H]12
REMARK SMILES IDX 13 1 12 2 11 3 15 4 16 5 2 6 1 7 3 8 4 9 5 10 6 11 8 12 9 13
REMARK SMILES IDX 10 14 7 15 14 16
REMARK H PARENT
REMARK Flexibility Score: inf
ROOT
ATOM      1  C   UNL     1     159.223 151.969 150.477  1.00  0.00     0.039 C 
ATOM      2  C   UNL     1     158.724 152.422 149.124  1.00  0.00    -0.070 C 
ATOM      3  C   UNL     1     157.418 152.765 148.928  1.00  0.00    -0.006 C 
ATOM      4  C   UNL     1     156.402 152.717 150.054  1.00  0.00     0.047 C 
ATOM      5  C   UNL     1     155.297 153.795 149.931  1.00  0.00     0.025 C 
ATOM      6  C   UNL     1     154.230 153.545 150.982  1.00  0.00    -0.073 C 
ATOM      7  C   UNL     1     154.367 154.051 152.217  1.00  0.00     0.008 C 
ATOM      8  C   UNL     1     152.998 152.738 150.640  1.00  0.00     0.031 C 
ATOM      9  C   UNL     1     153.193 151.875 149.388  1.00  0.00     0.005 C 
ATOM     10  C   UNL     1     153.807 152.613 148.175  1.00  0.00     0.008 C 
ATOM     11  C   UNL     1     154.656 153.885 148.511  1.00  0.00    -0.018 C 
ATOM     12  C   UNL     1     155.772 154.083 147.450  1.00  0.00     0.088 C 
ATOM     13  C   UNL     1     156.875 153.080 147.585  1.00  0.00     0.159 C 
ATOM     14  O   UNL     1     157.318 152.514 146.549  1.00  0.00    -0.295 OA
ATOM     15  C   UNL     1     153.745 155.139 148.431  1.00  0.00     0.012 C 
ATOM     16  C   UNL     1     159.742 152.514 148.009  1.00  0.00     0.039 C 
ENDROOT
TORSDOF 0
ENDMDL
