MODEL 1
REMARK VINA RESULT:    -1.255      0.000      0.000
REMARK INTER + INTRA:          -1.639
REMARK INTER:                  -1.769
REMARK INTRA:                   0.130
REMARK UNBOUND:                 0.130
REMARK SMILES CC1=CCC(=C(C)C)C(=O)CC(C)=CCC1
REMARK SMILES IDX 12 1 14 2 13 3 15 4 16 5 2 6 1 7 3 8 11 10 9 11 10 12 5 13
REMARK SMILES IDX 6 14 7 15 8 16 4 17
REMARK H PARENT
REMARK Flexibility Score: 60.00
ROOT
ATOM      1  C   UNL     1      27.990  58.922  11.353  1.00  0.00    -0.070 C 
ATOM      2  C   UNL     1      27.448  60.102  11.752  1.00  0.00    -0.027 C 
ATOM      3  C   UNL     1      27.727  58.487   9.932  1.00  0.00     0.039 C 
ENDROOT
BRANCH   2   4
ATOM      4  C   UNL     1      27.664  60.775  13.087  1.00  0.00     0.032 C 
BRANCH   4   5
ATOM      5  C   UNL     1      28.690  61.914  13.033  1.00  0.00     0.034 C 
BRANCH   5   6
ATOM      6  C   UNL     1      29.992  61.477  13.674  1.00  0.00    -0.077 C 
ATOM      7  C   UNL     1      30.193  61.747  15.143  1.00  0.00     0.039 C 
ATOM      8  C   UNL     1      31.017  60.927  12.981  1.00  0.00    -0.023 CG0
ATOM      9  G   UNL     1      30.996  60.568  11.513  1.00  0.00     0.000 G0
ENDBRANCH   5   6
ENDBRANCH   4   5
ENDBRANCH   2   4
BRANCH   1  10
ATOM     10  C   UNL     1      28.770  57.979  12.263  1.00  0.00     0.111 C 
BRANCH  10  11
ATOM     11  C   UNL     1      30.262  58.205  12.246  1.00  0.00     0.163 C 
ATOM     12  O   UNL     1      30.944  57.668  13.161  1.00  0.00    -0.294 OA
BRANCH  11  13
ATOM     13  C   UNL     1      30.938  59.078  11.230  1.00  0.00    -0.002 C 
ATOM     14  C   UNL     1      31.413  58.549  10.059  1.00  0.00    -0.069 C 
ATOM     15  C   UNL     1      32.012  59.421   8.977  1.00  0.00     0.039 C 
ATOM     16  C   UNL     1      31.415  57.057   9.802  1.00  0.00     0.039 C 
BRANCH  13  17
ATOM     17  C   UNL     1      31.036  60.579  11.499  1.00  0.00     0.066 CG0
ATOM     18  G   UNL     1      31.025  60.895  12.977  1.00  0.00     0.000 G0
ENDBRANCH  13  17
ENDBRANCH  11  13
ENDBRANCH  10  11
ENDBRANCH   1  10
TORSDOF 0
ENDMDL
MODEL 2
REMARK VINA RESULT:    -1.231      2.320      4.505
REMARK INTER + INTRA:          -1.605
REMARK INTER:                  -1.757
REMARK INTRA:                   0.152
REMARK UNBOUND:                 0.130
REMARK SMILES CC1=CCC(=C(C)C)C(=O)CC(C)=CCC1
REMARK SMILES IDX 12 1 14 2 13 3 15 4 16 5 2 6 1 7 3 8 11 10 9 11 10 12 5 13
REMARK SMILES IDX 6 14 7 15 8 16 4 17
REMARK H PARENT
REMARK Flexibility Score: 60.00
ROOT
ATOM      1  C   UNL     1      28.683  61.121  10.221  1.00  0.00    -0.070 C 
ATOM      2  C   UNL     1      28.194  60.628   9.054  1.00  0.00    -0.027 C 
ATOM      3  C   UNL     1      28.972  62.601  10.279  1.00  0.00     0.039 C 
ENDROOT
BRANCH   2   4
ATOM      4  C   UNL     1      27.743  59.209   8.805  1.00  0.00     0.032 C 
BRANCH   4   5
ATOM      5  C   UNL     1      28.864  58.297   8.289  1.00  0.00     0.034 C 
BRANCH   5   6
ATOM      6  C   UNL     1      28.887  57.000   9.073  1.00  0.00    -0.077 C 
ATOM      7  C   UNL     1      27.756  56.024   8.874  1.00  0.00     0.039 C 
ATOM      8  C   UNL     1      29.829  56.705  10.000  1.00  0.00    -0.023 CG0
ATOM      9  G   UNL     1      31.040  57.548  10.325  1.00  0.00     0.000 G0
ENDBRANCH   5   6
ENDBRANCH   4   5
ENDBRANCH   2   4
BRANCH   1  10
ATOM     10  C   UNL     1      29.032  60.270  11.438  1.00  0.00     0.111 C 
BRANCH  10  11
ATOM     11  C   UNL     1      30.473  59.825  11.483  1.00  0.00     0.163 C 
ATOM     12  O   UNL     1      31.362  60.712  11.358  1.00  0.00    -0.294 OA
BRANCH  11  13
ATOM     13  C   UNL     1      30.874  58.385  11.608  1.00  0.00    -0.002 C 
ATOM     14  C   UNL     1      31.006  57.801  12.841  1.00  0.00    -0.069 C 
ATOM     15  C   UNL     1      31.315  56.327  12.994  1.00  0.00     0.039 C 
ATOM     16  C   UNL     1      30.904  58.606  14.118  1.00  0.00     0.039 C 
BRANCH  13  17
ATOM     17  C   UNL     1      31.076  57.564  10.336  1.00  0.00     0.066 CG0
ATOM     18  G   UNL     1      29.867  56.721  10.003  1.00  0.00     0.000 G0
ENDBRANCH  13  17
ENDBRANCH  11  13
ENDBRANCH  10  11
ENDBRANCH   1  10
TORSDOF 0
ENDMDL
MODEL 3
REMARK VINA RESULT:    -1.062      2.108      3.272
REMARK INTER + INTRA:          -1.366
REMARK INTER:                  -1.482
REMARK INTRA:                   0.116
REMARK UNBOUND:                 0.130
REMARK SMILES CC1=CCC(=C(C)C)C(=O)CC(C)=CCC1
REMARK SMILES IDX 12 1 14 2 13 3 15 4 16 5 2 6 1 7 3 8 11 10 9 11 10 12 5 13
REMARK SMILES IDX 6 14 7 15 8 16 4 17
REMARK H PARENT
REMARK Flexibility Score: 60.00
ROOT
ATOM      1  C   UNL     1      29.516  63.004  12.174  1.00  0.00    -0.070 C 
ATOM      2  C   UNL     1      29.065  62.899  13.450  1.00  0.00    -0.027 C 
ATOM      3  C   UNL     1      28.990  64.151  11.346  1.00  0.00     0.039 C 
ENDROOT
BRANCH   2   4
ATOM      4  C   UNL     1      29.529  61.897  14.481  1.00  0.00     0.032 C 
BRANCH   4   5
ATOM      5  C   UNL     1      28.672  60.625  14.519  1.00  0.00     0.034 C 
BRANCH   5   6
ATOM      6  C   UNL     1      29.560  59.397  14.557  1.00  0.00    -0.077 C 
ATOM      7  C   UNL     1      30.301  59.089  15.832  1.00  0.00     0.039 C 
ATOM      8  C   UNL     1      29.783  58.604  13.481  1.00  0.00    -0.023 CG0
ATOM      9  G   UNL     1      29.121  58.745  12.130  1.00  0.00     0.000 G0
ENDBRANCH   5   6
ENDBRANCH   4   5
ENDBRANCH   2   4
BRANCH   1  10
ATOM     10  C   UNL     1      30.449  61.999  11.503  1.00  0.00     0.111 C 
BRANCH  10  11
ATOM     11  C   UNL     1      29.733  60.882  10.786  1.00  0.00     0.163 C 
ATOM     12  O   UNL     1      28.845  61.200   9.949  1.00  0.00    -0.294 OA
BRANCH  11  13
ATOM     13  C   UNL     1      29.996  59.433  11.075  1.00  0.00    -0.002 C 
ATOM     14  C   UNL     1      31.036  58.777  10.469  1.00  0.00    -0.069 C 
ATOM     15  C   UNL     1      31.382  57.345  10.815  1.00  0.00     0.039 C 
ATOM     16  C   UNL     1      31.863  59.429   9.383  1.00  0.00     0.039 C 
BRANCH  13  17
ATOM     17  C   UNL     1      29.120  58.716  12.101  1.00  0.00     0.066 CG0
ATOM     18  G   UNL     1      29.789  58.618  13.452  1.00  0.00     0.000 G0
ENDBRANCH  13  17
ENDBRANCH  11  13
ENDBRANCH  10  11
ENDBRANCH   1  10
TORSDOF 0
ENDMDL
MODEL 4
REMARK VINA RESULT:    -0.907      3.042      4.341
REMARK INTER + INTRA:          -1.149
REMARK INTER:                  -1.412
REMARK INTRA:                   0.264
REMARK UNBOUND:                 0.130
REMARK SMILES CC1=CCC(=C(C)C)C(=O)CC(C)=CCC1
REMARK SMILES IDX 12 1 14 2 13 3 15 4 16 5 2 6 1 7 3 8 11 10 9 11 10 12 5 13
REMARK SMILES IDX 6 14 7 15 8 16 4 17
REMARK H PARENT
REMARK Flexibility Score: 60.00
ROOT
ATOM      1  C   UNL     1      27.240  57.252   9.560  1.00  0.00    -0.070 C 
ATOM      2  C   UNL     1      26.252  56.472  10.069  1.00  0.00    -0.027 C 
ATOM      3  C   UNL     1      28.080  56.669   8.450  1.00  0.00     0.039 C 
ENDROOT
BRANCH   2   4
ATOM      4  C   UNL     1      25.234  56.885  11.106  1.00  0.00     0.032 C 
BRANCH   4   5
ATOM      5  C   UNL     1      25.372  56.121  12.429  1.00  0.00     0.034 C 
BRANCH   5   6
ATOM      6  C   UNL     1      26.022  57.002  13.477  1.00  0.00    -0.077 C 
ATOM      7  C   UNL     1      25.131  57.804  14.391  1.00  0.00     0.039 C 
ATOM      8  C   UNL     1      27.362  57.168  13.586  1.00  0.00    -0.023 CG0
ATOM      9  G   UNL     1      28.409  56.441  12.774  1.00  0.00     0.000 G0
ENDBRANCH   5   6
ENDBRANCH   4   5
ENDBRANCH   2   4
BRANCH   1  10
ATOM     10  C   UNL     1      27.605  58.636  10.090  1.00  0.00     0.111 C 
BRANCH  10  11
ATOM     11  C   UNL     1      28.461  58.611  11.332  1.00  0.00     0.163 C 
ATOM     12  O   UNL     1      28.619  59.697  11.954  1.00  0.00    -0.294 OA
BRANCH  11  13
ATOM     13  C   UNL     1      29.164  57.374  11.808  1.00  0.00    -0.002 C 
ATOM     14  C   UNL     1      30.448  57.104  11.413  1.00  0.00    -0.069 C 
ATOM     15  C   UNL     1      31.213  55.915  11.954  1.00  0.00     0.039 C 
ATOM     16  C   UNL     1      31.156  57.947  10.375  1.00  0.00     0.039 C 
BRANCH  13  17
ATOM     17  C   UNL     1      28.443  56.450  12.788  1.00  0.00     0.066 CG0
ATOM     18  G   UNL     1      27.367  57.171  13.566  1.00  0.00     0.000 G0
ENDBRANCH  13  17
ENDBRANCH  11  13
ENDBRANCH  10  11
ENDBRANCH   1  10
TORSDOF 0
ENDMDL
MODEL 5
REMARK VINA RESULT:    -0.853      1.972      4.286
REMARK INTER + INTRA:          -1.072
REMARK INTER:                  -1.144
REMARK INTRA:                   0.073
REMARK UNBOUND:                 0.130
REMARK SMILES CC1=CCC(=C(C)C)C(=O)CC(C)=CCC1
REMARK SMILES IDX 12 1 14 2 13 3 15 4 16 5 2 6 1 7 3 8 11 10 9 11 10 12 5 13
REMARK SMILES IDX 6 14 7 15 8 16 4 17
REMARK H PARENT
REMARK Flexibility Score: 60.00
ROOT
ATOM      1  C   UNL     1      28.946  62.432  12.479  1.00  0.00    -0.070 C 
ATOM      2  C   UNL     1      29.905  62.681  11.550  1.00  0.00    -0.027 C 
ATOM      3  C   UNL     1      28.566  63.564  13.401  1.00  0.00     0.039 C 
ENDROOT
BRANCH   2   4
ATOM      4  C   UNL     1      30.365  61.734  10.468  1.00  0.00     0.032 C 
BRANCH   4   5
ATOM      5  C   UNL     1      31.414  60.724  10.952  1.00  0.00     0.034 C 
BRANCH   5   6
ATOM      6  C   UNL     1      31.046  59.326  10.495  1.00  0.00    -0.077 C 
ATOM      7  C   UNL     1      30.990  59.049   9.015  1.00  0.00     0.039 C 
ATOM      8  C   UNL     1      30.689  58.334  11.344  1.00  0.00    -0.023 CG0
ATOM      9  G   UNL     1      30.699  58.418  12.853  1.00  0.00     0.000 G0
ENDBRANCH   5   6
ENDBRANCH   4   5
ENDBRANCH   2   4
BRANCH   1  10
ATOM     10  C   UNL     1      28.292  61.071  12.701  1.00  0.00     0.111 C 
BRANCH  10  11
ATOM     11  C   UNL     1      29.008  60.204  13.707  1.00  0.00     0.163 C 
ATOM     12  O   UNL     1      29.390  60.748  14.779  1.00  0.00    -0.294 OA
BRANCH  11  13
ATOM     13  C   UNL     1      29.325  58.759  13.453  1.00  0.00    -0.002 C 
ATOM     14  C   UNL     1      28.389  57.787  13.686  1.00  0.00    -0.069 C 
ATOM     15  C   UNL     1      28.648  56.335  13.348  1.00  0.00     0.039 C 
ATOM     16  C   UNL     1      27.062  58.100  14.344  1.00  0.00     0.039 C 
BRANCH  13  17
ATOM     17  C   UNL     1      30.691  58.398  12.874  1.00  0.00     0.066 CG0
ATOM     18  G   UNL     1      30.674  58.344  11.364  1.00  0.00     0.000 G0
ENDBRANCH  13  17
ENDBRANCH  11  13
ENDBRANCH  10  11
ENDBRANCH   1  10
TORSDOF 0
ENDMDL
MODEL 6
REMARK VINA RESULT:    -0.830      3.039      4.668
REMARK INTER + INTRA:          -1.039
REMARK INTER:                  -1.392
REMARK INTRA:                   0.352
REMARK UNBOUND:                 0.130
REMARK SMILES CC1=CCC(=C(C)C)C(=O)CC(C)=CCC1
REMARK SMILES IDX 12 1 14 2 13 3 15 4 16 5 2 6 1 7 3 8 11 10 9 11 10 12 5 13
REMARK SMILES IDX 6 14 7 15 8 16 4 17
REMARK H PARENT
REMARK Flexibility Score: 60.00
ROOT
ATOM      1  C   UNL     1      26.909  56.832  14.694  1.00  0.00    -0.070 C 
ATOM      2  C   UNL     1      25.638  57.123  14.313  1.00  0.00    -0.027 C 
ATOM      3  C   UNL     1      27.248  56.999  16.155  1.00  0.00     0.039 C 
ENDROOT
BRANCH   2   4
ATOM      4  C   UNL     1      25.056  56.933  12.932  1.00  0.00     0.032 C 
BRANCH   4   5
ATOM      5  C   UNL     1      25.669  57.868  11.881  1.00  0.00     0.034 C 
BRANCH   5   6
ATOM      6  C   UNL     1      26.103  57.075  10.664  1.00  0.00    -0.077 C 
ATOM      7  C   UNL     1      25.133  56.087  10.071  1.00  0.00     0.039 C 
ATOM      8  C   UNL     1      27.345  57.151  10.129  1.00  0.00    -0.023 CG0
ATOM      9  G   UNL     1      28.442  58.089  10.575  1.00  0.00     0.000 G0
ENDBRANCH   5   6
ENDBRANCH   4   5
ENDBRANCH   2   4
BRANCH   1  10
ATOM     10  C   UNL     1      28.026  56.431  13.735  1.00  0.00     0.111 C 
BRANCH  10  11
ATOM     11  C   UNL     1      28.742  57.599  13.104  1.00  0.00     0.163 C 
ATOM     12  O   UNL     1      28.820  58.667  13.772  1.00  0.00    -0.294 OA
BRANCH  11  13
ATOM     13  C   UNL     1      29.302  57.552  11.712  1.00  0.00    -0.002 C 
ATOM     14  C   UNL     1      30.525  56.984  11.470  1.00  0.00    -0.069 C 
ATOM     15  C   UNL     1      31.069  56.836  10.065  1.00  0.00     0.039 C 
ATOM     16  C   UNL     1      31.425  56.520  12.594  1.00  0.00     0.039 C 
BRANCH  13  17
ATOM     17  C   UNL     1      28.457  58.097  10.561  1.00  0.00     0.066 CG0
ATOM     18  G   UNL     1      27.360  57.140  10.157  1.00  0.00     0.000 G0
ENDBRANCH  13  17
ENDBRANCH  11  13
ENDBRANCH  10  11
ENDBRANCH   1  10
TORSDOF 0
ENDMDL
MODEL 7
REMARK VINA RESULT:    -0.799      2.106      3.928
REMARK INTER + INTRA:          -0.995
REMARK INTER:                  -1.128
REMARK INTRA:                   0.133
REMARK UNBOUND:                 0.130
REMARK SMILES CC1=CCC(=C(C)C)C(=O)CC(C)=CCC1
REMARK SMILES IDX 12 1 14 2 13 3 15 4 16 5 2 6 1 7 3 8 11 10 9 11 10 12 5 13
REMARK SMILES IDX 6 14 7 15 8 16 4 17
REMARK H PARENT
REMARK Flexibility Score: 60.00
ROOT
ATOM      1  C   UNL     1      28.526  62.728  13.161  1.00  0.00    -0.070 C 
ATOM      2  C   UNL     1      27.847  63.292  12.129  1.00  0.00    -0.027 C 
ATOM      3  C   UNL     1      28.936  63.633  14.297  1.00  0.00     0.039 C 
ENDROOT
BRANCH   2   4
ATOM      4  C   UNL     1      27.255  62.563  10.947  1.00  0.00     0.032 C 
BRANCH   4   5
ATOM      5  C   UNL     1      28.238  62.404   9.779  1.00  0.00     0.034 C 
BRANCH   5   6
ATOM      6  C   UNL     1      28.166  60.996   9.222  1.00  0.00    -0.077 C 
ATOM      7  C   UNL     1      26.906  60.570   8.514  1.00  0.00     0.039 C 
ATOM      8  C   UNL     1      29.144  60.075   9.394  1.00  0.00    -0.023 CG0
ATOM      9  G   UNL     1      30.479  60.320  10.059  1.00  0.00     0.000 G0
ENDBRANCH   5   6
ENDBRANCH   4   5
ENDBRANCH   2   4
BRANCH   1  10
ATOM     10  C   UNL     1      28.968  61.268  13.207  1.00  0.00     0.111 C 
BRANCH  10  11
ATOM     11  C   UNL     1      30.307  61.012  12.561  1.00  0.00     0.163 C 
ATOM     12  O   UNL     1      31.262  61.774  12.875  1.00  0.00    -0.294 OA
BRANCH  11  13
ATOM     13  C   UNL     1      30.520  59.940  11.532  1.00  0.00    -0.002 C 
ATOM     14  C   UNL     1      30.687  58.633  11.909  1.00  0.00    -0.069 C 
ATOM     15  C   UNL     1      30.806  57.521  10.890  1.00  0.00     0.039 C 
ATOM     16  C   UNL     1      30.814  58.234  13.363  1.00  0.00     0.039 C 
BRANCH  13  17
ATOM     17  C   UNL     1      30.489  60.323  10.054  1.00  0.00     0.066 CG0
ATOM     18  G   UNL     1      29.139  60.069   9.427  1.00  0.00     0.000 G0
ENDBRANCH  13  17
ENDBRANCH  11  13
ENDBRANCH  10  11
ENDBRANCH   1  10
TORSDOF 0
ENDMDL
MODEL 8
REMARK VINA RESULT:    -0.612      2.001      3.977
REMARK INTER + INTRA:          -0.732
REMARK INTER:                  -1.045
REMARK INTRA:                   0.313
REMARK UNBOUND:                 0.130
REMARK SMILES CC1=CCC(=C(C)C)C(=O)CC(C)=CCC1
REMARK SMILES IDX 12 1 14 2 13 3 15 4 16 5 2 6 1 7 3 8 11 10 9 11 10 12 5 13
REMARK SMILES IDX 6 14 7 15 8 16 4 17
REMARK H PARENT
REMARK Flexibility Score: 60.00
ROOT
ATOM      1  C   UNL     1      28.225  60.161   9.551  1.00  0.00    -0.070 C 
ATOM      2  C   UNL     1      29.191  59.303   9.130  1.00  0.00    -0.027 C 
ATOM      3  C   UNL     1      27.982  61.393   8.714  1.00  0.00     0.039 C 
ENDROOT
BRANCH   2   4
ATOM      4  C   UNL     1      29.531  57.970   9.753  1.00  0.00     0.032 C 
BRANCH   4   5
ATOM      5  C   UNL     1      30.822  58.000  10.582  1.00  0.00     0.034 C 
BRANCH   5   6
ATOM      6  C   UNL     1      30.493  58.099  12.059  1.00  0.00    -0.077 C 
ATOM      7  C   UNL     1      30.199  56.829  12.814  1.00  0.00     0.039 C 
ATOM      8  C   UNL     1      30.373  59.276  12.718  1.00  0.00    -0.023 CG0
ATOM      9  G   UNL     1      30.643  60.645  12.136  1.00  0.00     0.000 G0
ENDBRANCH   5   6
ENDBRANCH   4   5
ENDBRANCH   2   4
BRANCH   1  10
ATOM     10  C   UNL     1      27.435  60.002  10.847  1.00  0.00     0.111 C 
BRANCH  10  11
ATOM     11  C   UNL     1      28.025  60.745  12.020  1.00  0.00     0.163 C 
ATOM     12  O   UNL     1      27.343  60.801  13.079  1.00  0.00    -0.294 OA
BRANCH  11  13
ATOM     13  C   UNL     1      29.346  61.455  11.949  1.00  0.00    -0.002 C 
ATOM     14  C   UNL     1      29.401  62.813  11.778  1.00  0.00    -0.069 C 
ATOM     15  C   UNL     1      30.714  63.566  11.800  1.00  0.00     0.039 C 
ATOM     16  C   UNL     1      28.158  63.632  11.505  1.00  0.00     0.039 C 
BRANCH  13  17
ATOM     17  C   UNL     1      30.627  60.643  12.129  1.00  0.00     0.066 CG0
ATOM     18  G   UNL     1      30.361  59.282  12.729  1.00  0.00     0.000 G0
ENDBRANCH  13  17
ENDBRANCH  11  13
ENDBRANCH  10  11
ENDBRANCH   1  10
TORSDOF 0
ENDMDL
MODEL 9
REMARK VINA RESULT:    -0.577      3.822      5.496
REMARK INTER + INTRA:          -0.683
REMARK INTER:                  -0.879
REMARK INTRA:                   0.196
REMARK UNBOUND:                 0.130
REMARK SMILES CC1=CCC(=C(C)C)C(=O)CC(C)=CCC1
REMARK SMILES IDX 12 1 14 2 13 3 15 4 16 5 2 6 1 7 3 8 11 10 9 11 10 12 5 13
REMARK SMILES IDX 6 14 7 15 8 16 4 17
REMARK H PARENT
REMARK Flexibility Score: 60.00
ROOT
ATOM      1  C   UNL     1      30.714  61.015  14.617  1.00  0.00    -0.070 C 
ATOM      2  C   UNL     1      29.839  61.929  15.110  1.00  0.00    -0.027 C 
ATOM      3  C   UNL     1      31.190  61.209  13.198  1.00  0.00     0.039 C 
ENDROOT
BRANCH   2   4
ATOM      4  C   UNL     1      29.315  61.988  16.525  1.00  0.00     0.032 C 
BRANCH   4   5
ATOM      5  C   UNL     1      28.071  61.118  16.747  1.00  0.00     0.034 C 
BRANCH   5   6
ATOM      6  C   UNL     1      28.246  60.259  17.984  1.00  0.00    -0.077 C 
ATOM      7  C   UNL     1      28.330  60.942  19.324  1.00  0.00     0.039 C 
ATOM      8  C   UNL     1      28.410  58.915  17.941  1.00  0.00    -0.023 CG0
ATOM      9  G   UNL     1      28.342  58.058  16.699  1.00  0.00     0.000 G0
ENDBRANCH   5   6
ENDBRANCH   4   5
ENDBRANCH   2   4
BRANCH   1  10
ATOM     10  C   UNL     1      31.179  59.772  15.370  1.00  0.00     0.111 C 
BRANCH  10  11
ATOM     11  C   UNL     1      30.354  58.541  15.091  1.00  0.00     0.163 C 
ATOM     12  O   UNL     1      30.131  58.249  13.884  1.00  0.00    -0.294 OA
BRANCH  11  13
ATOM     13  C   UNL     1      29.751  57.704  16.181  1.00  0.00    -0.002 C 
ATOM     14  C   UNL     1      30.458  56.673  16.742  1.00  0.00    -0.069 C 
ATOM     15  C   UNL     1      29.913  55.875  17.907  1.00  0.00     0.039 C 
ATOM     16  C   UNL     1      31.801  56.239  16.197  1.00  0.00     0.039 C 
BRANCH  13  17
ATOM     17  C   UNL     1      28.356  58.057  16.694  1.00  0.00     0.066 CG0
ATOM     18  G   UNL     1      28.407  58.913  17.938  1.00  0.00     0.000 G0
ENDBRANCH  13  17
ENDBRANCH  11  13
ENDBRANCH  10  11
ENDBRANCH   1  10
TORSDOF 0
ENDMDL
