MODEL 1
REMARK VINA RESULT:    -4.369      0.000      0.000
REMARK INTER + INTRA:          -6.426
REMARK INTER:                  -6.668
REMARK INTRA:                   0.243
REMARK UNBOUND:                 0.243
REMARK SMILES CC1=CCC[C@@H](C)C(=O)C[C@H](C(C)C)C(=O)C1
REMARK SMILES IDX 8 1 9 2 6 3 7 4 5 5 4 6 3 7 2 8 1 9 10 11 11 12 15 13 16 14
REMARK SMILES IDX 17 15 12 17 13 18 14 19
REMARK H PARENT
REMARK Flexibility Score: 70.00
ROOT
ATOM      1  C   UNL     1      19.441 206.609  12.998  1.00  0.00     0.136 C 
ATOM      2  O   UNL     1      18.887 206.664  11.909  1.00  0.00    -0.299 OA
ENDROOT
BRANCH   1   3
ATOM      3  C   UNL     1      20.411 207.698  13.411  1.00  0.00     0.053 C 
ATOM      4  C   UNL     1      19.915 209.043  12.871  1.00  0.00     0.016 C 
BRANCH   3   5
ATOM      5  C   UNL     1      21.857 207.430  12.930  1.00  0.00     0.015 C 
BRANCH   5   6
ATOM      6  C   UNL     1      22.899 207.426  14.062  1.00  0.00     0.028 C 
BRANCH   6   7
ATOM      7  C   UNL     1      22.429 208.239  15.245  1.00  0.00    -0.028 C 
ATOM      8  C   UNL     1      21.917 207.734  16.390  1.00  0.00    -0.070 CG0
ATOM      9  C   UNL     1      21.523 208.703  17.477  1.00  0.00     0.039 C 
ATOM     10  G   UNL     1      21.715 206.249  16.620  1.00  0.00     0.000 G0
ENDBRANCH   6   7
ENDBRANCH   5   6
ENDBRANCH   3   5
ENDBRANCH   1   3
BRANCH   1  11
ATOM     11  C   UNL     1      19.083 205.494  13.951  1.00  0.00     0.087 C 
BRANCH  11  12
ATOM     12  C   UNL     1      20.304 204.991  14.762  1.00  0.00     0.066 C 
BRANCH  12  13
ATOM     13  C   UNL     1      20.383 205.746  16.080  1.00  0.00     0.140 C 
ATOM     14  O   UNL     1      19.367 205.906  16.743  1.00  0.00    -0.299 OA
BRANCH  13  15
ATOM     15  C   UNL     1      21.699 206.238  16.629  1.00  0.00     0.106 CG0
ATOM     16  G   UNL     1      21.898 207.724  16.402  1.00  0.00     0.000 G0
ENDBRANCH  13  15
ENDBRANCH  12  13
BRANCH  12  17
ATOM     17  C   UNL     1      20.245 203.452  15.020  1.00  0.00    -0.006 C 
ATOM     18  C   UNL     1      21.622 202.795  14.806  1.00  0.00     0.008 C 
ATOM     19  C   UNL     1      19.216 202.748  14.114  1.00  0.00     0.008 C 
ENDBRANCH  12  17
ENDBRANCH  11  12
ENDBRANCH   1  11
TORSDOF 1
ENDMDL
MODEL 2
REMARK VINA RESULT:    -3.965      1.945      3.697
REMARK INTER + INTRA:          -5.808
REMARK INTER:                  -5.956
REMARK INTRA:                   0.148
REMARK UNBOUND:                 0.243
REMARK SMILES CC1=CCC[C@@H](C)C(=O)C[C@H](C(C)C)C(=O)C1
REMARK SMILES IDX 8 1 9 2 6 3 7 4 5 5 4 6 3 7 2 8 1 9 10 11 11 12 15 13 16 14
REMARK SMILES IDX 17 15 12 17 13 18 14 19
REMARK H PARENT
REMARK Flexibility Score: 70.00
ROOT
ATOM      1  C   UNL     1      22.300 206.584  15.273  1.00  0.00     0.136 C 
ATOM      2  O   UNL     1      22.111 206.650  16.480  1.00  0.00    -0.299 OA
ENDROOT
BRANCH   1   3
ATOM      3  C   UNL     1      23.206 207.589  14.592  1.00  0.00     0.053 C 
ATOM      4  C   UNL     1      23.193 208.898  15.390  1.00  0.00     0.016 C 
BRANCH   3   5
ATOM      5  C   UNL     1      22.809 207.858  13.120  1.00  0.00     0.015 C 
BRANCH   5   6
ATOM      6  C   UNL     1      21.713 208.926  12.957  1.00  0.00     0.028 C 
BRANCH   6   7
ATOM      7  C   UNL     1      20.659 208.487  11.968  1.00  0.00    -0.028 C 
ATOM      8  C   UNL     1      19.538 207.795  12.271  1.00  0.00    -0.070 CG0
ATOM      9  C   UNL     1      18.585 207.466  11.149  1.00  0.00     0.039 C 
ATOM     10  G   UNL     1      19.207 207.334  13.676  1.00  0.00     0.000 G0
ENDBRANCH   6   7
ENDBRANCH   5   6
ENDBRANCH   3   5
ENDBRANCH   1   3
BRANCH   1  11
ATOM     11  C   UNL     1      21.690 205.444  14.494  1.00  0.00     0.087 C 
BRANCH  11  12
ATOM     12  C   UNL     1      20.207 205.197  14.868  1.00  0.00     0.066 C 
BRANCH  12  13
ATOM     13  C   UNL     1      19.307 205.817  13.810  1.00  0.00     0.140 C 
ATOM     14  O   UNL     1      18.624 205.092  13.101  1.00  0.00    -0.299 OA
BRANCH  13  15
ATOM     15  C   UNL     1      19.180 207.313  13.662  1.00  0.00     0.106 CG0
ATOM     16  G   UNL     1      19.549 207.788  12.271  1.00  0.00     0.000 G0
ENDBRANCH  13  15
ENDBRANCH  12  13
BRANCH  12  17
ATOM     17  C   UNL     1      19.887 203.677  15.030  1.00  0.00    -0.006 C 
ATOM     18  C   UNL     1      19.250 203.382  16.402  1.00  0.00     0.008 C 
ATOM     19  C   UNL     1      21.141 202.797  14.868  1.00  0.00     0.008 C 
ENDBRANCH  12  17
ENDBRANCH  11  12
ENDBRANCH   1  11
TORSDOF 1
ENDMDL
MODEL 3
REMARK VINA RESULT:    -3.952      2.039      4.667
REMARK INTER + INTRA:          -5.789
REMARK INTER:                  -6.542
REMARK INTRA:                   0.753
REMARK UNBOUND:                 0.243
REMARK SMILES CC1=CCC[C@@H](C)C(=O)C[C@H](C(C)C)C(=O)C1
REMARK SMILES IDX 8 1 9 2 6 3 7 4 5 5 4 6 3 7 2 8 1 9 10 11 11 12 15 13 16 14
REMARK SMILES IDX 17 15 12 17 13 18 14 19
REMARK H PARENT
REMARK Flexibility Score: 70.00
ROOT
ATOM      1  C   UNL     1      21.907 203.362  14.676  1.00  0.00     0.136 C 
ATOM      2  O   UNL     1      22.881 203.081  13.991  1.00  0.00    -0.299 OA
ENDROOT
BRANCH   1   3
ATOM      3  C   UNL     1      20.954 202.272  15.121  1.00  0.00     0.053 C 
ATOM      4  C   UNL     1      19.811 202.160  14.106  1.00  0.00     0.016 C 
BRANCH   3   5
ATOM      5  C   UNL     1      20.385 202.512  16.541  1.00  0.00     0.015 C 
BRANCH   5   6
ATOM      6  C   UNL     1      18.970 203.115  16.550  1.00  0.00     0.028 C 
BRANCH   6   7
ATOM      7  C   UNL     1      19.001 204.587  16.887  1.00  0.00    -0.028 C 
ATOM      8  C   UNL     1      19.000 205.598  15.988  1.00  0.00    -0.070 CG0
ATOM      9  C   UNL     1      19.009 207.011  16.514  1.00  0.00     0.039 C 
ATOM     10  G   UNL     1      19.002 205.370  14.490  1.00  0.00     0.000 G0
ENDBRANCH   6   7
ENDBRANCH   5   6
ENDBRANCH   3   5
ENDBRANCH   1   3
BRANCH   1  11
ATOM     11  C   UNL     1      21.719 204.787  15.138  1.00  0.00     0.087 C 
BRANCH  11  12
ATOM     12  C   UNL     1      21.571 205.779  13.957  1.00  0.00     0.066 C 
BRANCH  12  13
ATOM     13  C   UNL     1      20.105 206.146  13.784  1.00  0.00     0.140 C 
ATOM     14  O   UNL     1      19.797 207.043  13.012  1.00  0.00    -0.299 OA
BRANCH  13  15
ATOM     15  C   UNL     1      19.012 205.379  14.486  1.00  0.00     0.106 CG0
ATOM     16  G   UNL     1      19.020 205.607  15.984  1.00  0.00     0.000 G0
ENDBRANCH  13  15
ENDBRANCH  12  13
BRANCH  12  17
ATOM     17  C   UNL     1      22.434 207.065  14.157  1.00  0.00    -0.006 C 
ATOM     18  C   UNL     1      23.788 206.950  13.430  1.00  0.00     0.008 C 
ATOM     19  C   UNL     1      22.695 207.365  15.645  1.00  0.00     0.008 C 
ENDBRANCH  12  17
ENDBRANCH  11  12
ENDBRANCH   1  11
TORSDOF 1
ENDMDL
MODEL 4
REMARK VINA RESULT:    -3.879      1.734      3.593
REMARK INTER + INTRA:          -5.677
REMARK INTER:                  -5.791
REMARK INTRA:                   0.114
REMARK UNBOUND:                 0.243
REMARK SMILES CC1=CCC[C@@H](C)C(=O)C[C@H](C(C)C)C(=O)C1
REMARK SMILES IDX 8 1 9 2 6 3 7 4 5 5 4 6 3 7 2 8 1 9 10 11 11 12 15 13 16 14
REMARK SMILES IDX 17 15 12 17 13 18 14 19
REMARK H PARENT
REMARK Flexibility Score: 70.00
ROOT
ATOM      1  C   UNL     1      20.476 207.109  16.681  1.00  0.00     0.136 C 
ATOM      2  O   UNL     1      19.364 207.428  17.080  1.00  0.00    -0.299 OA
ENDROOT
BRANCH   1   3
ATOM      3  C   UNL     1      21.642 208.061  16.846  1.00  0.00     0.053 C 
ATOM      4  C   UNL     1      21.535 208.756  18.207  1.00  0.00     0.016 C 
BRANCH   3   5
ATOM      5  C   UNL     1      21.725 209.113  15.714  1.00  0.00     0.015 C 
BRANCH   5   6
ATOM      6  C   UNL     1      22.159 208.534  14.356  1.00  0.00     0.028 C 
BRANCH   6   7
ATOM      7  C   UNL     1      21.037 208.595  13.347  1.00  0.00    -0.028 C 
ATOM      8  C   UNL     1      20.351 207.531  12.871  1.00  0.00    -0.070 CG0
ATOM      9  C   UNL     1      19.242 207.790  11.882  1.00  0.00     0.039 C 
ATOM     10  G   UNL     1      20.655 206.103  13.278  1.00  0.00     0.000 G0
ENDBRANCH   6   7
ENDBRANCH   5   6
ENDBRANCH   3   5
ENDBRANCH   1   3
BRANCH   1  11
ATOM     11  C   UNL     1      20.682 205.729  16.104  1.00  0.00     0.087 C 
BRANCH  11  12
ATOM     12  C   UNL     1      19.407 205.175  15.421  1.00  0.00     0.066 C 
BRANCH  12  13
ATOM     13  C   UNL     1      19.511 205.374  13.916  1.00  0.00     0.140 C 
ATOM     14  O   UNL     1      18.601 204.991  13.195  1.00  0.00    -0.299 OA
BRANCH  13  15
ATOM     15  C   UNL     1      20.678 206.102  13.297  1.00  0.00     0.106 CG0
ATOM     16  G   UNL     1      20.321 207.517  12.886  1.00  0.00     0.000 G0
ENDBRANCH  13  15
ENDBRANCH  12  13
BRANCH  12  17
ATOM     17  C   UNL     1      19.167 203.668  15.755  1.00  0.00    -0.006 C 
ATOM     18  C   UNL     1      18.655 203.488  17.196  1.00  0.00     0.008 C 
ATOM     19  C   UNL     1      20.442 202.822  15.573  1.00  0.00     0.008 C 
ENDBRANCH  12  17
ENDBRANCH  11  12
ENDBRANCH   1  11
TORSDOF 1
ENDMDL
MODEL 5
REMARK VINA RESULT:    -3.848      1.616      2.315
REMARK INTER + INTRA:          -5.630
REMARK INTER:                  -5.402
REMARK INTRA:                  -0.228
REMARK UNBOUND:                 0.243
REMARK SMILES CC1=CCC[C@@H](C)C(=O)C[C@H](C(C)C)C(=O)C1
REMARK SMILES IDX 8 1 9 2 6 3 7 4 5 5 4 6 3 7 2 8 1 9 10 11 11 12 15 13 16 14
REMARK SMILES IDX 17 15 12 17 13 18 14 19
REMARK H PARENT
REMARK Flexibility Score: 70.00
ROOT
ATOM      1  C   UNL     1      19.015 205.826  13.224  1.00  0.00     0.136 C 
ATOM      2  O   UNL     1      18.687 204.725  12.804  1.00  0.00    -0.299 OA
ENDROOT
BRANCH   1   3
ATOM      3  C   UNL     1      18.853 207.051  12.347  1.00  0.00     0.053 C 
ATOM      4  C   UNL     1      18.005 206.685  11.125  1.00  0.00     0.016 C 
BRANCH   3   5
ATOM      5  C   UNL     1      20.207 207.651  11.897  1.00  0.00     0.015 C 
BRANCH   5   6
ATOM      6  C   UNL     1      20.533 209.007  12.549  1.00  0.00     0.028 C 
BRANCH   6   7
ATOM      7  C   UNL     1      21.970 209.064  13.010  1.00  0.00    -0.028 C 
ATOM      8  C   UNL     1      22.416 208.704  14.235  1.00  0.00    -0.070 CG0
ATOM      9  C   UNL     1      23.896 208.807  14.508  1.00  0.00     0.039 C 
ATOM     10  G   UNL     1      21.498 208.215  15.337  1.00  0.00     0.000 G0
ENDBRANCH   6   7
ENDBRANCH   5   6
ENDBRANCH   3   5
ENDBRANCH   1   3
BRANCH   1  11
ATOM     11  C   UNL     1      19.499 205.956  14.648  1.00  0.00     0.087 C 
BRANCH  11  12
ATOM     12  C   UNL     1      21.015 205.671  14.788  1.00  0.00     0.066 C 
BRANCH  12  13
ATOM     13  C   UNL     1      21.657 206.752  15.645  1.00  0.00     0.140 C 
ATOM     14  O   UNL     1      22.383 206.429  16.575  1.00  0.00    -0.299 OA
BRANCH  13  15
ATOM     15  C   UNL     1      21.480 208.216  15.331  1.00  0.00     0.106 CG0
ATOM     16  G   UNL     1      22.421 208.689  14.241  1.00  0.00     0.000 G0
ENDBRANCH  13  15
ENDBRANCH  12  13
BRANCH  12  17
ATOM     17  C   UNL     1      21.296 204.259  15.392  1.00  0.00    -0.006 C 
ATOM     18  C   UNL     1      21.622 203.233  14.290  1.00  0.00     0.008 C 
ATOM     19  C   UNL     1      20.109 203.734  16.222  1.00  0.00     0.008 C 
ENDBRANCH  12  17
ENDBRANCH  11  12
ENDBRANCH   1  11
TORSDOF 1
ENDMDL
MODEL 6
REMARK VINA RESULT:    -3.843      1.788      4.163
REMARK INTER + INTRA:          -5.622
REMARK INTER:                  -5.521
REMARK INTRA:                  -0.101
REMARK UNBOUND:                 0.243
REMARK SMILES CC1=CCC[C@@H](C)C(=O)C[C@H](C(C)C)C(=O)C1
REMARK SMILES IDX 8 1 9 2 6 3 7 4 5 5 4 6 3 7 2 8 1 9 10 11 11 12 15 13 16 14
REMARK SMILES IDX 17 15 12 17 13 18 14 19
REMARK H PARENT
REMARK Flexibility Score: 70.00
ROOT
ATOM      1  C   UNL     1      19.584 205.430  13.780  1.00  0.00     0.136 C 
ATOM      2  O   UNL     1      18.632 204.870  13.255  1.00  0.00    -0.299 OA
ENDROOT
BRANCH   1   3
ATOM      3  C   UNL     1      20.161 204.893  15.074  1.00  0.00     0.053 C 
ATOM      4  C   UNL     1      20.612 203.444  14.859  1.00  0.00     0.016 C 
BRANCH   3   5
ATOM      5  C   UNL     1      19.164 204.972  16.256  1.00  0.00     0.015 C 
BRANCH   5   6
ATOM      6  C   UNL     1      18.876 206.407  16.731  1.00  0.00     0.028 C 
BRANCH   6   7
ATOM      7  C   UNL     1      20.121 207.068  17.273  1.00  0.00    -0.028 C 
ATOM      8  C   UNL     1      20.610 208.265  16.877  1.00  0.00    -0.070 CG0
ATOM      9  C   UNL     1      21.856 208.779  17.553  1.00  0.00     0.039 C 
ATOM     10  G   UNL     1      19.968 209.099  15.786  1.00  0.00     0.000 G0
ENDBRANCH   6   7
ENDBRANCH   5   6
ENDBRANCH   3   5
ENDBRANCH   1   3
BRANCH   1  11
ATOM     11  C   UNL     1      20.224 206.605  13.080  1.00  0.00     0.087 C 
BRANCH  11  12
ATOM     12  C   UNL     1      19.557 207.953  13.453  1.00  0.00     0.066 C 
BRANCH  12  13
ATOM     13  C   UNL     1      20.462 208.719  14.408  1.00  0.00     0.140 C 
ATOM     14  O   UNL     1      21.572 209.068  14.033  1.00  0.00    -0.299 OA
BRANCH  13  15
ATOM     15  C   UNL     1      19.993 209.125  15.783  1.00  0.00     0.106 CG0
ATOM     16  G   UNL     1      20.593 208.261  16.874  1.00  0.00     0.000 G0
ENDBRANCH  13  15
ENDBRANCH  12  13
BRANCH  12  17
ATOM     17  C   UNL     1      19.237 208.820  12.194  1.00  0.00    -0.006 C 
ATOM     18  C   UNL     1      17.873 208.443  11.587  1.00  0.00     0.008 C 
ATOM     19  C   UNL     1      20.318 208.685  11.105  1.00  0.00     0.008 C 
ENDBRANCH  12  17
ENDBRANCH  11  12
ENDBRANCH   1  11
TORSDOF 1
ENDMDL
MODEL 7
REMARK VINA RESULT:    -3.407      1.665      4.043
REMARK INTER + INTRA:          -4.957
REMARK INTER:                  -5.780
REMARK INTRA:                   0.823
REMARK UNBOUND:                 0.243
REMARK SMILES CC1=CCC[C@@H](C)C(=O)C[C@H](C(C)C)C(=O)C1
REMARK SMILES IDX 8 1 9 2 6 3 7 4 5 5 4 6 3 7 2 8 1 9 10 11 11 12 15 13 16 14
REMARK SMILES IDX 17 15 12 17 13 18 14 19
REMARK H PARENT
REMARK Flexibility Score: 70.00
ROOT
ATOM      1  C   UNL     1      19.545 205.307  14.692  1.00  0.00     0.136 C 
ATOM      2  O   UNL     1      18.639 205.769  15.373  1.00  0.00    -0.299 OA
ENDROOT
BRANCH   1   3
ATOM      3  C   UNL     1      20.498 204.291  15.288  1.00  0.00     0.053 C 
ATOM      4  C   UNL     1      19.714 203.343  16.202  1.00  0.00     0.016 C 
BRANCH   3   5
ATOM      5  C   UNL     1      21.662 204.945  16.071  1.00  0.00     0.015 C 
BRANCH   5   6
ATOM      6  C   UNL     1      21.465 206.447  16.340  1.00  0.00     0.028 C 
BRANCH   6   7
ATOM      7  C   UNL     1      22.659 207.250  15.882  1.00  0.00    -0.028 C 
ATOM      8  C   UNL     1      22.936 207.586  14.601  1.00  0.00    -0.070 CG0
ATOM      9  C   UNL     1      24.166 208.417  14.337  1.00  0.00     0.039 C 
ATOM     10  G   UNL     1      22.073 207.157  13.431  1.00  0.00     0.000 G0
ENDBRANCH   6   7
ENDBRANCH   5   6
ENDBRANCH   3   5
ENDBRANCH   1   3
BRANCH   1  11
ATOM     11  C   UNL     1      19.645 205.697  13.237  1.00  0.00     0.087 C 
BRANCH  11  12
ATOM     12  C   UNL     1      19.481 207.222  13.020  1.00  0.00     0.066 C 
BRANCH  12  13
ATOM     13  C   UNL     1      20.800 207.921  13.311  1.00  0.00     0.140 C 
ATOM     14  O   UNL     1      20.807 209.123  13.536  1.00  0.00    -0.299 OA
BRANCH  13  15
ATOM     15  C   UNL     1      22.095 207.153  13.405  1.00  0.00     0.106 CG0
ATOM     16  G   UNL     1      22.936 207.585  14.590  1.00  0.00     0.000 G0
ENDBRANCH  13  15
ENDBRANCH  12  13
BRANCH  12  17
ATOM     17  C   UNL     1      18.993 207.562  11.575  1.00  0.00    -0.006 C 
ATOM     18  C   UNL     1      18.496 209.017  11.479  1.00  0.00     0.008 C 
ATOM     19  C   UNL     1      17.867 206.621  11.105  1.00  0.00     0.008 C 
ENDBRANCH  12  17
ENDBRANCH  11  12
ENDBRANCH   1  11
TORSDOF 1
ENDMDL
MODEL 8
REMARK VINA RESULT:    -3.218      1.475      2.115
REMARK INTER + INTRA:          -4.668
REMARK INTER:                  -5.187
REMARK INTRA:                   0.518
REMARK UNBOUND:                 0.243
REMARK SMILES CC1=CCC[C@@H](C)C(=O)C[C@H](C(C)C)C(=O)C1
REMARK SMILES IDX 8 1 9 2 6 3 7 4 5 5 4 6 3 7 2 8 1 9 10 11 11 12 15 13 16 14
REMARK SMILES IDX 17 15 12 17 13 18 14 19
REMARK H PARENT
REMARK Flexibility Score: 70.00
ROOT
ATOM      1  C   UNL     1      21.195 207.356  13.207  1.00  0.00     0.136 C 
ATOM      2  O   UNL     1      20.888 208.342  12.551  1.00  0.00    -0.299 OA
ENDROOT
BRANCH   1   3
ATOM      3  C   UNL     1      22.654 206.996  13.399  1.00  0.00     0.053 C 
ATOM      4  C   UNL     1      22.803 205.472  13.372  1.00  0.00     0.016 C 
BRANCH   3   5
ATOM      5  C   UNL     1      23.248 207.568  14.709  1.00  0.00     0.015 C 
BRANCH   5   6
ATOM      6  C   UNL     1      22.748 208.982  15.053  1.00  0.00     0.028 C 
BRANCH   6   7
ATOM      7  C   UNL     1      22.472 209.125  16.531  1.00  0.00    -0.028 C 
ATOM      8  C   UNL     1      21.273 208.935  17.127  1.00  0.00    -0.070 CG0
ATOM      9  C   UNL     1      21.195 209.099  18.625  1.00  0.00     0.039 C 
ATOM     10  G   UNL     1      20.016 208.577  16.360  1.00  0.00     0.000 G0
ENDBRANCH   6   7
ENDBRANCH   5   6
ENDBRANCH   3   5
ENDBRANCH   1   3
BRANCH   1  11
ATOM     11  C   UNL     1      20.109 206.557  13.887  1.00  0.00     0.087 C 
BRANCH  11  12
ATOM     12  C   UNL     1      20.479 206.169  15.340  1.00  0.00     0.066 C 
BRANCH  12  13
ATOM     13  C   UNL     1      19.755 207.089  16.311  1.00  0.00     0.140 C 
ATOM     14  O   UNL     1      18.980 206.611  17.128  1.00  0.00    -0.299 OA
BRANCH  13  15
ATOM     15  C   UNL     1      20.026 208.572  16.342  1.00  0.00     0.106 CG0
ATOM     16  G   UNL     1      21.278 208.913  17.126  1.00  0.00     0.000 G0
ENDBRANCH  13  15
ENDBRANCH  12  13
BRANCH  12  17
ATOM     17  C   UNL     1      20.145 204.675  15.654  1.00  0.00    -0.006 C 
ATOM     18  C   UNL     1      21.416 203.878  16.002  1.00  0.00     0.008 C 
ATOM     19  C   UNL     1      19.430 203.980  14.480  1.00  0.00     0.008 C 
ENDBRANCH  12  17
ENDBRANCH  11  12
ENDBRANCH   1  11
TORSDOF 1
ENDMDL
MODEL 9
REMARK VINA RESULT:    -3.125      1.854      4.671
REMARK INTER + INTRA:          -4.527
REMARK INTER:                  -5.791
REMARK INTRA:                   1.265
REMARK UNBOUND:                 0.243
REMARK SMILES CC1=CCC[C@@H](C)C(=O)C[C@H](C(C)C)C(=O)C1
REMARK SMILES IDX 8 1 9 2 6 3 7 4 5 5 4 6 3 7 2 8 1 9 10 11 11 12 15 13 16 14
REMARK SMILES IDX 17 15 12 17 13 18 14 19
REMARK H PARENT
REMARK Flexibility Score: 70.00
ROOT
ATOM      1  C   UNL     1      20.479 206.940  16.392  1.00  0.00     0.136 C 
ATOM      2  O   UNL     1      20.003 206.983  17.518  1.00  0.00    -0.299 OA
ENDROOT
BRANCH   1   3
ATOM      3  C   UNL     1      21.906 206.473  16.190  1.00  0.00     0.053 C 
ATOM      4  C   UNL     1      22.721 207.608  15.561  1.00  0.00     0.016 C 
BRANCH   3   5
ATOM      5  C   UNL     1      22.004 205.198  15.318  1.00  0.00     0.015 C 
BRANCH   5   6
ATOM      6  C   UNL     1      21.558 203.914  16.040  1.00  0.00     0.028 C 
BRANCH   6   7
ATOM      7  C   UNL     1      20.945 202.925  15.077  1.00  0.00    -0.028 C 
ATOM      8  C   UNL     1      19.747 203.064  14.466  1.00  0.00    -0.070 CG0
ATOM      9  C   UNL     1      19.309 201.979  13.513  1.00  0.00     0.039 C 
ATOM     10  G   UNL     1      18.830 204.247  14.705  1.00  0.00     0.000 G0
ENDBRANCH   6   7
ENDBRANCH   5   6
ENDBRANCH   3   5
ENDBRANCH   1   3
BRANCH   1  11
ATOM     11  C   UNL     1      19.603 207.276  15.209  1.00  0.00     0.087 C 
BRANCH  11  12
ATOM     12  C   UNL     1      20.003 206.492  13.933  1.00  0.00     0.066 C 
BRANCH  12  13
ATOM     13  C   UNL     1      19.015 205.358  13.705  1.00  0.00     0.140 C 
ATOM     14  O   UNL     1      18.402 205.298  12.649  1.00  0.00    -0.299 OA
BRANCH  13  15
ATOM     15  C   UNL     1      18.829 204.259  14.721  1.00  0.00     0.106 CG0
ATOM     16  G   UNL     1      19.747 203.080  14.469  1.00  0.00     0.000 G0
ENDBRANCH  13  15
ENDBRANCH  12  13
BRANCH  12  17
ATOM     17  C   UNL     1      20.073 207.414  12.674  1.00  0.00    -0.006 C 
ATOM     18  C   UNL     1      21.417 208.163  12.602  1.00  0.00     0.008 C 
ATOM     19  C   UNL     1      18.929 208.446  12.645  1.00  0.00     0.008 C 
ENDBRANCH  12  17
ENDBRANCH  11  12
ENDBRANCH   1  11
TORSDOF 1
ENDMDL
