MODEL 1
REMARK VINA RESULT:    -6.390      0.000      0.000
REMARK INTER + INTRA:          -7.050
REMARK INTER:                  -6.951
REMARK INTRA:                  -0.100
REMARK UNBOUND:                -0.100
REMARK SMILES Cc1ccc(C(C)C)cc1O
REMARK SMILES IDX 1 1 2 2 10 3 9 4 5 5 4 6 3 7 11 8 6 10 7 11 8 12
REMARK H PARENT 11 9
REMARK Flexibility Score: inf
ROOT
ATOM      1  C   UNL     1      79.991  63.973 101.154  1.00  0.00     0.048 C 
ATOM      2  C   UNL     1      79.715  63.696 102.605  1.00  0.00    -0.009 A 
ATOM      3  C   UNL     1      78.494  64.077 103.204  1.00  0.00     0.118 A 
ATOM      4  C   UNL     1      78.269  63.804 104.559  1.00  0.00     0.050 A 
ATOM      5  C   UNL     1      79.241  63.155 105.338  1.00  0.00    -0.042 A 
ATOM      6  C   UNL     1      80.453  62.779 104.734  1.00  0.00     0.004 A 
ATOM      7  C   UNL     1      80.687  63.047 103.384  1.00  0.00     0.007 A 
ENDROOT
BRANCH   3   8
ATOM      8  O   UNL     1      77.489  64.725 102.485  1.00  0.00    -0.508 OA
ATOM      9  H   UNL     1      77.672  65.489 101.847  1.00  0.00     0.293 HD
ENDBRANCH   3   8
BRANCH   5  10
ATOM     10  C   UNL     1      78.974  62.870 106.804  1.00  0.00     0.013 C 
ATOM     11  C   UNL     1      78.647  64.158 107.568  1.00  0.00     0.012 C 
ATOM     12  C   UNL     1      77.858  61.831 106.969  1.00  0.00     0.012 C 
ENDBRANCH   5  10
TORSDOF 2
ENDMDL
MODEL 2
REMARK VINA RESULT:    -6.126      2.032      4.160
REMARK INTER + INTRA:          -6.762
REMARK INTER:                  -6.651
REMARK INTRA:                  -0.111
REMARK UNBOUND:                -0.100
REMARK SMILES Cc1ccc(C(C)C)cc1O
REMARK SMILES IDX 1 1 2 2 10 3 9 4 5 5 4 6 3 7 11 8 6 10 7 11 8 12
REMARK H PARENT 11 9
REMARK Flexibility Score: inf
ROOT
ATOM      1  C   UNL     1      81.118  62.485 104.925  1.00  0.00     0.048 C 
ATOM      2  C   UNL     1      80.089  63.178 104.077  1.00  0.00    -0.009 A 
ATOM      3  C   UNL     1      78.836  63.556 104.608  1.00  0.00     0.118 A 
ATOM      4  C   UNL     1      77.900  64.201 103.791  1.00  0.00     0.050 A 
ATOM      5  C   UNL     1      78.185  64.479 102.444  1.00  0.00    -0.042 A 
ATOM      6  C   UNL     1      79.434  64.099 101.923  1.00  0.00     0.004 A 
ATOM      7  C   UNL     1      80.374  63.456 102.730  1.00  0.00     0.007 A 
ENDROOT
BRANCH   3   8
ATOM      8  O   UNL     1      78.493  63.308 105.938  1.00  0.00    -0.508 OA
ATOM      9  H   UNL     1      77.767  63.817 106.425  1.00  0.00     0.293 HD
ENDBRANCH   3   8
BRANCH   5  10
ATOM     10  C   UNL     1      77.154  65.179 101.578  1.00  0.00     0.013 C 
ATOM     11  C   UNL     1      76.518  64.206 100.579  1.00  0.00     0.012 C 
ATOM     12  C   UNL     1      76.085  65.864 102.438  1.00  0.00     0.012 C 
ENDBRANCH   5  10
TORSDOF 2
ENDMDL
MODEL 3
REMARK VINA RESULT:    -6.015      1.891      4.699
REMARK INTER + INTRA:          -6.642
REMARK INTER:                  -6.516
REMARK INTRA:                  -0.126
REMARK UNBOUND:                -0.100
REMARK SMILES Cc1ccc(C(C)C)cc1O
REMARK SMILES IDX 1 1 2 2 10 3 9 4 5 5 4 6 3 7 11 8 6 10 7 11 8 12
REMARK H PARENT 11 9
REMARK Flexibility Score: inf
ROOT
ATOM      1  C   UNL     1      78.933  63.504 107.177  1.00  0.00     0.048 C 
ATOM      2  C   UNL     1      78.998  63.424 105.678  1.00  0.00    -0.009 A 
ATOM      3  C   UNL     1      80.174  63.004 105.018  1.00  0.00     0.118 A 
ATOM      4  C   UNL     1      80.203  62.941 103.620  1.00  0.00     0.050 A 
ATOM      5  C   UNL     1      79.076  63.290 102.857  1.00  0.00    -0.042 A 
ATOM      6  C   UNL     1      77.910  63.707 103.520  1.00  0.00     0.004 A 
ATOM      7  C   UNL     1      77.872  63.773 104.914  1.00  0.00     0.007 A 
ENDROOT
BRANCH   3   8
ATOM      8  O   UNL     1      81.326  62.644 105.719  1.00  0.00    -0.508 OA
ATOM      9  H   UNL     1      81.794  63.264 106.368  1.00  0.00     0.293 HD
ENDBRANCH   3   8
BRANCH   5  10
ATOM     10  C   UNL     1      79.131  63.213 101.342  1.00  0.00     0.013 C 
ATOM     11  C   UNL     1      77.754  63.482 100.724  1.00  0.00     0.012 C 
ATOM     12  C   UNL     1      80.186  64.173 100.778  1.00  0.00     0.012 C 
ENDBRANCH   5  10
TORSDOF 2
ENDMDL
MODEL 4
REMARK VINA RESULT:    -5.964      2.680      4.592
REMARK INTER + INTRA:          -6.587
REMARK INTER:                  -6.464
REMARK INTRA:                  -0.123
REMARK UNBOUND:                -0.100
REMARK SMILES Cc1ccc(C(C)C)cc1O
REMARK SMILES IDX 1 1 2 2 10 3 9 4 5 5 4 6 3 7 11 8 6 10 7 11 8 12
REMARK H PARENT 11 9
REMARK Flexibility Score: inf
ROOT
ATOM      1  C   UNL     1      75.145  60.603 105.984  1.00  0.00     0.048 C 
ATOM      2  C   UNL     1      76.525  61.007 105.547  1.00  0.00    -0.009 A 
ATOM      3  C   UNL     1      77.571  61.168 106.483  1.00  0.00     0.118 A 
ATOM      4  C   UNL     1      78.845  61.544 106.043  1.00  0.00     0.050 A 
ATOM      5  C   UNL     1      79.104  61.768 104.680  1.00  0.00    -0.042 A 
ATOM      6  C   UNL     1      78.059  61.605 103.756  1.00  0.00     0.004 A 
ATOM      7  C   UNL     1      76.784  61.229 104.185  1.00  0.00     0.007 A 
ENDROOT
BRANCH   3   8
ATOM      8  O   UNL     1      77.378  60.962 107.850  1.00  0.00    -0.508 OA
ATOM      9  H   UNL     1      76.663  60.348 108.220  1.00  0.00     0.293 HD
ENDBRANCH   3   8
BRANCH   5  10
ATOM     10  C   UNL     1      80.494  62.175 104.228  1.00  0.00     0.013 C 
ATOM     11  C   UNL     1      80.432  63.331 103.224  1.00  0.00     0.012 C 
ATOM     12  C   UNL     1      81.383  62.531 105.426  1.00  0.00     0.012 C 
ENDBRANCH   5  10
TORSDOF 2
ENDMDL
MODEL 5
REMARK VINA RESULT:    -5.961      1.922      2.623
REMARK INTER + INTRA:          -6.584
REMARK INTER:                  -6.457
REMARK INTRA:                  -0.127
REMARK UNBOUND:                -0.100
REMARK SMILES Cc1ccc(C(C)C)cc1O
REMARK SMILES IDX 1 1 2 2 10 3 9 4 5 5 4 6 3 7 11 8 6 10 7 11 8 12
REMARK H PARENT 11 9
REMARK Flexibility Score: inf
ROOT
ATOM      1  C   UNL     1      77.080  63.868 100.155  1.00  0.00     0.048 C 
ATOM      2  C   UNL     1      77.841  63.342 101.340  1.00  0.00    -0.009 A 
ATOM      3  C   UNL     1      77.239  62.455 102.260  1.00  0.00     0.118 A 
ATOM      4  C   UNL     1      77.975  61.983 103.354  1.00  0.00     0.050 A 
ATOM      5  C   UNL     1      79.308  62.379 103.554  1.00  0.00    -0.042 A 
ATOM      6  C   UNL     1      79.899  63.261 102.633  1.00  0.00     0.004 A 
ATOM      7  C   UNL     1      79.173  63.736 101.540  1.00  0.00     0.007 A 
ENDROOT
BRANCH   3   8
ATOM      8  O   UNL     1      75.919  62.025 102.117  1.00  0.00    -0.508 OA
ATOM      9  H   UNL     1      75.266  61.982 102.889  1.00  0.00     0.293 HD
ENDBRANCH   3   8
BRANCH   5  10
ATOM     10  C   UNL     1      80.086  61.853 104.746  1.00  0.00     0.013 C 
ATOM     11  C   UNL     1      81.401  62.618 104.929  1.00  0.00     0.012 C 
ATOM     12  C   UNL     1      79.237  61.901 106.023  1.00  0.00     0.012 C 
ENDBRANCH   5  10
TORSDOF 2
ENDMDL
MODEL 6
REMARK VINA RESULT:    -5.889      2.286      4.841
REMARK INTER + INTRA:          -6.505
REMARK INTER:                  -6.403
REMARK INTRA:                  -0.102
REMARK UNBOUND:                -0.100
REMARK SMILES Cc1ccc(C(C)C)cc1O
REMARK SMILES IDX 1 1 2 2 10 3 9 4 5 5 4 6 3 7 11 8 6 10 7 11 8 12
REMARK H PARENT 11 9
REMARK Flexibility Score: inf
ROOT
ATOM      1  C   UNL     1      76.668  63.194 109.308  1.00  0.00     0.048 C 
ATOM      2  C   UNL     1      77.562  62.883 108.140  1.00  0.00    -0.009 A 
ATOM      3  C   UNL     1      78.460  63.846 107.630  1.00  0.00     0.118 A 
ATOM      4  C   UNL     1      79.280  63.525 106.541  1.00  0.00     0.050 A 
ATOM      5  C   UNL     1      79.224  62.255 105.943  1.00  0.00    -0.042 A 
ATOM      6  C   UNL     1      78.328  61.303 106.457  1.00  0.00     0.004 A 
ATOM      7  C   UNL     1      77.507  61.614 107.542  1.00  0.00     0.007 A 
ENDROOT
BRANCH   3   8
ATOM      8  O   UNL     1      78.563  65.125 108.180  1.00  0.00    -0.508 OA
ATOM      9  H   UNL     1      79.370  65.437 108.704  1.00  0.00     0.293 HD
ENDBRANCH   3   8
BRANCH   5  10
ATOM     10  C   UNL     1      80.122  61.931 104.764  1.00  0.00     0.013 C 
ATOM     11  C   UNL     1      79.512  62.429 103.449  1.00  0.00     0.012 C 
ATOM     12  C   UNL     1      81.531  62.501 104.970  1.00  0.00     0.012 C 
ENDBRANCH   5  10
TORSDOF 2
ENDMDL
MODEL 7
REMARK VINA RESULT:    -5.877      1.327      4.215
REMARK INTER + INTRA:          -6.492
REMARK INTER:                  -6.390
REMARK INTRA:                  -0.102
REMARK UNBOUND:                -0.100
REMARK SMILES Cc1ccc(C(C)C)cc1O
REMARK SMILES IDX 1 1 2 2 10 3 9 4 5 5 4 6 3 7 11 8 6 10 7 11 8 12
REMARK H PARENT 11 9
REMARK Flexibility Score: inf
ROOT
ATOM      1  C   UNL     1      78.875  63.568 107.407  1.00  0.00     0.048 C 
ATOM      2  C   UNL     1      79.028  63.421 105.919  1.00  0.00    -0.009 A 
ATOM      3  C   UNL     1      78.070  63.955 105.028  1.00  0.00     0.118 A 
ATOM      4  C   UNL     1      78.242  63.801 103.648  1.00  0.00     0.050 A 
ATOM      5  C   UNL     1      79.355  63.120 103.128  1.00  0.00    -0.042 A 
ATOM      6  C   UNL     1      80.304  62.592 104.021  1.00  0.00     0.004 A 
ATOM      7  C   UNL     1      80.142  62.741 105.399  1.00  0.00     0.007 A 
ENDROOT
BRANCH   3   8
ATOM      8  O   UNL     1      76.942  64.641 105.482  1.00  0.00    -0.508 OA
ATOM      9  H   UNL     1      76.001  64.410 105.189  1.00  0.00     0.293 HD
ENDBRANCH   3   8
BRANCH   5  10
ATOM     10  C   UNL     1      79.520  62.966 101.628  1.00  0.00     0.013 C 
ATOM     11  C   UNL     1      78.191  62.597 100.960  1.00  0.00     0.012 C 
ATOM     12  C   UNL     1      80.118  64.234 101.005  1.00  0.00     0.012 C 
ENDBRANCH   5  10
TORSDOF 2
ENDMDL
MODEL 8
REMARK VINA RESULT:    -5.856      1.913      2.670
REMARK INTER + INTRA:          -6.469
REMARK INTER:                  -6.348
REMARK INTRA:                  -0.121
REMARK UNBOUND:                -0.100
REMARK SMILES Cc1ccc(C(C)C)cc1O
REMARK SMILES IDX 1 1 2 2 10 3 9 4 5 5 4 6 3 7 11 8 6 10 7 11 8 12
REMARK H PARENT 11 9
REMARK Flexibility Score: inf
ROOT
ATOM      1  C   UNL     1      77.119  63.509 100.244  1.00  0.00     0.048 C 
ATOM      2  C   UNL     1      77.838  63.080 101.492  1.00  0.00    -0.009 A 
ATOM      3  C   UNL     1      79.161  63.500 101.756  1.00  0.00     0.118 A 
ATOM      4  C   UNL     1      79.802  63.082 102.928  1.00  0.00     0.050 A 
ATOM      5  C   UNL     1      79.150  62.248 103.852  1.00  0.00    -0.042 A 
ATOM      6  C   UNL     1      77.834  61.835 103.582  1.00  0.00     0.004 A 
ATOM      7  C   UNL     1      77.187  62.247 102.416  1.00  0.00     0.007 A 
ENDROOT
BRANCH   3   8
ATOM      8  O   UNL     1      79.862  64.328 100.878  1.00  0.00    -0.508 OA
ATOM      9  H   UNL     1      80.872  64.348 100.827  1.00  0.00     0.293 HD
ENDBRANCH   3   8
BRANCH   5  10
ATOM     10  C   UNL     1      79.866  61.809 105.116  1.00  0.00     0.013 C 
ATOM     11  C   UNL     1      81.228  62.499 105.249  1.00  0.00     0.012 C 
ATOM     12  C   UNL     1      78.997  62.056 106.356  1.00  0.00     0.012 C 
ENDBRANCH   5  10
TORSDOF 2
ENDMDL
MODEL 9
REMARK VINA RESULT:    -5.831      3.134      4.943
REMARK INTER + INTRA:          -6.442
REMARK INTER:                  -6.317
REMARK INTRA:                  -0.125
REMARK UNBOUND:                -0.100
REMARK SMILES Cc1ccc(C(C)C)cc1O
REMARK SMILES IDX 1 1 2 2 10 3 9 4 5 5 4 6 3 7 11 8 6 10 7 11 8 12
REMARK H PARENT 11 9
REMARK Flexibility Score: inf
ROOT
ATOM      1  C   UNL     1      74.150  65.626 101.871  1.00  0.00     0.048 C 
ATOM      2  C   UNL     1      75.540  65.067 101.748  1.00  0.00    -0.009 A 
ATOM      3  C   UNL     1      75.793  63.891 101.008  1.00  0.00     0.118 A 
ATOM      4  C   UNL     1      77.100  63.397 100.913  1.00  0.00     0.050 A 
ATOM      5  C   UNL     1      78.169  64.053 101.545  1.00  0.00    -0.042 A 
ATOM      6  C   UNL     1      77.909  65.223 102.279  1.00  0.00     0.004 A 
ATOM      7  C   UNL     1      76.610  65.723 102.379  1.00  0.00     0.007 A 
ENDROOT
BRANCH   3   8
ATOM      8  O   UNL     1      74.774  63.193 100.358  1.00  0.00    -0.508 OA
ATOM      9  H   UNL     1      74.230  63.588  99.602  1.00  0.00     0.293 HD
ENDBRANCH   3   8
BRANCH   5  10
ATOM     10  C   UNL     1      79.577  63.499 101.427  1.00  0.00     0.013 C 
ATOM     11  C   UNL     1      80.390  64.270 100.382  1.00  0.00     0.012 C 
ATOM     12  C   UNL     1      80.286  63.499 102.787  1.00  0.00     0.012 C 
ENDBRANCH   5  10
TORSDOF 2
ENDMDL
