MODEL 1
REMARK VINA RESULT:    -7.399      0.000      0.000
REMARK INTER + INTRA:          -9.215
REMARK INTER:                  -8.912
REMARK INTRA:                  -0.303
REMARK UNBOUND:                -0.303
REMARK SMILES O=c1c(O)c(-c2ccc(O)c(O)c2)oc2cc(O)cc(O)c12
REMARK SMILES IDX 5 1 3 2 2 3 1 4 22 5 20 6 19 7 17 8 16 9 15 10 14 11 6 12
REMARK SMILES IDX 7 13 8 14 9 15 13 16 11 17 10 18 12 20 4 22 21 24 18 26
REMARK H PARENT 10 19 12 21 4 23 21 25 18 27
REMARK Flexibility Score: inf
ROOT
ATOM      1  C   UNL     1      54.407   5.288  79.271  1.00  0.00     0.180 A 
ATOM      2  C   UNL     1      53.859   5.380  80.561  1.00  0.00     0.208 A 
ATOM      3  C   UNL     1      52.563   4.889  80.788  1.00  0.00     0.238 A 
ATOM      4  O   UNL     1      52.099   4.926  81.958  1.00  0.00    -0.285 OA
ATOM      5  C   UNL     1      51.826   4.328  79.719  1.00  0.00     0.111 A 
ATOM      6  C   UNL     1      50.489   3.836  79.826  1.00  0.00     0.134 A 
ATOM      7  C   UNL     1      49.905   3.182  78.734  1.00  0.00     0.093 A 
ATOM      8  C   UNL     1      50.584   3.060  77.520  1.00  0.00     0.123 A 
ATOM      9  C   UNL     1      51.866   3.589  77.387  1.00  0.00     0.094 A 
ATOM     10  C   UNL     1      52.489   4.215  78.469  1.00  0.00     0.146 A 
ATOM     11  O   UNL     1      53.715   4.696  78.303  1.00  0.00    -0.452 OA
ENDROOT
BRANCH   1  12
ATOM     12  C   UNL     1      55.757   5.806  78.948  1.00  0.00     0.025 A 
ATOM     13  C   UNL     1      55.891   7.095  78.410  1.00  0.00     0.016 A 
ATOM     14  C   UNL     1      57.156   7.611  78.117  1.00  0.00     0.051 A 
ATOM     15  C   UNL     1      58.305   6.856  78.373  1.00  0.00     0.157 A 
ATOM     16  C   UNL     1      56.913   5.055  79.223  1.00  0.00     0.062 A 
ATOM     17  C   UNL     1      58.184   5.573  78.932  1.00  0.00     0.158 A 
BRANCH  15  18
ATOM     18  O   UNL     1      59.554   7.396  78.068  1.00  0.00    -0.504 OA
ATOM     19  H   UNL     1      59.813   7.653  77.123  1.00  0.00     0.293 HD
ENDBRANCH  15  18
BRANCH  17  20
ATOM     20  O   UNL     1      59.326   4.819  79.202  1.00  0.00    -0.504 OA
ATOM     21  H   UNL     1      59.950   5.055  79.964  1.00  0.00     0.293 HD
ENDBRANCH  17  20
ENDBRANCH   1  12
BRANCH   2  22
ATOM     22  O   UNL     1      54.613   5.919  81.608  1.00  0.00    -0.502 OA
ATOM     23  H   UNL     1      54.197   6.463  82.355  1.00  0.00     0.293 HD
ENDBRANCH   2  22
BRANCH   6  24
ATOM     24  O   UNL     1      49.691   3.989  80.963  1.00  0.00    -0.507 OA
ATOM     25  H   UNL     1      48.940   4.655  81.053  1.00  0.00     0.293 HD
ENDBRANCH   6  24
BRANCH   8  26
ATOM     26  O   UNL     1      49.988   2.422  76.434  1.00  0.00    -0.508 OA
ATOM     27  H   UNL     1      50.092   2.774  75.490  1.00  0.00     0.293 HD
ENDBRANCH   8  26
TORSDOF 6
ENDMDL
MODEL 2
REMARK VINA RESULT:    -6.734      1.655      7.061
REMARK INTER + INTRA:          -8.415
REMARK INTER:                  -8.096
REMARK INTRA:                  -0.318
REMARK UNBOUND:                -0.303
REMARK SMILES O=c1c(O)c(-c2ccc(O)c(O)c2)oc2cc(O)cc(O)c12
REMARK SMILES IDX 5 1 3 2 2 3 1 4 22 5 20 6 19 7 17 8 16 9 15 10 14 11 6 12
REMARK SMILES IDX 7 13 8 14 9 15 13 16 11 17 10 18 12 20 4 22 21 24 18 26
REMARK H PARENT 10 19 12 21 4 23 21 25 18 27
REMARK Flexibility Score: inf
ROOT
ATOM      1  C   UNL     1      54.714   5.649  78.674  1.00  0.00     0.180 A 
ATOM      2  C   UNL     1      55.910   5.031  79.076  1.00  0.00     0.208 A 
ATOM      3  C   UNL     1      57.128   5.693  78.853  1.00  0.00     0.238 A 
ATOM      4  O   UNL     1      58.191   5.158  79.263  1.00  0.00    -0.285 OA
ATOM      5  C   UNL     1      57.136   6.957  78.216  1.00  0.00     0.111 A 
ATOM      6  C   UNL     1      58.315   7.699  77.904  1.00  0.00     0.134 A 
ATOM      7  C   UNL     1      58.197   8.997  77.392  1.00  0.00     0.093 A 
ATOM      8  C   UNL     1      56.946   9.554  77.121  1.00  0.00     0.123 A 
ATOM      9  C   UNL     1      55.791   8.815  77.366  1.00  0.00     0.094 A 
ATOM     10  C   UNL     1      55.875   7.531  77.911  1.00  0.00     0.146 A 
ATOM     11  O   UNL     1      54.750   6.865  78.139  1.00  0.00    -0.452 OA
ENDROOT
BRANCH   1  12
ATOM     12  C   UNL     1      53.394   5.003  78.853  1.00  0.00     0.025 A 
ATOM     13  C   UNL     1      52.701   5.171  80.062  1.00  0.00     0.016 A 
ATOM     14  C   UNL     1      51.445   4.587  80.245  1.00  0.00     0.051 A 
ATOM     15  C   UNL     1      50.855   3.842  79.219  1.00  0.00     0.157 A 
ATOM     16  C   UNL     1      52.791   4.271  77.815  1.00  0.00     0.062 A 
ATOM     17  C   UNL     1      51.528   3.686  77.996  1.00  0.00     0.158 A 
BRANCH  15  18
ATOM     18  O   UNL     1      49.601   3.270  79.432  1.00  0.00    -0.504 OA
ATOM     19  H   UNL     1      48.973   3.050  78.668  1.00  0.00     0.293 HD
ENDBRANCH  15  18
BRANCH  17  20
ATOM     20  O   UNL     1      50.940   2.956  76.964  1.00  0.00    -0.504 OA
ATOM     21  H   UNL     1      50.140   2.356  77.127  1.00  0.00     0.293 HD
ENDBRANCH  17  20
ENDBRANCH   1  12
BRANCH   2  22
ATOM     22  O   UNL     1      55.878   3.791  79.722  1.00  0.00    -0.502 OA
ATOM     23  H   UNL     1      56.505   3.034  79.479  1.00  0.00     0.293 HD
ENDBRANCH   2  22
BRANCH   6  24
ATOM     24  O   UNL     1      59.613   7.201  78.050  1.00  0.00    -0.507 OA
ATOM     25  H   UNL     1      59.886   6.494  78.716  1.00  0.00     0.293 HD
ENDBRANCH   6  24
BRANCH   8  26
ATOM     26  O   UNL     1      56.839  10.841  76.596  1.00  0.00    -0.508 OA
ATOM     27  H   UNL     1      56.555  11.625  77.171  1.00  0.00     0.293 HD
ENDBRANCH   8  26
TORSDOF 6
ENDMDL
MODEL 3
REMARK VINA RESULT:    -6.588      1.850      6.900
REMARK INTER + INTRA:          -8.239
REMARK INTER:                  -8.313
REMARK INTRA:                   0.074
REMARK UNBOUND:                -0.303
REMARK SMILES O=c1c(O)c(-c2ccc(O)c(O)c2)oc2cc(O)cc(O)c12
REMARK SMILES IDX 5 1 3 2 2 3 1 4 22 5 20 6 19 7 17 8 16 9 15 10 14 11 6 12
REMARK SMILES IDX 7 13 8 14 9 15 13 16 11 17 10 18 12 20 4 22 21 24 18 26
REMARK H PARENT 10 19 12 21 4 23 21 25 18 27
REMARK Flexibility Score: inf
ROOT
ATOM      1  C   UNL     1      54.234   3.844  80.009  1.00  0.00     0.180 A 
ATOM      2  C   UNL     1      54.561   3.329  81.275  1.00  0.00     0.208 A 
ATOM      3  C   UNL     1      55.851   3.543  81.786  1.00  0.00     0.238 A 
ATOM      4  O   UNL     1      56.120   3.126  82.943  1.00  0.00    -0.285 OA
ATOM      5  C   UNL     1      56.803   4.255  81.019  1.00  0.00     0.111 A 
ATOM      6  C   UNL     1      58.152   4.495  81.421  1.00  0.00     0.134 A 
ATOM      7  C   UNL     1      58.967   5.324  80.640  1.00  0.00     0.093 A 
ATOM      8  C   UNL     1      58.504   5.867  79.440  1.00  0.00     0.123 A 
ATOM      9  C   UNL     1      57.209   5.589  79.009  1.00  0.00     0.094 A 
ATOM     10  C   UNL     1      56.359   4.796  79.784  1.00  0.00     0.146 A 
ATOM     11  O   UNL     1      55.129   4.565  79.342  1.00  0.00    -0.452 OA
ENDROOT
BRANCH   1  12
ATOM     12  C   UNL     1      52.903   3.638  79.394  1.00  0.00     0.025 A 
ATOM     13  C   UNL     1      52.818   3.183  78.069  1.00  0.00     0.016 A 
ATOM     14  C   UNL     1      51.573   2.963  77.474  1.00  0.00     0.051 A 
ATOM     15  C   UNL     1      50.396   3.177  78.198  1.00  0.00     0.157 A 
ATOM     16  C   UNL     1      51.719   3.835  80.127  1.00  0.00     0.062 A 
ATOM     17  C   UNL     1      50.468   3.611  79.532  1.00  0.00     0.158 A 
BRANCH  15  18
ATOM     18  O   UNL     1      49.168   2.951  77.578  1.00  0.00    -0.504 OA
ATOM     19  H   UNL     1      48.998   2.136  77.001  1.00  0.00     0.293 HD
ENDBRANCH  15  18
BRANCH  17  20
ATOM     20  O   UNL     1      49.299   3.814  80.265  1.00  0.00    -0.504 OA
ATOM     21  H   UNL     1      48.912   3.089  80.857  1.00  0.00     0.293 HD
ENDBRANCH  17  20
ENDBRANCH   1  12
BRANCH   2  22
ATOM     22  O   UNL     1      53.598   2.647  82.026  1.00  0.00    -0.502 OA
ATOM     23  H   UNL     1      53.545   1.636  82.053  1.00  0.00     0.293 HD
ENDBRANCH   2  22
BRANCH   6  24
ATOM     24  O   UNL     1      58.742   3.927  82.553  1.00  0.00    -0.507 OA
ATOM     25  H   UNL     1      59.711   4.034  82.812  1.00  0.00     0.293 HD
ENDBRANCH   6  24
BRANCH   8  26
ATOM     26  O   UNL     1      59.328   6.677  78.661  1.00  0.00    -0.508 OA
ATOM     27  H   UNL     1      59.288   6.657  77.649  1.00  0.00     0.293 HD
ENDBRANCH   8  26
TORSDOF 6
ENDMDL
MODEL 4
REMARK VINA RESULT:    -6.493     10.071     11.595
REMARK INTER + INTRA:          -8.124
REMARK INTER:                  -7.813
REMARK INTRA:                  -0.311
REMARK UNBOUND:                -0.303
REMARK SMILES O=c1c(O)c(-c2ccc(O)c(O)c2)oc2cc(O)cc(O)c12
REMARK SMILES IDX 5 1 3 2 2 3 1 4 22 5 20 6 19 7 17 8 16 9 15 10 14 11 6 12
REMARK SMILES IDX 7 13 8 14 9 15 13 16 11 17 10 18 12 20 4 22 21 24 18 26
REMARK H PARENT 10 19 12 21 4 23 21 25 18 27
REMARK Flexibility Score: inf
ROOT
ATOM      1  C   UNL     1      46.024   2.439  73.603  1.00  0.00     0.180 A 
ATOM      2  C   UNL     1      45.454   3.286  74.569  1.00  0.00     0.208 A 
ATOM      3  C   UNL     1      45.255   4.640  74.255  1.00  0.00     0.238 A 
ATOM      4  O   UNL     1      44.695   5.382  75.104  1.00  0.00    -0.285 OA
ATOM      5  C   UNL     1      45.645   5.134  72.987  1.00  0.00     0.111 A 
ATOM      6  C   UNL     1      45.527   6.497  72.577  1.00  0.00     0.134 A 
ATOM      7  C   UNL     1      45.822   6.846  71.254  1.00  0.00     0.093 A 
ATOM      8  C   UNL     1      46.292   5.896  70.345  1.00  0.00     0.123 A 
ATOM      9  C   UNL     1      46.466   4.576  70.752  1.00  0.00     0.094 A 
ATOM     10  C   UNL     1      46.146   4.188  72.055  1.00  0.00     0.146 A 
ATOM     11  O   UNL     1      46.317   2.917  72.399  1.00  0.00    -0.452 OA
ENDROOT
BRANCH   1  12
ATOM     12  C   UNL     1      46.286   1.006  73.868  1.00  0.00     0.025 A 
ATOM     13  C   UNL     1      47.549   0.610  74.335  1.00  0.00     0.016 A 
ATOM     14  C   UNL     1      47.813  -0.734  74.611  1.00  0.00     0.051 A 
ATOM     15  C   UNL     1      46.816  -1.700  74.442  1.00  0.00     0.157 A 
ATOM     16  C   UNL     1      45.279   0.037  73.717  1.00  0.00     0.062 A 
ATOM     17  C   UNL     1      45.541  -1.313  73.996  1.00  0.00     0.158 A 
BRANCH  15  18
ATOM     18  O   UNL     1      47.109  -3.033  74.723  1.00  0.00    -0.504 OA
ATOM     19  H   UNL     1      48.017  -3.325  75.064  1.00  0.00     0.293 HD
ENDBRANCH  15  18
BRANCH  17  20
ATOM     20  O   UNL     1      44.538  -2.268  73.837  1.00  0.00    -0.504 OA
ATOM     21  H   UNL     1      44.233  -2.851  74.608  1.00  0.00     0.293 HD
ENDBRANCH  17  20
ENDBRANCH   1  12
BRANCH   2  22
ATOM     22  O   UNL     1      45.057   2.773  75.808  1.00  0.00    -0.502 OA
ATOM     23  H   UNL     1      45.065   1.781  76.013  1.00  0.00     0.293 HD
ENDBRANCH   2  22
BRANCH   6  24
ATOM     24  O   UNL     1      45.155   7.539  73.431  1.00  0.00    -0.507 OA
ATOM     25  H   UNL     1      44.370   8.154  73.280  1.00  0.00     0.293 HD
ENDBRANCH   6  24
BRANCH   8  26
ATOM     26  O   UNL     1      46.598   6.257  69.034  1.00  0.00    -0.508 OA
ATOM     27  H   UNL     1      46.739   7.224  68.770  1.00  0.00     0.293 HD
ENDBRANCH   8  26
TORSDOF 6
ENDMDL
MODEL 5
REMARK VINA RESULT:    -6.451      8.950     10.778
REMARK INTER + INTRA:          -8.074
REMARK INTER:                  -7.958
REMARK INTRA:                  -0.116
REMARK UNBOUND:                -0.303
REMARK SMILES O=c1c(O)c(-c2ccc(O)c(O)c2)oc2cc(O)cc(O)c12
REMARK SMILES IDX 5 1 3 2 2 3 1 4 22 5 20 6 19 7 17 8 16 9 15 10 14 11 6 12
REMARK SMILES IDX 7 13 8 14 9 15 13 16 11 17 10 18 12 20 4 22 21 24 18 26
REMARK H PARENT 10 19 12 21 4 23 21 25 18 27
REMARK Flexibility Score: inf
ROOT
ATOM      1  C   UNL     1      46.477   2.365  73.840  1.00  0.00     0.180 A 
ATOM      2  C   UNL     1      47.766   1.987  74.254  1.00  0.00     0.208 A 
ATOM      3  C   UNL     1      48.038   0.628  74.480  1.00  0.00     0.238 A 
ATOM      4  O   UNL     1      49.208   0.291  74.799  1.00  0.00    -0.285 OA
ATOM      5  C   UNL     1      47.014  -0.334  74.306  1.00  0.00     0.111 A 
ATOM      6  C   UNL     1      47.168  -1.733  74.547  1.00  0.00     0.134 A 
ATOM      7  C   UNL     1      46.126  -2.608  74.216  1.00  0.00     0.093 A 
ATOM      8  C   UNL     1      44.914  -2.128  73.714  1.00  0.00     0.123 A 
ATOM      9  C   UNL     1      44.734  -0.759  73.533  1.00  0.00     0.094 A 
ATOM     10  C   UNL     1      45.767   0.136  73.819  1.00  0.00     0.146 A 
ATOM     11  O   UNL     1      45.557   1.432  73.621  1.00  0.00    -0.452 OA
ENDROOT
BRANCH   1  12
ATOM     12  C   UNL     1      46.107   3.779  73.605  1.00  0.00     0.025 A 
ATOM     13  C   UNL     1      45.127   4.379  74.411  1.00  0.00     0.016 A 
ATOM     14  C   UNL     1      44.776   5.719  74.221  1.00  0.00     0.051 A 
ATOM     15  C   UNL     1      45.411   6.482  73.236  1.00  0.00     0.157 A 
ATOM     16  C   UNL     1      46.758   4.554  72.629  1.00  0.00     0.062 A 
ATOM     17  C   UNL     1      46.409   5.899  72.438  1.00  0.00     0.158 A 
BRANCH  15  18
ATOM     18  O   UNL     1      45.039   7.815  73.067  1.00  0.00    -0.504 OA
ATOM     19  H   UNL     1      45.715   8.540  72.857  1.00  0.00     0.293 HD
ENDBRANCH  15  18
BRANCH  17  20
ATOM     20  O   UNL     1      47.055   6.658  71.463  1.00  0.00    -0.504 OA
ATOM     21  H   UNL     1      48.004   6.452  71.173  1.00  0.00     0.293 HD
ENDBRANCH  17  20
ENDBRANCH   1  12
BRANCH   2  22
ATOM     22  O   UNL     1      48.768   2.952  74.399  1.00  0.00    -0.502 OA
ATOM     23  H   UNL     1      49.662   2.882  73.929  1.00  0.00     0.293 HD
ENDBRANCH   2  22
BRANCH   6  24
ATOM     24  O   UNL     1      48.303  -2.304  75.129  1.00  0.00    -0.507 OA
ATOM     25  H   UNL     1      49.030  -2.784  74.621  1.00  0.00     0.293 HD
ENDBRANCH   6  24
BRANCH   8  26
ATOM     26  O   UNL     1      43.877  -3.006  73.403  1.00  0.00    -0.508 OA
ATOM     27  H   UNL     1      43.028  -2.684  72.954  1.00  0.00     0.293 HD
ENDBRANCH   8  26
TORSDOF 6
ENDMDL
MODEL 6
REMARK VINA RESULT:    -6.440      1.684      7.152
REMARK INTER + INTRA:          -8.060
REMARK INTER:                  -7.987
REMARK INTRA:                  -0.073
REMARK UNBOUND:                -0.303
REMARK SMILES O=c1c(O)c(-c2ccc(O)c(O)c2)oc2cc(O)cc(O)c12
REMARK SMILES IDX 5 1 3 2 2 3 1 4 22 5 20 6 19 7 17 8 16 9 15 10 14 11 6 12
REMARK SMILES IDX 7 13 8 14 9 15 13 16 11 17 10 18 12 20 4 22 21 24 18 26
REMARK H PARENT 10 19 12 21 4 23 21 25 18 27
REMARK Flexibility Score: inf
ROOT
ATOM      1  C   UNL     1      54.102   4.688  79.152  1.00  0.00     0.180 A 
ATOM      2  C   UNL     1      54.643   5.551  78.184  1.00  0.00     0.208 A 
ATOM      3  C   UNL     1      55.982   5.955  78.302  1.00  0.00     0.238 A 
ATOM      4  O   UNL     1      56.475   6.684  77.403  1.00  0.00    -0.285 OA
ATOM      5  C   UNL     1      56.760   5.504  79.395  1.00  0.00     0.111 A 
ATOM      6  C   UNL     1      58.115   5.882  79.636  1.00  0.00     0.134 A 
ATOM      7  C   UNL     1      58.827   5.272  80.676  1.00  0.00     0.093 A 
ATOM      8  C   UNL     1      58.214   4.347  81.523  1.00  0.00     0.123 A 
ATOM      9  C   UNL     1      56.875   4.016  81.333  1.00  0.00     0.094 A 
ATOM     10  C   UNL     1      56.148   4.580  80.282  1.00  0.00     0.146 A 
ATOM     11  O   UNL     1      54.877   4.229  80.129  1.00  0.00    -0.452 OA
ENDROOT
BRANCH   1  12
ATOM     12  C   UNL     1      52.692   4.238  79.109  1.00  0.00     0.025 A 
ATOM     13  C   UNL     1      52.229   3.526  77.992  1.00  0.00     0.016 A 
ATOM     14  C   UNL     1      50.907   3.075  77.938  1.00  0.00     0.051 A 
ATOM     15  C   UNL     1      50.035   3.313  79.005  1.00  0.00     0.157 A 
ATOM     16  C   UNL     1      51.820   4.459  80.189  1.00  0.00     0.062 A 
ATOM     17  C   UNL     1      50.493   4.005  80.139  1.00  0.00     0.158 A 
BRANCH  15  18
ATOM     18  O   UNL     1      48.722   2.852  78.923  1.00  0.00    -0.504 OA
ATOM     19  H   UNL     1      48.123   2.784  79.738  1.00  0.00     0.293 HD
ENDBRANCH  15  18
BRANCH  17  20
ATOM     20  O   UNL     1      49.634   4.234  81.212  1.00  0.00    -0.504 OA
ATOM     21  H   UNL     1      49.974   4.588  82.098  1.00  0.00     0.293 HD
ENDBRANCH  17  20
ENDBRANCH   1  12
BRANCH   2  22
ATOM     22  O   UNL     1      53.863   5.967  77.100  1.00  0.00    -0.502 OA
ATOM     23  H   UNL     1      53.606   5.344  76.344  1.00  0.00     0.293 HD
ENDBRANCH   2  22
BRANCH   6  24
ATOM     24  O   UNL     1      58.793   6.863  78.906  1.00  0.00    -0.507 OA
ATOM     25  H   UNL     1      59.217   7.687  79.306  1.00  0.00     0.293 HD
ENDBRANCH   6  24
BRANCH   8  26
ATOM     26  O   UNL     1      58.926   3.756  82.566  1.00  0.00    -0.508 OA
ATOM     27  H   UNL     1      59.731   4.210  82.981  1.00  0.00     0.293 HD
ENDBRANCH   8  26
TORSDOF 6
ENDMDL
MODEL 7
REMARK VINA RESULT:    -6.298      8.487     11.381
REMARK INTER + INTRA:          -7.889
REMARK INTER:                  -7.655
REMARK INTRA:                  -0.234
REMARK UNBOUND:                -0.303
REMARK SMILES O=c1c(O)c(-c2ccc(O)c(O)c2)oc2cc(O)cc(O)c12
REMARK SMILES IDX 5 1 3 2 2 3 1 4 22 5 20 6 19 7 17 8 16 9 15 10 14 11 6 12
REMARK SMILES IDX 7 13 8 14 9 15 13 16 11 17 10 18 12 20 4 22 21 24 18 26
REMARK H PARENT 10 19 12 21 4 23 21 25 18 27
REMARK Flexibility Score: inf
ROOT
ATOM      1  C   UNL     1      46.115   4.960  72.063  1.00  0.00     0.180 A 
ATOM      2  C   UNL     1      44.990   4.149  71.833  1.00  0.00     0.208 A 
ATOM      3  C   UNL     1      44.992   2.830  72.315  1.00  0.00     0.238 A 
ATOM      4  O   UNL     1      43.961   2.126  72.153  1.00  0.00    -0.285 OA
ATOM      5  C   UNL     1      46.123   2.333  73.006  1.00  0.00     0.111 A 
ATOM      6  C   UNL     1      46.249   1.001  73.502  1.00  0.00     0.134 A 
ATOM      7  C   UNL     1      47.358   0.658  74.284  1.00  0.00     0.093 A 
ATOM      8  C   UNL     1      48.377   1.580  74.533  1.00  0.00     0.123 A 
ATOM      9  C   UNL     1      48.292   2.865  74.003  1.00  0.00     0.094 A 
ATOM     10  C   UNL     1      47.180   3.248  73.249  1.00  0.00     0.146 A 
ATOM     11  O   UNL     1      47.134   4.486  72.772  1.00  0.00    -0.452 OA
ENDROOT
BRANCH   1  12
ATOM     12  C   UNL     1      46.198   6.352  71.565  1.00  0.00     0.025 A 
ATOM     13  C   UNL     1      46.223   7.413  72.482  1.00  0.00     0.016 A 
ATOM     14  C   UNL     1      46.321   8.734  72.035  1.00  0.00     0.051 A 
ATOM     15  C   UNL     1      46.413   9.012  70.668  1.00  0.00     0.157 A 
ATOM     16  C   UNL     1      46.310   6.632  70.191  1.00  0.00     0.062 A 
ATOM     17  C   UNL     1      46.411   7.957  69.741  1.00  0.00     0.158 A 
BRANCH  15  18
ATOM     18  O   UNL     1      46.507  10.340  70.252  1.00  0.00    -0.504 OA
ATOM     19  H   UNL     1      46.876  11.067  70.853  1.00  0.00     0.293 HD
ENDBRANCH  15  18
BRANCH  17  20
ATOM     20  O   UNL     1      46.516   8.227  68.377  1.00  0.00    -0.504 OA
ATOM     21  H   UNL     1      45.882   7.812  67.704  1.00  0.00     0.293 HD
ENDBRANCH  17  20
ENDBRANCH   1  12
BRANCH   2  22
ATOM     22  O   UNL     1      43.875   4.666  71.167  1.00  0.00    -0.502 OA
ATOM     23  H   UNL     1      43.952   5.197  70.308  1.00  0.00     0.293 HD
ENDBRANCH   2  22
BRANCH   6  24
ATOM     24  O   UNL     1      45.334  -0.022  73.234  1.00  0.00    -0.507 OA
ATOM     25  H   UNL     1      45.505  -1.003  73.394  1.00  0.00     0.293 HD
ENDBRANCH   6  24
BRANCH   8  26
ATOM     26  O   UNL     1      49.486   1.225  75.300  1.00  0.00    -0.508 OA
ATOM     27  H   UNL     1      50.246   1.874  75.464  1.00  0.00     0.293 HD
ENDBRANCH   8  26
TORSDOF 6
ENDMDL
MODEL 8
REMARK VINA RESULT:    -6.217     10.134     11.930
REMARK INTER + INTRA:          -7.792
REMARK INTER:                  -7.457
REMARK INTRA:                  -0.335
REMARK UNBOUND:                -0.303
REMARK SMILES O=c1c(O)c(-c2ccc(O)c(O)c2)oc2cc(O)cc(O)c12
REMARK SMILES IDX 5 1 3 2 2 3 1 4 22 5 20 6 19 7 17 8 16 9 15 10 14 11 6 12
REMARK SMILES IDX 7 13 8 14 9 15 13 16 11 17 10 18 12 20 4 22 21 24 18 26
REMARK H PARENT 10 19 12 21 4 23 21 25 18 27
REMARK Flexibility Score: inf
ROOT
ATOM      1  C   UNL     1      45.566   4.464  72.938  1.00  0.00     0.180 A 
ATOM      2  C   UNL     1      45.268   5.418  73.927  1.00  0.00     0.208 A 
ATOM      3  C   UNL     1      45.361   6.782  73.608  1.00  0.00     0.238 A 
ATOM      4  O   UNL     1      45.041   7.630  74.481  1.00  0.00    -0.285 OA
ATOM      5  C   UNL     1      45.768   7.176  72.311  1.00  0.00     0.111 A 
ATOM      6  C   UNL     1      45.936   8.530  71.890  1.00  0.00     0.134 A 
ATOM      7  C   UNL     1      46.215   8.805  70.546  1.00  0.00     0.093 A 
ATOM      8  C   UNL     1      46.396   7.774  69.622  1.00  0.00     0.123 A 
ATOM      9  C   UNL     1      46.293   6.448  70.035  1.00  0.00     0.094 A 
ATOM     10  C   UNL     1      45.980   6.142  71.362  1.00  0.00     0.146 A 
ATOM     11  O   UNL     1      45.881   4.865  71.711  1.00  0.00    -0.452 OA
ENDROOT
BRANCH   1  12
ATOM     12  C   UNL     1      45.514   3.009  73.206  1.00  0.00     0.025 A 
ATOM     13  C   UNL     1      44.339   2.296  72.920  1.00  0.00     0.016 A 
ATOM     14  C   UNL     1      44.274   0.918  73.145  1.00  0.00     0.051 A 
ATOM     15  C   UNL     1      45.385   0.230  73.643  1.00  0.00     0.157 A 
ATOM     16  C   UNL     1      46.637   2.312  73.687  1.00  0.00     0.062 A 
ATOM     17  C   UNL     1      46.574   0.929  73.912  1.00  0.00     0.158 A 
BRANCH  15  18
ATOM     18  O   UNL     1      45.290  -1.144  73.860  1.00  0.00    -0.504 OA
ATOM     19  H   UNL     1      45.948  -1.643  74.447  1.00  0.00     0.293 HD
ENDBRANCH  15  18
BRANCH  17  20
ATOM     20  O   UNL     1      47.690   0.247  74.395  1.00  0.00    -0.504 OA
ATOM     21  H   UNL     1      48.246   0.613  75.159  1.00  0.00     0.293 HD
ENDBRANCH  17  20
ENDBRANCH   1  12
BRANCH   2  22
ATOM     22  O   UNL     1      44.848   5.007  75.195  1.00  0.00    -0.502 OA
ATOM     23  H   UNL     1      43.873   4.849  75.421  1.00  0.00     0.293 HD
ENDBRANCH   2  22
BRANCH   6  24
ATOM     24  O   UNL     1      45.868   9.629  72.752  1.00  0.00    -0.507 OA
ATOM     25  H   UNL     1      45.819  10.591  72.454  1.00  0.00     0.293 HD
ENDBRANCH   6  24
BRANCH   8  26
ATOM     26  O   UNL     1      46.689   8.058  68.289  1.00  0.00    -0.508 OA
ATOM     27  H   UNL     1      46.321   7.493  67.534  1.00  0.00     0.293 HD
ENDBRANCH   8  26
TORSDOF 6
ENDMDL
MODEL 9
REMARK VINA RESULT:    -6.005      2.297      6.987
REMARK INTER + INTRA:          -7.536
REMARK INTER:                  -7.215
REMARK INTRA:                  -0.321
REMARK UNBOUND:                -0.303
REMARK SMILES O=c1c(O)c(-c2ccc(O)c(O)c2)oc2cc(O)cc(O)c12
REMARK SMILES IDX 5 1 3 2 2 3 1 4 22 5 20 6 19 7 17 8 16 9 15 10 14 11 6 12
REMARK SMILES IDX 7 13 8 14 9 15 13 16 11 17 10 18 12 20 4 22 21 24 18 26
REMARK H PARENT 10 19 12 21 4 23 21 25 18 27
REMARK Flexibility Score: inf
ROOT
ATOM      1  C   UNL     1      55.969   5.801  79.277  1.00  0.00     0.180 A 
ATOM      2  C   UNL     1      56.642   5.790  80.511  1.00  0.00     0.208 A 
ATOM      3  C   UNL     1      57.664   6.725  80.739  1.00  0.00     0.238 A 
ATOM      4  O   UNL     1      58.226   6.744  81.865  1.00  0.00    -0.285 OA
ATOM      5  C   UNL     1      58.012   7.649  79.724  1.00  0.00     0.111 A 
ATOM      6  C   UNL     1      59.059   8.613  79.832  1.00  0.00     0.134 A 
ATOM      7  C   UNL     1      59.229   9.563  78.817  1.00  0.00     0.093 A 
ATOM      8  C   UNL     1      58.433   9.542  77.669  1.00  0.00     0.123 A 
ATOM      9  C   UNL     1      57.448   8.567  77.529  1.00  0.00     0.094 A 
ATOM     10  C   UNL     1      57.230   7.629  78.541  1.00  0.00     0.146 A 
ATOM     11  O   UNL     1      56.274   6.724  78.371  1.00  0.00    -0.452 OA
ENDROOT
BRANCH   1  12
ATOM     12  C   UNL     1      54.897   4.832  78.954  1.00  0.00     0.025 A 
ATOM     13  C   UNL     1      53.555   5.225  79.064  1.00  0.00     0.016 A 
ATOM     14  C   UNL     1      52.527   4.332  78.746  1.00  0.00     0.051 A 
ATOM     15  C   UNL     1      52.825   3.042  78.296  1.00  0.00     0.157 A 
ATOM     16  C   UNL     1      55.196   3.541  78.484  1.00  0.00     0.062 A 
ATOM     17  C   UNL     1      54.166   2.645  78.161  1.00  0.00     0.158 A 
BRANCH  15  18
ATOM     18  O   UNL     1      51.780   2.173  77.988  1.00  0.00    -0.504 OA
ATOM     19  H   UNL     1      51.882   1.167  78.043  1.00  0.00     0.293 HD
ENDBRANCH  15  18
BRANCH  17  20
ATOM     20  O   UNL     1      54.471   1.364  77.700  1.00  0.00    -0.504 OA
ATOM     21  H   UNL     1      55.008   1.219  76.854  1.00  0.00     0.293 HD
ENDBRANCH  17  20
ENDBRANCH   1  12
BRANCH   2  22
ATOM     22  O   UNL     1      56.267   4.883  81.507  1.00  0.00    -0.502 OA
ATOM     23  H   UNL     1      55.597   5.115  82.231  1.00  0.00     0.293 HD
ENDBRANCH   2  22
BRANCH   6  24
ATOM     24  O   UNL     1      59.969   8.663  80.892  1.00  0.00    -0.507 OA
ATOM     25  H   UNL     1      59.820   8.245  81.798  1.00  0.00     0.293 HD
ENDBRANCH   6  24
BRANCH   8  26
ATOM     26  O   UNL     1      58.620  10.481  76.657  1.00  0.00    -0.508 OA
ATOM     27  H   UNL     1      59.271  11.249  76.761  1.00  0.00     0.293 HD
ENDBRANCH   8  26
TORSDOF 6
ENDMDL
