MODEL 1
REMARK VINA RESULT:    -4.196      0.000      0.000
REMARK INTER + INTRA:          -5.619
REMARK INTER:                  -5.422
REMARK INTRA:                  -0.197
REMARK UNBOUND:                -0.197
REMARK SMILES CCCCCCC(=O)[O-]
REMARK SMILES IDX 5 1 6 2 7 3 8 4 9 5 4 6 3 7 2 8 1 9
REMARK H PARENT
REMARK Flexibility Score: inf
ROOT
ATOM      1  C   UNL     1     126.205 143.484 139.984  1.00  0.00     0.006 C 
ENDROOT
BRANCH   1   2
ATOM      2  C   UNL     1     126.079 145.002 139.794  1.00  0.00     0.053 C 
BRANCH   2   3
ATOM      3  C   UNL     1     125.889 145.332 138.347  1.00  0.00     0.041 C 
ATOM      4  O   UNL     1     125.781 146.532 137.981  1.00  0.00    -0.550 OA
ATOM      5  O   UNL     1     125.880 144.319 137.398  1.00  0.00    -0.550 OA
ENDBRANCH   2   3
ENDBRANCH   1   2
BRANCH   1   6
ATOM      6  C   UNL     1     127.570 143.071 140.556  1.00  0.00     0.000 C 
BRANCH   6   7
ATOM      7  C   UNL     1     128.443 142.331 139.531  1.00  0.00    -0.000 C 
BRANCH   7   8
ATOM      8  C   UNL     1     129.620 141.628 140.219  1.00  0.00    -0.003 C 
ATOM      9  C   UNL     1     129.873 142.207 141.608  1.00  0.00     0.004 C 
ENDBRANCH   7   8
ENDBRANCH   6   7
ENDBRANCH   1   6
TORSDOF 5
ENDMDL
MODEL 2
REMARK VINA RESULT:    -4.141      0.284      1.113
REMARK INTER + INTRA:          -5.548
REMARK INTER:                  -5.327
REMARK INTRA:                  -0.221
REMARK UNBOUND:                -0.197
REMARK SMILES CCCCCCC(=O)[O-]
REMARK SMILES IDX 5 1 6 2 7 3 8 4 9 5 4 6 3 7 2 8 1 9
REMARK H PARENT
REMARK Flexibility Score: inf
ROOT
ATOM      1  C   UNL     1     126.144 143.489 140.027  1.00  0.00     0.006 C 
ENDROOT
BRANCH   1   2
ATOM      2  C   UNL     1     126.055 145.013 139.870  1.00  0.00     0.053 C 
BRANCH   2   3
ATOM      3  C   UNL     1     125.978 145.383 138.422  1.00  0.00     0.041 C 
ATOM      4  O   UNL     1     125.852 144.488 137.546  1.00  0.00    -0.550 OA
ATOM      5  O   UNL     1     125.996 146.720 138.044  1.00  0.00    -0.550 OA
ENDBRANCH   2   3
ENDBRANCH   1   2
BRANCH   1   6
ATOM      6  C   UNL     1     127.554 143.016 140.416  1.00  0.00     0.000 C 
BRANCH   6   7
ATOM      7  C   UNL     1     128.271 142.287 139.271  1.00  0.00    -0.000 C 
BRANCH   7   8
ATOM      8  C   UNL     1     129.622 141.730 139.736  1.00  0.00    -0.003 C 
ATOM      9  C   UNL     1     129.844 141.991 141.223  1.00  0.00     0.004 C 
ENDBRANCH   7   8
ENDBRANCH   6   7
ENDBRANCH   1   6
TORSDOF 5
ENDMDL
MODEL 3
REMARK VINA RESULT:    -3.956     13.607     15.550
REMARK INTER + INTRA:          -5.309
REMARK INTER:                  -4.875
REMARK INTRA:                  -0.433
REMARK UNBOUND:                -0.197
REMARK SMILES CCCCCCC(=O)[O-]
REMARK SMILES IDX 5 1 6 2 7 3 8 4 9 5 4 6 3 7 2 8 1 9
REMARK H PARENT
REMARK Flexibility Score: inf
ROOT
ATOM      1  C   UNL     1     140.485 133.897 138.973  1.00  0.00     0.006 C 
ENDROOT
BRANCH   1   2
ATOM      2  C   UNL     1     139.626 132.775 139.570  1.00  0.00     0.053 C 
BRANCH   2   3
ATOM      3  C   UNL     1     138.175 133.136 139.501  1.00  0.00     0.041 C 
ATOM      4  O   UNL     1     137.523 132.936 138.442  1.00  0.00    -0.550 OA
ATOM      5  O   UNL     1     137.532 133.648 140.620  1.00  0.00    -0.550 OA
ENDBRANCH   2   3
ENDBRANCH   1   2
BRANCH   1   6
ATOM      6  C   UNL     1     141.120 134.792 140.049  1.00  0.00     0.000 C 
BRANCH   6   7
ATOM      7  C   UNL     1     140.286 136.047 140.345  1.00  0.00    -0.000 C 
BRANCH   7   8
ATOM      8  C   UNL     1     139.642 136.591 139.063  1.00  0.00    -0.003 C 
ATOM      9  C   UNL     1     138.166 136.912 139.281  1.00  0.00     0.004 C 
ENDBRANCH   7   8
ENDBRANCH   6   7
ENDBRANCH   1   6
TORSDOF 5
ENDMDL
MODEL 4
REMARK VINA RESULT:    -3.841     13.619     15.217
REMARK INTER + INTRA:          -5.160
REMARK INTER:                  -4.813
REMARK INTRA:                  -0.347
REMARK UNBOUND:                -0.197
REMARK SMILES CCCCCCC(=O)[O-]
REMARK SMILES IDX 5 1 6 2 7 3 8 4 9 5 4 6 3 7 2 8 1 9
REMARK H PARENT
REMARK Flexibility Score: inf
ROOT
ATOM      1  C   UNL     1     140.471 134.954 140.977  1.00  0.00     0.006 C 
ENDROOT
BRANCH   1   2
ATOM      2  C   UNL     1     139.913 136.222 141.637  1.00  0.00     0.053 C 
BRANCH   2   3
ATOM      3  C   UNL     1     139.026 136.958 140.684  1.00  0.00     0.041 C 
ATOM      4  O   UNL     1     138.116 137.711 141.120  1.00  0.00    -0.550 OA
ATOM      5  O   UNL     1     139.234 136.850 139.315  1.00  0.00    -0.550 OA
ENDBRANCH   2   3
ENDBRANCH   1   2
BRANCH   1   6
ATOM      6  C   UNL     1     139.537 133.744 141.138  1.00  0.00     0.000 C 
BRANCH   6   7
ATOM      7  C   UNL     1     139.304 132.996 139.817  1.00  0.00    -0.000 C 
BRANCH   7   8
ATOM      8  C   UNL     1     140.367 133.375 138.778  1.00  0.00    -0.003 C 
ATOM      9  C   UNL     1     139.732 133.673 137.423  1.00  0.00     0.004 C 
ENDBRANCH   7   8
ENDBRANCH   6   7
ENDBRANCH   1   6
TORSDOF 5
ENDMDL
MODEL 5
REMARK VINA RESULT:    -3.832     15.413     16.691
REMARK INTER + INTRA:          -5.149
REMARK INTER:                  -4.811
REMARK INTRA:                  -0.338
REMARK UNBOUND:                -0.197
REMARK SMILES CCCCCCC(=O)[O-]
REMARK SMILES IDX 5 1 6 2 7 3 8 4 9 5 4 6 3 7 2 8 1 9
REMARK H PARENT
REMARK Flexibility Score: inf
ROOT
ATOM      1  C   UNL     1     143.659 146.194 135.033  1.00  0.00     0.006 C 
ENDROOT
BRANCH   1   2
ATOM      2  C   UNL     1     144.063 144.724 134.861  1.00  0.00     0.053 C 
BRANCH   2   3
ATOM      3  C   UNL     1     143.847 143.971 136.136  1.00  0.00     0.041 C 
ATOM      4  O   UNL     1     143.800 144.586 137.233  1.00  0.00    -0.550 OA
ATOM      5  O   UNL     1     143.648 142.597 136.106  1.00  0.00    -0.550 OA
ENDBRANCH   2   3
ENDBRANCH   1   2
BRANCH   1   6
ATOM      6  C   UNL     1     142.272 146.499 134.447  1.00  0.00     0.000 C 
BRANCH   6   7
ATOM      7  C   UNL     1     141.517 147.575 135.241  1.00  0.00    -0.000 C 
BRANCH   7   8
ATOM      8  C   UNL     1     141.978 147.602 136.704  1.00  0.00    -0.003 C 
ATOM      9  C   UNL     1     141.030 146.805 137.595  1.00  0.00     0.004 C 
ENDBRANCH   7   8
ENDBRANCH   6   7
ENDBRANCH   1   6
TORSDOF 5
ENDMDL
MODEL 6
REMARK VINA RESULT:    -3.827      3.221      5.058
REMARK INTER + INTRA:          -5.142
REMARK INTER:                  -4.896
REMARK INTRA:                  -0.246
REMARK UNBOUND:                -0.197
REMARK SMILES CCCCCCC(=O)[O-]
REMARK SMILES IDX 5 1 6 2 7 3 8 4 9 5 4 6 3 7 2 8 1 9
REMARK H PARENT
REMARK Flexibility Score: inf
ROOT
ATOM      1  C   UNL     1     127.990 142.388 138.951  1.00  0.00     0.006 C 
ENDROOT
BRANCH   1   2
ATOM      2  C   UNL     1     128.392 142.480 140.429  1.00  0.00     0.053 C 
BRANCH   2   3
ATOM      3  C   UNL     1     128.758 141.127 140.954  1.00  0.00     0.041 C 
ATOM      4  O   UNL     1     128.437 140.092 140.314  1.00  0.00    -0.550 OA
ATOM      5  O   UNL     1     129.497 141.013 142.125  1.00  0.00    -0.550 OA
ENDBRANCH   2   3
ENDBRANCH   1   2
BRANCH   1   6
ATOM      6  C   UNL     1     126.685 143.141 138.645  1.00  0.00     0.000 C 
BRANCH   6   7
ATOM      7  C   UNL     1     126.119 143.869 139.874  1.00  0.00    -0.000 C 
BRANCH   7   8
ATOM      8  C   UNL     1     126.147 145.389 139.672  1.00  0.00    -0.003 C 
ATOM      9  C   UNL     1     125.760 145.763 138.244  1.00  0.00     0.004 C 
ENDBRANCH   7   8
ENDBRANCH   6   7
ENDBRANCH   1   6
TORSDOF 5
ENDMDL
MODEL 7
REMARK VINA RESULT:    -3.764     15.665     16.626
REMARK INTER + INTRA:          -5.061
REMARK INTER:                  -4.859
REMARK INTRA:                  -0.202
REMARK UNBOUND:                -0.197
REMARK SMILES CCCCCCC(=O)[O-]
REMARK SMILES IDX 5 1 6 2 7 3 8 4 9 5 4 6 3 7 2 8 1 9
REMARK H PARENT
REMARK Flexibility Score: inf
ROOT
ATOM      1  C   UNL     1     143.208 144.797 136.684  1.00  0.00     0.006 C 
ENDROOT
BRANCH   1   2
ATOM      2  C   UNL     1     143.746 143.616 135.864  1.00  0.00     0.053 C 
BRANCH   2   3
ATOM      3  C   UNL     1     143.852 142.393 136.720  1.00  0.00     0.041 C 
ATOM      4  O   UNL     1     143.913 142.501 137.973  1.00  0.00    -0.550 OA
ATOM      5  O   UNL     1     143.834 141.133 136.136  1.00  0.00    -0.550 OA
ENDBRANCH   2   3
ENDBRANCH   1   2
BRANCH   1   6
ATOM      6  C   UNL     1     141.809 145.242 136.230  1.00  0.00     0.000 C 
BRANCH   6   7
ATOM      7  C   UNL     1     141.504 146.702 136.599  1.00  0.00    -0.000 C 
BRANCH   7   8
ATOM      8  C   UNL     1     141.618 147.613 135.371  1.00  0.00    -0.003 C 
ATOM      9  C   UNL     1     141.622 146.800 134.080  1.00  0.00     0.004 C 
ENDBRANCH   7   8
ENDBRANCH   6   7
ENDBRANCH   1   6
TORSDOF 5
ENDMDL
MODEL 8
REMARK VINA RESULT:    -3.743     14.771     15.739
REMARK INTER + INTRA:          -5.033
REMARK INTER:                  -4.647
REMARK INTRA:                  -0.386
REMARK UNBOUND:                -0.197
REMARK SMILES CCCCCCC(=O)[O-]
REMARK SMILES IDX 5 1 6 2 7 3 8 4 9 5 4 6 3 7 2 8 1 9
REMARK H PARENT
REMARK Flexibility Score: inf
ROOT
ATOM      1  C   UNL     1     139.205 133.100 140.116  1.00  0.00     0.006 C 
ENDROOT
BRANCH   1   2
ATOM      2  C   UNL     1     140.258 133.399 139.041  1.00  0.00     0.053 C 
BRANCH   2   3
ATOM      3  C   UNL     1     139.704 134.341 138.018  1.00  0.00     0.041 C 
ATOM      4  O   UNL     1     139.290 133.902 136.912  1.00  0.00    -0.550 OA
ATOM      5  O   UNL     1     139.602 135.696 138.304  1.00  0.00    -0.550 OA
ENDBRANCH   2   3
ENDBRANCH   1   2
BRANCH   1   6
ATOM      6  C   UNL     1     139.541 133.749 141.468  1.00  0.00     0.000 C 
BRANCH   6   7
ATOM      7  C   UNL     1     138.747 135.040 141.719  1.00  0.00    -0.000 C 
BRANCH   7   8
ATOM      8  C   UNL     1     139.686 136.201 142.069  1.00  0.00    -0.003 C 
ATOM      9  C   UNL     1     141.148 135.781 141.957  1.00  0.00     0.004 C 
ENDBRANCH   7   8
ENDBRANCH   6   7
ENDBRANCH   1   6
TORSDOF 5
ENDMDL
MODEL 9
REMARK VINA RESULT:    -3.695      1.539      1.927
REMARK INTER + INTRA:          -4.972
REMARK INTER:                  -4.732
REMARK INTRA:                  -0.240
REMARK UNBOUND:                -0.197
REMARK SMILES CCCCCCC(=O)[O-]
REMARK SMILES IDX 5 1 6 2 7 3 8 4 9 5 4 6 3 7 2 8 1 9
REMARK H PARENT
REMARK Flexibility Score: inf
ROOT
ATOM      1  C   UNL     1     127.325 142.811 138.706  1.00  0.00     0.006 C 
ENDROOT
BRANCH   1   2
ATOM      2  C   UNL     1     126.136 143.401 139.476  1.00  0.00     0.053 C 
BRANCH   2   3
ATOM      3  C   UNL     1     126.133 144.894 139.365  1.00  0.00     0.041 C 
ATOM      4  O   UNL     1     126.466 145.602 140.351  1.00  0.00    -0.550 OA
ATOM      5  O   UNL     1     125.808 145.500 138.159  1.00  0.00    -0.550 OA
ENDBRANCH   2   3
ENDBRANCH   1   2
BRANCH   1   6
ATOM      6  C   UNL     1     128.303 142.054 139.618  1.00  0.00     0.000 C 
BRANCH   6   7
ATOM      7  C   UNL     1     128.387 142.658 141.028  1.00  0.00    -0.000 C 
BRANCH   7   8
ATOM      8  C   UNL     1     128.052 141.608 142.095  1.00  0.00    -0.003 C 
ATOM      9  C   UNL     1     128.332 140.197 141.587  1.00  0.00     0.004 C 
ENDBRANCH   7   8
ENDBRANCH   6   7
ENDBRANCH   1   6
TORSDOF 5
ENDMDL
