MODEL 1
REMARK VINA RESULT:    -3.648      0.000      0.000
REMARK INTER + INTRA:          -5.932
REMARK INTER:                  -5.035
REMARK INTRA:                  -0.897
REMARK UNBOUND:                -0.897
REMARK SMILES OC[C@@H](O)[C@H](O)[C@@H](O)CO
REMARK SMILES IDX 5 1 3 2 2 3 1 4 4 6 7 8 9 9 10 10 8 12 6 14
REMARK H PARENT 1 5 4 7 10 11 8 13 6 15
REMARK Flexibility Score: inf
ROOT
ATOM      1  C   UNL     1      14.159  22.526  30.783  1.00  0.00     0.176 C 
ENDROOT
BRANCH   1   2
ATOM      2  C   UNL     1      13.927  22.976  29.311  1.00  0.00     0.171 C 
BRANCH   2   3
ATOM      3  C   UNL     1      14.788  22.214  28.285  1.00  0.00     0.190 C 
BRANCH   3   4
ATOM      4  O   UNL     1      14.160  21.022  27.898  1.00  0.00    -0.394 OA
ATOM      5  H   UNL     1      14.531  20.794  27.006  1.00  0.00     0.210 HD
ENDBRANCH   3   4
ENDBRANCH   2   3
BRANCH   2   6
ATOM      6  O   UNL     1      12.566  22.864  28.973  1.00  0.00    -0.388 OA
ATOM      7  H   UNL     1      12.461  23.186  28.040  1.00  0.00     0.211 HD
ENDBRANCH   2   6
ENDBRANCH   1   2
BRANCH   1   8
ATOM      8  C   UNL     1      13.313  23.320  31.818  1.00  0.00     0.171 C 
BRANCH   8   9
ATOM      9  C   UNL     1      12.130  22.492  32.338  1.00  0.00     0.190 C 
BRANCH   9  10
ATOM     10  O   UNL     1      11.116  22.437  31.372  1.00  0.00    -0.394 OA
ATOM     11  H   UNL     1      11.217  23.253  30.819  1.00  0.00     0.210 HD
ENDBRANCH   9  10
ENDBRANCH   8   9
BRANCH   8  12
ATOM     12  O   UNL     1      12.815  24.502  31.244  1.00  0.00    -0.388 OA
ATOM     13  H   UNL     1      12.807  24.370  30.260  1.00  0.00     0.211 HD
ENDBRANCH   8  12
ENDBRANCH   1   8
BRANCH   1  14
ATOM     14  O   UNL     1      13.925  21.144  30.906  1.00  0.00    -0.388 OA
ATOM     15  H   UNL     1      13.382  21.003  31.727  1.00  0.00     0.211 HD
ENDBRANCH   1  14
TORSDOF 9
ENDMDL
MODEL 2
REMARK VINA RESULT:    -3.624      1.710      2.137
REMARK INTER + INTRA:          -5.898
REMARK INTER:                  -5.143
REMARK INTRA:                  -0.755
REMARK UNBOUND:                -0.897
REMARK SMILES OC[C@@H](O)[C@H](O)[C@@H](O)CO
REMARK SMILES IDX 5 1 3 2 2 3 1 4 4 6 7 8 9 9 10 10 8 12 6 14
REMARK H PARENT 1 5 4 7 10 11 8 13 6 15
REMARK Flexibility Score: inf
ROOT
ATOM      1  C   UNL     1      13.520  23.940  30.434  1.00  0.00     0.176 C 
ENDROOT
BRANCH   1   2
ATOM      2  C   UNL     1      13.813  23.291  29.050  1.00  0.00     0.171 C 
BRANCH   2   3
ATOM      3  C   UNL     1      15.008  23.918  28.308  1.00  0.00     0.190 C 
BRANCH   3   4
ATOM      4  O   UNL     1      14.681  25.194  27.829  1.00  0.00    -0.394 OA
ATOM      5  H   UNL     1      15.367  25.416  27.147  1.00  0.00     0.210 HD
ENDBRANCH   3   4
ENDBRANCH   2   3
BRANCH   2   6
ATOM      6  O   UNL     1      14.011  21.905  29.191  1.00  0.00    -0.388 OA
ATOM      7  H   UNL     1      14.901  21.769  29.608  1.00  0.00     0.211 HD
ENDBRANCH   2   6
ENDBRANCH   1   2
BRANCH   1   8
ATOM      8  C   UNL     1      12.129  23.568  31.016  1.00  0.00     0.171 C 
BRANCH   8   9
ATOM      9  C   UNL     1      12.251  22.626  32.222  1.00  0.00     0.190 C 
BRANCH   9  10
ATOM     10  O   UNL     1      12.886  21.435  31.845  1.00  0.00    -0.394 OA
ATOM     11  H   UNL     1      13.799  21.476  32.230  1.00  0.00     0.210 HD
ENDBRANCH   9  10
ENDBRANCH   8   9
BRANCH   8  12
ATOM     12  O   UNL     1      11.337  22.942  30.038  1.00  0.00    -0.388 OA
ATOM     13  H   UNL     1      10.493  23.459  29.967  1.00  0.00     0.211 HD
ENDBRANCH   8  12
ENDBRANCH   1   8
BRANCH   1  14
ATOM     14  O   UNL     1      14.543  23.614  31.345  1.00  0.00    -0.388 OA
ATOM     15  H   UNL     1      14.483  22.639  31.527  1.00  0.00     0.211 HD
ENDBRANCH   1  14
TORSDOF 9
ENDMDL
MODEL 3
REMARK VINA RESULT:    -3.553      1.563      3.841
REMARK INTER + INTRA:          -5.800
REMARK INTER:                  -5.154
REMARK INTRA:                  -0.646
REMARK UNBOUND:                -0.897
REMARK SMILES OC[C@@H](O)[C@H](O)[C@@H](O)CO
REMARK SMILES IDX 5 1 3 2 2 3 1 4 4 6 7 8 9 9 10 10 8 12 6 14
REMARK H PARENT 1 5 4 7 10 11 8 13 6 15
REMARK Flexibility Score: inf
ROOT
ATOM      1  C   UNL     1      14.144  22.382  30.331  1.00  0.00     0.176 C 
ENDROOT
BRANCH   1   2
ATOM      2  C   UNL     1      13.066  22.818  31.366  1.00  0.00     0.171 C 
BRANCH   2   3
ATOM      3  C   UNL     1      11.912  23.635  30.755  1.00  0.00     0.190 C 
BRANCH   3   4
ATOM      4  O   UNL     1      10.849  22.798  30.389  1.00  0.00    -0.394 OA
ATOM      5  H   UNL     1      11.220  21.877  30.369  1.00  0.00     0.210 HD
ENDBRANCH   3   4
ENDBRANCH   2   3
BRANCH   2   6
ATOM      6  O   UNL     1      12.554  21.695  32.042  1.00  0.00    -0.388 OA
ATOM      7  H   UNL     1      11.563  21.749  32.005  1.00  0.00     0.211 HD
ENDBRANCH   2   6
ENDBRANCH   1   2
BRANCH   1   8
ATOM      8  C   UNL     1      15.035  21.206  30.817  1.00  0.00     0.171 C 
BRANCH   8   9
ATOM      9  C   UNL     1      16.251  20.999  29.903  1.00  0.00     0.190 C 
BRANCH   9  10
ATOM     10  O   UNL     1      15.900  20.209  28.800  1.00  0.00    -0.394 OA
ATOM     11  H   UNL     1      15.291  19.508  29.147  1.00  0.00     0.210 HD
ENDBRANCH   9  10
ENDBRANCH   8   9
BRANCH   8  12
ATOM     12  O   UNL     1      14.296  20.011  30.855  1.00  0.00    -0.388 OA
ATOM     13  H   UNL     1      14.916  19.290  31.140  1.00  0.00     0.211 HD
ENDBRANCH   8  12
ENDBRANCH   1   8
BRANCH   1  14
ATOM     14  O   UNL     1      13.532  22.066  29.103  1.00  0.00    -0.388 OA
ATOM     15  H   UNL     1      13.100  21.177  29.202  1.00  0.00     0.211 HD
ENDBRANCH   1  14
TORSDOF 9
ENDMDL
MODEL 4
REMARK VINA RESULT:    -3.540      1.178      3.843
REMARK INTER + INTRA:          -5.782
REMARK INTER:                  -4.852
REMARK INTRA:                  -0.930
REMARK UNBOUND:                -0.897
REMARK SMILES OC[C@@H](O)[C@H](O)[C@@H](O)CO
REMARK SMILES IDX 5 1 3 2 2 3 1 4 4 6 7 8 9 9 10 10 8 12 6 14
REMARK H PARENT 1 5 4 7 10 11 8 13 6 15
REMARK Flexibility Score: inf
ROOT
ATOM      1  C   UNL     1      13.702  23.258  29.639  1.00  0.00     0.176 C 
ENDROOT
BRANCH   1   2
ATOM      2  C   UNL     1      13.670  23.647  31.146  1.00  0.00     0.171 C 
BRANCH   2   3
ATOM      3  C   UNL     1      12.432  23.122  31.898  1.00  0.00     0.190 C 
BRANCH   3   4
ATOM      4  O   UNL     1      12.465  21.724  31.994  1.00  0.00    -0.394 OA
ATOM      5  H   UNL     1      11.526  21.436  32.133  1.00  0.00     0.210 HD
ENDBRANCH   3   4
ENDBRANCH   2   3
BRANCH   2   6
ATOM      6  O   UNL     1      14.843  23.209  31.790  1.00  0.00    -0.388 OA
ATOM      7  H   UNL     1      15.023  23.832  32.541  1.00  0.00     0.211 HD
ENDBRANCH   2   6
ENDBRANCH   1   2
BRANCH   1   8
ATOM      8  C   UNL     1      14.727  22.139  29.306  1.00  0.00     0.171 C 
BRANCH   8   9
ATOM      9  C   UNL     1      14.790  21.857  27.798  1.00  0.00     0.190 C 
BRANCH   9  10
ATOM     10  O   UNL     1      13.975  20.764  27.475  1.00  0.00    -0.394 OA
ATOM     11  H   UNL     1      14.270  20.019  28.059  1.00  0.00     0.210 HD
ENDBRANCH   9  10
ENDBRANCH   8   9
BRANCH   8  12
ATOM     12  O   UNL     1      14.388  20.947  29.970  1.00  0.00    -0.388 OA
ATOM     13  H   UNL     1      13.491  20.675  29.646  1.00  0.00     0.211 HD
ENDBRANCH   8  12
ENDBRANCH   1   8
BRANCH   1  14
ATOM     14  O   UNL     1      12.412  22.895  29.208  1.00  0.00    -0.388 OA
ATOM     15  H   UNL     1      12.301  23.229  28.279  1.00  0.00     0.211 HD
ENDBRANCH   1  14
TORSDOF 9
ENDMDL
MODEL 5
REMARK VINA RESULT:    -3.513     18.277     19.058
REMARK INTER + INTRA:          -5.745
REMARK INTER:                  -4.823
REMARK INTRA:                  -0.923
REMARK UNBOUND:                -0.897
REMARK SMILES OC[C@@H](O)[C@H](O)[C@@H](O)CO
REMARK SMILES IDX 5 1 3 2 2 3 1 4 4 6 7 8 9 9 10 10 8 12 6 14
REMARK H PARENT 1 5 4 7 10 11 8 13 6 15
REMARK Flexibility Score: inf
ROOT
ATOM      1  C   UNL     1       0.760  28.258  16.499  1.00  0.00     0.176 C 
ENDROOT
BRANCH   1   2
ATOM      2  C   UNL     1       0.122  27.591  17.753  1.00  0.00     0.171 C 
BRANCH   2   3
ATOM      3  C   UNL     1      -0.007  26.060  17.645  1.00  0.00     0.190 C 
BRANCH   3   4
ATOM      4  O   UNL     1       1.256  25.452  17.659  1.00  0.00    -0.394 OA
ATOM      5  H   UNL     1       1.451  25.248  18.611  1.00  0.00     0.210 HD
ENDBRANCH   3   4
ENDBRANCH   2   3
BRANCH   2   6
ATOM      6  O   UNL     1       0.847  27.931  18.910  1.00  0.00    -0.388 OA
ATOM      7  H   UNL     1       0.280  28.538  19.453  1.00  0.00     0.211 HD
ENDBRANCH   2   6
ENDBRANCH   1   2
BRANCH   1   8
ATOM      8  C   UNL     1       0.579  29.801  16.453  1.00  0.00     0.171 C 
BRANCH   8   9
ATOM      9  C   UNL     1       1.874  30.535  16.825  1.00  0.00     0.190 C 
BRANCH   9  10
ATOM     10  O   UNL     1       2.059  30.520  18.214  1.00  0.00    -0.394 OA
ATOM     11  H   UNL     1       2.358  31.432  18.462  1.00  0.00     0.210 HD
ENDBRANCH   9  10
ENDBRANCH   8   9
BRANCH   8  12
ATOM     12  O   UNL     1      -0.435  30.204  17.339  1.00  0.00    -0.388 OA
ATOM     13  H   UNL     1      -1.066  29.444  17.429  1.00  0.00     0.211 HD
ENDBRANCH   8  12
ENDBRANCH   1   8
BRANCH   1  14
ATOM     14  O   UNL     1       2.122  27.915  16.412  1.00  0.00    -0.388 OA
ATOM     15  H   UNL     1       2.518  28.023  17.316  1.00  0.00     0.211 HD
ENDBRANCH   1  14
TORSDOF 9
ENDMDL
MODEL 6
REMARK VINA RESULT:    -3.509     18.316     19.228
REMARK INTER + INTRA:          -5.739
REMARK INTER:                  -4.776
REMARK INTRA:                  -0.963
REMARK UNBOUND:                -0.897
REMARK SMILES OC[C@@H](O)[C@H](O)[C@@H](O)CO
REMARK SMILES IDX 5 1 3 2 2 3 1 4 4 6 7 8 9 9 10 10 8 12 6 14
REMARK H PARENT 1 5 4 7 10 11 8 13 6 15
REMARK Flexibility Score: inf
ROOT
ATOM      1  C   UNL     1      -0.334  28.388  17.016  1.00  0.00     0.176 C 
ENDROOT
BRANCH   1   2
ATOM      2  C   UNL     1       0.930  28.866  16.244  1.00  0.00     0.171 C 
BRANCH   2   3
ATOM      3  C   UNL     1       1.294  30.341  16.501  1.00  0.00     0.190 C 
BRANCH   3   4
ATOM      4  O   UNL     1       1.678  30.533  17.835  1.00  0.00    -0.394 OA
ATOM      5  H   UNL     1       1.728  29.628  18.239  1.00  0.00     0.210 HD
ENDBRANCH   3   4
ENDBRANCH   2   3
BRANCH   2   6
ATOM      6  O   UNL     1       2.029  28.042  16.545  1.00  0.00    -0.388 OA
ATOM      7  H   UNL     1       2.678  28.121  15.797  1.00  0.00     0.211 HD
ENDBRANCH   2   6
ENDBRANCH   1   2
BRANCH   1   8
ATOM      8  C   UNL     1      -0.029  27.339  18.121  1.00  0.00     0.171 C 
BRANCH   8   9
ATOM      9  C   UNL     1      -1.306  26.890  18.846  1.00  0.00     0.190 C 
BRANCH   9  10
ATOM     10  O   UNL     1      -1.648  27.813  19.843  1.00  0.00    -0.394 OA
ATOM     11  H   UNL     1      -0.968  27.711  20.557  1.00  0.00     0.210 HD
ENDBRANCH   9  10
ENDBRANCH   8   9
BRANCH   8  12
ATOM     12  O   UNL     1       0.861  27.869  19.071  1.00  0.00    -0.388 OA
ATOM     13  H   UNL     1       0.693  27.398  19.927  1.00  0.00     0.211 HD
ENDBRANCH   8  12
ENDBRANCH   1   8
BRANCH   1  14
ATOM     14  O   UNL     1      -1.016  29.494  17.556  1.00  0.00    -0.388 OA
ATOM     15  H   UNL     1      -0.383  29.977  18.150  1.00  0.00     0.211 HD
ENDBRANCH   1  14
TORSDOF 9
ENDMDL
MODEL 7
REMARK VINA RESULT:    -3.491      1.539      2.138
REMARK INTER + INTRA:          -5.714
REMARK INTER:                  -5.025
REMARK INTRA:                  -0.689
REMARK UNBOUND:                -0.897
REMARK SMILES OC[C@@H](O)[C@H](O)[C@@H](O)CO
REMARK SMILES IDX 5 1 3 2 2 3 1 4 4 6 7 8 9 9 10 10 8 12 6 14
REMARK H PARENT 1 5 4 7 10 11 8 13 6 15
REMARK Flexibility Score: inf
ROOT
ATOM      1  C   UNL     1      14.460  22.161  30.424  1.00  0.00     0.176 C 
ENDROOT
BRANCH   1   2
ATOM      2  C   UNL     1      13.836  23.356  29.645  1.00  0.00     0.171 C 
BRANCH   2   3
ATOM      3  C   UNL     1      14.736  23.905  28.522  1.00  0.00     0.190 C 
BRANCH   3   4
ATOM      4  O   UNL     1      15.374  22.860  27.841  1.00  0.00    -0.394 OA
ATOM      5  H   UNL     1      15.056  22.910  26.902  1.00  0.00     0.210 HD
ENDBRANCH   3   4
ENDBRANCH   2   3
BRANCH   2   6
ATOM      6  O   UNL     1      12.581  22.996  29.120  1.00  0.00    -0.388 OA
ATOM      7  H   UNL     1      12.112  22.453  29.807  1.00  0.00     0.211 HD
ENDBRANCH   2   6
ENDBRANCH   1   2
BRANCH   1   8
ATOM      8  C   UNL     1      13.877  21.974  31.852  1.00  0.00     0.171 C 
BRANCH   8   9
ATOM      9  C   UNL     1      14.521  20.785  32.577  1.00  0.00     0.190 C 
BRANCH   9  10
ATOM     10  O   UNL     1      13.970  19.581  32.117  1.00  0.00    -0.394 OA
ATOM     11  H   UNL     1      13.301  19.829  31.429  1.00  0.00     0.210 HD
ENDBRANCH   9  10
ENDBRANCH   8   9
BRANCH   8  12
ATOM     12  O   UNL     1      12.489  21.765  31.793  1.00  0.00    -0.388 OA
ATOM     13  H   UNL     1      12.186  22.050  30.892  1.00  0.00     0.211 HD
ENDBRANCH   8  12
ENDBRANCH   1   8
BRANCH   1  14
ATOM     14  O   UNL     1      14.328  20.976  29.675  1.00  0.00    -0.388 OA
ATOM     15  H   UNL     1      15.214  20.528  29.662  1.00  0.00     0.211 HD
ENDBRANCH   1  14
TORSDOF 9
ENDMDL
MODEL 8
REMARK VINA RESULT:    -3.471      2.163      3.706
REMARK INTER + INTRA:          -5.687
REMARK INTER:                  -5.013
REMARK INTRA:                  -0.674
REMARK UNBOUND:                -0.897
REMARK SMILES OC[C@@H](O)[C@H](O)[C@@H](O)CO
REMARK SMILES IDX 5 1 3 2 2 3 1 4 4 6 7 8 9 9 10 10 8 12 6 14
REMARK H PARENT 1 5 4 7 10 11 8 13 6 15
REMARK Flexibility Score: inf
ROOT
ATOM      1  C   UNL     1      15.122  21.221  30.160  1.00  0.00     0.176 C 
ENDROOT
BRANCH   1   2
ATOM      2  C   UNL     1      16.202  20.107  30.041  1.00  0.00     0.171 C 
BRANCH   2   3
ATOM      3  C   UNL     1      16.066  18.993  31.097  1.00  0.00     0.190 C 
BRANCH   3   4
ATOM      4  O   UNL     1      14.976  18.162  30.805  1.00  0.00    -0.394 OA
ATOM      5  H   UNL     1      15.325  17.233  30.830  1.00  0.00     0.210 HD
ENDBRANCH   3   4
ENDBRANCH   2   3
BRANCH   2   6
ATOM      6  O   UNL     1      16.190  19.548  28.750  1.00  0.00    -0.388 OA
ATOM      7  H   UNL     1      16.229  20.295  28.098  1.00  0.00     0.211 HD
ENDBRANCH   2   6
ENDBRANCH   1   2
BRANCH   1   8
ATOM      8  C   UNL     1      14.741  21.868  28.799  1.00  0.00     0.171 C 
BRANCH   8   9
ATOM      9  C   UNL     1      13.989  23.192  28.991  1.00  0.00     0.190 C 
BRANCH   9  10
ATOM     10  O   UNL     1      12.665  22.946  29.378  1.00  0.00    -0.394 OA
ATOM     11  H   UNL     1      12.373  22.148  28.868  1.00  0.00     0.210 HD
ENDBRANCH   9  10
ENDBRANCH   8   9
BRANCH   8  12
ATOM     12  O   UNL     1      13.931  20.997  28.050  1.00  0.00    -0.388 OA
ATOM     13  H   UNL     1      13.714  20.223  28.632  1.00  0.00     0.211 HD
ENDBRANCH   8  12
ENDBRANCH   1   8
BRANCH   1  14
ATOM     14  O   UNL     1      13.978  20.715  30.806  1.00  0.00    -0.388 OA
ATOM     15  H   UNL     1      14.266  20.350  31.684  1.00  0.00     0.211 HD
ENDBRANCH   1  14
TORSDOF 9
ENDMDL
MODEL 9
REMARK VINA RESULT:    -3.444      1.443      3.968
REMARK INTER + INTRA:          -5.650
REMARK INTER:                  -5.035
REMARK INTRA:                  -0.615
REMARK UNBOUND:                -0.897
REMARK SMILES OC[C@@H](O)[C@H](O)[C@@H](O)CO
REMARK SMILES IDX 5 1 3 2 2 3 1 4 4 6 7 8 9 9 10 10 8 12 6 14
REMARK H PARENT 1 5 4 7 10 11 8 13 6 15
REMARK Flexibility Score: inf
ROOT
ATOM      1  C   UNL     1      14.068  23.124  29.852  1.00  0.00     0.176 C 
ENDROOT
BRANCH   1   2
ATOM      2  C   UNL     1      14.106  22.109  31.032  1.00  0.00     0.171 C 
BRANCH   2   3
ATOM      3  C   UNL     1      13.017  22.350  32.095  1.00  0.00     0.190 C 
BRANCH   3   4
ATOM      4  O   UNL     1      11.743  22.350  31.511  1.00  0.00    -0.394 OA
ATOM      5  H   UNL     1      11.375  23.261  31.654  1.00  0.00     0.210 HD
ENDBRANCH   3   4
ENDBRANCH   2   3
BRANCH   2   6
ATOM      6  O   UNL     1      14.018  20.791  30.546  1.00  0.00    -0.388 OA
ATOM      7  H   UNL     1      14.912  20.373  30.648  1.00  0.00     0.211 HD
ENDBRANCH   2   6
ENDBRANCH   1   2
BRANCH   1   8
ATOM      8  C   UNL     1      15.292  23.020  28.901  1.00  0.00     0.171 C 
BRANCH   8   9
ATOM      9  C   UNL     1      15.667  24.384  28.306  1.00  0.00     0.190 C 
BRANCH   9  10
ATOM     10  O   UNL     1      14.519  25.050  27.858  1.00  0.00    -0.394 OA
ATOM     11  H   UNL     1      14.800  25.584  27.071  1.00  0.00     0.210 HD
ENDBRANCH   9  10
ENDBRANCH   8   9
BRANCH   8  12
ATOM     12  O   UNL     1      15.021  22.131  27.846  1.00  0.00    -0.388 OA
ATOM     13  H   UNL     1      15.749  22.234  27.180  1.00  0.00     0.211 HD
ENDBRANCH   8  12
ENDBRANCH   1   8
BRANCH   1  14
ATOM     14  O   UNL     1      12.866  22.982  29.133  1.00  0.00    -0.388 OA
ATOM     15  H   UNL     1      13.103  22.790  28.187  1.00  0.00     0.211 HD
ENDBRANCH   1  14
TORSDOF 9
ENDMDL
