MODEL 1
REMARK VINA RESULT:    -4.417      0.000      0.000
REMARK INTER + INTRA:          -6.723
REMARK INTER:                  -6.354
REMARK INTRA:                  -0.369
REMARK UNBOUND:                -0.369
REMARK SMILES CCCCCCCCCO
REMARK SMILES IDX 6 1 5 2 4 3 3 4 2 5 1 6 7 7 8 8 9 9 10 10
REMARK H PARENT 10 11
REMARK Flexibility Score: inf
ROOT
ATOM      1  C   UNL     1     -19.659  -3.420 -13.280  1.00  0.00     0.000 C 
ENDROOT
BRANCH   1   2
ATOM      2  C   UNL     1     -20.323  -2.248 -12.536  1.00  0.00     0.000 C 
BRANCH   2   3
ATOM      3  C   UNL     1     -21.597  -1.750 -13.238  1.00  0.00    -0.000 C 
BRANCH   3   4
ATOM      4  C   UNL     1     -22.425  -0.796 -12.364  1.00  0.00    -0.000 C 
BRANCH   4   5
ATOM      5  C   UNL     1     -22.746  -1.435 -11.008  1.00  0.00    -0.003 C 
ATOM      6  C   UNL     1     -23.841  -2.490 -11.141  1.00  0.00     0.004 C 
ENDBRANCH   4   5
ENDBRANCH   3   4
ENDBRANCH   2   3
ENDBRANCH   1   2
BRANCH   1   7
ATOM      7  C   UNL     1     -18.537  -4.078 -12.461  1.00  0.00     0.002 C 
BRANCH   7   8
ATOM      8  C   UNL     1     -18.221  -3.312 -11.165  1.00  0.00     0.028 C 
BRANCH   8   9
ATOM      9  C   UNL     1     -16.864  -2.604 -11.243  1.00  0.00     0.156 C 
BRANCH   9  10
ATOM     10  O   UNL     1     -16.993  -1.337 -11.830  1.00  0.00    -0.396 OA
ATOM     11  H   UNL     1     -16.077  -0.962 -11.902  1.00  0.00     0.210 HD
ENDBRANCH   9  10
ENDBRANCH   8   9
ENDBRANCH   7   8
ENDBRANCH   1   7
TORSDOF 8
ENDMDL
MODEL 2
REMARK VINA RESULT:    -4.272      2.115      2.453
REMARK INTER + INTRA:          -6.514
REMARK INTER:                  -6.238
REMARK INTRA:                  -0.276
REMARK UNBOUND:                -0.369
REMARK SMILES CCCCCCCCCO
REMARK SMILES IDX 6 1 5 2 4 3 3 4 2 5 1 6 7 7 8 8 9 9 10 10
REMARK H PARENT 10 11
REMARK Flexibility Score: inf
ROOT
ATOM      1  C   UNL     1     -19.496  -2.488 -12.619  1.00  0.00     0.000 C 
ENDROOT
BRANCH   1   2
ATOM      2  C   UNL     1     -21.002  -2.383 -12.920  1.00  0.00     0.000 C 
BRANCH   2   3
ATOM      3  C   UNL     1     -21.627  -1.096 -12.358  1.00  0.00    -0.000 C 
BRANCH   3   4
ATOM      4  C   UNL     1     -22.538  -1.355 -11.149  1.00  0.00    -0.000 C 
BRANCH   4   5
ATOM      5  C   UNL     1     -23.771  -2.168 -11.556  1.00  0.00    -0.003 C 
ATOM      6  C   UNL     1     -24.129  -3.200 -10.491  1.00  0.00     0.004 C 
ENDBRANCH   4   5
ENDBRANCH   3   4
ENDBRANCH   2   3
ENDBRANCH   1   2
BRANCH   1   7
ATOM      7  C   UNL     1     -19.110  -3.845 -12.009  1.00  0.00     0.002 C 
BRANCH   7   8
ATOM      8  C   UNL     1     -18.029  -4.576 -12.823  1.00  0.00     0.028 C 
BRANCH   8   9
ATOM      9  C   UNL     1     -18.406  -4.671 -14.306  1.00  0.00     0.156 C 
BRANCH   9  10
ATOM     10  O   UNL     1     -18.090  -5.936 -14.823  1.00  0.00    -0.396 OA
ATOM     11  H   UNL     1     -18.698  -6.089 -15.592  1.00  0.00     0.210 HD
ENDBRANCH   9  10
ENDBRANCH   8   9
ENDBRANCH   7   8
ENDBRANCH   1   7
TORSDOF 8
ENDMDL
MODEL 3
REMARK VINA RESULT:    -4.217      2.821      5.433
REMARK INTER + INTRA:          -6.436
REMARK INTER:                  -6.120
REMARK INTRA:                  -0.315
REMARK UNBOUND:                -0.369
REMARK SMILES CCCCCCCCCO
REMARK SMILES IDX 6 1 5 2 4 3 3 4 2 5 1 6 7 7 8 8 9 9 10 10
REMARK H PARENT 10 11
REMARK Flexibility Score: inf
ROOT
ATOM      1  C   UNL     1     -21.599  -1.235 -12.131  1.00  0.00     0.000 C 
ENDROOT
BRANCH   1   2
ATOM      2  C   UNL     1     -20.933  -2.352 -12.954  1.00  0.00     0.000 C 
BRANCH   2   3
ATOM      3  C   UNL     1     -19.443  -2.525 -12.618  1.00  0.00    -0.000 C 
BRANCH   3   4
ATOM      4  C   UNL     1     -19.123  -3.907 -12.029  1.00  0.00    -0.000 C 
BRANCH   4   5
ATOM      5  C   UNL     1     -18.002  -4.592 -12.818  1.00  0.00    -0.003 C 
ATOM      6  C   UNL     1     -18.422  -4.849 -14.263  1.00  0.00     0.004 C 
ENDBRANCH   4   5
ENDBRANCH   3   4
ENDBRANCH   2   3
ENDBRANCH   1   2
BRANCH   1   7
ATOM      7  C   UNL     1     -22.185  -1.748 -10.806  1.00  0.00     0.002 C 
BRANCH   7   8
ATOM      8  C   UNL     1     -23.720  -1.857 -10.838  1.00  0.00     0.028 C 
BRANCH   8   9
ATOM      9  C   UNL     1     -24.331  -0.910 -11.878  1.00  0.00     0.156 C 
BRANCH   9  10
ATOM     10  O   UNL     1     -24.985  -1.631 -12.888  1.00  0.00    -0.396 OA
ATOM     11  H   UNL     1     -25.385  -2.429 -12.453  1.00  0.00     0.210 HD
ENDBRANCH   9  10
ENDBRANCH   8   9
ENDBRANCH   7   8
ENDBRANCH   1   7
TORSDOF 8
ENDMDL
MODEL 4
REMARK VINA RESULT:    -4.020      2.716      5.453
REMARK INTER + INTRA:          -6.152
REMARK INTER:                  -5.859
REMARK INTRA:                  -0.292
REMARK UNBOUND:                -0.369
REMARK SMILES CCCCCCCCCO
REMARK SMILES IDX 6 1 5 2 4 3 3 4 2 5 1 6 7 7 8 8 9 9 10 10
REMARK H PARENT 10 11
REMARK Flexibility Score: inf
ROOT
ATOM      1  C   UNL     1     -21.484  -2.264 -13.092  1.00  0.00     0.000 C 
ENDROOT
BRANCH   1   2
ATOM      2  C   UNL     1     -20.292  -2.845 -12.310  1.00  0.00     0.000 C 
BRANCH   2   3
ATOM      3  C   UNL     1     -19.237  -3.481 -13.230  1.00  0.00    -0.000 C 
BRANCH   3   4
ATOM      4  C   UNL     1     -18.007  -3.989 -12.463  1.00  0.00    -0.000 C 
BRANCH   4   5
ATOM      5  C   UNL     1     -17.908  -3.325 -11.085  1.00  0.00    -0.003 C 
ATOM      6  C   UNL     1     -16.601  -2.552 -10.937  1.00  0.00     0.004 C 
ENDBRANCH   4   5
ENDBRANCH   3   4
ENDBRANCH   2   3
ENDBRANCH   1   2
BRANCH   1   7
ATOM      7  C   UNL     1     -21.671  -0.758 -12.849  1.00  0.00     0.002 C 
BRANCH   7   8
ATOM      8  C   UNL     1     -23.128  -0.387 -12.520  1.00  0.00     0.028 C 
BRANCH   8   9
ATOM      9  C   UNL     1     -23.947  -1.618 -12.116  1.00  0.00     0.156 C 
BRANCH   9  10
ATOM     10  O   UNL     1     -25.112  -1.720 -12.890  1.00  0.00    -0.396 OA
ATOM     11  H   UNL     1     -25.838  -2.006 -12.276  1.00  0.00     0.210 HD
ENDBRANCH   9  10
ENDBRANCH   8   9
ENDBRANCH   7   8
ENDBRANCH   1   7
TORSDOF 8
ENDMDL
MODEL 5
REMARK VINA RESULT:    -3.999      2.361      5.239
REMARK INTER + INTRA:          -6.121
REMARK INTER:                  -5.787
REMARK INTRA:                  -0.334
REMARK UNBOUND:                -0.369
REMARK SMILES CCCCCCCCCO
REMARK SMILES IDX 6 1 5 2 4 3 3 4 2 5 1 6 7 7 8 8 9 9 10 10
REMARK H PARENT 10 11
REMARK Flexibility Score: inf
ROOT
ATOM      1  C   UNL     1     -22.125  -1.322 -13.260  1.00  0.00     0.000 C 
ENDROOT
BRANCH   1   2
ATOM      2  C   UNL     1     -21.137  -2.498 -13.156  1.00  0.00     0.000 C 
BRANCH   2   3
ATOM      3  C   UNL     1     -19.931  -2.178 -12.259  1.00  0.00    -0.000 C 
BRANCH   3   4
ATOM      4  C   UNL     1     -18.649  -2.897 -12.706  1.00  0.00    -0.000 C 
BRANCH   4   5
ATOM      5  C   UNL     1     -18.927  -4.374 -13.007  1.00  0.00    -0.003 C 
ATOM      6  C   UNL     1     -18.375  -4.772 -14.373  1.00  0.00     0.004 C 
ENDBRANCH   4   5
ENDBRANCH   3   4
ENDBRANCH   2   3
ENDBRANCH   1   2
BRANCH   1   7
ATOM      7  C   UNL     1     -22.893  -1.079 -11.952  1.00  0.00     0.002 C 
BRANCH   7   8
ATOM      8  C   UNL     1     -24.277  -1.750 -11.943  1.00  0.00     0.028 C 
BRANCH   8   9
ATOM      9  C   UNL     1     -24.375  -2.831 -10.861  1.00  0.00     0.156 C 
BRANCH   9  10
ATOM     10  O   UNL     1     -23.099  -3.249 -10.454  1.00  0.00    -0.396 OA
ATOM     11  H   UNL     1     -23.049  -3.095  -9.475  1.00  0.00     0.210 HD
ENDBRANCH   9  10
ENDBRANCH   8   9
ENDBRANCH   7   8
ENDBRANCH   1   7
TORSDOF 8
ENDMDL
MODEL 6
REMARK VINA RESULT:    -3.710      1.668      2.184
REMARK INTER + INTRA:          -5.706
REMARK INTER:                  -5.181
REMARK INTRA:                  -0.524
REMARK UNBOUND:                -0.369
REMARK SMILES CCCCCCCCCO
REMARK SMILES IDX 6 1 5 2 4 3 3 4 2 5 1 6 7 7 8 8 9 9 10 10
REMARK H PARENT 10 11
REMARK Flexibility Score: inf
ROOT
ATOM      1  C   UNL     1     -21.221  -2.501 -13.298  1.00  0.00     0.000 C 
ENDROOT
BRANCH   1   2
ATOM      2  C   UNL     1     -21.176  -1.233 -12.427  1.00  0.00     0.000 C 
BRANCH   2   3
ATOM      3  C   UNL     1     -22.305  -1.193 -11.384  1.00  0.00    -0.000 C 
BRANCH   3   4
ATOM      4  C   UNL     1     -22.301  -2.417 -10.456  1.00  0.00    -0.000 C 
BRANCH   4   5
ATOM      5  C   UNL     1     -23.728  -2.917 -10.203  1.00  0.00    -0.003 C 
ATOM      6  C   UNL     1     -24.723  -1.760 -10.186  1.00  0.00     0.004 C 
ENDBRANCH   4   5
ENDBRANCH   3   4
ENDBRANCH   2   3
ENDBRANCH   1   2
BRANCH   1   7
ATOM      7  C   UNL     1     -19.898  -3.281 -13.273  1.00  0.00     0.002 C 
BRANCH   7   8
ATOM      8  C   UNL     1     -18.837  -2.623 -12.373  1.00  0.00     0.028 C 
BRANCH   8   9
ATOM      9  C   UNL     1     -18.574  -3.452 -11.111  1.00  0.00     0.156 C 
BRANCH   9  10
ATOM     10  O   UNL     1     -19.553  -4.444 -10.950  1.00  0.00    -0.396 OA
ATOM     11  H   UNL     1     -20.234  -4.073 -10.329  1.00  0.00     0.210 HD
ENDBRANCH   9  10
ENDBRANCH   8   9
ENDBRANCH   7   8
ENDBRANCH   1   7
TORSDOF 8
ENDMDL
MODEL 7
REMARK VINA RESULT:    -3.641      4.841      7.486
REMARK INTER + INTRA:          -5.607
REMARK INTER:                  -5.320
REMARK INTRA:                  -0.287
REMARK UNBOUND:                -0.369
REMARK SMILES CCCCCCCCCO
REMARK SMILES IDX 6 1 5 2 4 3 3 4 2 5 1 6 7 7 8 8 9 9 10 10
REMARK H PARENT 10 11
REMARK Flexibility Score: inf
ROOT
ATOM      1  C   UNL     1     -25.002   0.298 -12.037  1.00  0.00     0.000 C 
ENDROOT
BRANCH   1   2
ATOM      2  C   UNL     1     -24.795  -0.717 -10.899  1.00  0.00     0.000 C 
BRANCH   2   3
ATOM      3  C   UNL     1     -23.815  -1.839 -11.280  1.00  0.00    -0.000 C 
BRANCH   3   4
ATOM      4  C   UNL     1     -22.345  -1.421 -11.131  1.00  0.00    -0.000 C 
BRANCH   4   5
ATOM      5  C   UNL     1     -21.542  -1.786 -12.384  1.00  0.00    -0.003 C 
ATOM      6  C   UNL     1     -21.918  -0.891 -13.561  1.00  0.00     0.004 C 
ENDBRANCH   4   5
ENDBRANCH   3   4
ENDBRANCH   2   3
ENDBRANCH   1   2
BRANCH   1   7
ATOM      7  C   UNL     1     -26.152   1.277 -11.752  1.00  0.00     0.002 C 
BRANCH   7   8
ATOM      8  C   UNL     1     -25.897   2.678 -12.334  1.00  0.00     0.028 C 
BRANCH   8   9
ATOM      9  C   UNL     1     -27.208   3.396 -12.676  1.00  0.00     0.156 C 
BRANCH   9  10
ATOM     10  O   UNL     1     -27.543   3.209 -14.025  1.00  0.00    -0.396 OA
ATOM     11  H   UNL     1     -27.819   2.260 -14.121  1.00  0.00     0.210 HD
ENDBRANCH   9  10
ENDBRANCH   8   9
ENDBRANCH   7   8
ENDBRANCH   1   7
TORSDOF 8
ENDMDL
MODEL 8
REMARK VINA RESULT:    -3.521      1.813      2.690
REMARK INTER + INTRA:          -5.434
REMARK INTER:                  -5.092
REMARK INTRA:                  -0.342
REMARK UNBOUND:                -0.369
REMARK SMILES CCCCCCCCCO
REMARK SMILES IDX 6 1 5 2 4 3 3 4 2 5 1 6 7 7 8 8 9 9 10 10
REMARK H PARENT 10 11
REMARK Flexibility Score: inf
ROOT
ATOM      1  C   UNL     1     -18.629  -3.325 -10.672  1.00  0.00     0.000 C 
ENDROOT
BRANCH   1   2
ATOM      2  C   UNL     1     -20.157  -3.504 -10.707  1.00  0.00     0.000 C 
BRANCH   2   3
ATOM      3  C   UNL     1     -20.836  -2.583 -11.734  1.00  0.00    -0.000 C 
BRANCH   3   4
ATOM      4  C   UNL     1     -21.972  -1.748 -11.125  1.00  0.00    -0.000 C 
BRANCH   4   5
ATOM      5  C   UNL     1     -22.727  -0.975 -12.212  1.00  0.00    -0.003 C 
ATOM      6  C   UNL     1     -21.896  -0.861 -13.486  1.00  0.00     0.004 C 
ENDBRANCH   4   5
ENDBRANCH   3   4
ENDBRANCH   2   3
ENDBRANCH   1   2
BRANCH   1   7
ATOM      7  C   UNL     1     -18.018  -3.197 -12.076  1.00  0.00     0.002 C 
BRANCH   7   8
ATOM      8  C   UNL     1     -17.795  -4.560 -12.753  1.00  0.00     0.028 C 
BRANCH   8   9
ATOM      9  C   UNL     1     -18.620  -4.694 -14.038  1.00  0.00     0.156 C 
BRANCH   9  10
ATOM     10  O   UNL     1     -17.989  -4.043 -15.108  1.00  0.00    -0.396 OA
ATOM     11  H   UNL     1     -17.730  -3.143 -14.780  1.00  0.00     0.210 HD
ENDBRANCH   9  10
ENDBRANCH   8   9
ENDBRANCH   7   8
ENDBRANCH   1   7
TORSDOF 8
ENDMDL
MODEL 9
REMARK VINA RESULT:    -3.478      2.266      5.154
REMARK INTER + INTRA:          -5.372
REMARK INTER:                  -5.025
REMARK INTRA:                  -0.348
REMARK UNBOUND:                -0.369
REMARK SMILES CCCCCCCCCO
REMARK SMILES IDX 6 1 5 2 4 3 3 4 2 5 1 6 7 7 8 8 9 9 10 10
REMARK H PARENT 10 11
REMARK Flexibility Score: inf
ROOT
ATOM      1  C   UNL     1     -22.571  -1.884 -10.570  1.00  0.00     0.000 C 
ENDROOT
BRANCH   1   2
ATOM      2  C   UNL     1     -21.332  -2.718 -10.938  1.00  0.00     0.000 C 
BRANCH   2   3
ATOM      3  C   UNL     1     -20.596  -2.169 -12.171  1.00  0.00    -0.000 C 
BRANCH   3   4
ATOM      4  C   UNL     1     -20.236  -3.263 -13.187  1.00  0.00    -0.000 C 
BRANCH   4   5
ATOM      5  C   UNL     1     -18.718  -3.459 -13.267  1.00  0.00    -0.003 C 
ATOM      6  C   UNL     1     -18.013  -2.798 -12.086  1.00  0.00     0.004 C 
ENDBRANCH   4   5
ENDBRANCH   3   4
ENDBRANCH   2   3
ENDBRANCH   1   2
BRANCH   1   7
ATOM      7  C   UNL     1     -23.850  -2.392 -11.256  1.00  0.00     0.002 C 
BRANCH   7   8
ATOM      8  C   UNL     1     -24.244  -1.545 -12.478  1.00  0.00     0.028 C 
BRANCH   8   9
ATOM      9  C   UNL     1     -23.869  -0.070 -12.288  1.00  0.00     0.156 C 
BRANCH   9  10
ATOM     10  O   UNL     1     -22.872   0.314 -13.197  1.00  0.00    -0.396 OA
ATOM     11  H   UNL     1     -22.003   0.065 -12.787  1.00  0.00     0.210 HD
ENDBRANCH   9  10
ENDBRANCH   8   9
ENDBRANCH   7   8
ENDBRANCH   1   7
TORSDOF 8
ENDMDL
