MODEL 1
REMARK VINA RESULT:    -5.468      0.000      0.000
REMARK INTER + INTRA:          -6.993
REMARK INTER:                  -7.705
REMARK INTRA:                   0.712
REMARK UNBOUND:                 0.712
REMARK SMILES CC1=CCC(=C(C)C)C(=O)CC(C)=CCC1
REMARK SMILES IDX 12 1 14 2 13 3 15 4 16 5 2 6 1 7 3 8 11 10 9 11 10 12 5 13
REMARK SMILES IDX 6 14 7 15 8 16 4 17
REMARK H PARENT
REMARK Flexibility Score: 60.00
ROOT
ATOM      1  C   UNL     1     -56.349  28.064 -21.385  1.00  0.00    -0.070 C 
ATOM      2  C   UNL     1     -56.917  26.846 -21.543  1.00  0.00    -0.027 C 
ATOM      3  C   UNL     1     -54.871  28.198 -21.648  1.00  0.00     0.039 C 
ENDROOT
BRANCH   2   4
ATOM      4  C   UNL     1     -58.339  26.502 -21.183  1.00  0.00     0.032 C 
BRANCH   4   5
ATOM      5  C   UNL     1     -59.177  26.351 -22.457  1.00  0.00     0.034 C 
BRANCH   5   6
ATOM      6  C   UNL     1     -58.383  26.648 -23.714  1.00  0.00    -0.077 C 
ATOM      7  C   UNL     1     -57.453  25.587 -24.248  1.00  0.00     0.039 C 
ATOM      8  C   UNL     1     -58.513  27.792 -24.431  1.00  0.00    -0.023 CG0
ATOM      9  G   UNL     1     -59.333  29.019 -24.070  1.00  0.00     0.000 G0
ENDBRANCH   5   6
ENDBRANCH   4   5
ENDBRANCH   2   4
BRANCH   1  10
ATOM     10  C   UNL     1     -57.127  29.299 -20.976  1.00  0.00     0.111 C 
BRANCH  10  11
ATOM     11  C   UNL     1     -57.830  29.938 -22.150  1.00  0.00     0.163 C 
ATOM     12  O   UNL     1     -57.209  30.846 -22.765  1.00  0.00    -0.294 OA
BRANCH  11  13
ATOM     13  C   UNL     1     -59.196  29.536 -22.623  1.00  0.00    -0.002 C 
ATOM     14  C   UNL     1     -60.299  29.771 -21.846  1.00  0.00    -0.069 C 
ATOM     15  C   UNL     1     -60.170  30.169 -20.393  1.00  0.00     0.039 C 
ATOM     16  C   UNL     1     -61.703  29.598 -22.376  1.00  0.00     0.039 C 
BRANCH  13  17
ATOM     17  C   UNL     1     -59.334  29.034 -24.056  1.00  0.00     0.066 CG0
ATOM     18  G   UNL     1     -58.513  27.811 -24.426  1.00  0.00     0.000 G0
ENDBRANCH  13  17
ENDBRANCH  11  13
ENDBRANCH  10  11
ENDBRANCH   1  10
TORSDOF 0
ENDMDL
MODEL 2
REMARK VINA RESULT:    -5.359      9.968     11.360
REMARK INTER + INTRA:          -6.840
REMARK INTER:                  -7.419
REMARK INTRA:                   0.580
REMARK UNBOUND:                 0.712
REMARK SMILES CC1=CCC(=C(C)C)C(=O)CC(C)=CCC1
REMARK SMILES IDX 12 1 14 2 13 3 15 4 16 5 2 6 1 7 3 8 11 10 9 11 10 12 5 13
REMARK SMILES IDX 6 14 7 15 8 16 4 17
REMARK H PARENT
REMARK Flexibility Score: 60.00
ROOT
ATOM      1  C   UNL     1     -58.579  20.561 -28.475  1.00  0.00    -0.070 C 
ATOM      2  C   UNL     1     -59.067  19.365 -28.070  1.00  0.00    -0.027 C 
ATOM      3  C   UNL     1     -57.083  20.743 -28.506  1.00  0.00     0.039 C 
ENDROOT
BRANCH   2   4
ATOM      4  C   UNL     1     -60.524  19.060 -27.840  1.00  0.00     0.032 C 
BRANCH   4   5
ATOM      5  C   UNL     1     -60.883  17.715 -28.481  1.00  0.00     0.034 C 
BRANCH   5   6
ATOM      6  C   UNL     1     -60.963  17.795 -29.992  1.00  0.00    -0.077 C 
ATOM      7  C   UNL     1     -60.332  16.694 -30.808  1.00  0.00     0.039 C 
ATOM      8  C   UNL     1     -61.634  18.768 -30.658  1.00  0.00    -0.023 CG0
ATOM      9  G   UNL     1     -62.295  20.002 -30.070  1.00  0.00     0.000 G0
ENDBRANCH   5   6
ENDBRANCH   4   5
ENDBRANCH   2   4
BRANCH   1  10
ATOM     10  C   UNL     1     -59.459  21.714 -28.914  1.00  0.00     0.111 C 
BRANCH  10  11
ATOM     11  C   UNL     1     -60.136  21.436 -30.235  1.00  0.00     0.163 C 
ATOM     12  O   UNL     1     -59.389  21.259 -31.236  1.00  0.00    -0.294 OA
BRANCH  11  13
ATOM     13  C   UNL     1     -61.624  21.340 -30.406  1.00  0.00    -0.002 C 
ATOM     14  C   UNL     1     -62.325  22.364 -30.986  1.00  0.00    -0.069 C 
ATOM     15  C   UNL     1     -61.697  23.721 -31.211  1.00  0.00     0.039 C 
ATOM     16  C   UNL     1     -63.774  22.216 -31.387  1.00  0.00     0.039 C 
BRANCH  13  17
ATOM     17  C   UNL     1     -62.293  20.008 -30.087  1.00  0.00     0.066 CG0
ATOM     18  G   UNL     1     -61.635  18.766 -30.664  1.00  0.00     0.000 G0
ENDBRANCH  13  17
ENDBRANCH  11  13
ENDBRANCH  10  11
ENDBRANCH   1  10
TORSDOF 0
ENDMDL
MODEL 3
REMARK VINA RESULT:    -5.320      2.112      4.660
REMARK INTER + INTRA:          -6.785
REMARK INTER:                  -7.002
REMARK INTRA:                   0.217
REMARK UNBOUND:                 0.712
REMARK SMILES CC1=CCC(=C(C)C)C(=O)CC(C)=CCC1
REMARK SMILES IDX 12 1 14 2 13 3 15 4 16 5 2 6 1 7 3 8 11 10 9 11 10 12 5 13
REMARK SMILES IDX 6 14 7 15 8 16 4 17
REMARK H PARENT
REMARK Flexibility Score: 60.00
ROOT
ATOM      1  C   UNL     1     -58.318  29.686 -23.521  1.00  0.00    -0.070 C 
ATOM      2  C   UNL     1     -57.188  30.409 -23.702  1.00  0.00    -0.027 C 
ATOM      3  C   UNL     1     -59.033  29.170 -24.743  1.00  0.00     0.039 C 
ENDROOT
BRANCH   2   4
ATOM      4  C   UNL     1     -56.434  31.121 -22.609  1.00  0.00     0.032 C 
BRANCH   4   5
ATOM      5  C   UNL     1     -55.088  30.429 -22.368  1.00  0.00     0.034 C 
BRANCH   5   6
ATOM      6  C   UNL     1     -55.106  29.537 -21.142  1.00  0.00    -0.077 C 
ATOM      7  C   UNL     1     -54.654  30.113 -19.823  1.00  0.00     0.039 C 
ATOM      8  C   UNL     1     -55.573  28.264 -21.147  1.00  0.00    -0.023 CG0
ATOM      9  G   UNL     1     -56.023  27.450 -22.348  1.00  0.00     0.000 G0
ENDBRANCH   5   6
ENDBRANCH   4   5
ENDBRANCH   2   4
BRANCH   1  10
ATOM     10  C   UNL     1     -58.885  29.355 -22.155  1.00  0.00     0.111 C 
BRANCH  10  11
ATOM     11  C   UNL     1     -58.473  27.979 -21.691  1.00  0.00     0.163 C 
ATOM     12  O   UNL     1     -58.991  27.554 -20.623  1.00  0.00    -0.294 OA
BRANCH  11  13
ATOM     13  C   UNL     1     -57.512  27.100 -22.437  1.00  0.00    -0.002 C 
ATOM     14  C   UNL     1     -57.971  26.147 -23.307  1.00  0.00    -0.069 C 
ATOM     15  C   UNL     1     -59.429  25.746 -23.340  1.00  0.00     0.039 C 
ATOM     16  C   UNL     1     -57.047  25.406 -24.245  1.00  0.00     0.039 C 
BRANCH  13  17
ATOM     17  C   UNL     1     -56.026  27.424 -22.336  1.00  0.00     0.066 CG0
ATOM     18  G   UNL     1     -55.597  28.267 -21.148  1.00  0.00     0.000 G0
ENDBRANCH  13  17
ENDBRANCH  11  13
ENDBRANCH  10  11
ENDBRANCH   1  10
TORSDOF 0
ENDMDL
MODEL 4
REMARK VINA RESULT:    -5.291      8.661     10.813
REMARK INTER + INTRA:          -6.744
REMARK INTER:                  -6.795
REMARK INTRA:                   0.051
REMARK UNBOUND:                 0.712
REMARK SMILES CC1=CCC(=C(C)C)C(=O)CC(C)=CCC1
REMARK SMILES IDX 12 1 14 2 13 3 15 4 16 5 2 6 1 7 3 8 11 10 9 11 10 12 5 13
REMARK SMILES IDX 6 14 7 15 8 16 4 17
REMARK H PARENT
REMARK Flexibility Score: 60.00
ROOT
ATOM      1  C   UNL     1     -58.536  20.980 -27.916  1.00  0.00    -0.070 C 
ATOM      2  C   UNL     1     -59.396  20.067 -27.408  1.00  0.00    -0.027 C 
ATOM      3  C   UNL     1     -58.479  22.339 -27.268  1.00  0.00     0.039 C 
ENDROOT
BRANCH   2   4
ATOM      4  C   UNL     1     -59.687  18.720 -28.019  1.00  0.00     0.032 C 
BRANCH   4   5
ATOM      5  C   UNL     1     -61.042  18.753 -28.733  1.00  0.00     0.034 C 
BRANCH   5   6
ATOM      6  C   UNL     1     -60.904  18.724 -30.242  1.00  0.00    -0.077 C 
ATOM      7  C   UNL     1     -60.882  17.386 -30.939  1.00  0.00     0.039 C 
ATOM      8  C   UNL     1     -60.871  19.838 -31.015  1.00  0.00    -0.023 CG0
ATOM      9  G   UNL     1     -60.822  21.283 -30.549  1.00  0.00     0.000 G0
ENDBRANCH   5   6
ENDBRANCH   4   5
ENDBRANCH   2   4
BRANCH   1  10
ATOM     10  C   UNL     1     -57.617  20.697 -29.088  1.00  0.00     0.111 C 
BRANCH  10  11
ATOM     11  C   UNL     1     -58.244  21.087 -30.404  1.00  0.00     0.163 C 
ATOM     12  O   UNL     1     -57.719  20.620 -31.451  1.00  0.00    -0.294 OA
BRANCH  11  13
ATOM     13  C   UNL     1     -59.452  21.969 -30.524  1.00  0.00    -0.002 C 
ATOM     14  C   UNL     1     -59.314  23.311 -30.760  1.00  0.00    -0.069 C 
ATOM     15  C   UNL     1     -57.975  24.001 -30.626  1.00  0.00     0.039 C 
ATOM     16  C   UNL     1     -60.492  24.187 -31.115  1.00  0.00     0.039 C 
BRANCH  13  17
ATOM     17  C   UNL     1     -60.822  21.300 -30.558  1.00  0.00     0.066 CG0
ATOM     18  G   UNL     1     -60.854  19.848 -31.002  1.00  0.00     0.000 G0
ENDBRANCH  13  17
ENDBRANCH  11  13
ENDBRANCH  10  11
ENDBRANCH   1  10
TORSDOF 0
ENDMDL
MODEL 5
REMARK VINA RESULT:    -5.253      1.680      3.864
REMARK INTER + INTRA:          -6.691
REMARK INTER:                  -6.550
REMARK INTRA:                  -0.141
REMARK UNBOUND:                 0.712
REMARK SMILES CC1=CCC(=C(C)C)C(=O)CC(C)=CCC1
REMARK SMILES IDX 12 1 14 2 13 3 15 4 16 5 2 6 1 7 3 8 11 10 9 11 10 12 5 13
REMARK SMILES IDX 6 14 7 15 8 16 4 17
REMARK H PARENT
REMARK Flexibility Score: 60.00
ROOT
ATOM      1  C   UNL     1     -60.563  29.306 -23.040  1.00  0.00    -0.070 C 
ATOM      2  C   UNL     1     -60.884  28.082 -23.523  1.00  0.00    -0.027 C 
ATOM      3  C   UNL     1     -61.674  30.172 -22.506  1.00  0.00     0.039 C 
ENDROOT
BRANCH   2   4
ATOM      4  C   UNL     1     -59.929  27.152 -24.224  1.00  0.00     0.032 C 
BRANCH   4   5
ATOM      5  C   UNL     1     -59.310  26.181 -23.213  1.00  0.00     0.034 C 
BRANCH   5   6
ATOM      6  C   UNL     1     -57.839  25.929 -23.474  1.00  0.00    -0.077 C 
ATOM      7  C   UNL     1     -57.452  25.072 -24.654  1.00  0.00     0.039 C 
ATOM      8  C   UNL     1     -56.840  26.490 -22.747  1.00  0.00    -0.023 CG0
ATOM      9  G   UNL     1     -56.974  27.332 -21.491  1.00  0.00     0.000 G0
ENDBRANCH   5   6
ENDBRANCH   4   5
ENDBRANCH   2   4
BRANCH   1  10
ATOM     10  C   UNL     1     -59.144  29.836 -22.993  1.00  0.00     0.111 C 
BRANCH  10  11
ATOM     11  C   UNL     1     -58.442  29.457 -21.711  1.00  0.00     0.163 C 
ATOM     12  O   UNL     1     -59.065  29.662 -20.634  1.00  0.00    -0.294 OA
BRANCH  11  13
ATOM     13  C   UNL     1     -57.074  28.842 -21.659  1.00  0.00    -0.002 C 
ATOM     14  C   UNL     1     -55.957  29.632 -21.604  1.00  0.00    -0.069 C 
ATOM     15  C   UNL     1     -56.027  31.117 -21.879  1.00  0.00     0.039 C 
ATOM     16  C   UNL     1     -54.587  29.063 -21.318  1.00  0.00     0.039 C 
BRANCH  13  17
ATOM     17  C   UNL     1     -56.980  27.330 -21.484  1.00  0.00     0.066 CG0
ATOM     18  G   UNL     1     -56.848  26.509 -22.755  1.00  0.00     0.000 G0
ENDBRANCH  13  17
ENDBRANCH  11  13
ENDBRANCH  10  11
ENDBRANCH   1  10
TORSDOF 0
ENDMDL
MODEL 6
REMARK VINA RESULT:    -5.213      1.910      4.079
REMARK INTER + INTRA:          -6.634
REMARK INTER:                  -6.854
REMARK INTRA:                   0.219
REMARK UNBOUND:                 0.712
REMARK SMILES CC1=CCC(=C(C)C)C(=O)CC(C)=CCC1
REMARK SMILES IDX 12 1 14 2 13 3 15 4 16 5 2 6 1 7 3 8 11 10 9 11 10 12 5 13
REMARK SMILES IDX 6 14 7 15 8 16 4 17
REMARK H PARENT
REMARK Flexibility Score: 60.00
ROOT
ATOM      1  C   UNL     1     -57.917  25.929 -23.230  1.00  0.00    -0.070 C 
ATOM      2  C   UNL     1     -57.338  26.594 -22.203  1.00  0.00    -0.027 C 
ATOM      3  C   UNL     1     -57.021  25.348 -24.294  1.00  0.00     0.039 C 
ENDROOT
BRANCH   2   4
ATOM      4  C   UNL     1     -58.084  27.358 -21.140  1.00  0.00     0.032 C 
BRANCH   4   5
ATOM      5  C   UNL     1     -57.941  28.864 -21.383  1.00  0.00     0.034 C 
BRANCH   5   6
ATOM      6  C   UNL     1     -59.255  29.520 -21.756  1.00  0.00    -0.077 C 
ATOM      7  C   UNL     1     -60.137  30.049 -20.651  1.00  0.00     0.039 C 
ATOM      8  C   UNL     1     -59.656  29.726 -23.035  1.00  0.00    -0.023 CG0
ATOM      9  G   UNL     1     -58.978  29.239 -24.304  1.00  0.00     0.000 G0
ENDBRANCH   5   6
ENDBRANCH   4   5
ENDBRANCH   2   4
BRANCH   1  10
ATOM     10  C   UNL     1     -59.414  25.724 -23.352  1.00  0.00     0.111 C 
BRANCH  10  11
ATOM     11  C   UNL     1     -60.105  26.937 -23.926  1.00  0.00     0.163 C 
ATOM     12  O   UNL     1     -61.295  27.144 -23.566  1.00  0.00    -0.294 OA
BRANCH  11  13
ATOM     13  C   UNL     1     -59.448  27.903 -24.869  1.00  0.00    -0.002 C 
ATOM     14  C   UNL     1     -59.420  27.651 -26.215  1.00  0.00    -0.069 C 
ATOM     15  C   UNL     1     -59.779  26.291 -26.771  1.00  0.00     0.039 C 
ATOM     16  C   UNL     1     -58.981  28.694 -27.216  1.00  0.00     0.039 C 
BRANCH  13  17
ATOM     17  C   UNL     1     -58.985  29.243 -24.308  1.00  0.00     0.066 CG0
ATOM     18  G   UNL     1     -59.666  29.714 -23.035  1.00  0.00     0.000 G0
ENDBRANCH  13  17
ENDBRANCH  11  13
ENDBRANCH  10  11
ENDBRANCH   1  10
TORSDOF 0
ENDMDL
MODEL 7
REMARK VINA RESULT:    -5.197      7.906     10.423
REMARK INTER + INTRA:          -6.612
REMARK INTER:                  -6.832
REMARK INTRA:                   0.220
REMARK UNBOUND:                 0.712
REMARK SMILES CC1=CCC(=C(C)C)C(=O)CC(C)=CCC1
REMARK SMILES IDX 12 1 14 2 13 3 15 4 16 5 2 6 1 7 3 8 11 10 9 11 10 12 5 13
REMARK SMILES IDX 6 14 7 15 8 16 4 17
REMARK H PARENT
REMARK Flexibility Score: 60.00
ROOT
ATOM      1  C   UNL     1     -60.063  22.582 -30.101  1.00  0.00    -0.070 C 
ATOM      2  C   UNL     1     -61.213  21.873 -30.184  1.00  0.00    -0.027 C 
ATOM      3  C   UNL     1     -60.141  24.005 -29.609  1.00  0.00     0.039 C 
ENDROOT
BRANCH   2   4
ATOM      4  C   UNL     1     -61.337  20.499 -30.790  1.00  0.00     0.032 C 
BRANCH   4   5
ATOM      5  C   UNL     1     -61.757  19.492 -29.714  1.00  0.00     0.034 C 
BRANCH   5   6
ATOM      6  C   UNL     1     -60.618  18.586 -29.289  1.00  0.00    -0.077 C 
ATOM      7  C   UNL     1     -60.466  17.249 -29.972  1.00  0.00     0.039 C 
ATOM      8  C   UNL     1     -59.679  18.938 -28.376  1.00  0.00    -0.023 CG0
ATOM      9  G   UNL     1     -59.649  20.193 -27.521  1.00  0.00     0.000 G0
ENDBRANCH   5   6
ENDBRANCH   4   5
ENDBRANCH   2   4
BRANCH   1  10
ATOM     10  C   UNL     1     -58.704  22.012 -30.458  1.00  0.00     0.111 C 
BRANCH  10  11
ATOM     11  C   UNL     1     -58.099  21.237 -29.313  1.00  0.00     0.163 C 
ATOM     12  O   UNL     1     -57.073  20.549 -29.565  1.00  0.00    -0.294 OA
BRANCH  11  13
ATOM     13  C   UNL     1     -58.636  21.263 -27.912  1.00  0.00    -0.002 C 
ATOM     14  C   UNL     1     -58.355  22.313 -27.078  1.00  0.00    -0.069 C 
ATOM     15  C   UNL     1     -57.284  23.325 -27.417  1.00  0.00     0.039 C 
ATOM     16  C   UNL     1     -59.057  22.493 -25.753  1.00  0.00     0.039 C 
BRANCH  13  17
ATOM     17  C   UNL     1     -59.643  20.189 -27.515  1.00  0.00     0.066 CG0
ATOM     18  G   UNL     1     -59.678  18.943 -28.382  1.00  0.00     0.000 G0
ENDBRANCH  13  17
ENDBRANCH  11  13
ENDBRANCH  10  11
ENDBRANCH   1  10
TORSDOF 0
ENDMDL
MODEL 8
REMARK VINA RESULT:    -5.167      8.012     10.532
REMARK INTER + INTRA:          -6.569
REMARK INTER:                  -7.061
REMARK INTRA:                   0.491
REMARK UNBOUND:                 0.712
REMARK SMILES CC1=CCC(=C(C)C)C(=O)CC(C)=CCC1
REMARK SMILES IDX 12 1 14 2 13 3 15 4 16 5 2 6 1 7 3 8 11 10 9 11 10 12 5 13
REMARK SMILES IDX 6 14 7 15 8 16 4 17
REMARK H PARENT
REMARK Flexibility Score: 60.00
ROOT
ATOM      1  C   UNL     1     -58.332  20.711 -28.577  1.00  0.00    -0.070 C 
ATOM      2  C   UNL     1     -58.186  21.795 -27.779  1.00  0.00    -0.027 C 
ATOM      3  C   UNL     1     -59.108  19.535 -28.041  1.00  0.00     0.039 C 
ENDROOT
BRANCH   2   4
ATOM      4  C   UNL     1     -57.324  22.989 -28.094  1.00  0.00     0.032 C 
BRANCH   4   5
ATOM      5  C   UNL     1     -57.915  23.761 -29.278  1.00  0.00     0.034 C 
BRANCH   5   6
ATOM      6  C   UNL     1     -59.409  23.973 -29.146  1.00  0.00    -0.077 C 
ATOM      7  C   UNL     1     -59.923  24.786 -27.983  1.00  0.00     0.039 C 
ATOM      8  C   UNL     1     -60.314  23.533 -30.055  1.00  0.00    -0.023 CG0
ATOM      9  G   UNL     1     -60.052  22.654 -31.266  1.00  0.00     0.000 G0
ENDBRANCH   5   6
ENDBRANCH   4   5
ENDBRANCH   2   4
BRANCH   1  10
ATOM     10  C   UNL     1     -57.772  20.630 -29.983  1.00  0.00     0.111 C 
BRANCH  10  11
ATOM     11  C   UNL     1     -58.852  20.374 -31.006  1.00  0.00     0.163 C 
ATOM     12  O   UNL     1     -58.650  19.444 -31.833  1.00  0.00    -0.294 OA
BRANCH  11  13
ATOM     13  C   UNL     1     -60.138  21.144 -31.073  1.00  0.00    -0.002 C 
ATOM     14  C   UNL     1     -61.331  20.533 -30.790  1.00  0.00    -0.069 C 
ATOM     15  C   UNL     1     -61.441  19.028 -30.684  1.00  0.00     0.039 C 
ATOM     16  C   UNL     1     -62.611  21.316 -30.618  1.00  0.00     0.039 C 
BRANCH  13  17
ATOM     17  C   UNL     1     -60.055  22.652 -31.281  1.00  0.00     0.066 CG0
ATOM     18  G   UNL     1     -60.302  23.518 -30.058  1.00  0.00     0.000 G0
ENDBRANCH  13  17
ENDBRANCH  11  13
ENDBRANCH  10  11
ENDBRANCH   1  10
TORSDOF 0
ENDMDL
MODEL 9
REMARK VINA RESULT:    -5.134      7.473      9.436
REMARK INTER + INTRA:          -6.523
REMARK INTER:                  -6.405
REMARK INTRA:                  -0.117
REMARK UNBOUND:                 0.712
REMARK SMILES CC1=CCC(=C(C)C)C(=O)CC(C)=CCC1
REMARK SMILES IDX 12 1 14 2 13 3 15 4 16 5 2 6 1 7 3 8 11 10 9 11 10 12 5 13
REMARK SMILES IDX 6 14 7 15 8 16 4 17
REMARK H PARENT
REMARK Flexibility Score: 60.00
ROOT
ATOM      1  C   UNL     1     -57.713  22.649 -27.679  1.00  0.00    -0.070 C 
ATOM      2  C   UNL     1     -57.271  21.431 -28.072  1.00  0.00    -0.027 C 
ATOM      3  C   UNL     1     -56.771  23.527 -26.896  1.00  0.00     0.039 C 
ENDROOT
BRANCH   2   4
ATOM      4  C   UNL     1     -58.121  20.375 -28.729  1.00  0.00     0.032 C 
BRANCH   4   5
ATOM      5  C   UNL     1     -58.074  20.541 -30.252  1.00  0.00     0.034 C 
BRANCH   5   6
ATOM      6  C   UNL     1     -59.442  20.417 -30.892  1.00  0.00    -0.077 C 
ATOM      7  C   UNL     1     -60.098  19.059 -30.937  1.00  0.00     0.039 C 
ATOM      8  C   UNL     1     -60.147  21.474 -31.368  1.00  0.00    -0.023 CG0
ATOM      9  G   UNL     1     -59.682  22.915 -31.486  1.00  0.00     0.000 G0
ENDBRANCH   5   6
ENDBRANCH   4   5
ENDBRANCH   2   4
BRANCH   1  10
ATOM     10  C   UNL     1     -59.096  23.178 -28.005  1.00  0.00     0.111 C 
BRANCH  10  11
ATOM     11  C   UNL     1     -59.092  24.044 -29.242  1.00  0.00     0.163 C 
ATOM     12  O   UNL     1     -58.205  24.937 -29.315  1.00  0.00    -0.294 OA
BRANCH  11  13
ATOM     13  C   UNL     1     -60.060  23.881 -30.377  1.00  0.00    -0.002 C 
ATOM     14  C   UNL     1     -61.162  24.688 -30.473  1.00  0.00    -0.069 C 
ATOM     15  C   UNL     1     -61.602  25.563 -29.320  1.00  0.00     0.039 C 
ATOM     16  C   UNL     1     -62.030  24.716 -31.709  1.00  0.00     0.039 C 
BRANCH  13  17
ATOM     17  C   UNL     1     -59.683  22.925 -31.503  1.00  0.00     0.066 CG0
ATOM     18  G   UNL     1     -60.155  21.489 -31.357  1.00  0.00     0.000 G0
ENDBRANCH  13  17
ENDBRANCH  11  13
ENDBRANCH  10  11
ENDBRANCH   1  10
TORSDOF 0
ENDMDL
