MODEL 1
REMARK VINA RESULT:    -4.662      0.000      0.000
REMARK INTER + INTRA:          -5.029
REMARK INTER:                  -4.935
REMARK INTRA:                  -0.094
REMARK UNBOUND:                -0.094
REMARK SMILES C=C(C)[C@H]1CC=C(C)C(=O)C1
REMARK SMILES IDX 8 1 7 2 6 3 5 4 4 5 11 6 9 7 10 8 2 9 1 10 3 11
REMARK H PARENT
REMARK Flexibility Score: inf
ROOT
ATOM      1  C   UNL     1       9.994  43.163  20.285  1.00  0.00     0.048 C 
ATOM      2  C   UNL     1      11.003  44.070  19.634  1.00  0.00    -0.012 C 
ATOM      3  C   UNL     1      12.255  43.635  19.410  1.00  0.00    -0.019 C 
ATOM      4  C   UNL     1      13.321  44.531  18.836  1.00  0.00     0.036 C 
ATOM      5  C   UNL     1      12.711  45.590  17.898  1.00  0.00     0.025 C 
ATOM      6  C   UNL     1      11.613  46.384  18.629  1.00  0.00     0.089 C 
ATOM      7  C   UNL     1      10.616  45.453  19.262  1.00  0.00     0.158 C 
ATOM      8  O   UNL     1       9.456  45.875  19.515  1.00  0.00    -0.295 OA
ENDROOT
BRANCH   5   9
ATOM      9  C   UNL     1      13.781  46.513  17.330  1.00  0.00    -0.077 C 
ATOM     10  C   UNL     1      13.465  47.403  16.375  1.00  0.00     0.008 C 
ATOM     11  C   UNL     1      15.207  46.459  17.819  1.00  0.00     0.039 C 
ENDBRANCH   5   9
TORSDOF 1
ENDMDL
MODEL 2
REMARK VINA RESULT:    -4.614      2.201      4.171
REMARK INTER + INTRA:          -4.978
REMARK INTER:                  -4.880
REMARK INTRA:                  -0.098
REMARK UNBOUND:                -0.094
REMARK SMILES C=C(C)[C@H]1CC=C(C)C(=O)C1
REMARK SMILES IDX 8 1 7 2 6 3 5 4 4 5 11 6 9 7 10 8 2 9 1 10 3 11
REMARK H PARENT
REMARK Flexibility Score: inf
ROOT
ATOM      1  C   UNL     1      16.199  44.405  18.580  1.00  0.00     0.048 C 
ATOM      2  C   UNL     1      14.739  44.756  18.674  1.00  0.00    -0.012 C 
ATOM      3  C   UNL     1      13.868  43.881  19.205  1.00  0.00    -0.019 C 
ATOM      4  C   UNL     1      12.387  44.153  19.246  1.00  0.00     0.036 C 
ATOM      5  C   UNL     1      12.102  45.662  19.358  1.00  0.00     0.025 C 
ATOM      6  C   UNL     1      12.804  46.425  18.220  1.00  0.00     0.089 C 
ATOM      7  C   UNL     1      14.262  46.062  18.157  1.00  0.00     0.158 C 
ATOM      8  O   UNL     1      15.071  46.862  17.616  1.00  0.00    -0.295 OA
ENDROOT
BRANCH   5   9
ATOM      9  C   UNL     1      10.606  45.947  19.380  1.00  0.00    -0.077 C 
ATOM     10  C   UNL     1       9.736  44.962  19.658  1.00  0.00     0.008 C 
ATOM     11  C   UNL     1      10.064  47.326  19.096  1.00  0.00     0.039 C 
ENDBRANCH   5   9
TORSDOF 1
ENDMDL
MODEL 3
REMARK VINA RESULT:    -4.538      1.390      2.288
REMARK INTER + INTRA:          -4.898
REMARK INTER:                  -4.807
REMARK INTRA:                  -0.091
REMARK UNBOUND:                -0.094
REMARK SMILES C=C(C)[C@H]1CC=C(C)C(=O)C1
REMARK SMILES IDX 8 1 7 2 6 3 5 4 4 5 11 6 9 7 10 8 2 9 1 10 3 11
REMARK H PARENT
REMARK Flexibility Score: inf
ROOT
ATOM      1  C   UNL     1       9.928  43.750  20.628  1.00  0.00     0.048 C 
ATOM      2  C   UNL     1      10.912  44.477  19.751  1.00  0.00    -0.012 C 
ATOM      3  C   UNL     1      10.696  45.760  19.416  1.00  0.00    -0.019 C 
ATOM      4  C   UNL     1      11.608  46.505  18.476  1.00  0.00     0.036 C 
ATOM      5  C   UNL     1      13.054  45.985  18.577  1.00  0.00     0.025 C 
ATOM      6  C   UNL     1      13.093  44.464  18.345  1.00  0.00     0.089 C 
ATOM      7  C   UNL     1      12.108  43.763  19.239  1.00  0.00     0.158 C 
ATOM      8  O   UNL     1      12.285  42.547  19.515  1.00  0.00    -0.295 OA
ENDROOT
BRANCH   5   9
ATOM      9  C   UNL     1      13.978  46.719  17.614  1.00  0.00    -0.077 C 
ATOM     10  C   UNL     1      15.300  46.764  17.852  1.00  0.00     0.008 C 
ATOM     11  C   UNL     1      13.445  47.404  16.381  1.00  0.00     0.039 C 
ENDBRANCH   5   9
TORSDOF 1
ENDMDL
MODEL 4
REMARK VINA RESULT:    -4.408      2.342      4.252
REMARK INTER + INTRA:          -4.760
REMARK INTER:                  -4.662
REMARK INTRA:                  -0.098
REMARK UNBOUND:                -0.094
REMARK SMILES C=C(C)[C@H]1CC=C(C)C(=O)C1
REMARK SMILES IDX 8 1 7 2 6 3 5 4 4 5 11 6 9 7 10 8 2 9 1 10 3 11
REMARK H PARENT
REMARK Flexibility Score: inf
ROOT
ATOM      1  C   UNL     1      16.185  44.042  18.759  1.00  0.00     0.048 C 
ATOM      2  C   UNL     1      14.769  44.487  19.008  1.00  0.00    -0.012 C 
ATOM      3  C   UNL     1      14.469  45.797  19.035  1.00  0.00    -0.019 C 
ATOM      4  C   UNL     1      13.084  46.293  19.361  1.00  0.00     0.036 C 
ATOM      5  C   UNL     1      12.012  45.283  18.911  1.00  0.00     0.025 C 
ATOM      6  C   UNL     1      12.294  43.897  19.519  1.00  0.00     0.089 C 
ATOM      7  C   UNL     1      13.711  43.474  19.247  1.00  0.00     0.158 C 
ATOM      8  O   UNL     1      14.002  42.249  19.269  1.00  0.00    -0.295 OA
ENDROOT
BRANCH   5   9
ATOM      9  C   UNL     1      10.610  45.767  19.256  1.00  0.00    -0.077 C 
ATOM     10  C   UNL     1       9.699  44.906  19.737  1.00  0.00     0.008 C 
ATOM     11  C   UNL     1      10.211  47.210  19.072  1.00  0.00     0.039 C 
ENDBRANCH   5   9
TORSDOF 1
ENDMDL
MODEL 5
REMARK VINA RESULT:    -4.406      1.387      2.976
REMARK INTER + INTRA:          -4.758
REMARK INTER:                  -4.659
REMARK INTRA:                  -0.098
REMARK UNBOUND:                -0.094
REMARK SMILES C=C(C)[C@H]1CC=C(C)C(=O)C1
REMARK SMILES IDX 8 1 7 2 6 3 5 4 4 5 11 6 9 7 10 8 2 9 1 10 3 11
REMARK H PARENT
REMARK Flexibility Score: inf
ROOT
ATOM      1  C   UNL     1       9.813  47.611  18.744  1.00  0.00     0.048 C 
ATOM      2  C   UNL     1      10.987  46.670  18.715  1.00  0.00    -0.012 C 
ATOM      3  C   UNL     1      12.019  46.904  17.887  1.00  0.00    -0.019 C 
ATOM      4  C   UNL     1      13.177  45.949  17.764  1.00  0.00     0.036 C 
ATOM      5  C   UNL     1      13.427  45.205  19.089  1.00  0.00     0.025 C 
ATOM      6  C   UNL     1      12.140  44.503  19.560  1.00  0.00     0.089 C 
ATOM      7  C   UNL     1      10.988  45.469  19.587  1.00  0.00     0.158 C 
ATOM      8  O   UNL     1       9.998  45.225  20.328  1.00  0.00    -0.295 OA
ENDROOT
BRANCH   5   9
ATOM      9  C   UNL     1      14.583  44.221  18.966  1.00  0.00    -0.077 C 
ATOM     10  C   UNL     1      14.495  43.004  19.525  1.00  0.00     0.008 C 
ATOM     11  C   UNL     1      15.844  44.580  18.219  1.00  0.00     0.039 C 
ENDBRANCH   5   9
TORSDOF 1
ENDMDL
MODEL 6
REMARK VINA RESULT:    -4.403      6.168      7.567
REMARK INTER + INTRA:          -4.754
REMARK INTER:                  -4.658
REMARK INTRA:                  -0.097
REMARK UNBOUND:                -0.094
REMARK SMILES C=C(C)[C@H]1CC=C(C)C(=O)C1
REMARK SMILES IDX 8 1 7 2 6 3 5 4 4 5 11 6 9 7 10 8 2 9 1 10 3 11
REMARK H PARENT
REMARK Flexibility Score: inf
ROOT
ATOM      1  C   UNL     1      18.090  43.758  19.892  1.00  0.00     0.048 C 
ATOM      2  C   UNL     1      18.548  45.138  20.282  1.00  0.00    -0.012 C 
ATOM      3  C   UNL     1      19.859  45.435  20.293  1.00  0.00    -0.019 C 
ATOM      4  C   UNL     1      20.369  46.776  20.753  1.00  0.00     0.036 C 
ATOM      5  C   UNL     1      19.346  47.890  20.465  1.00  0.00     0.025 C 
ATOM      6  C   UNL     1      17.983  47.539  21.089  1.00  0.00     0.089 C 
ATOM      7  C   UNL     1      17.547  46.160  20.676  1.00  0.00     0.158 C 
ATOM      8  O   UNL     1      16.323  45.866  20.711  1.00  0.00    -0.295 OA
ENDROOT
BRANCH   5   9
ATOM      9  C   UNL     1      19.846  49.245  20.946  1.00  0.00    -0.077 C 
ATOM     10  C   UNL     1      19.612  49.641  22.208  1.00  0.00     0.008 C 
ATOM     11  C   UNL     1      20.613  50.169  20.032  1.00  0.00     0.039 C 
ENDBRANCH   5   9
TORSDOF 1
ENDMDL
MODEL 7
REMARK VINA RESULT:    -4.298      2.071      3.002
REMARK INTER + INTRA:          -4.643
REMARK INTER:                  -4.546
REMARK INTRA:                  -0.097
REMARK UNBOUND:                -0.094
REMARK SMILES C=C(C)[C@H]1CC=C(C)C(=O)C1
REMARK SMILES IDX 8 1 7 2 6 3 5 4 4 5 11 6 9 7 10 8 2 9 1 10 3 11
REMARK H PARENT
REMARK Flexibility Score: inf
ROOT
ATOM      1  C   UNL     1       9.940  45.141  19.797  1.00  0.00     0.048 C 
ATOM      2  C   UNL     1      11.435  45.070  19.640  1.00  0.00    -0.012 C 
ATOM      3  C   UNL     1      12.155  46.199  19.521  1.00  0.00    -0.019 C 
ATOM      4  C   UNL     1      13.642  46.177  19.280  1.00  0.00     0.036 C 
ATOM      5  C   UNL     1      14.290  44.933  19.918  1.00  0.00     0.025 C 
ATOM      6  C   UNL     1      13.598  43.653  19.416  1.00  0.00     0.089 C 
ATOM      7  C   UNL     1      12.108  43.748  19.593  1.00  0.00     0.158 C 
ATOM      8  O   UNL     1      11.427  42.690  19.657  1.00  0.00    -0.295 OA
ENDROOT
BRANCH   5   9
ATOM      9  C   UNL     1      15.790  44.893  19.661  1.00  0.00    -0.077 C 
ATOM     10  C   UNL     1      16.276  44.204  18.615  1.00  0.00     0.008 C 
ATOM     11  C   UNL     1      16.761  45.618  20.559  1.00  0.00     0.039 C 
ENDBRANCH   5   9
TORSDOF 1
ENDMDL
MODEL 8
REMARK VINA RESULT:    -4.227      6.642      7.892
REMARK INTER + INTRA:          -4.568
REMARK INTER:                  -4.472
REMARK INTRA:                  -0.096
REMARK UNBOUND:                -0.094
REMARK SMILES C=C(C)[C@H]1CC=C(C)C(=O)C1
REMARK SMILES IDX 8 1 7 2 6 3 5 4 4 5 11 6 9 7 10 8 2 9 1 10 3 11
REMARK H PARENT
REMARK Flexibility Score: inf
ROOT
ATOM      1  C   UNL     1      17.909  43.546  21.004  1.00  0.00     0.048 C 
ATOM      2  C   UNL     1      18.323  44.980  20.817  1.00  0.00    -0.012 C 
ATOM      3  C   UNL     1      17.396  45.953  20.800  1.00  0.00    -0.019 C 
ATOM      4  C   UNL     1      17.753  47.393  20.535  1.00  0.00     0.036 C 
ATOM      5  C   UNL     1      19.174  47.714  21.034  1.00  0.00     0.025 C 
ATOM      6  C   UNL     1      20.192  46.737  20.417  1.00  0.00     0.089 C 
ATOM      7  C   UNL     1      19.757  45.313  20.627  1.00  0.00     0.158 C 
ATOM      8  O   UNL     1      20.620  44.396  20.595  1.00  0.00    -0.295 OA
ENDROOT
BRANCH   5   9
ATOM      9  C   UNL     1      19.551  49.162  20.751  1.00  0.00    -0.077 C 
ATOM     10  C   UNL     1      19.366  49.679  19.525  1.00  0.00     0.008 C 
ATOM     11  C   UNL     1      20.130  50.048  21.826  1.00  0.00     0.039 C 
ENDBRANCH   5   9
TORSDOF 1
ENDMDL
MODEL 9
REMARK VINA RESULT:    -4.138      2.716      3.967
REMARK INTER + INTRA:          -4.474
REMARK INTER:                  -4.377
REMARK INTRA:                  -0.097
REMARK UNBOUND:                -0.094
REMARK SMILES C=C(C)[C@H]1CC=C(C)C(=O)C1
REMARK SMILES IDX 8 1 7 2 6 3 5 4 4 5 11 6 9 7 10 8 2 9 1 10 3 11
REMARK H PARENT
REMARK Flexibility Score: inf
ROOT
ATOM      1  C   UNL     1      11.449  46.624  18.718  1.00  0.00     0.048 C 
ATOM      2  C   UNL     1      12.879  46.263  19.017  1.00  0.00    -0.012 C 
ATOM      3  C   UNL     1      13.216  45.791  20.229  1.00  0.00    -0.019 C 
ATOM      4  C   UNL     1      14.645  45.492  20.601  1.00  0.00     0.036 C 
ATOM      5  C   UNL     1      15.461  45.059  19.370  1.00  0.00     0.025 C 
ATOM      6  C   UNL     1      15.357  46.119  18.258  1.00  0.00     0.089 C 
ATOM      7  C   UNL     1      13.918  46.453  17.975  1.00  0.00     0.158 C 
ATOM      8  O   UNL     1      13.609  46.940  16.855  1.00  0.00    -0.295 OA
ENDROOT
BRANCH   5   9
ATOM      9  C   UNL     1      16.912  44.776  19.734  1.00  0.00    -0.077 C 
ATOM     10  C   UNL     1      17.549  45.557  20.622  1.00  0.00     0.008 C 
ATOM     11  C   UNL     1      17.666  43.622  19.120  1.00  0.00     0.039 C 
ENDBRANCH   5   9
TORSDOF 1
ENDMDL
