MODEL 1
REMARK VINA RESULT:    -5.603      0.000      0.000
REMARK INTER + INTRA:         -16.053
REMARK INTER:                 -12.810
REMARK INTRA:                  -3.243
REMARK UNBOUND:                -3.243
REMARK SMILES CCCCCCCCCCCCCCCCCCCCCCCC(=O)[O-]
REMARK SMILES IDX 13 1 14 2 15 3 16 4 17 5 18 6 19 7 20 8 21 9 22 10 23 11
REMARK SMILES IDX 24 12 25 13 26 14 12 15 11 16 10 17 9 18 8 19 7 20 6 21 5 22
REMARK SMILES IDX 4 23 3 24 2 25 1 26
REMARK H PARENT
REMARK Flexibility Score: inf
ROOT
ATOM      1  C   UNL     1      10.989   2.820 -31.664  1.00  0.00     0.000 C 
ENDROOT
BRANCH   1   2
ATOM      2  C   UNL     1      12.226   3.469 -31.025  1.00  0.00     0.000 C 
BRANCH   2   3
ATOM      3  C   UNL     1      13.510   2.751 -31.461  1.00  0.00     0.000 C 
BRANCH   3   4
ATOM      4  C   UNL     1      13.829   3.039 -32.932  1.00  0.00     0.000 C 
BRANCH   4   5
ATOM      5  C   UNL     1      13.816   1.746 -33.761  1.00  0.00     0.000 C 
BRANCH   5   6
ATOM      6  C   UNL     1      13.207   1.936 -35.162  1.00  0.00     0.000 C 
BRANCH   6   7
ATOM      7  C   UNL     1      11.831   2.627 -35.184  1.00  0.00     0.000 C 
BRANCH   7   8
ATOM      8  C   UNL     1      10.786   1.857 -36.006  1.00  0.00     0.000 C 
BRANCH   8   9
ATOM      9  C   UNL     1       9.587   1.459 -35.135  1.00  0.00     0.000 C 
BRANCH   9  10
ATOM     10  C   UNL     1       8.233   1.837 -35.763  1.00  0.00     0.006 C 
BRANCH  10  11
ATOM     11  C   UNL     1       7.430   0.634 -36.289  1.00  0.00     0.053 C 
BRANCH  11  12
ATOM     12  C   UNL     1       8.158  -0.125 -37.356  1.00  0.00     0.041 C 
ATOM     13  O   UNL     1       8.290  -1.375 -37.270  1.00  0.00    -0.550 OA
ATOM     14  O   UNL     1       8.721   0.551 -38.430  1.00  0.00    -0.550 OA
ENDBRANCH  11  12
ENDBRANCH  10  11
ENDBRANCH   9  10
ENDBRANCH   8   9
ENDBRANCH   7   8
ENDBRANCH   6   7
ENDBRANCH   5   6
ENDBRANCH   4   5
ENDBRANCH   3   4
ENDBRANCH   2   3
ENDBRANCH   1   2
BRANCH   1  15
ATOM     15  C   UNL     1      10.563   1.525 -30.952  1.00  0.00     0.000 C 
BRANCH  15  16
ATOM     16  C   UNL     1      10.608   1.655 -29.420  1.00  0.00     0.000 C 
BRANCH  16  17
ATOM     17  C   UNL     1      10.147   0.377 -28.695  1.00  0.00     0.000 C 
BRANCH  17  18
ATOM     18  C   UNL     1       9.392   0.604 -27.371  1.00  0.00    -0.000 C 
BRANCH  18  19
ATOM     19  C   UNL     1       7.907   0.945 -27.578  1.00  0.00    -0.000 C 
BRANCH  19  20
ATOM     20  C   UNL     1       7.151  -0.118 -28.396  1.00  0.00    -0.000 C 
BRANCH  20  21
ATOM     21  C   UNL     1       6.548   0.374 -29.725  1.00  0.00    -0.000 C 
BRANCH  21  22
ATOM     22  C   UNL     1       6.800   1.868 -29.985  1.00  0.00    -0.000 C 
BRANCH  22  23
ATOM     23  C   UNL     1       7.055   2.184 -31.470  1.00  0.00    -0.000 C 
BRANCH  23  24
ATOM     24  C   UNL     1       6.859   1.001 -32.441  1.00  0.00    -0.000 C 
BRANCH  24  25
ATOM     25  C   UNL     1       5.468   0.919 -33.095  1.00  0.00    -0.003 C 
ATOM     26  C   UNL     1       5.117  -0.489 -33.571  1.00  0.00     0.004 C 
ENDBRANCH  24  25
ENDBRANCH  23  24
ENDBRANCH  22  23
ENDBRANCH  21  22
ENDBRANCH  20  21
ENDBRANCH  19  20
ENDBRANCH  18  19
ENDBRANCH  17  18
ENDBRANCH  16  17
ENDBRANCH  15  16
ENDBRANCH   1  15
TORSDOF 22
ENDMDL
MODEL 2
REMARK VINA RESULT:    -5.239      8.598     11.427
REMARK INTER + INTRA:         -15.221
REMARK INTER:                 -11.939
REMARK INTRA:                  -3.282
REMARK UNBOUND:                -3.243
REMARK SMILES CCCCCCCCCCCCCCCCCCCCCCCC(=O)[O-]
REMARK SMILES IDX 13 1 14 2 15 3 16 4 17 5 18 6 19 7 20 8 21 9 22 10 23 11
REMARK SMILES IDX 24 12 25 13 26 14 12 15 11 16 10 17 9 18 8 19 7 20 6 21 5 22
REMARK SMILES IDX 4 23 3 24 2 25 1 26
REMARK H PARENT
REMARK Flexibility Score: inf
ROOT
ATOM      1  C   UNL     1       4.030  -8.531 -33.280  1.00  0.00     0.000 C 
ENDROOT
BRANCH   1   2
ATOM      2  C   UNL     1       4.309  -9.678 -34.263  1.00  0.00     0.000 C 
BRANCH   2   3
ATOM      3  C   UNL     1       4.994 -10.854 -33.556  1.00  0.00     0.000 C 
BRANCH   3   4
ATOM      4  C   UNL     1       6.406 -11.080 -34.108  1.00  0.00     0.000 C 
BRANCH   4   5
ATOM      5  C   UNL     1       7.459 -10.399 -33.220  1.00  0.00     0.000 C 
BRANCH   5   6
ATOM      6  C   UNL     1       7.730  -8.938 -33.622  1.00  0.00     0.000 C 
BRANCH   6   7
ATOM      7  C   UNL     1       8.524  -8.116 -32.590  1.00  0.00     0.000 C 
BRANCH   7   8
ATOM      8  C   UNL     1       7.896  -6.743 -32.305  1.00  0.00     0.000 C 
BRANCH   8   9
ATOM      9  C   UNL     1       6.944  -6.330 -33.436  1.00  0.00     0.000 C 
BRANCH   9  10
ATOM     10  C   UNL     1       7.532  -5.240 -34.351  1.00  0.00     0.006 C 
BRANCH  10  11
ATOM     11  C   UNL     1       6.691  -4.961 -35.610  1.00  0.00     0.053 C 
BRANCH  11  12
ATOM     12  C   UNL     1       6.596  -3.502 -35.932  1.00  0.00     0.041 C 
ATOM     13  O   UNL     1       7.443  -2.962 -36.692  1.00  0.00    -0.550 OA
ATOM     14  O   UNL     1       5.593  -2.727 -35.365  1.00  0.00    -0.550 OA
ENDBRANCH  11  12
ENDBRANCH  10  11
ENDBRANCH   9  10
ENDBRANCH   8   9
ENDBRANCH   7   8
ENDBRANCH   6   7
ENDBRANCH   5   6
ENDBRANCH   4   5
ENDBRANCH   3   4
ENDBRANCH   2   3
ENDBRANCH   1   2
BRANCH   1  15
ATOM     15  C   UNL     1       4.406  -8.886 -31.832  1.00  0.00     0.000 C 
BRANCH  15  16
ATOM     16  C   UNL     1       4.471  -7.647 -30.921  1.00  0.00     0.000 C 
BRANCH  16  17
ATOM     17  C   UNL     1       5.492  -7.796 -29.778  1.00  0.00     0.000 C 
BRANCH  17  18
ATOM     18  C   UNL     1       6.167  -9.176 -29.669  1.00  0.00    -0.000 C 
BRANCH  18  19
ATOM     19  C   UNL     1       7.594  -9.102 -29.101  1.00  0.00    -0.000 C 
BRANCH  19  20
ATOM     20  C   UNL     1       8.002  -7.681 -28.674  1.00  0.00    -0.000 C 
BRANCH  20  21
ATOM     21  C   UNL     1       9.310  -7.580 -27.867  1.00  0.00    -0.000 C 
BRANCH  21  22
ATOM     22  C   UNL     1      10.231  -8.797 -28.057  1.00  0.00    -0.000 C 
BRANCH  22  23
ATOM     23  C   UNL     1      10.577  -9.500 -26.732  1.00  0.00    -0.000 C 
BRANCH  23  24
ATOM     24  C   UNL     1      10.156 -10.982 -26.641  1.00  0.00    -0.000 C 
BRANCH  24  25
ATOM     25  C   UNL     1      10.177 -11.578 -25.223  1.00  0.00    -0.003 C 
ATOM     26  C   UNL     1       9.201 -12.741 -25.052  1.00  0.00     0.004 C 
ENDBRANCH  24  25
ENDBRANCH  23  24
ENDBRANCH  22  23
ENDBRANCH  21  22
ENDBRANCH  20  21
ENDBRANCH  19  20
ENDBRANCH  18  19
ENDBRANCH  17  18
ENDBRANCH  16  17
ENDBRANCH  15  16
ENDBRANCH   1  15
TORSDOF 22
ENDMDL
MODEL 3
REMARK VINA RESULT:    -5.206      6.360     10.039
REMARK INTER + INTRA:         -15.144
REMARK INTER:                 -12.830
REMARK INTRA:                  -2.314
REMARK UNBOUND:                -3.243
REMARK SMILES CCCCCCCCCCCCCCCCCCCCCCCC(=O)[O-]
REMARK SMILES IDX 13 1 14 2 15 3 16 4 17 5 18 6 19 7 20 8 21 9 22 10 23 11
REMARK SMILES IDX 24 12 25 13 26 14 12 15 11 16 10 17 9 18 8 19 7 20 6 21 5 22
REMARK SMILES IDX 4 23 3 24 2 25 1 26
REMARK H PARENT
REMARK Flexibility Score: inf
ROOT
ATOM      1  C   UNL     1       6.788  -5.019 -36.033  1.00  0.00     0.000 C 
ENDROOT
BRANCH   1   2
ATOM      2  C   UNL     1       7.116  -5.127 -34.535  1.00  0.00     0.000 C 
BRANCH   2   3
ATOM      3  C   UNL     1       6.978  -6.574 -34.047  1.00  0.00     0.000 C 
BRANCH   3   4
ATOM      4  C   UNL     1       5.842  -7.296 -34.780  1.00  0.00     0.000 C 
BRANCH   4   5
ATOM      5  C   UNL     1       5.460  -8.597 -34.057  1.00  0.00     0.000 C 
BRANCH   5   6
ATOM      6  C   UNL     1       4.069  -8.533 -33.401  1.00  0.00     0.000 C 
BRANCH   6   7
ATOM      7  C   UNL     1       4.070  -8.135 -31.913  1.00  0.00     0.000 C 
BRANCH   7   8
ATOM      8  C   UNL     1       5.193  -8.812 -31.113  1.00  0.00     0.000 C 
BRANCH   8   9
ATOM      9  C   UNL     1       5.926  -7.795 -30.228  1.00  0.00     0.000 C 
BRANCH   9  10
ATOM     10  C   UNL     1       7.452  -7.801 -30.439  1.00  0.00     0.006 C 
BRANCH  10  11
ATOM     11  C   UNL     1       7.964  -8.994 -31.265  1.00  0.00     0.053 C 
BRANCH  11  12
ATOM     12  C   UNL     1       8.620 -10.044 -30.422  1.00  0.00     0.041 C 
ATOM     13  O   UNL     1       9.861 -10.244 -30.507  1.00  0.00    -0.550 OA
ATOM     14  O   UNL     1       7.857 -10.826 -29.565  1.00  0.00    -0.550 OA
ENDBRANCH  11  12
ENDBRANCH  10  11
ENDBRANCH   9  10
ENDBRANCH   8   9
ENDBRANCH   7   8
ENDBRANCH   6   7
ENDBRANCH   5   6
ENDBRANCH   4   5
ENDBRANCH   3   4
ENDBRANCH   2   3
ENDBRANCH   1   2
BRANCH   1  15
ATOM     15  C   UNL     1       5.834  -3.855 -36.349  1.00  0.00     0.000 C 
BRANCH  15  16
ATOM     16  C   UNL     1       6.250  -2.548 -35.652  1.00  0.00     0.000 C 
BRANCH  16  17
ATOM     17  C   UNL     1       5.079  -1.851 -34.935  1.00  0.00     0.000 C 
BRANCH  17  18
ATOM     18  C   UNL     1       5.274  -0.349 -34.658  1.00  0.00    -0.000 C 
BRANCH  18  19
ATOM     19  C   UNL     1       5.503  -0.037 -33.170  1.00  0.00    -0.000 C 
BRANCH  19  20
ATOM     20  C   UNL     1       6.523   1.093 -32.939  1.00  0.00    -0.000 C 
BRANCH  20  21
ATOM     21  C   UNL     1       6.988   1.835 -34.206  1.00  0.00    -0.000 C 
BRANCH  21  22
ATOM     22  C   UNL     1       8.358   1.359 -34.714  1.00  0.00    -0.000 C 
BRANCH  22  23
ATOM     23  C   UNL     1       8.725   1.943 -36.090  1.00  0.00    -0.000 C 
BRANCH  23  24
ATOM     24  C   UNL     1       8.033   1.276 -37.298  1.00  0.00    -0.000 C 
BRANCH  24  25
ATOM     25  C   UNL     1       8.950   0.404 -38.173  1.00  0.00    -0.003 C 
ATOM     26  C   UNL     1       8.521  -1.062 -38.207  1.00  0.00     0.004 C 
ENDBRANCH  24  25
ENDBRANCH  23  24
ENDBRANCH  22  23
ENDBRANCH  21  22
ENDBRANCH  20  21
ENDBRANCH  19  20
ENDBRANCH  18  19
ENDBRANCH  17  18
ENDBRANCH  16  17
ENDBRANCH  15  16
ENDBRANCH   1  15
TORSDOF 22
ENDMDL
MODEL 4
REMARK VINA RESULT:    -5.204      6.737      9.632
REMARK INTER + INTRA:         -15.140
REMARK INTER:                 -12.221
REMARK INTRA:                  -2.918
REMARK UNBOUND:                -3.243
REMARK SMILES CCCCCCCCCCCCCCCCCCCCCCCC(=O)[O-]
REMARK SMILES IDX 13 1 14 2 15 3 16 4 17 5 18 6 19 7 20 8 21 9 22 10 23 11
REMARK SMILES IDX 24 12 25 13 26 14 12 15 11 16 10 17 9 18 8 19 7 20 6 21 5 22
REMARK SMILES IDX 4 23 3 24 2 25 1 26
REMARK H PARENT
REMARK Flexibility Score: inf
ROOT
ATOM      1  C   UNL     1       9.769  -7.451 -27.845  1.00  0.00     0.000 C 
ENDROOT
BRANCH   1   2
ATOM      2  C   UNL     1       8.464  -6.772 -28.288  1.00  0.00     0.000 C 
BRANCH   2   3
ATOM      3  C   UNL     1       8.752  -5.569 -29.195  1.00  0.00     0.000 C 
BRANCH   3   4
ATOM      4  C   UNL     1       7.583  -4.578 -29.181  1.00  0.00     0.000 C 
BRANCH   4   5
ATOM      5  C   UNL     1       7.618  -3.703 -27.919  1.00  0.00     0.000 C 
BRANCH   5   6
ATOM      6  C   UNL     1       6.226  -3.197 -27.499  1.00  0.00     0.000 C 
BRANCH   6   7
ATOM      7  C   UNL     1       6.215  -2.264 -26.274  1.00  0.00     0.000 C 
BRANCH   7   8
ATOM      8  C   UNL     1       6.152  -0.777 -26.655  1.00  0.00     0.000 C 
BRANCH   8   9
ATOM      9  C   UNL     1       7.550  -0.144 -26.630  1.00  0.00     0.000 C 
BRANCH   9  10
ATOM     10  C   UNL     1       7.796   0.821 -27.804  1.00  0.00     0.006 C 
BRANCH  10  11
ATOM     11  C   UNL     1       7.343   0.273 -29.169  1.00  0.00     0.053 C 
BRANCH  11  12
ATOM     12  C   UNL     1       7.581   1.240 -30.289  1.00  0.00     0.041 C 
ATOM     13  O   UNL     1       8.752   1.472 -30.690  1.00  0.00    -0.550 OA
ATOM     14  O   UNL     1       6.512   1.911 -30.868  1.00  0.00    -0.550 OA
ENDBRANCH  11  12
ENDBRANCH  10  11
ENDBRANCH   9  10
ENDBRANCH   8   9
ENDBRANCH   7   8
ENDBRANCH   6   7
ENDBRANCH   5   6
ENDBRANCH   4   5
ENDBRANCH   3   4
ENDBRANCH   2   3
ENDBRANCH   1   2
BRANCH   1  15
ATOM     15  C   UNL     1       9.810  -8.947 -28.200  1.00  0.00     0.000 C 
BRANCH  15  16
ATOM     16  C   UNL     1      10.076  -9.189 -29.695  1.00  0.00     0.000 C 
BRANCH  16  17
ATOM     17  C   UNL     1       8.888  -9.851 -30.418  1.00  0.00     0.000 C 
BRANCH  17  18
ATOM     18  C   UNL     1       7.851 -10.526 -29.501  1.00  0.00    -0.000 C 
BRANCH  18  19
ATOM     19  C   UNL     1       6.403 -10.145 -29.851  1.00  0.00    -0.000 C 
BRANCH  19  20
ATOM     20  C   UNL     1       5.894  -8.923 -29.065  1.00  0.00    -0.000 C 
BRANCH  20  21
ATOM     21  C   UNL     1       5.468  -7.714 -29.920  1.00  0.00    -0.000 C 
BRANCH  21  22
ATOM     22  C   UNL     1       4.815  -8.118 -31.252  1.00  0.00    -0.000 C 
BRANCH  22  23
ATOM     23  C   UNL     1       5.693  -7.794 -32.474  1.00  0.00    -0.000 C 
BRANCH  23  24
ATOM     24  C   UNL     1       7.018  -7.068 -32.163  1.00  0.00    -0.000 C 
BRANCH  24  25
ATOM     25  C   UNL     1       7.157  -5.670 -32.789  1.00  0.00    -0.003 C 
ATOM     26  C   UNL     1       8.064  -5.658 -34.020  1.00  0.00     0.004 C 
ENDBRANCH  24  25
ENDBRANCH  23  24
ENDBRANCH  22  23
ENDBRANCH  21  22
ENDBRANCH  20  21
ENDBRANCH  19  20
ENDBRANCH  18  19
ENDBRANCH  17  18
ENDBRANCH  16  17
ENDBRANCH  15  16
ENDBRANCH   1  15
TORSDOF 22
ENDMDL
MODEL 5
REMARK VINA RESULT:    -5.184      9.194     11.839
REMARK INTER + INTRA:         -15.094
REMARK INTER:                 -11.393
REMARK INTRA:                  -3.701
REMARK UNBOUND:                -3.243
REMARK SMILES CCCCCCCCCCCCCCCCCCCCCCCC(=O)[O-]
REMARK SMILES IDX 13 1 14 2 15 3 16 4 17 5 18 6 19 7 20 8 21 9 22 10 23 11
REMARK SMILES IDX 24 12 25 13 26 14 12 15 11 16 10 17 9 18 8 19 7 20 6 21 5 22
REMARK SMILES IDX 4 23 3 24 2 25 1 26
REMARK H PARENT
REMARK Flexibility Score: inf
ROOT
ATOM      1  C   UNL     1       7.316  -7.086 -29.229  1.00  0.00     0.000 C 
ENDROOT
BRANCH   1   2
ATOM      2  C   UNL     1       7.796  -5.941 -30.135  1.00  0.00     0.000 C 
BRANCH   2   3
ATOM      3  C   UNL     1       7.069  -5.967 -31.485  1.00  0.00     0.000 C 
BRANCH   3   4
ATOM      4  C   UNL     1       8.067  -6.066 -32.644  1.00  0.00     0.000 C 
BRANCH   4   5
ATOM      5  C   UNL     1       7.727  -7.249 -33.563  1.00  0.00     0.000 C 
BRANCH   5   6
ATOM      6  C   UNL     1       8.145  -8.608 -32.973  1.00  0.00     0.000 C 
BRANCH   6   7
ATOM      7  C   UNL     1       9.544  -8.635 -32.330  1.00  0.00     0.000 C 
BRANCH   7   8
ATOM      8  C   UNL     1       9.595  -9.467 -31.039  1.00  0.00     0.000 C 
BRANCH   8   9
ATOM      9  C   UNL     1       8.698 -10.707 -31.151  1.00  0.00     0.000 C 
BRANCH   9  10
ATOM     10  C   UNL     1       9.001 -11.770 -30.078  1.00  0.00     0.006 C 
BRANCH  10  11
ATOM     11  C   UNL     1       8.502 -11.396 -28.670  1.00  0.00     0.053 C 
BRANCH  11  12
ATOM     12  C   UNL     1       8.960 -12.361 -27.619  1.00  0.00     0.041 C 
ATOM     13  O   UNL     1       8.458 -13.514 -27.554  1.00  0.00    -0.550 OA
ATOM     14  O   UNL     1       9.916 -11.976 -26.689  1.00  0.00    -0.550 OA
ENDBRANCH  11  12
ENDBRANCH  10  11
ENDBRANCH   9  10
ENDBRANCH   8   9
ENDBRANCH   7   8
ENDBRANCH   6   7
ENDBRANCH   5   6
ENDBRANCH   4   5
ENDBRANCH   3   4
ENDBRANCH   2   3
ENDBRANCH   1   2
BRANCH   1  15
ATOM     15  C   UNL     1       5.871  -7.517 -29.533  1.00  0.00     0.000 C 
BRANCH  15  16
ATOM     16  C   UNL     1       5.756  -9.024 -29.818  1.00  0.00     0.000 C 
BRANCH  16  17
ATOM     17  C   UNL     1       5.220  -9.330 -31.229  1.00  0.00     0.000 C 
BRANCH  17  18
ATOM     18  C   UNL     1       4.340  -8.232 -31.854  1.00  0.00    -0.000 C 
BRANCH  18  19
ATOM     19  C   UNL     1       3.795  -8.615 -33.240  1.00  0.00    -0.000 C 
BRANCH  19  20
ATOM     20  C   UNL     1       4.894  -9.079 -34.214  1.00  0.00    -0.000 C 
BRANCH  20  21
ATOM     21  C   UNL     1       4.457  -9.233 -35.682  1.00  0.00    -0.000 C 
BRANCH  21  22
ATOM     22  C   UNL     1       4.986  -8.111 -36.590  1.00  0.00    -0.000 C 
BRANCH  22  23
ATOM     23  C   UNL     1       5.104  -6.758 -35.866  1.00  0.00    -0.000 C 
BRANCH  23  24
ATOM     24  C   UNL     1       5.239  -5.526 -36.786  1.00  0.00    -0.000 C 
BRANCH  24  25
ATOM     25  C   UNL     1       5.866  -4.286 -36.125  1.00  0.00    -0.003 C 
ATOM     26  C   UNL     1       7.390  -4.364 -36.041  1.00  0.00     0.004 C 
ENDBRANCH  24  25
ENDBRANCH  23  24
ENDBRANCH  22  23
ENDBRANCH  21  22
ENDBRANCH  20  21
ENDBRANCH  19  20
ENDBRANCH  18  19
ENDBRANCH  17  18
ENDBRANCH  16  17
ENDBRANCH  15  16
ENDBRANCH   1  15
TORSDOF 22
ENDMDL
MODEL 6
REMARK VINA RESULT:    -5.126      9.487     11.960
REMARK INTER + INTRA:         -14.961
REMARK INTER:                 -11.008
REMARK INTRA:                  -3.953
REMARK UNBOUND:                -3.243
REMARK SMILES CCCCCCCCCCCCCCCCCCCCCCCC(=O)[O-]
REMARK SMILES IDX 13 1 14 2 15 3 16 4 17 5 18 6 19 7 20 8 21 9 22 10 23 11
REMARK SMILES IDX 24 12 25 13 26 14 12 15 11 16 10 17 9 18 8 19 7 20 6 21 5 22
REMARK SMILES IDX 4 23 3 24 2 25 1 26
REMARK H PARENT
REMARK Flexibility Score: inf
ROOT
ATOM      1  C   UNL     1       6.290  -8.764 -29.011  1.00  0.00     0.000 C 
ENDROOT
BRANCH   1   2
ATOM      2  C   UNL     1       5.992  -9.632 -30.244  1.00  0.00     0.000 C 
BRANCH   2   3
ATOM      3  C   UNL     1       6.897 -10.870 -30.275  1.00  0.00     0.000 C 
BRANCH   3   4
ATOM      4  C   UNL     1       8.159 -10.651 -29.434  1.00  0.00     0.000 C 
BRANCH   4   5
ATOM      5  C   UNL     1       9.350 -11.427 -30.015  1.00  0.00     0.000 C 
BRANCH   5   6
ATOM      6  C   UNL     1      10.038 -10.690 -31.178  1.00  0.00     0.000 C 
BRANCH   6   7
ATOM      7  C   UNL     1       9.826  -9.165 -31.197  1.00  0.00     0.000 C 
BRANCH   7   8
ATOM      8  C   UNL     1       9.278  -8.653 -32.538  1.00  0.00     0.000 C 
BRANCH   8   9
ATOM      9  C   UNL     1       8.225  -7.558 -32.318  1.00  0.00     0.000 C 
BRANCH   9  10
ATOM     10  C   UNL     1       7.342  -7.313 -33.556  1.00  0.00     0.006 C 
BRANCH  10  11
ATOM     11  C   UNL     1       6.187  -8.318 -33.709  1.00  0.00     0.053 C 
BRANCH  11  12
ATOM     12  C   UNL     1       5.191  -7.902 -34.747  1.00  0.00     0.041 C 
ATOM     13  O   UNL     1       4.139  -8.572 -34.924  1.00  0.00    -0.550 OA
ATOM     14  O   UNL     1       5.439  -6.793 -35.546  1.00  0.00    -0.550 OA
ENDBRANCH  11  12
ENDBRANCH  10  11
ENDBRANCH   9  10
ENDBRANCH   8   9
ENDBRANCH   7   8
ENDBRANCH   6   7
ENDBRANCH   5   6
ENDBRANCH   4   5
ENDBRANCH   3   4
ENDBRANCH   2   3
ENDBRANCH   1   2
BRANCH   1  15
ATOM     15  C   UNL     1       5.880  -7.295 -29.206  1.00  0.00     0.000 C 
BRANCH  15  16
ATOM     16  C   UNL     1       7.052  -6.323 -28.987  1.00  0.00     0.000 C 
BRANCH  16  17
ATOM     17  C   UNL     1       8.363  -7.039 -28.613  1.00  0.00     0.000 C 
BRANCH  17  18
ATOM     18  C   UNL     1       9.250  -6.302 -27.591  1.00  0.00    -0.000 C 
BRANCH  18  19
ATOM     19  C   UNL     1      10.403  -7.170 -27.060  1.00  0.00    -0.000 C 
BRANCH  19  20
ATOM     20  C   UNL     1      10.230  -8.666 -27.382  1.00  0.00    -0.000 C 
BRANCH  20  21
ATOM     21  C   UNL     1      11.529  -9.430 -27.701  1.00  0.00    -0.000 C 
BRANCH  21  22
ATOM     22  C   UNL     1      11.648 -10.761 -26.943  1.00  0.00    -0.000 C 
BRANCH  22  23
ATOM     23  C   UNL     1      10.302 -11.255 -26.382  1.00  0.00    -0.000 C 
BRANCH  23  24
ATOM     24  C   UNL     1      10.278 -11.522 -24.862  1.00  0.00    -0.000 C 
BRANCH  24  25
ATOM     25  C   UNL     1      11.018 -10.480 -24.006  1.00  0.00    -0.003 C 
ATOM     26  C   UNL     1      12.236 -11.058 -23.286  1.00  0.00     0.004 C 
ENDBRANCH  24  25
ENDBRANCH  23  24
ENDBRANCH  22  23
ENDBRANCH  21  22
ENDBRANCH  20  21
ENDBRANCH  19  20
ENDBRANCH  18  19
ENDBRANCH  17  18
ENDBRANCH  16  17
ENDBRANCH  15  16
ENDBRANCH   1  15
TORSDOF 22
ENDMDL
MODEL 7
REMARK VINA RESULT:    -5.122     10.530     13.267
REMARK INTER + INTRA:         -14.953
REMARK INTER:                 -10.561
REMARK INTRA:                  -4.392
REMARK UNBOUND:                -3.243
REMARK SMILES CCCCCCCCCCCCCCCCCCCCCCCC(=O)[O-]
REMARK SMILES IDX 13 1 14 2 15 3 16 4 17 5 18 6 19 7 20 8 21 9 22 10 23 11
REMARK SMILES IDX 24 12 25 13 26 14 12 15 11 16 10 17 9 18 8 19 7 20 6 21 5 22
REMARK SMILES IDX 4 23 3 24 2 25 1 26
REMARK H PARENT
REMARK Flexibility Score: inf
ROOT
ATOM      1  C   UNL     1       6.351  -9.023 -29.206  1.00  0.00     0.000 C 
ENDROOT
BRANCH   1   2
ATOM      2  C   UNL     1       7.654  -9.837 -29.184  1.00  0.00     0.000 C 
BRANCH   2   3
ATOM      3  C   UNL     1       8.874  -8.916 -29.050  1.00  0.00     0.000 C 
BRANCH   3   4
ATOM      4  C   UNL     1       8.545  -7.689 -28.194  1.00  0.00     0.000 C 
BRANCH   4   5
ATOM      5  C   UNL     1       9.748  -6.737 -28.111  1.00  0.00     0.000 C 
BRANCH   5   6
ATOM      6  C   UNL     1      10.737  -7.114 -26.993  1.00  0.00     0.000 C 
BRANCH   6   7
ATOM      7  C   UNL     1      11.977  -7.899 -27.458  1.00  0.00     0.000 C 
BRANCH   7   8
ATOM      8  C   UNL     1      11.906  -9.394 -27.111  1.00  0.00     0.000 C 
BRANCH   8   9
ATOM      9  C   UNL     1      11.090  -9.622 -25.832  1.00  0.00     0.000 C 
BRANCH   9  10
ATOM     10  C   UNL     1      10.623 -11.079 -25.666  1.00  0.00     0.006 C 
BRANCH  10  11
ATOM     11  C   UNL     1      10.172 -11.745 -26.978  1.00  0.00     0.053 C 
BRANCH  11  12
ATOM     12  C   UNL     1       9.037 -12.702 -26.782  1.00  0.00     0.041 C 
ATOM     13  O   UNL     1       8.747 -13.117 -25.629  1.00  0.00    -0.550 OA
ATOM     14  O   UNL     1       8.318 -13.164 -27.877  1.00  0.00    -0.550 OA
ENDBRANCH  11  12
ENDBRANCH  10  11
ENDBRANCH   9  10
ENDBRANCH   8   9
ENDBRANCH   7   8
ENDBRANCH   6   7
ENDBRANCH   5   6
ENDBRANCH   4   5
ENDBRANCH   3   4
ENDBRANCH   2   3
ENDBRANCH   1   2
BRANCH   1  15
ATOM     15  C   UNL     1       5.519  -9.269 -30.476  1.00  0.00     0.000 C 
BRANCH  15  16
ATOM     16  C   UNL     1       5.409  -8.013 -31.357  1.00  0.00     0.000 C 
BRANCH  16  17
ATOM     17  C   UNL     1       6.213  -6.820 -30.807  1.00  0.00     0.000 C 
BRANCH  17  18
ATOM     18  C   UNL     1       7.495  -6.472 -31.586  1.00  0.00    -0.000 C 
BRANCH  18  19
ATOM     19  C   UNL     1       7.691  -7.341 -32.839  1.00  0.00    -0.000 C 
BRANCH  19  20
ATOM     20  C   UNL     1       8.905  -8.283 -32.738  1.00  0.00    -0.000 C 
BRANCH  20  21
ATOM     21  C   UNL     1       8.583  -9.788 -32.798  1.00  0.00    -0.000 C 
BRANCH  21  22
ATOM     22  C   UNL     1       9.835 -10.666 -32.964  1.00  0.00    -0.000 C 
BRANCH  22  23
ATOM     23  C   UNL     1      10.982 -10.260 -32.022  1.00  0.00    -0.000 C 
BRANCH  23  24
ATOM     24  C   UNL     1      11.065 -11.053 -30.701  1.00  0.00    -0.000 C 
BRANCH  24  25
ATOM     25  C   UNL     1      10.306 -12.391 -30.696  1.00  0.00    -0.003 C 
ATOM     26  C   UNL     1      11.166 -13.560 -30.217  1.00  0.00     0.004 C 
ENDBRANCH  24  25
ENDBRANCH  23  24
ENDBRANCH  22  23
ENDBRANCH  21  22
ENDBRANCH  20  21
ENDBRANCH  19  20
ENDBRANCH  18  19
ENDBRANCH  17  18
ENDBRANCH  16  17
ENDBRANCH  15  16
ENDBRANCH   1  15
TORSDOF 22
ENDMDL
MODEL 8
REMARK VINA RESULT:    -5.114      9.849     12.709
REMARK INTER + INTRA:         -14.934
REMARK INTER:                 -10.405
REMARK INTRA:                  -4.528
REMARK UNBOUND:                -3.243
REMARK SMILES CCCCCCCCCCCCCCCCCCCCCCCC(=O)[O-]
REMARK SMILES IDX 13 1 14 2 15 3 16 4 17 5 18 6 19 7 20 8 21 9 22 10 23 11
REMARK SMILES IDX 24 12 25 13 26 14 12 15 11 16 10 17 9 18 8 19 7 20 6 21 5 22
REMARK SMILES IDX 4 23 3 24 2 25 1 26
REMARK H PARENT
REMARK Flexibility Score: inf
ROOT
ATOM      1  C   UNL     1       5.872  -9.945 -30.889  1.00  0.00     0.000 C 
ENDROOT
BRANCH   1   2
ATOM      2  C   UNL     1       5.285  -8.556 -30.596  1.00  0.00     0.000 C 
BRANCH   2   3
ATOM      3  C   UNL     1       6.012  -7.889 -29.421  1.00  0.00     0.000 C 
BRANCH   3   4
ATOM      4  C   UNL     1       6.605  -6.538 -29.837  1.00  0.00     0.000 C 
BRANCH   4   5
ATOM      5  C   UNL     1       8.074  -6.424 -29.401  1.00  0.00     0.000 C 
BRANCH   5   6
ATOM      6  C   UNL     1       8.429  -7.363 -28.233  1.00  0.00     0.000 C 
BRANCH   6   7
ATOM      7  C   UNL     1       9.719  -6.999 -27.476  1.00  0.00     0.000 C 
BRANCH   7   8
ATOM      8  C   UNL     1      10.599  -8.220 -27.168  1.00  0.00     0.000 C 
BRANCH   8   9
ATOM      9  C   UNL     1      10.004  -9.494 -27.785  1.00  0.00     0.000 C 
BRANCH   9  10
ATOM     10  C   UNL     1      11.066 -10.408 -28.424  1.00  0.00     0.006 C 
BRANCH  10  11
ATOM     11  C   UNL     1      11.074 -11.842 -27.865  1.00  0.00     0.053 C 
BRANCH  11  12
ATOM     12  C   UNL     1       9.982 -12.692 -28.437  1.00  0.00     0.041 C 
ATOM     13  O   UNL     1      10.133 -13.255 -29.554  1.00  0.00    -0.550 OA
ATOM     14  O   UNL     1       8.781 -12.836 -27.754  1.00  0.00    -0.550 OA
ENDBRANCH  11  12
ENDBRANCH  10  11
ENDBRANCH   9  10
ENDBRANCH   8   9
ENDBRANCH   7   8
ENDBRANCH   6   7
ENDBRANCH   5   6
ENDBRANCH   4   5
ENDBRANCH   3   4
ENDBRANCH   2   3
ENDBRANCH   1   2
BRANCH   1  15
ATOM     15  C   UNL     1       7.171 -10.217 -30.112  1.00  0.00     0.000 C 
BRANCH  15  16
ATOM     16  C   UNL     1       8.351 -10.554 -31.040  1.00  0.00     0.000 C 
BRANCH  16  17
ATOM     17  C   UNL     1       9.020  -9.304 -31.640  1.00  0.00     0.000 C 
BRANCH  17  18
ATOM     18  C   UNL     1       8.452  -8.837 -32.994  1.00  0.00    -0.000 C 
BRANCH  18  19
ATOM     19  C   UNL     1       8.152  -7.329 -33.030  1.00  0.00    -0.000 C 
BRANCH  19  20
ATOM     20  C   UNL     1       6.748  -7.005 -33.574  1.00  0.00    -0.000 C 
BRANCH  20  21
ATOM     21  C   UNL     1       6.123  -8.083 -34.479  1.00  0.00    -0.000 C 
BRANCH  21  22
ATOM     22  C   UNL     1       4.586  -8.048 -34.486  1.00  0.00    -0.000 C 
BRANCH  22  23
ATOM     23  C   UNL     1       3.957  -9.367 -34.968  1.00  0.00    -0.000 C 
BRANCH  23  24
ATOM     24  C   UNL     1       4.077 -10.554 -33.990  1.00  0.00    -0.000 C 
BRANCH  24  25
ATOM     25  C   UNL     1       4.892 -11.749 -34.513  1.00  0.00    -0.003 C 
ATOM     26  C   UNL     1       6.322 -11.775 -33.975  1.00  0.00     0.004 C 
ENDBRANCH  24  25
ENDBRANCH  23  24
ENDBRANCH  22  23
ENDBRANCH  21  22
ENDBRANCH  20  21
ENDBRANCH  19  20
ENDBRANCH  18  19
ENDBRANCH  17  18
ENDBRANCH  16  17
ENDBRANCH  15  16
ENDBRANCH   1  15
TORSDOF 22
ENDMDL
MODEL 9
REMARK VINA RESULT:    -5.091     10.131     13.020
REMARK INTER + INTRA:         -14.882
REMARK INTER:                 -10.577
REMARK INTRA:                  -4.306
REMARK UNBOUND:                -3.243
REMARK SMILES CCCCCCCCCCCCCCCCCCCCCCCC(=O)[O-]
REMARK SMILES IDX 13 1 14 2 15 3 16 4 17 5 18 6 19 7 20 8 21 9 22 10 23 11
REMARK SMILES IDX 24 12 25 13 26 14 12 15 11 16 10 17 9 18 8 19 7 20 6 21 5 22
REMARK SMILES IDX 4 23 3 24 2 25 1 26
REMARK H PARENT
REMARK Flexibility Score: inf
ROOT
ATOM      1  C   UNL     1       8.055  -6.859 -29.262  1.00  0.00     0.000 C 
ENDROOT
BRANCH   1   2
ATOM      2  C   UNL     1       8.838  -6.407 -28.019  1.00  0.00     0.000 C 
BRANCH   2   3
ATOM      3  C   UNL     1       9.733  -7.537 -27.494  1.00  0.00     0.000 C 
BRANCH   3   4
ATOM      4  C   UNL     1      10.433  -8.265 -28.647  1.00  0.00     0.000 C 
BRANCH   4   5
ATOM      5  C   UNL     1      10.759  -9.716 -28.264  1.00  0.00     0.000 C 
BRANCH   5   6
ATOM      6  C   UNL     1       9.942 -10.218 -27.059  1.00  0.00     0.000 C 
BRANCH   6   7
ATOM      7  C   UNL     1      10.068 -11.725 -26.770  1.00  0.00     0.000 C 
BRANCH   7   8
ATOM      8  C   UNL     1       9.801 -12.078 -25.299  1.00  0.00     0.000 C 
BRANCH   8   9
ATOM      9  C   UNL     1      10.392 -11.014 -24.364  1.00  0.00     0.000 C 
BRANCH   9  10
ATOM     10  C   UNL     1      11.901 -11.197 -24.119  1.00  0.00     0.006 C 
BRANCH  10  11
ATOM     11  C   UNL     1      12.633  -9.900 -23.731  1.00  0.00     0.053 C 
BRANCH  11  12
ATOM     12  C   UNL     1      12.581  -8.861 -24.808  1.00  0.00     0.041 C 
ATOM     13  O   UNL     1      13.280  -8.988 -25.849  1.00  0.00    -0.550 OA
ATOM     14  O   UNL     1      11.787  -7.733 -24.650  1.00  0.00    -0.550 OA
ENDBRANCH  11  12
ENDBRANCH  10  11
ENDBRANCH   9  10
ENDBRANCH   8   9
ENDBRANCH   7   8
ENDBRANCH   6   7
ENDBRANCH   5   6
ENDBRANCH   4   5
ENDBRANCH   3   4
ENDBRANCH   2   3
ENDBRANCH   1   2
BRANCH   1  15
ATOM     15  C   UNL     1       6.533  -6.832 -29.046  1.00  0.00     0.000 C 
BRANCH  15  16
ATOM     16  C   UNL     1       5.888  -8.217 -29.231  1.00  0.00     0.000 C 
BRANCH  16  17
ATOM     17  C   UNL     1       6.886  -9.374 -29.039  1.00  0.00     0.000 C 
BRANCH  17  18
ATOM     18  C   UNL     1       6.860 -10.458 -30.134  1.00  0.00    -0.000 C 
BRANCH  18  19
ATOM     19  C   UNL     1       8.239 -10.703 -30.768  1.00  0.00    -0.000 C 
BRANCH  19  20
ATOM     20  C   UNL     1       8.389 -10.059 -32.158  1.00  0.00    -0.000 C 
BRANCH  20  21
ATOM     21  C   UNL     1       8.842  -8.587 -32.161  1.00  0.00    -0.000 C 
BRANCH  21  22
ATOM     22  C   UNL     1       8.090  -7.727 -33.190  1.00  0.00    -0.000 C 
BRANCH  22  23
ATOM     23  C   UNL     1       6.691  -7.301 -32.710  1.00  0.00    -0.000 C 
BRANCH  23  24
ATOM     24  C   UNL     1       5.509  -7.968 -33.444  1.00  0.00    -0.000 C 
BRANCH  24  25
ATOM     25  C   UNL     1       4.785  -9.067 -32.648  1.00  0.00    -0.003 C 
ATOM     26  C   UNL     1       4.849 -10.434 -33.328  1.00  0.00     0.004 C 
ENDBRANCH  24  25
ENDBRANCH  23  24
ENDBRANCH  22  23
ENDBRANCH  21  22
ENDBRANCH  20  21
ENDBRANCH  19  20
ENDBRANCH  18  19
ENDBRANCH  17  18
ENDBRANCH  16  17
ENDBRANCH  15  16
ENDBRANCH   1  15
TORSDOF 22
ENDMDL
