MODEL 1
REMARK VINA RESULT:    -4.015      0.000      0.000
REMARK INTER + INTRA:          -4.132
REMARK INTER:                  -4.132
REMARK INTRA:                   0.000
REMARK UNBOUND:                 0.000
REMARK SMILES Nc1ncnc2nc[nH]c12
REMARK SMILES IDX 8 1 7 2 6 3 5 4 4 5 3 6 2 7 10 8 9 9 1 11
REMARK H PARENT 9 10 1 12 1 13
REMARK Flexibility Score: inf
ROOT
ATOM      1  C   UNL     1      -7.653  10.237 -24.122  1.00  0.00     0.199 A 
ATOM      2  N   UNL     1      -8.518   9.745 -25.052  1.00  0.00    -0.217 NA
ATOM      3  C   UNL     1      -9.701   9.854 -24.427  1.00  0.00     0.182 A 
ATOM      4  N   UNL     1     -10.911   9.498 -24.921  1.00  0.00    -0.215 NA
ATOM      5  C   UNL     1     -12.011   9.685 -24.130  1.00  0.00     0.226 A 
ATOM      6  N   UNL     1     -11.882  10.220 -22.873  1.00  0.00    -0.217 NA
ATOM      7  C   UNL     1     -10.662  10.580 -22.374  1.00  0.00     0.152 A 
ATOM      8  C   UNL     1      -9.552  10.382 -23.190  1.00  0.00     0.127 A 
ATOM      9  N   UNL     1      -8.256  10.635 -22.973  1.00  0.00    -0.340 N 
ATOM     10  H   UNL     1      -7.803  11.041 -22.126  1.00  0.00     0.168 HD
ENDROOT
BRANCH   7  11
ATOM     11  N   UNL     1     -10.553  11.134 -21.061  1.00  0.00    -0.382 N 
ATOM     12  H   UNL     1     -11.331  11.709 -20.671  1.00  0.00     0.158 HD
ATOM     13  H   UNL     1      -9.703  10.979 -20.475  1.00  0.00     0.158 HD
ENDBRANCH   7  11
TORSDOF 1
ENDMDL
MODEL 2
REMARK VINA RESULT:    -3.986      0.845      2.822
REMARK INTER + INTRA:          -4.103
REMARK INTER:                  -4.103
REMARK INTRA:                   0.000
REMARK UNBOUND:                 0.000
REMARK SMILES Nc1ncnc2nc[nH]c12
REMARK SMILES IDX 8 1 7 2 6 3 5 4 4 5 3 6 2 7 10 8 9 9 1 11
REMARK H PARENT 9 10 1 12 1 13
REMARK Flexibility Score: inf
ROOT
ATOM      1  C   UNL     1     -12.002   9.186 -23.856  1.00  0.00     0.199 A 
ATOM      2  N   UNL     1     -10.960   9.376 -24.710  1.00  0.00    -0.217 NA
ATOM      3  C   UNL     1     -10.078  10.037 -23.943  1.00  0.00     0.182 A 
ATOM      4  N   UNL     1      -8.851  10.474 -24.316  1.00  0.00    -0.215 NA
ATOM      5  C   UNL     1      -8.092  11.134 -23.389  1.00  0.00     0.226 A 
ATOM      6  N   UNL     1      -8.569  11.342 -22.119  1.00  0.00    -0.217 NA
ATOM      7  C   UNL     1      -9.807  10.901 -21.742  1.00  0.00     0.152 A 
ATOM      8  C   UNL     1     -10.567  10.232 -22.697  1.00  0.00     0.127 A 
ATOM      9  N   UNL     1     -11.791   9.699 -22.617  1.00  0.00    -0.340 N 
ATOM     10  H   UNL     1     -12.441   9.675 -21.800  1.00  0.00     0.168 HD
ENDROOT
BRANCH   7  11
ATOM     11  N   UNL     1     -10.281  11.130 -20.414  1.00  0.00    -0.382 N 
ATOM     12  H   UNL     1     -10.314  10.344 -19.728  1.00  0.00     0.158 HD
ATOM     13  H   UNL     1     -10.603  12.075 -20.108  1.00  0.00     0.158 HD
ENDBRANCH   7  11
TORSDOF 1
ENDMDL
MODEL 3
REMARK VINA RESULT:    -3.956      1.403      2.896
REMARK INTER + INTRA:          -4.072
REMARK INTER:                  -4.072
REMARK INTRA:                   0.000
REMARK UNBOUND:                 0.000
REMARK SMILES Nc1ncnc2nc[nH]c12
REMARK SMILES IDX 8 1 7 2 6 3 5 4 4 5 3 6 2 7 10 8 9 9 1 11
REMARK H PARENT 9 10 1 12 1 13
REMARK Flexibility Score: inf
ROOT
ATOM      1  C   UNL     1     -11.823   7.468 -23.493  1.00  0.00     0.199 A 
ATOM      2  N   UNL     1     -10.859   7.485 -24.455  1.00  0.00    -0.217 NA
ATOM      3  C   UNL     1     -10.146   8.574 -24.125  1.00  0.00     0.182 A 
ATOM      4  N   UNL     1      -9.054   9.051 -24.771  1.00  0.00    -0.215 NA
ATOM      5  C   UNL     1      -8.459  10.181 -24.283  1.00  0.00     0.226 A 
ATOM      6  N   UNL     1      -8.960  10.807 -23.169  1.00  0.00    -0.217 NA
ATOM      7  C   UNL     1     -10.060  10.326 -22.517  1.00  0.00     0.152 A 
ATOM      8  C   UNL     1     -10.655   9.176 -23.026  1.00  0.00     0.127 A 
ATOM      9  N   UNL     1     -11.724   8.490 -22.605  1.00  0.00    -0.340 N 
ATOM     10  H   UNL     1     -12.344   8.683 -21.788  1.00  0.00     0.168 HD
ENDROOT
BRANCH   7  11
ATOM     11  N   UNL     1     -10.563  10.995 -21.359  1.00  0.00    -0.382 N 
ATOM     12  H   UNL     1      -9.914  11.536 -20.745  1.00  0.00     0.158 HD
ATOM     13  H   UNL     1     -11.575  10.956 -21.106  1.00  0.00     0.158 HD
ENDBRANCH   7  11
TORSDOF 1
ENDMDL
MODEL 4
REMARK VINA RESULT:    -3.874      1.103      3.219
REMARK INTER + INTRA:          -3.988
REMARK INTER:                  -3.988
REMARK INTRA:                   0.000
REMARK UNBOUND:                 0.000
REMARK SMILES Nc1ncnc2nc[nH]c12
REMARK SMILES IDX 8 1 7 2 6 3 5 4 4 5 3 6 2 7 10 8 9 9 1 11
REMARK H PARENT 9 10 1 12 1 13
REMARK Flexibility Score: inf
ROOT
ATOM      1  C   UNL     1     -10.059  11.099 -20.924  1.00  0.00     0.199 A 
ATOM      2  N   UNL     1      -8.765  11.067 -21.344  1.00  0.00    -0.217 NA
ATOM      3  C   UNL     1      -8.880  10.586 -22.592  1.00  0.00     0.182 A 
ATOM      4  N   UNL     1      -7.870  10.356 -23.466  1.00  0.00    -0.215 NA
ATOM      5  C   UNL     1      -8.186   9.861 -24.700  1.00  0.00     0.226 A 
ATOM      6  N   UNL     1      -9.493   9.607 -25.035  1.00  0.00    -0.217 NA
ATOM      7  C   UNL     1     -10.512   9.840 -24.155  1.00  0.00     0.152 A 
ATOM      8  C   UNL     1     -10.174  10.343 -22.903  1.00  0.00     0.127 A 
ATOM      9  N   UNL     1     -10.945  10.662 -21.856  1.00  0.00    -0.340 N 
ATOM     10  H   UNL     1     -11.982  10.595 -21.765  1.00  0.00     0.168 HD
ENDROOT
BRANCH   7  11
ATOM     11  N   UNL     1     -11.864   9.568 -24.527  1.00  0.00    -0.382 N 
ATOM     12  H   UNL     1     -12.410  10.275 -25.068  1.00  0.00     0.158 HD
ATOM     13  H   UNL     1     -12.329   8.669 -24.269  1.00  0.00     0.158 HD
ENDBRANCH   7  11
TORSDOF 1
ENDMDL
MODEL 5
REMARK VINA RESULT:    -3.708     16.950     18.817
REMARK INTER + INTRA:          -3.817
REMARK INTER:                  -3.817
REMARK INTRA:                   0.000
REMARK UNBOUND:                 0.000
REMARK SMILES Nc1ncnc2nc[nH]c12
REMARK SMILES IDX 8 1 7 2 6 3 5 4 4 5 3 6 2 7 10 8 9 9 1 11
REMARK H PARENT 9 10 1 12 1 13
REMARK Flexibility Score: inf
ROOT
ATOM      1  C   UNL     1     -19.922  16.227 -11.799  1.00  0.00     0.199 A 
ATOM      2  N   UNL     1     -20.017  16.503 -10.469  1.00  0.00    -0.217 NA
ATOM      3  C   UNL     1     -21.312  16.834 -10.337  1.00  0.00     0.182 A 
ATOM      4  N   UNL     1     -21.940  17.200  -9.194  1.00  0.00    -0.215 NA
ATOM      5  C   UNL     1     -23.272  17.502  -9.258  1.00  0.00     0.226 A 
ATOM      6  N   UNL     1     -23.945  17.433 -10.452  1.00  0.00    -0.217 NA
ATOM      7  C   UNL     1     -23.312  17.064 -11.605  1.00  0.00     0.152 A 
ATOM      8  C   UNL     1     -21.957  16.760 -11.524  1.00  0.00     0.127 A 
ATOM      9  N   UNL     1     -21.092  16.375 -12.470  1.00  0.00    -0.340 N 
ATOM     10  H   UNL     1     -21.265  16.221 -13.488  1.00  0.00     0.168 HD
ENDROOT
BRANCH   7  11
ATOM     11  N   UNL     1     -24.034  17.000 -12.837  1.00  0.00    -0.382 N 
ATOM     12  H   UNL     1     -23.666  16.428 -13.629  1.00  0.00     0.158 HD
ATOM     13  H   UNL     1     -24.932  17.517 -12.968  1.00  0.00     0.158 HD
ENDBRANCH   7  11
TORSDOF 1
ENDMDL
MODEL 6
REMARK VINA RESULT:    -3.678      3.897      6.183
REMARK INTER + INTRA:          -3.786
REMARK INTER:                  -3.786
REMARK INTRA:                   0.000
REMARK UNBOUND:                 0.000
REMARK SMILES Nc1ncnc2nc[nH]c12
REMARK SMILES IDX 8 1 7 2 6 3 5 4 4 5 3 6 2 7 10 8 9 9 1 11
REMARK H PARENT 9 10 1 12 1 13
REMARK Flexibility Score: inf
ROOT
ATOM      1  C   UNL     1     -10.858  11.858 -16.889  1.00  0.00     0.199 A 
ATOM      2  N   UNL     1      -9.586  12.308 -16.705  1.00  0.00    -0.217 NA
ATOM      3  C   UNL     1      -9.075  12.236 -17.945  1.00  0.00     0.182 A 
ATOM      4  N   UNL     1      -7.818  12.572 -18.321  1.00  0.00    -0.215 NA
ATOM      5  C   UNL     1      -7.479  12.429 -19.639  1.00  0.00     0.226 A 
ATOM      6  N   UNL     1      -8.395  11.957 -20.546  1.00  0.00    -0.217 NA
ATOM      7  C   UNL     1      -9.663  11.618 -20.167  1.00  0.00     0.152 A 
ATOM      8  C   UNL     1      -9.992  11.769 -18.823  1.00  0.00     0.127 A 
ATOM      9  N   UNL     1     -11.136  11.521 -18.174  1.00  0.00    -0.340 N 
ATOM     10  H   UNL     1     -12.037  11.155 -18.554  1.00  0.00     0.168 HD
ENDROOT
BRANCH   7  11
ATOM     11  N   UNL     1     -10.598  11.129 -21.129  1.00  0.00    -0.382 N 
ATOM     12  H   UNL     1     -10.504  10.158 -21.502  1.00  0.00     0.158 HD
ATOM     13  H   UNL     1     -11.383  11.724 -21.476  1.00  0.00     0.158 HD
ENDBRANCH   7  11
TORSDOF 1
ENDMDL
MODEL 7
REMARK VINA RESULT:    -3.624      0.747      2.803
REMARK INTER + INTRA:          -3.729
REMARK INTER:                  -3.729
REMARK INTRA:                   0.000
REMARK UNBOUND:                 0.000
REMARK SMILES Nc1ncnc2nc[nH]c12
REMARK SMILES IDX 8 1 7 2 6 3 5 4 4 5 3 6 2 7 10 8 9 9 1 11
REMARK H PARENT 9 10 1 12 1 13
REMARK Flexibility Score: inf
ROOT
ATOM      1  C   UNL     1      -8.954  11.107 -21.122  1.00  0.00     0.199 A 
ATOM      2  N   UNL     1     -10.300  10.916 -21.047  1.00  0.00    -0.217 NA
ATOM      3  C   UNL     1     -10.597  10.491 -22.285  1.00  0.00     0.182 A 
ATOM      4  N   UNL     1     -11.824  10.154 -22.751  1.00  0.00    -0.215 NA
ATOM      5  C   UNL     1     -11.930   9.740 -24.050  1.00  0.00     0.226 A 
ATOM      6  N   UNL     1     -10.818   9.672 -24.851  1.00  0.00    -0.217 NA
ATOM      7  C   UNL     1      -9.581  10.011 -24.383  1.00  0.00     0.152 A 
ATOM      8  C   UNL     1      -9.489  10.430 -23.059  1.00  0.00     0.127 A 
ATOM      9  N   UNL     1      -8.430  10.818 -22.340  1.00  0.00    -0.340 N 
ATOM     10  H   UNL     1      -7.430  10.887 -22.634  1.00  0.00     0.168 HD
ENDROOT
BRANCH   7  11
ATOM     11  N   UNL     1      -8.438   9.931 -25.237  1.00  0.00    -0.382 N 
ATOM     12  H   UNL     1      -8.254  10.685 -25.935  1.00  0.00     0.158 HD
ATOM     13  H   UNL     1      -7.773   9.128 -25.182  1.00  0.00     0.158 HD
ENDBRANCH   7  11
TORSDOF 1
ENDMDL
MODEL 8
REMARK VINA RESULT:    -3.562     16.818     18.316
REMARK INTER + INTRA:          -3.666
REMARK INTER:                  -3.666
REMARK INTRA:                   0.000
REMARK UNBOUND:                 0.000
REMARK SMILES Nc1ncnc2nc[nH]c12
REMARK SMILES IDX 8 1 7 2 6 3 5 4 4 5 3 6 2 7 10 8 9 9 1 11
REMARK H PARENT 9 10 1 12 1 13
REMARK Flexibility Score: inf
ROOT
ATOM      1  C   UNL     1     -23.250  17.259 -13.051  1.00  0.00     0.199 A 
ATOM      2  N   UNL     1     -23.165  18.419 -12.344  1.00  0.00    -0.217 NA
ATOM      3  C   UNL     1     -22.020  18.256 -11.663  1.00  0.00     0.182 A 
ATOM      4  N   UNL     1     -21.463  19.135 -10.795  1.00  0.00    -0.215 NA
ATOM      5  C   UNL     1     -20.285  18.789 -10.193  1.00  0.00     0.226 A 
ATOM      6  N   UNL     1     -19.691  17.583 -10.468  1.00  0.00    -0.217 NA
ATOM      7  C   UNL     1     -20.251  16.696 -11.344  1.00  0.00     0.152 A 
ATOM      8  C   UNL     1     -21.450  17.062 -11.947  1.00  0.00     0.127 A 
ATOM      9  N   UNL     1     -22.215  16.409 -12.830  1.00  0.00    -0.340 N 
ATOM     10  H   UNL     1     -22.064  15.468 -13.255  1.00  0.00     0.168 HD
ENDROOT
BRANCH   7  11
ATOM     11  N   UNL     1     -19.613  15.446 -11.613  1.00  0.00    -0.382 N 
ATOM     12  H   UNL     1     -19.061  14.969 -10.866  1.00  0.00     0.158 HD
ATOM     13  H   UNL     1     -19.683  14.991 -12.550  1.00  0.00     0.158 HD
ENDBRANCH   7  11
TORSDOF 1
ENDMDL
MODEL 9
REMARK VINA RESULT:    -3.435      2.368      4.361
REMARK INTER + INTRA:          -3.535
REMARK INTER:                  -3.535
REMARK INTRA:                   0.000
REMARK UNBOUND:                 0.000
REMARK SMILES Nc1ncnc2nc[nH]c12
REMARK SMILES IDX 8 1 7 2 6 3 5 4 4 5 3 6 2 7 10 8 9 9 1 11
REMARK H PARENT 9 10 1 12 1 13
REMARK Flexibility Score: inf
ROOT
ATOM      1  C   UNL     1      -9.606  11.735 -18.487  1.00  0.00     0.199 A 
ATOM      2  N   UNL     1      -8.311  11.513 -18.841  1.00  0.00    -0.217 NA
ATOM      3  C   UNL     1      -8.428  11.109 -20.116  1.00  0.00     0.182 A 
ATOM      4  N   UNL     1      -7.418  10.756 -20.948  1.00  0.00    -0.215 NA
ATOM      5  C   UNL     1      -7.736  10.370 -22.221  1.00  0.00     0.226 A 
ATOM      6  N   UNL     1      -9.044  10.345 -22.635  1.00  0.00    -0.217 NA
ATOM      7  C   UNL     1     -10.063  10.702 -21.797  1.00  0.00     0.152 A 
ATOM      8  C   UNL     1      -9.724  11.092 -20.505  1.00  0.00     0.127 A 
ATOM      9  N   UNL     1     -10.493  11.486 -19.484  1.00  0.00    -0.340 N 
ATOM     10  H   UNL     1     -11.532  11.585 -19.449  1.00  0.00     0.168 HD
ENDROOT
BRANCH   7  11
ATOM     11  N   UNL     1     -11.417  10.668 -22.251  1.00  0.00    -0.382 N 
ATOM     12  H   UNL     1     -11.660  11.034 -23.198  1.00  0.00     0.158 HD
ATOM     13  H   UNL     1     -12.181  10.282 -21.653  1.00  0.00     0.158 HD
ENDBRANCH   7  11
TORSDOF 1
ENDMDL
