MODEL 1
REMARK VINA RESULT:    -4.146      0.000      0.000
REMARK INTER + INTRA:          -5.439
REMARK INTER:                  -5.843
REMARK INTRA:                   0.403
REMARK UNBOUND:                 0.403
REMARK SMILES CC1=CCC(=C(C)C)C(=O)CC(C)=CCC1
REMARK SMILES IDX 12 1 14 2 13 3 15 4 16 5 2 6 1 7 3 8 11 10 9 11 10 12 5 13
REMARK SMILES IDX 6 14 7 15 8 16 4 17
REMARK H PARENT
REMARK Flexibility Score: 60.00
ROOT
ATOM      1  C   UNL     1      -3.654  29.188  31.303  1.00  0.00    -0.070 C 
ATOM      2  C   UNL     1      -4.774  29.850  30.895  1.00  0.00    -0.027 C 
ATOM      3  C   UNL     1      -2.776  29.899  32.308  1.00  0.00     0.039 C 
ENDROOT
BRANCH   2   4
ATOM      4  C   UNL     1      -5.847  29.485  29.875  1.00  0.00     0.032 C 
BRANCH   4   5
ATOM      5  C   UNL     1      -5.736  30.115  28.482  1.00  0.00     0.034 C 
BRANCH   5   6
ATOM      6  C   UNL     1      -4.335  30.329  27.890  1.00  0.00    -0.077 C 
ATOM      7  C   UNL     1      -4.005  31.755  27.506  1.00  0.00     0.039 C 
ATOM      8  C   UNL     1      -3.379  29.401  27.585  1.00  0.00    -0.023 CG0
ATOM      9  G   UNL     1      -3.367  27.894  27.756  1.00  0.00     0.000 G0
ENDBRANCH   5   6
ENDBRANCH   4   5
ENDBRANCH   2   4
BRANCH   1  10
ATOM     10  C   UNL     1      -3.200  27.806  30.863  1.00  0.00     0.111 C 
BRANCH  10  11
ATOM     11  C   UNL     1      -2.031  27.875  29.927  1.00  0.00     0.163 C 
ATOM     12  O   UNL     1      -0.947  28.368  30.340  1.00  0.00    -0.294 OA
BRANCH  11  13
ATOM     13  C   UNL     1      -2.154  27.410  28.522  1.00  0.00    -0.002 C 
ATOM     14  C   UNL     1      -1.213  26.604  27.953  1.00  0.00    -0.069 C 
ATOM     15  C   UNL     1      -0.066  26.047  28.766  1.00  0.00     0.039 C 
ATOM     16  C   UNL     1      -1.278  26.216  26.492  1.00  0.00     0.039 C 
BRANCH  13  17
ATOM     17  C   UNL     1      -3.370  27.899  27.764  1.00  0.00     0.066 CG0
ATOM     18  G   UNL     1      -3.367  29.406  27.593  1.00  0.00     0.000 G0
ENDBRANCH  13  17
ENDBRANCH  11  13
ENDBRANCH  10  11
ENDBRANCH   1  10
TORSDOF 0
ENDMDL
MODEL 2
REMARK VINA RESULT:    -3.399      1.628      4.726
REMARK INTER + INTRA:          -4.387
REMARK INTER:                  -5.122
REMARK INTRA:                   0.735
REMARK UNBOUND:                 0.403
REMARK SMILES CC1=CCC(=C(C)C)C(=O)CC(C)=CCC1
REMARK SMILES IDX 12 1 14 2 13 3 15 4 16 5 2 6 1 7 3 8 11 10 9 11 10 12 5 13
REMARK SMILES IDX 6 14 7 15 8 16 4 17
REMARK H PARENT
REMARK Flexibility Score: 60.00
ROOT
ATOM      1  C   UNL     1      -1.872  26.895  28.276  1.00  0.00    -0.070 C 
ATOM      2  C   UNL     1      -0.965  27.201  29.248  1.00  0.00    -0.027 C 
ATOM      3  C   UNL     1      -1.381  26.030  27.138  1.00  0.00     0.039 C 
ENDROOT
BRANCH   2   4
ATOM      4  C   UNL     1      -1.075  28.074  30.492  1.00  0.00     0.032 C 
BRANCH   4   5
ATOM      5  C   UNL     1      -2.366  27.971  31.313  1.00  0.00     0.034 C 
BRANCH   5   6
ATOM      6  C   UNL     1      -3.168  29.254  31.572  1.00  0.00    -0.077 C 
ATOM      7  C   UNL     1      -2.683  30.098  32.731  1.00  0.00     0.039 C 
ATOM      8  C   UNL     1      -4.305  29.696  30.958  1.00  0.00    -0.023 CG0
ATOM      9  G   UNL     1      -5.116  29.103  29.822  1.00  0.00     0.000 G0
ENDBRANCH   5   6
ENDBRANCH   4   5
ENDBRANCH   2   4
BRANCH   1  10
ATOM     10  C   UNL     1      -3.329  27.326  28.221  1.00  0.00     0.111 C 
BRANCH  10  11
ATOM     11  C   UNL     1      -3.468  28.784  27.902  1.00  0.00     0.163 C 
ATOM     12  O   UNL     1      -2.609  29.332  27.161  1.00  0.00    -0.294 OA
BRANCH  11  13
ATOM     13  C   UNL     1      -4.576  29.586  28.482  1.00  0.00    -0.002 C 
ATOM     14  C   UNL     1      -5.067  30.689  27.845  1.00  0.00    -0.069 C 
ATOM     15  C   UNL     1      -4.588  31.070  26.463  1.00  0.00     0.039 C 
ATOM     16  C   UNL     1      -6.119  31.570  28.482  1.00  0.00     0.039 C 
BRANCH  13  17
ATOM     17  C   UNL     1      -5.107  29.117  29.820  1.00  0.00     0.066 CG0
ATOM     18  G   UNL     1      -4.314  29.687  30.980  1.00  0.00     0.000 G0
ENDBRANCH  13  17
ENDBRANCH  11  13
ENDBRANCH  10  11
ENDBRANCH   1  10
TORSDOF 0
ENDMDL
MODEL 3
REMARK VINA RESULT:    -3.340      1.763      4.505
REMARK INTER + INTRA:          -4.304
REMARK INTER:                  -4.921
REMARK INTRA:                   0.618
REMARK UNBOUND:                 0.403
REMARK SMILES CC1=CCC(=C(C)C)C(=O)CC(C)=CCC1
REMARK SMILES IDX 12 1 14 2 13 3 15 4 16 5 2 6 1 7 3 8 11 10 9 11 10 12 5 13
REMARK SMILES IDX 6 14 7 15 8 16 4 17
REMARK H PARENT
REMARK Flexibility Score: 60.00
ROOT
ATOM      1  C   UNL     1      -4.233  27.984  30.509  1.00  0.00    -0.070 C 
ATOM      2  C   UNL     1      -3.053  27.339  30.733  1.00  0.00    -0.027 C 
ATOM      3  C   UNL     1      -5.479  27.128  30.483  1.00  0.00     0.039 C 
ENDROOT
BRANCH   2   4
ATOM      4  C   UNL     1      -1.617  27.848  30.774  1.00  0.00     0.032 C 
BRANCH   4   5
ATOM      5  C   UNL     1      -0.889  28.008  29.434  1.00  0.00     0.034 C 
BRANCH   5   6
ATOM      6  C   UNL     1      -1.713  27.907  28.142  1.00  0.00    -0.077 C 
ATOM      7  C   UNL     1      -1.677  26.560  27.454  1.00  0.00     0.039 C 
ATOM      8  C   UNL     1      -2.406  28.885  27.485  1.00  0.00    -0.023 CG0
ATOM      9  G   UNL     1      -2.615  30.349  27.820  1.00  0.00     0.000 G0
ENDBRANCH   5   6
ENDBRANCH   4   5
ENDBRANCH   2   4
BRANCH   1  10
ATOM     10  C   UNL     1      -4.430  29.476  30.293  1.00  0.00     0.111 C 
BRANCH  10  11
ATOM     11  C   UNL     1      -4.858  29.785  28.890  1.00  0.00     0.163 C 
ATOM     12  O   UNL     1      -5.878  29.210  28.422  1.00  0.00    -0.294 OA
BRANCH  11  13
ATOM     13  C   UNL     1      -4.073  30.719  28.044  1.00  0.00    -0.002 C 
ATOM     14  C   UNL     1      -4.639  31.834  27.498  1.00  0.00    -0.069 C 
ATOM     15  C   UNL     1      -6.058  32.232  27.832  1.00  0.00     0.039 C 
ATOM     16  C   UNL     1      -3.872  32.730  26.550  1.00  0.00     0.039 C 
BRANCH  13  17
ATOM     17  C   UNL     1      -2.623  30.349  27.814  1.00  0.00     0.066 CG0
ATOM     18  G   UNL     1      -2.456  28.881  27.473  1.00  0.00     0.000 G0
ENDBRANCH  13  17
ENDBRANCH  11  13
ENDBRANCH  10  11
ENDBRANCH   1  10
TORSDOF 0
ENDMDL
MODEL 4
REMARK VINA RESULT:    -2.383      1.641      3.274
REMARK INTER + INTRA:          -2.955
REMARK INTER:                  -4.080
REMARK INTRA:                   1.125
REMARK UNBOUND:                 0.403
REMARK SMILES CC1=CCC(=C(C)C)C(=O)CC(C)=CCC1
REMARK SMILES IDX 12 1 14 2 13 3 15 4 16 5 2 6 1 7 3 8 11 10 9 11 10 12 5 13
REMARK SMILES IDX 6 14 7 15 8 16 4 17
REMARK H PARENT
REMARK Flexibility Score: 60.00
ROOT
ATOM      1  C   UNL     1      -4.413  29.507  28.224  1.00  0.00    -0.070 C 
ATOM      2  C   UNL     1      -5.057  29.155  29.374  1.00  0.00    -0.027 C 
ATOM      3  C   UNL     1      -4.633  30.918  27.729  1.00  0.00     0.039 C 
ENDROOT
BRANCH   2   4
ATOM      4  C   UNL     1      -5.121  27.834  30.131  1.00  0.00     0.032 C 
BRANCH   4   5
ATOM      5  C   UNL     1      -3.820  27.319  30.757  1.00  0.00     0.034 C 
BRANCH   5   6
ATOM      6  C   UNL     1      -2.725  28.339  31.104  1.00  0.00    -0.077 C 
ATOM      7  C   UNL     1      -3.152  29.459  32.027  1.00  0.00     0.039 C 
ATOM      8  C   UNL     1      -1.447  28.422  30.630  1.00  0.00    -0.023 CG0
ATOM      9  G   UNL     1      -0.688  27.540  29.656  1.00  0.00     0.000 G0
ENDBRANCH   5   6
ENDBRANCH   4   5
ENDBRANCH   2   4
BRANCH   1  10
ATOM     10  C   UNL     1      -3.488  28.632  27.393  1.00  0.00     0.111 C 
BRANCH  10  11
ATOM     11  C   UNL     1      -2.069  28.714  27.867  1.00  0.00     0.163 C 
ATOM     12  O   UNL     1      -1.488  29.833  27.867  1.00  0.00    -0.294 OA
BRANCH  11  13
ATOM     13  C   UNL     1      -1.339  27.492  28.293  1.00  0.00    -0.002 C 
ATOM     14  C   UNL     1      -1.279  26.384  27.499  1.00  0.00    -0.069 C 
ATOM     15  C   UNL     1      -1.850  26.395  26.099  1.00  0.00     0.039 C 
ATOM     16  C   UNL     1      -0.629  25.103  27.973  1.00  0.00     0.039 C 
BRANCH  13  17
ATOM     17  C   UNL     1      -0.686  27.549  29.658  1.00  0.00     0.066 CG0
ATOM     18  G   UNL     1      -1.454  28.436  30.620  1.00  0.00     0.000 G0
ENDBRANCH  13  17
ENDBRANCH  11  13
ENDBRANCH  10  11
ENDBRANCH   1  10
TORSDOF 0
ENDMDL
MODEL 5
REMARK VINA RESULT:    -1.585      1.864      4.882
REMARK INTER + INTRA:          -1.830
REMARK INTER:                  -2.293
REMARK INTRA:                   0.462
REMARK UNBOUND:                 0.403
REMARK SMILES CC1=CCC(=C(C)C)C(=O)CC(C)=CCC1
REMARK SMILES IDX 12 1 14 2 13 3 15 4 16 5 2 6 1 7 3 8 11 10 9 11 10 12 5 13
REMARK SMILES IDX 6 14 7 15 8 16 4 17
REMARK H PARENT
REMARK Flexibility Score: 60.00
ROOT
ATOM      1  C   UNL     1      -2.340  27.509  28.005  1.00  0.00    -0.070 C 
ATOM      2  C   UNL     1      -2.754  26.685  29.009  1.00  0.00    -0.027 C 
ATOM      3  C   UNL     1      -1.620  26.857  26.846  1.00  0.00     0.039 C 
ENDROOT
BRANCH   2   4
ATOM      4  C   UNL     1      -3.447  26.978  30.335  1.00  0.00     0.032 C 
BRANCH   4   5
ATOM      5  C   UNL     1      -2.741  27.937  31.300  1.00  0.00     0.034 C 
BRANCH   5   6
ATOM      6  C   UNL     1      -3.340  29.337  31.503  1.00  0.00    -0.077 C 
ATOM      7  C   UNL     1      -2.779  30.119  32.671  1.00  0.00     0.039 C 
ATOM      8  C   UNL     1      -4.363  29.940  30.828  1.00  0.00    -0.023 CG0
ATOM      9  G   UNL     1      -5.206  29.458  29.663  1.00  0.00     0.000 G0
ENDBRANCH   5   6
ENDBRANCH   4   5
ENDBRANCH   2   4
BRANCH   1  10
ATOM     10  C   UNL     1      -2.536  29.014  27.922  1.00  0.00     0.111 C 
BRANCH  10  11
ATOM     11  C   UNL     1      -3.918  29.373  27.465  1.00  0.00     0.163 C 
ATOM     12  O   UNL     1      -4.283  29.043  26.305  1.00  0.00    -0.294 OA
BRANCH  11  13
ATOM     13  C   UNL     1      -4.833  30.143  28.346  1.00  0.00    -0.002 C 
ATOM     14  C   UNL     1      -5.277  31.385  28.001  1.00  0.00    -0.069 C 
ATOM     15  C   UNL     1      -4.956  31.983  26.650  1.00  0.00     0.039 C 
ATOM     16  C   UNL     1      -6.122  32.216  28.943  1.00  0.00     0.039 C 
BRANCH  13  17
ATOM     17  C   UNL     1      -5.223  29.473  29.647  1.00  0.00     0.066 CG0
ATOM     18  G   UNL     1      -4.360  29.935  30.806  1.00  0.00     0.000 G0
ENDBRANCH  13  17
ENDBRANCH  11  13
ENDBRANCH  10  11
ENDBRANCH   1  10
TORSDOF 0
ENDMDL
MODEL 6
REMARK VINA RESULT:    -1.508      1.412      2.186
REMARK INTER + INTRA:          -1.722
REMARK INTER:                  -2.210
REMARK INTRA:                   0.488
REMARK UNBOUND:                 0.403
REMARK SMILES CC1=CCC(=C(C)C)C(=O)CC(C)=CCC1
REMARK SMILES IDX 12 1 14 2 13 3 15 4 16 5 2 6 1 7 3 8 11 10 9 11 10 12 5 13
REMARK SMILES IDX 6 14 7 15 8 16 4 17
REMARK H PARENT
REMARK Flexibility Score: 60.00
ROOT
ATOM      1  C   UNL     1      -1.583  27.885  30.923  1.00  0.00    -0.070 C 
ATOM      2  C   UNL     1      -2.678  28.289  31.629  1.00  0.00    -0.027 C 
ATOM      3  C   UNL     1      -0.954  26.574  31.339  1.00  0.00     0.039 C 
ENDROOT
BRANCH   2   4
ATOM      4  C   UNL     1      -3.528  29.551  31.539  1.00  0.00     0.032 C 
BRANCH   4   5
ATOM      5  C   UNL     1      -4.879  29.439  30.824  1.00  0.00     0.034 C 
BRANCH   5   6
ATOM      6  C   UNL     1      -4.898  29.487  29.289  1.00  0.00    -0.077 C 
ATOM      7  C   UNL     1      -5.525  30.725  28.687  1.00  0.00     0.039 C 
ATOM      8  C   UNL     1      -4.503  28.533  28.395  1.00  0.00    -0.023 CG0
ATOM      9  G   UNL     1      -3.900  27.158  28.610  1.00  0.00     0.000 G0
ENDBRANCH   5   6
ENDBRANCH   4   5
ENDBRANCH   2   4
BRANCH   1  10
ATOM     10  C   UNL     1      -0.934  28.609  29.754  1.00  0.00     0.111 C 
BRANCH  10  11
ATOM     11  C   UNL     1      -1.651  28.343  28.465  1.00  0.00     0.163 C 
ATOM     12  O   UNL     1      -1.619  29.216  27.556  1.00  0.00    -0.294 OA
BRANCH  11  13
ATOM     13  C   UNL     1      -2.426  27.090  28.272  1.00  0.00    -0.002 C 
ATOM     14  C   UNL     1      -1.840  25.957  27.789  1.00  0.00    -0.069 C 
ATOM     15  C   UNL     1      -0.349  25.890  27.547  1.00  0.00     0.039 C 
ATOM     16  C   UNL     1      -2.647  24.712  27.489  1.00  0.00     0.039 C 
BRANCH  13  17
ATOM     17  C   UNL     1      -3.897  27.157  28.623  1.00  0.00     0.066 CG0
ATOM     18  G   UNL     1      -4.481  28.534  28.372  1.00  0.00     0.000 G0
ENDBRANCH  13  17
ENDBRANCH  11  13
ENDBRANCH  10  11
ENDBRANCH   1  10
TORSDOF 0
ENDMDL
MODEL 7
REMARK VINA RESULT:    -1.274      1.863      3.852
REMARK INTER + INTRA:          -1.392
REMARK INTER:                  -5.230
REMARK INTRA:                   3.838
REMARK UNBOUND:                 0.403
REMARK SMILES CC1=CCC(=C(C)C)C(=O)CC(C)=CCC1
REMARK SMILES IDX 12 1 14 2 13 3 15 4 16 5 2 6 1 7 3 8 11 10 9 11 10 12 5 13
REMARK SMILES IDX 6 14 7 15 8 16 4 17
REMARK H PARENT
REMARK Flexibility Score: 60.00
ROOT
ATOM      1  C   UNL     1      -2.087  27.096  28.228  1.00  0.00    -0.070 C 
ATOM      2  C   UNL     1      -2.382  28.112  27.368  1.00  0.00    -0.027 C 
ATOM      3  C   UNL     1      -0.796  26.349  27.977  1.00  0.00     0.039 C 
ENDROOT
BRANCH   2   4
ATOM      4  C   UNL     1      -3.593  29.033  27.272  1.00  0.00     0.032 C 
BRANCH   4   5
ATOM      5  C   UNL     1      -3.605  30.275  28.172  1.00  0.00     0.034 C 
BRANCH   5   6
ATOM      6  C   UNL     1      -4.958  30.791  28.682  1.00  0.00    -0.077 C 
ATOM      7  C   UNL     1      -5.557  31.932  27.890  1.00  0.00     0.039 C 
ATOM      8  C   UNL     1      -5.655  30.419  29.797  1.00  0.00    -0.023 CG0
ATOM      9  G   UNL     1      -5.352  29.378  30.857  1.00  0.00     0.000 G0
ENDBRANCH   5   6
ENDBRANCH   4   5
ENDBRANCH   2   4
BRANCH   1  10
ATOM     10  C   UNL     1      -2.913  26.640  29.420  1.00  0.00     0.111 C 
BRANCH  10  11
ATOM     11  C   UNL     1      -4.108  27.519  29.639  1.00  0.00     0.163 C 
ATOM     12  O   UNL     1      -5.155  27.303  28.971  1.00  0.00    -0.294 OA
BRANCH  11  13
ATOM     13  C   UNL     1      -4.051  28.654  30.595  1.00  0.00    -0.002 C 
ATOM     14  C   UNL     1      -2.888  29.008  31.213  1.00  0.00    -0.069 C 
ATOM     15  C   UNL     1      -1.580  28.339  30.859  1.00  0.00     0.039 C 
ATOM     16  C   UNL     1      -2.848  30.093  32.268  1.00  0.00     0.039 C 
BRANCH  13  17
ATOM     17  C   UNL     1      -5.358  29.374  30.850  1.00  0.00     0.066 CG0
ATOM     18  G   UNL     1      -5.633  30.442  29.809  1.00  0.00     0.000 G0
ENDBRANCH  13  17
ENDBRANCH  11  13
ENDBRANCH  10  11
ENDBRANCH   1  10
TORSDOF 0
ENDMDL
