MODEL 1
REMARK VINA RESULT:    -4.088      0.000      0.000
REMARK INTER + INTRA:          -9.162
REMARK INTER:                  -7.433
REMARK INTRA:                  -1.728
REMARK UNBOUND:                -1.728
REMARK SMILES CCCCCC=CCC=CCCCCCCCC(=O)[O-]
REMARK SMILES IDX 11 1 12 2 13 3 14 4 15 5 16 6 17 7 18 8 19 9 20 10 10 11
REMARK SMILES IDX 9 12 8 13 7 14 6 15 5 16 4 17 3 18 2 19 1 20
REMARK H PARENT
REMARK Flexibility Score: inf
ROOT
ATOM      1  C   UNL     1     149.532  -5.171   6.296  1.00  0.00     0.027 C 
ENDROOT
BRANCH   1   2
ATOM      2  C   UNL     1     149.688  -5.078   7.822  1.00  0.00     0.004 C 
BRANCH   2   3
ATOM      3  C   UNL     1     148.364  -4.755   8.531  1.00  0.00     0.000 C 
BRANCH   3   4
ATOM      4  C   UNL     1     148.288  -3.294   8.998  1.00  0.00     0.000 C 
BRANCH   4   5
ATOM      5  C   UNL     1     146.831  -2.843   9.162  1.00  0.00     0.000 C 
BRANCH   5   6
ATOM      6  C   UNL     1     146.611  -1.458   8.544  1.00  0.00     0.006 C 
BRANCH   6   7
ATOM      7  C   UNL     1     145.825  -1.560   7.232  1.00  0.00     0.053 C 
BRANCH   7   8
ATOM      8  C   UNL     1     144.356  -1.623   7.504  1.00  0.00     0.041 C 
ATOM      9  O   UNL     1     143.763  -0.639   8.019  1.00  0.00    -0.550 OA
ATOM     10  O   UNL     1     143.630  -2.751   7.141  1.00  0.00    -0.550 OA
ENDBRANCH   7   8
ENDBRANCH   6   7
ENDBRANCH   5   6
ENDBRANCH   4   5
ENDBRANCH   3   4
ENDBRANCH   2   3
ENDBRANCH   1   2
BRANCH   1  11
ATOM     11  C   UNL     1     149.961  -3.891   5.633  1.00  0.00    -0.031 C 
ATOM     12  C   UNL     1     149.078  -3.093   5.014  1.00  0.00    -0.027 C 
BRANCH  12  13
ATOM     13  C   UNL     1     149.508  -1.832   4.320  1.00  0.00     0.054 C 
BRANCH  13  14
ATOM     14  C   UNL     1     149.954  -0.807   5.323  1.00  0.00    -0.027 C 
ATOM     15  C   UNL     1     149.197  -0.486   6.383  1.00  0.00    -0.031 C 
BRANCH  15  16
ATOM     16  C   UNL     1     149.649   0.531   7.394  1.00  0.00     0.027 C 
BRANCH  16  17
ATOM     17  C   UNL     1     148.530   1.529   7.716  1.00  0.00     0.004 C 
BRANCH  17  18
ATOM     18  C   UNL     1     149.085   2.957   7.832  1.00  0.00     0.000 C 
BRANCH  18  19
ATOM     19  C   UNL     1     148.286   3.971   6.998  1.00  0.00    -0.003 C 
ATOM     20  C   UNL     1     149.152   5.114   6.469  1.00  0.00     0.004 C 
ENDBRANCH  18  19
ENDBRANCH  17  18
ENDBRANCH  16  17
ENDBRANCH  15  16
ENDBRANCH  13  14
ENDBRANCH  12  13
ENDBRANCH   1  11
TORSDOF 14
ENDMDL
MODEL 2
REMARK VINA RESULT:    -3.985      2.056      4.571
REMARK INTER + INTRA:          -8.975
REMARK INTER:                  -6.515
REMARK INTRA:                  -2.460
REMARK UNBOUND:                -1.728
REMARK SMILES CCCCCC=CCC=CCCCCCCCC(=O)[O-]
REMARK SMILES IDX 11 1 12 2 13 3 14 4 15 5 16 6 17 7 18 8 19 9 20 10 10 11
REMARK SMILES IDX 9 12 8 13 7 14 6 15 5 16 4 17 3 18 2 19 1 20
REMARK H PARENT
REMARK Flexibility Score: inf
ROOT
ATOM      1  C   UNL     1     148.295  -2.331  10.931  1.00  0.00     0.027 C 
ENDROOT
BRANCH   1   2
ATOM      2  C   UNL     1     148.903  -1.001  10.460  1.00  0.00     0.004 C 
BRANCH   2   3
ATOM      3  C   UNL     1     149.724  -1.152   9.170  1.00  0.00     0.000 C 
BRANCH   3   4
ATOM      4  C   UNL     1     149.080  -0.433   7.976  1.00  0.00     0.000 C 
BRANCH   4   5
ATOM      5  C   UNL     1     147.569  -0.268   8.183  1.00  0.00     0.000 C 
BRANCH   5   6
ATOM      6  C   UNL     1     146.784  -1.264   7.322  1.00  0.00     0.006 C 
BRANCH   6   7
ATOM      7  C   UNL     1     145.768  -2.039   8.166  1.00  0.00     0.053 C 
BRANCH   7   8
ATOM      8  C   UNL     1     144.377  -1.785   7.677  1.00  0.00     0.041 C 
ATOM      9  O   UNL     1     143.717  -2.709   7.133  1.00  0.00    -0.550 OA
ATOM     10  O   UNL     1     143.789  -0.542   7.869  1.00  0.00    -0.550 OA
ENDBRANCH   7   8
ENDBRANCH   6   7
ENDBRANCH   5   6
ENDBRANCH   4   5
ENDBRANCH   3   4
ENDBRANCH   2   3
ENDBRANCH   1   2
BRANCH   1  11
ATOM     11  C   UNL     1     148.691  -3.457  10.016  1.00  0.00    -0.031 C 
ATOM     12  C   UNL     1     147.943  -4.564   9.904  1.00  0.00    -0.027 C 
BRANCH  12  13
ATOM     13  C   UNL     1     148.353  -5.706   9.018  1.00  0.00     0.054 C 
BRANCH  13  14
ATOM     14  C   UNL     1     149.488  -5.296   8.125  1.00  0.00    -0.027 C 
ATOM     15  C   UNL     1     149.284  -4.935   6.850  1.00  0.00    -0.031 C 
BRANCH  15  16
ATOM     16  C   UNL     1     150.419  -4.512   5.960  1.00  0.00     0.027 C 
BRANCH  16  17
ATOM     17  C   UNL     1     150.420  -2.993   5.744  1.00  0.00     0.004 C 
BRANCH  17  18
ATOM     18  C   UNL     1     149.197  -2.554   4.925  1.00  0.00     0.000 C 
BRANCH  18  19
ATOM     19  C   UNL     1     149.508  -1.382   3.981  1.00  0.00    -0.003 C 
ATOM     20  C   UNL     1     150.989  -1.003   3.977  1.00  0.00     0.004 C 
ENDBRANCH  18  19
ENDBRANCH  17  18
ENDBRANCH  16  17
ENDBRANCH  15  16
ENDBRANCH  13  14
ENDBRANCH  12  13
ENDBRANCH   1  11
TORSDOF 14
ENDMDL
MODEL 3
REMARK VINA RESULT:    -3.917      2.227      5.083
REMARK INTER + INTRA:          -8.851
REMARK INTER:                  -6.815
REMARK INTRA:                  -2.036
REMARK UNBOUND:                -1.728
REMARK SMILES CCCCCC=CCC=CCCCCCCCC(=O)[O-]
REMARK SMILES IDX 11 1 12 2 13 3 14 4 15 5 16 6 17 7 18 8 19 9 20 10 10 11
REMARK SMILES IDX 9 12 8 13 7 14 6 15 5 16 4 17 3 18 2 19 1 20
REMARK H PARENT
REMARK Flexibility Score: inf
ROOT
ATOM      1  C   UNL     1     150.248  -4.632   5.836  1.00  0.00     0.027 C 
ENDROOT
BRANCH   1   2
ATOM      2  C   UNL     1     151.071  -3.398   6.235  1.00  0.00     0.004 C 
BRANCH   2   3
ATOM      3  C   UNL     1     150.882  -2.224   5.261  1.00  0.00     0.000 C 
BRANCH   3   4
ATOM      4  C   UNL     1     149.420  -2.051   4.826  1.00  0.00     0.000 C 
BRANCH   4   5
ATOM      5  C   UNL     1     148.548  -1.586   6.000  1.00  0.00     0.000 C 
BRANCH   5   6
ATOM      6  C   UNL     1     148.563  -0.058   6.125  1.00  0.00     0.006 C 
BRANCH   6   7
ATOM      7  C   UNL     1     149.016   0.375   7.522  1.00  0.00     0.053 C 
BRANCH   7   8
ATOM      8  C   UNL     1     148.620   1.793   7.786  1.00  0.00     0.041 C 
ATOM      9  O   UNL     1     147.832   2.067   8.730  1.00  0.00    -0.550 OA
ATOM     10  O   UNL     1     149.161   2.819   7.022  1.00  0.00    -0.550 OA
ENDBRANCH   7   8
ENDBRANCH   6   7
ENDBRANCH   5   6
ENDBRANCH   4   5
ENDBRANCH   3   4
ENDBRANCH   2   3
ENDBRANCH   1   2
BRANCH   1  11
ATOM     11  C   UNL     1     149.477  -5.167   7.012  1.00  0.00    -0.031 C 
ATOM     12  C   UNL     1     149.048  -4.360   7.994  1.00  0.00    -0.027 C 
BRANCH  12  13
ATOM     13  C   UNL     1     148.308  -4.894   9.186  1.00  0.00     0.054 C 
BRANCH  13  14
ATOM     14  C   UNL     1     147.480  -3.813   9.819  1.00  0.00    -0.027 C 
ATOM     15  C   UNL     1     147.595  -2.531   9.444  1.00  0.00    -0.031 C 
BRANCH  15  16
ATOM     16  C   UNL     1     146.757  -1.450  10.068  1.00  0.00     0.027 C 
BRANCH  16  17
ATOM     17  C   UNL     1     145.433  -1.269   9.314  1.00  0.00     0.004 C 
BRANCH  17  18
ATOM     18  C   UNL     1     145.637  -1.429   7.800  1.00  0.00     0.000 C 
BRANCH  18  19
ATOM     19  C   UNL     1     144.311  -1.422   7.022  1.00  0.00    -0.003 C 
ATOM     20  C   UNL     1     143.360  -2.534   7.464  1.00  0.00     0.004 C 
ENDBRANCH  18  19
ENDBRANCH  17  18
ENDBRANCH  16  17
ENDBRANCH  15  16
ENDBRANCH  13  14
ENDBRANCH  12  13
ENDBRANCH   1  11
TORSDOF 14
ENDMDL
MODEL 4
REMARK VINA RESULT:    -3.870      1.768      4.708
REMARK INTER + INTRA:          -8.765
REMARK INTER:                  -6.018
REMARK INTRA:                  -2.746
REMARK UNBOUND:                -1.728
REMARK SMILES CCCCCC=CCC=CCCCCCCCC(=O)[O-]
REMARK SMILES IDX 11 1 12 2 13 3 14 4 15 5 16 6 17 7 18 8 19 9 20 10 10 11
REMARK SMILES IDX 9 12 8 13 7 14 6 15 5 16 4 17 3 18 2 19 1 20
REMARK H PARENT
REMARK Flexibility Score: inf
ROOT
ATOM      1  C   UNL     1     150.368  -1.080   5.229  1.00  0.00     0.027 C 
ENDROOT
BRANCH   1   2
ATOM      2  C   UNL     1     149.010  -0.644   5.800  1.00  0.00     0.004 C 
BRANCH   2   3
ATOM      3  C   UNL     1     149.147   0.107   7.134  1.00  0.00     0.000 C 
BRANCH   3   4
ATOM      4  C   UNL     1     148.840  -0.786   8.345  1.00  0.00     0.000 C 
BRANCH   4   5
ATOM      5  C   UNL     1     147.488  -0.418   8.971  1.00  0.00     0.000 C 
BRANCH   5   6
ATOM      6  C   UNL     1     146.493  -1.577   8.848  1.00  0.00     0.006 C 
BRANCH   6   7
ATOM      7  C   UNL     1     145.886  -1.635   7.443  1.00  0.00     0.053 C 
BRANCH   7   8
ATOM      8  C   UNL     1     144.392  -1.648   7.516  1.00  0.00     0.041 C 
ATOM      9  O   UNL     1     143.748  -2.663   7.145  1.00  0.00    -0.550 OA
ATOM     10  O   UNL     1     143.713  -0.557   8.043  1.00  0.00    -0.550 OA
ENDBRANCH   7   8
ENDBRANCH   6   7
ENDBRANCH   5   6
ENDBRANCH   4   5
ENDBRANCH   3   4
ENDBRANCH   2   3
ENDBRANCH   1   2
BRANCH   1  11
ATOM     11  C   UNL     1     150.557  -2.566   5.367  1.00  0.00    -0.031 C 
ATOM     12  C   UNL     1     149.556  -3.365   5.765  1.00  0.00    -0.027 C 
BRANCH  12  13
ATOM     13  C   UNL     1     149.750  -4.845   5.938  1.00  0.00     0.054 C 
BRANCH  13  14
ATOM     14  C   UNL     1     149.380  -5.264   7.331  1.00  0.00    -0.027 C 
ATOM     15  C   UNL     1     148.574  -4.516   8.099  1.00  0.00    -0.031 C 
BRANCH  15  16
ATOM     16  C   UNL     1     148.193  -4.942   9.490  1.00  0.00     0.027 C 
BRANCH  16  17
ATOM     17  C   UNL     1     149.415  -4.966  10.417  1.00  0.00     0.004 C 
BRANCH  17  18
ATOM     18  C   UNL     1     149.954  -3.547  10.652  1.00  0.00     0.000 C 
BRANCH  18  19
ATOM     19  C   UNL     1     151.460  -3.433  10.365  1.00  0.00    -0.003 C 
ATOM     20  C   UNL     1     151.757  -2.935   8.951  1.00  0.00     0.004 C 
ENDBRANCH  18  19
ENDBRANCH  17  18
ENDBRANCH  16  17
ENDBRANCH  15  16
ENDBRANCH  13  14
ENDBRANCH  12  13
ENDBRANCH   1  11
TORSDOF 14
ENDMDL
MODEL 5
REMARK VINA RESULT:    -3.807      3.210      5.285
REMARK INTER + INTRA:          -8.652
REMARK INTER:                  -6.784
REMARK INTRA:                  -1.868
REMARK UNBOUND:                -1.728
REMARK SMILES CCCCCC=CCC=CCCCCCCCC(=O)[O-]
REMARK SMILES IDX 11 1 12 2 13 3 14 4 15 5 16 6 17 7 18 8 19 9 20 10 10 11
REMARK SMILES IDX 9 12 8 13 7 14 6 15 5 16 4 17 3 18 2 19 1 20
REMARK H PARENT
REMARK Flexibility Score: inf
ROOT
ATOM      1  C   UNL     1     149.335  -2.193   4.370  1.00  0.00     0.027 C 
ENDROOT
BRANCH   1   2
ATOM      2  C   UNL     1     150.155  -0.950   3.991  1.00  0.00     0.004 C 
BRANCH   2   3
ATOM      3  C   UNL     1     151.667  -1.174   4.142  1.00  0.00     0.000 C 
BRANCH   3   4
ATOM      4  C   UNL     1     152.242  -0.484   5.387  1.00  0.00     0.000 C 
BRANCH   4   5
ATOM      5  C   UNL     1     152.390  -1.476   6.547  1.00  0.00     0.000 C 
BRANCH   5   6
ATOM      6  C   UNL     1     152.665  -2.892   6.028  1.00  0.00     0.006 C 
BRANCH   6   7
ATOM      7  C   UNL     1     151.710  -3.907   6.663  1.00  0.00     0.053 C 
BRANCH   7   8
ATOM      8  C   UNL     1     151.493  -5.069   5.747  1.00  0.00     0.041 C 
ATOM      9  O   UNL     1     150.327  -5.406   5.415  1.00  0.00    -0.550 OA
ATOM     10  O   UNL     1     152.583  -5.750   5.219  1.00  0.00    -0.550 OA
ENDBRANCH   7   8
ENDBRANCH   6   7
ENDBRANCH   5   6
ENDBRANCH   4   5
ENDBRANCH   3   4
ENDBRANCH   2   3
ENDBRANCH   1   2
BRANCH   1  11
ATOM     11  C   UNL     1     148.680  -2.015   5.712  1.00  0.00    -0.031 C 
ATOM     12  C   UNL     1     148.708  -0.838   6.355  1.00  0.00    -0.027 C 
BRANCH  12  13
ATOM     13  C   UNL     1     148.085  -0.665   7.711  1.00  0.00     0.054 C 
BRANCH  13  14
ATOM     14  C   UNL     1     148.307   0.730   8.217  1.00  0.00    -0.027 C 
ATOM     15  C   UNL     1     148.719   1.715   7.405  1.00  0.00    -0.031 C 
BRANCH  15  16
ATOM     16  C   UNL     1     148.929   3.116   7.909  1.00  0.00     0.027 C 
BRANCH  16  17
ATOM     17  C   UNL     1     147.934   4.091   7.267  1.00  0.00     0.004 C 
BRANCH  17  18
ATOM     18  C   UNL     1     148.567   5.479   7.084  1.00  0.00     0.000 C 
BRANCH  18  19
ATOM     19  C   UNL     1     149.779   5.456   6.140  1.00  0.00    -0.003 C 
ATOM     20  C   UNL     1     149.772   6.612   5.139  1.00  0.00     0.004 C 
ENDBRANCH  18  19
ENDBRANCH  17  18
ENDBRANCH  16  17
ENDBRANCH  15  16
ENDBRANCH  13  14
ENDBRANCH  12  13
ENDBRANCH   1  11
TORSDOF 14
ENDMDL
MODEL 6
REMARK VINA RESULT:    -3.766      2.822      4.992
REMARK INTER + INTRA:          -8.576
REMARK INTER:                  -6.092
REMARK INTRA:                  -2.484
REMARK UNBOUND:                -1.728
REMARK SMILES CCCCCC=CCC=CCCCCCCCC(=O)[O-]
REMARK SMILES IDX 11 1 12 2 13 3 14 4 15 5 16 6 17 7 18 8 19 9 20 10 10 11
REMARK SMILES IDX 9 12 8 13 7 14 6 15 5 16 4 17 3 18 2 19 1 20
REMARK H PARENT
REMARK Flexibility Score: inf
ROOT
ATOM      1  C   UNL     1     145.606  -1.520   7.410  1.00  0.00     0.027 C 
ENDROOT
BRANCH   1   2
ATOM      2  C   UNL     1     145.043  -1.255   8.815  1.00  0.00     0.004 C 
BRANCH   2   3
ATOM      3  C   UNL     1     145.085  -2.502   9.712  1.00  0.00     0.000 C 
BRANCH   3   4
ATOM      4  C   UNL     1     146.165  -2.407  10.799  1.00  0.00     0.000 C 
BRANCH   4   5
ATOM      5  C   UNL     1     147.139  -3.590  10.712  1.00  0.00     0.000 C 
BRANCH   5   6
ATOM      6  C   UNL     1     148.292  -3.282   9.749  1.00  0.00     0.006 C 
BRANCH   6   7
ATOM      7  C   UNL     1     148.261  -4.218   8.537  1.00  0.00     0.053 C 
BRANCH   7   8
ATOM      8  C   UNL     1     148.655  -5.605   8.935  1.00  0.00     0.041 C 
ATOM      9  O   UNL     1     149.824  -5.842   9.339  1.00  0.00    -0.550 OA
ATOM     10  O   UNL     1     147.716  -6.629   8.910  1.00  0.00    -0.550 OA
ENDBRANCH   7   8
ENDBRANCH   6   7
ENDBRANCH   5   6
ENDBRANCH   4   5
ENDBRANCH   3   4
ENDBRANCH   2   3
ENDBRANCH   1   2
BRANCH   1  11
ATOM     11  C   UNL     1     146.984  -0.936   7.264  1.00  0.00    -0.031 C 
ATOM     12  C   UNL     1     147.510  -0.139   8.206  1.00  0.00    -0.027 C 
BRANCH  12  13
ATOM     13  C   UNL     1     148.871   0.475   8.048  1.00  0.00     0.054 C 
BRANCH  13  14
ATOM     14  C   UNL     1     149.871  -0.565   7.632  1.00  0.00    -0.027 C 
ATOM     15  C   UNL     1     151.063  -0.226   7.117  1.00  0.00    -0.031 C 
BRANCH  15  16
ATOM     16  C   UNL     1     152.070  -1.267   6.713  1.00  0.00     0.027 C 
BRANCH  16  17
ATOM     17  C   UNL     1     151.595  -2.050   5.482  1.00  0.00     0.004 C 
BRANCH  17  18
ATOM     18  C   UNL     1     151.096  -1.098   4.384  1.00  0.00     0.000 C 
BRANCH  18  19
ATOM     19  C   UNL     1     149.668  -1.427   3.923  1.00  0.00    -0.003 C 
ATOM     20  C   UNL     1     149.062  -2.614   4.673  1.00  0.00     0.004 C 
ENDBRANCH  18  19
ENDBRANCH  17  18
ENDBRANCH  16  17
ENDBRANCH  15  16
ENDBRANCH  13  14
ENDBRANCH  12  13
ENDBRANCH   1  11
TORSDOF 14
ENDMDL
MODEL 7
REMARK VINA RESULT:    -3.721      2.290      5.284
REMARK INTER + INTRA:          -8.494
REMARK INTER:                  -6.437
REMARK INTRA:                  -2.057
REMARK UNBOUND:                -1.728
REMARK SMILES CCCCCC=CCC=CCCCCCCCC(=O)[O-]
REMARK SMILES IDX 11 1 12 2 13 3 14 4 15 5 16 6 17 7 18 8 19 9 20 10 10 11
REMARK SMILES IDX 9 12 8 13 7 14 6 15 5 16 4 17 3 18 2 19 1 20
REMARK H PARENT
REMARK Flexibility Score: inf
ROOT
ATOM      1  C   UNL     1     146.716  -2.930  10.843  1.00  0.00     0.027 C 
ENDROOT
BRANCH   1   2
ATOM      2  C   UNL     1     145.705  -2.005  10.149  1.00  0.00     0.004 C 
BRANCH   2   3
ATOM      3  C   UNL     1     145.421  -2.425   8.698  1.00  0.00     0.000 C 
BRANCH   3   4
ATOM      4  C   UNL     1     145.570  -1.260   7.709  1.00  0.00     0.000 C 
BRANCH   4   5
ATOM      5  C   UNL     1     146.959  -1.267   7.057  1.00  0.00     0.000 C 
BRANCH   5   6
ATOM      6  C   UNL     1     147.940  -0.393   7.847  1.00  0.00     0.006 C 
BRANCH   6   7
ATOM      7  C   UNL     1     148.621   0.632   6.935  1.00  0.00     0.053 C 
BRANCH   7   8
ATOM      8  C   UNL     1     148.674   1.971   7.599  1.00  0.00     0.041 C 
ATOM      9  O   UNL     1     147.993   2.194   8.633  1.00  0.00    -0.550 OA
ATOM     10  O   UNL     1     149.517   2.959   7.105  1.00  0.00    -0.550 OA
ENDBRANCH   7   8
ENDBRANCH   6   7
ENDBRANCH   5   6
ENDBRANCH   4   5
ENDBRANCH   3   4
ENDBRANCH   2   3
ENDBRANCH   1   2
BRANCH   1  11
ATOM     11  C   UNL     1     147.522  -3.699   9.833  1.00  0.00    -0.031 C 
ATOM     12  C   UNL     1     147.883  -4.973  10.049  1.00  0.00    -0.027 C 
BRANCH  12  13
ATOM     13  C   UNL     1     148.718  -5.734   9.059  1.00  0.00     0.054 C 
BRANCH  13  14
ATOM     14  C   UNL     1     149.018  -4.881   7.860  1.00  0.00    -0.027 C 
ATOM     15  C   UNL     1     149.438  -5.418   6.705  1.00  0.00    -0.031 C 
BRANCH  15  16
ATOM     16  C   UNL     1     149.727  -4.566   5.500  1.00  0.00     0.027 C 
BRANCH  16  17
ATOM     17  C   UNL     1     149.442  -3.086   5.785  1.00  0.00     0.004 C 
BRANCH  17  18
ATOM     18  C   UNL     1     150.746  -2.276   5.838  1.00  0.00     0.000 C 
BRANCH  18  19
ATOM     19  C   UNL     1     150.948  -1.400   4.592  1.00  0.00    -0.003 C 
ATOM     20  C   UNL     1     149.651  -1.167   3.816  1.00  0.00     0.004 C 
ENDBRANCH  18  19
ENDBRANCH  17  18
ENDBRANCH  16  17
ENDBRANCH  15  16
ENDBRANCH  13  14
ENDBRANCH  12  13
ENDBRANCH   1  11
TORSDOF 14
ENDMDL
MODEL 8
REMARK VINA RESULT:    -3.678      2.367      4.573
REMARK INTER + INTRA:          -8.416
REMARK INTER:                  -5.924
REMARK INTRA:                  -2.492
REMARK UNBOUND:                -1.728
REMARK SMILES CCCCCC=CCC=CCCCCCCCC(=O)[O-]
REMARK SMILES IDX 11 1 12 2 13 3 14 4 15 5 16 6 17 7 18 8 19 9 20 10 10 11
REMARK SMILES IDX 9 12 8 13 7 14 6 15 5 16 4 17 3 18 2 19 1 20
REMARK H PARENT
REMARK Flexibility Score: inf
ROOT
ATOM      1  C   UNL     1     149.007  -2.054   5.145  1.00  0.00     0.027 C 
ENDROOT
BRANCH   1   2
ATOM      2  C   UNL     1     150.244  -2.929   5.399  1.00  0.00     0.004 C 
BRANCH   2   3
ATOM      3  C   UNL     1     149.876  -4.369   5.791  1.00  0.00     0.000 C 
BRANCH   3   4
ATOM      4  C   UNL     1     150.669  -4.867   7.009  1.00  0.00     0.000 C 
BRANCH   4   5
ATOM      5  C   UNL     1     151.010  -3.708   7.954  1.00  0.00     0.000 C 
BRANCH   5   6
ATOM      6  C   UNL     1     150.241  -3.831   9.275  1.00  0.00     0.006 C 
BRANCH   6   7
ATOM      7  C   UNL     1     148.814  -3.292   9.133  1.00  0.00     0.053 C 
BRANCH   7   8
ATOM      8  C   UNL     1     147.818  -4.325   9.556  1.00  0.00     0.041 C 
ATOM      9  O   UNL     1     146.935  -4.044  10.407  1.00  0.00    -0.550 OA
ATOM     10  O   UNL     1     147.833  -5.585   8.971  1.00  0.00    -0.550 OA
ENDBRANCH   7   8
ENDBRANCH   6   7
ENDBRANCH   5   6
ENDBRANCH   4   5
ENDBRANCH   3   4
ENDBRANCH   2   3
ENDBRANCH   1   2
BRANCH   1  11
ATOM     11  C   UNL     1     148.992  -0.865   6.066  1.00  0.00    -0.031 C 
ATOM     12  C   UNL     1     150.090  -0.485   6.736  1.00  0.00    -0.027 C 
BRANCH  12  13
ATOM     13  C   UNL     1     150.071   0.681   7.683  1.00  0.00     0.054 C 
BRANCH  13  14
ATOM     14  C   UNL     1     149.396   0.302   8.969  1.00  0.00    -0.027 C 
ATOM     15  C   UNL     1     148.085   0.511   9.163  1.00  0.00    -0.031 C 
BRANCH  15  16
ATOM     16  C   UNL     1     147.406   0.119  10.446  1.00  0.00     0.027 C 
BRANCH  16  17
ATOM     17  C   UNL     1     146.068  -0.581  10.174  1.00  0.00     0.004 C 
BRANCH  17  18
ATOM     18  C   UNL     1     145.973  -1.034   8.710  1.00  0.00     0.000 C 
BRANCH  18  19
ATOM     19  C   UNL     1     144.650  -1.753   8.399  1.00  0.00    -0.003 C 
ATOM     20  C   UNL     1     144.291  -1.714   6.913  1.00  0.00     0.004 C 
ENDBRANCH  18  19
ENDBRANCH  17  18
ENDBRANCH  16  17
ENDBRANCH  15  16
ENDBRANCH  13  14
ENDBRANCH  12  13
ENDBRANCH   1  11
TORSDOF 14
ENDMDL
MODEL 9
REMARK VINA RESULT:    -3.676     13.434     16.078
REMARK INTER + INTRA:          -8.413
REMARK INTER:                  -6.374
REMARK INTRA:                  -2.039
REMARK UNBOUND:                -1.728
REMARK SMILES CCCCCC=CCC=CCCCCCCCC(=O)[O-]
REMARK SMILES IDX 11 1 12 2 13 3 14 4 15 5 16 6 17 7 18 8 19 9 20 10 10 11
REMARK SMILES IDX 9 12 8 13 7 14 6 15 5 16 4 17 3 18 2 19 1 20
REMARK H PARENT
REMARK Flexibility Score: inf
ROOT
ATOM      1  C   UNL     1     146.737  -4.748  -4.371  1.00  0.00     0.027 C 
ENDROOT
BRANCH   1   2
ATOM      2  C   UNL     1     147.577  -5.739  -5.190  1.00  0.00     0.004 C 
BRANCH   2   3
ATOM      3  C   UNL     1     146.767  -6.418  -6.305  1.00  0.00     0.000 C 
BRANCH   3   4
ATOM      4  C   UNL     1     147.525  -6.460  -7.640  1.00  0.00     0.000 C 
BRANCH   4   5
ATOM      5  C   UNL     1     146.844  -5.568  -8.687  1.00  0.00     0.000 C 
BRANCH   5   6
ATOM      6  C   UNL     1     147.741  -4.385  -9.068  1.00  0.00     0.006 C 
BRANCH   6   7
ATOM      7  C   UNL     1     149.150  -4.555  -8.493  1.00  0.00     0.053 C 
BRANCH   7   8
ATOM      8  C   UNL     1     149.952  -3.308  -8.691  1.00  0.00     0.041 C 
ATOM      9  O   UNL     1     149.452  -2.183  -8.424  1.00  0.00    -0.550 OA
ATOM     10  O   UNL     1     151.270  -3.390  -9.120  1.00  0.00    -0.550 OA
ENDBRANCH   7   8
ENDBRANCH   6   7
ENDBRANCH   5   6
ENDBRANCH   4   5
ENDBRANCH   3   4
ENDBRANCH   2   3
ENDBRANCH   1   2
BRANCH   1  11
ATOM     11  C   UNL     1     146.055  -3.752  -5.268  1.00  0.00    -0.031 C 
ATOM     12  C   UNL     1     146.754  -2.848  -5.971  1.00  0.00    -0.027 C 
BRANCH  12  13
ATOM     13  C   UNL     1     146.076  -1.829  -6.840  1.00  0.00     0.054 C 
BRANCH  13  14
ATOM     14  C   UNL     1     144.927  -2.452  -7.580  1.00  0.00    -0.027 C 
ATOM     15  C   UNL     1     143.712  -1.884  -7.595  1.00  0.00    -0.031 C 
BRANCH  15  16
ATOM     16  C   UNL     1     142.565  -2.500  -8.348  1.00  0.00     0.027 C 
BRANCH  16  17
ATOM     17  C   UNL     1     142.435  -3.996  -8.034  1.00  0.00     0.004 C 
BRANCH  17  18
ATOM     18  C   UNL     1     141.068  -4.310  -7.408  1.00  0.00     0.000 C 
BRANCH  18  19
ATOM     19  C   UNL     1     140.756  -5.814  -7.394  1.00  0.00    -0.003 C 
ATOM     20  C   UNL     1     139.962  -6.242  -6.159  1.00  0.00     0.004 C 
ENDBRANCH  18  19
ENDBRANCH  17  18
ENDBRANCH  16  17
ENDBRANCH  15  16
ENDBRANCH  13  14
ENDBRANCH  12  13
ENDBRANCH   1  11
TORSDOF 14
ENDMDL
