MODEL 1
REMARK VINA RESULT:    -6.693      0.000      0.000
REMARK INTER + INTRA:          -8.333
REMARK INTER:                  -8.063
REMARK INTRA:                  -0.270
REMARK UNBOUND:                -0.270
REMARK SMILES O=c1c(O)c(-c2ccc(O)c(O)c2)oc2cc(O)cc(O)c12
REMARK SMILES IDX 5 1 3 2 2 3 1 4 22 5 20 6 19 7 17 8 16 9 15 10 14 11 6 12
REMARK SMILES IDX 7 13 8 14 9 15 13 16 11 17 10 18 12 20 4 22 21 24 18 26
REMARK H PARENT 10 19 12 21 4 23 21 25 18 27
REMARK Flexibility Score: inf
ROOT
ATOM      1  C   UNL     1      57.636  18.190  45.965  1.00  0.00     0.180 A 
ATOM      2  C   UNL     1      57.528  19.046  47.075  1.00  0.00     0.208 A 
ATOM      3  C   UNL     1      57.144  20.381  46.870  1.00  0.00     0.238 A 
ATOM      4  O   UNL     1      56.997  21.127  47.874  1.00  0.00    -0.285 OA
ATOM      5  C   UNL     1      56.888  20.847  45.559  1.00  0.00     0.111 A 
ATOM      6  C   UNL     1      56.531  22.189  45.231  1.00  0.00     0.134 A 
ATOM      7  C   UNL     1      56.173  22.508  43.915  1.00  0.00     0.093 A 
ATOM      8  C   UNL     1      56.223  21.550  42.904  1.00  0.00     0.123 A 
ATOM      9  C   UNL     1      56.628  20.248  43.202  1.00  0.00     0.094 A 
ATOM     10  C   UNL     1      56.955  19.891  44.512  1.00  0.00     0.146 A 
ATOM     11  O   UNL     1      57.326  18.639  44.755  1.00  0.00    -0.452 OA
ENDROOT
BRANCH   1  12
ATOM     12  C   UNL     1      58.060  16.778  46.098  1.00  0.00     0.025 A 
ATOM     13  C   UNL     1      57.138  15.818  46.546  1.00  0.00     0.016 A 
ATOM     14  C   UNL     1      57.511  14.477  46.658  1.00  0.00     0.051 A 
ATOM     15  C   UNL     1      58.806  14.072  46.311  1.00  0.00     0.157 A 
ATOM     16  C   UNL     1      59.354  16.363  45.730  1.00  0.00     0.062 A 
ATOM     17  C   UNL     1      59.728  15.016  45.842  1.00  0.00     0.158 A 
BRANCH  15  18
ATOM     18  O   UNL     1      59.183  12.735  46.423  1.00  0.00    -0.504 OA
ATOM     19  H   UNL     1      59.371  12.167  45.605  1.00  0.00     0.293 HD
ENDBRANCH  15  18
BRANCH  17  20
ATOM     20  O   UNL     1      61.012  14.608  45.484  1.00  0.00    -0.504 OA
ATOM     21  H   UNL     1      61.595  15.169  44.873  1.00  0.00     0.293 HD
ENDBRANCH  17  20
ENDBRANCH   1  12
BRANCH   2  22
ATOM     22  O   UNL     1      57.765  18.558  48.363  1.00  0.00    -0.502 OA
ATOM     23  H   UNL     1      58.382  19.027  49.017  1.00  0.00     0.293 HD
ENDBRANCH   2  22
BRANCH   6  24
ATOM     24  O   UNL     1      56.538  23.245  46.149  1.00  0.00    -0.507 OA
ATOM     25  H   UNL     1      57.219  23.989  46.162  1.00  0.00     0.293 HD
ENDBRANCH   6  24
BRANCH   8  26
ATOM     26  O   UNL     1      55.875  21.905  41.603  1.00  0.00    -0.508 OA
ATOM     27  H   UNL     1      54.962  21.688  41.220  1.00  0.00     0.293 HD
ENDBRANCH   8  26
TORSDOF 6
ENDMDL
MODEL 2
REMARK VINA RESULT:    -6.599      0.809      1.564
REMARK INTER + INTRA:          -8.220
REMARK INTER:                  -7.966
REMARK INTRA:                  -0.254
REMARK UNBOUND:                -0.270
REMARK SMILES O=c1c(O)c(-c2ccc(O)c(O)c2)oc2cc(O)cc(O)c12
REMARK SMILES IDX 5 1 3 2 2 3 1 4 22 5 20 6 19 7 17 8 16 9 15 10 14 11 6 12
REMARK SMILES IDX 7 13 8 14 9 15 13 16 11 17 10 18 12 20 4 22 21 24 18 26
REMARK H PARENT 10 19 12 21 4 23 21 25 18 27
REMARK Flexibility Score: inf
ROOT
ATOM      1  C   UNL     1      57.528  17.795  45.995  1.00  0.00     0.180 A 
ATOM      2  C   UNL     1      57.486  18.683  47.084  1.00  0.00     0.208 A 
ATOM      3  C   UNL     1      57.168  20.031  46.852  1.00  0.00     0.238 A 
ATOM      4  O   UNL     1      57.080  20.809  47.838  1.00  0.00    -0.285 OA
ATOM      5  C   UNL     1      56.911  20.477  45.533  1.00  0.00     0.111 A 
ATOM      6  C   UNL     1      56.618  21.828  45.178  1.00  0.00     0.134 A 
ATOM      7  C   UNL     1      56.251  22.132  43.861  1.00  0.00     0.093 A 
ATOM      8  C   UNL     1      56.231  21.147  42.874  1.00  0.00     0.123 A 
ATOM      9  C   UNL     1      56.574  19.834  43.198  1.00  0.00     0.094 A 
ATOM     10  C   UNL     1      56.908  19.493  44.510  1.00  0.00     0.146 A 
ATOM     11  O   UNL     1      57.217  18.230  44.779  1.00  0.00    -0.452 OA
ENDROOT
BRANCH   1  12
ATOM     12  C   UNL     1      57.881  16.367  46.156  1.00  0.00     0.025 A 
ATOM     13  C   UNL     1      59.163  15.925  45.790  1.00  0.00     0.016 A 
ATOM     14  C   UNL     1      59.524  14.586  45.954  1.00  0.00     0.051 A 
ATOM     15  C   UNL     1      58.615  13.670  46.498  1.00  0.00     0.157 A 
ATOM     16  C   UNL     1      56.978  15.447  46.722  1.00  0.00     0.062 A 
ATOM     17  C   UNL     1      57.341  14.103  46.886  1.00  0.00     0.158 A 
BRANCH  15  18
ATOM     18  O   UNL     1      58.970  12.333  46.661  1.00  0.00    -0.504 OA
ATOM     19  H   UNL     1      59.880  12.067  47.021  1.00  0.00     0.293 HD
ENDBRANCH  15  18
BRANCH  17  20
ATOM     20  O   UNL     1      56.443  13.193  47.441  1.00  0.00    -0.504 OA
ATOM     21  H   UNL     1      55.783  12.681  46.865  1.00  0.00     0.293 HD
ENDBRANCH  17  20
ENDBRANCH   1  12
BRANCH   2  22
ATOM     22  O   UNL     1      57.723  18.216  48.380  1.00  0.00    -0.502 OA
ATOM     23  H   UNL     1      58.637  17.906  48.688  1.00  0.00     0.293 HD
ENDBRANCH   2  22
BRANCH   6  24
ATOM     24  O   UNL     1      56.698  22.904  46.067  1.00  0.00    -0.507 OA
ATOM     25  H   UNL     1      55.902  23.387  46.457  1.00  0.00     0.293 HD
ENDBRANCH   6  24
BRANCH   8  26
ATOM     26  O   UNL     1      55.877  21.488  41.570  1.00  0.00    -0.508 OA
ATOM     27  H   UNL     1      56.515  21.354  40.795  1.00  0.00     0.293 HD
ENDBRANCH   8  26
TORSDOF 6
ENDMDL
MODEL 3
REMARK VINA RESULT:    -6.157      3.951      5.808
REMARK INTER + INTRA:          -7.687
REMARK INTER:                  -7.396
REMARK INTRA:                  -0.292
REMARK UNBOUND:                -0.270
REMARK SMILES O=c1c(O)c(-c2ccc(O)c(O)c2)oc2cc(O)cc(O)c12
REMARK SMILES IDX 5 1 3 2 2 3 1 4 22 5 20 6 19 7 17 8 16 9 15 10 14 11 6 12
REMARK SMILES IDX 7 13 8 14 9 15 13 16 11 17 10 18 12 20 4 22 21 24 18 26
REMARK H PARENT 10 19 12 21 4 23 21 25 18 27
REMARK Flexibility Score: inf
ROOT
ATOM      1  C   UNL     1      59.758  21.001  46.816  1.00  0.00     0.180 A 
ATOM      2  C   UNL     1      59.226  21.961  45.938  1.00  0.00     0.208 A 
ATOM      3  C   UNL     1      58.110  21.624  45.154  1.00  0.00     0.238 A 
ATOM      4  O   UNL     1      57.607  22.505  44.409  1.00  0.00    -0.285 OA
ATOM      5  C   UNL     1      57.550  20.328  45.248  1.00  0.00     0.111 A 
ATOM      6  C   UNL     1      56.445  19.865  44.472  1.00  0.00     0.134 A 
ATOM      7  C   UNL     1      55.891  18.607  44.741  1.00  0.00     0.093 A 
ATOM      8  C   UNL     1      56.442  17.769  45.710  1.00  0.00     0.123 A 
ATOM      9  C   UNL     1      57.560  18.188  46.433  1.00  0.00     0.094 A 
ATOM     10  C   UNL     1      58.112  19.452  46.213  1.00  0.00     0.146 A 
ATOM     11  O   UNL     1      59.169  19.816  46.930  1.00  0.00    -0.452 OA
ENDROOT
BRANCH   1  12
ATOM     12  C   UNL     1      60.947  21.273  47.655  1.00  0.00     0.025 A 
ATOM     13  C   UNL     1      60.797  21.983  48.857  1.00  0.00     0.016 A 
ATOM     14  C   UNL     1      61.902  22.232  49.674  1.00  0.00     0.051 A 
ATOM     15  C   UNL     1      63.171  21.764  49.309  1.00  0.00     0.157 A 
ATOM     16  C   UNL     1      62.220  20.787  47.302  1.00  0.00     0.062 A 
ATOM     17  C   UNL     1      63.329  21.037  48.122  1.00  0.00     0.158 A 
BRANCH  15  18
ATOM     18  O   UNL     1      64.277  22.013  50.120  1.00  0.00    -0.504 OA
ATOM     19  H   UNL     1      64.883  22.809  49.959  1.00  0.00     0.293 HD
ENDBRANCH  15  18
BRANCH  17  20
ATOM     20  O   UNL     1      64.590  20.560  47.768  1.00  0.00    -0.504 OA
ATOM     21  H   UNL     1      65.185  20.087  48.439  1.00  0.00     0.293 HD
ENDBRANCH  17  20
ENDBRANCH   1  12
BRANCH   2  22
ATOM     22  O   UNL     1      59.782  23.242  45.877  1.00  0.00    -0.502 OA
ATOM     23  H   UNL     1      59.728  23.895  46.651  1.00  0.00     0.293 HD
ENDBRANCH   2  22
BRANCH   6  24
ATOM     24  O   UNL     1      55.875  20.585  43.417  1.00  0.00    -0.507 OA
ATOM     25  H   UNL     1      56.013  21.571  43.255  1.00  0.00     0.293 HD
ENDBRANCH   6  24
BRANCH   8  26
ATOM     26  O   UNL     1      55.875  16.518  45.940  1.00  0.00    -0.508 OA
ATOM     27  H   UNL     1      54.925  16.421  46.280  1.00  0.00     0.293 HD
ENDBRANCH   8  26
TORSDOF 6
ENDMDL
MODEL 4
REMARK VINA RESULT:    -6.028      1.891      7.119
REMARK INTER + INTRA:          -7.532
REMARK INTER:                  -7.210
REMARK INTRA:                  -0.322
REMARK UNBOUND:                -0.270
REMARK SMILES O=c1c(O)c(-c2ccc(O)c(O)c2)oc2cc(O)cc(O)c12
REMARK SMILES IDX 5 1 3 2 2 3 1 4 22 5 20 6 19 7 17 8 16 9 15 10 14 11 6 12
REMARK SMILES IDX 7 13 8 14 9 15 13 16 11 17 10 18 12 20 4 22 21 24 18 26
REMARK H PARENT 10 19 12 21 4 23 21 25 18 27
REMARK Flexibility Score: inf
ROOT
ATOM      1  C   UNL     1      58.361  18.215  46.633  1.00  0.00     0.180 A 
ATOM      2  C   UNL     1      57.623  17.041  46.866  1.00  0.00     0.208 A 
ATOM      3  C   UNL     1      58.310  15.826  47.023  1.00  0.00     0.238 A 
ATOM      4  O   UNL     1      57.647  14.788  47.284  1.00  0.00    -0.285 OA
ATOM      5  C   UNL     1      59.721  15.797  46.929  1.00  0.00     0.111 A 
ATOM      6  C   UNL     1      60.517  14.616  47.031  1.00  0.00     0.134 A 
ATOM      7  C   UNL     1      61.913  14.723  47.054  1.00  0.00     0.093 A 
ATOM      8  C   UNL     1      62.543  15.959  46.911  1.00  0.00     0.123 A 
ATOM      9  C   UNL     1      61.775  17.113  46.751  1.00  0.00     0.094 A 
ATOM     10  C   UNL     1      60.381  17.043  46.761  1.00  0.00     0.146 A 
ATOM     11  O   UNL     1      59.687  18.166  46.616  1.00  0.00    -0.452 OA
ENDROOT
BRANCH   1  12
ATOM     12  C   UNL     1      57.708  19.528  46.432  1.00  0.00     0.025 A 
ATOM     13  C   UNL     1      57.637  20.436  47.501  1.00  0.00     0.016 A 
ATOM     14  C   UNL     1      57.045  21.689  47.327  1.00  0.00     0.051 A 
ATOM     15  C   UNL     1      56.526  22.059  46.080  1.00  0.00     0.157 A 
ATOM     16  C   UNL     1      57.204  19.913  45.175  1.00  0.00     0.062 A 
ATOM     17  C   UNL     1      56.610  21.170  45.001  1.00  0.00     0.158 A 
BRANCH  15  18
ATOM     18  O   UNL     1      55.932  23.307  45.903  1.00  0.00    -0.504 OA
ATOM     19  H   UNL     1      56.278  24.131  46.382  1.00  0.00     0.293 HD
ENDBRANCH  15  18
BRANCH  17  20
ATOM     20  O   UNL     1      56.106  21.547  43.757  1.00  0.00    -0.504 OA
ATOM     21  H   UNL     1      56.493  22.331  43.244  1.00  0.00     0.293 HD
ENDBRANCH  17  20
ENDBRANCH   1  12
BRANCH   2  22
ATOM     22  O   UNL     1      56.231  17.096  46.976  1.00  0.00    -0.502 OA
ATOM     23  H   UNL     1      55.756  17.822  47.501  1.00  0.00     0.293 HD
ENDBRANCH   2  22
BRANCH   6  24
ATOM     24  O   UNL     1      59.989  13.322  47.086  1.00  0.00    -0.507 OA
ATOM     25  H   UNL     1      59.393  12.915  46.382  1.00  0.00     0.293 HD
ENDBRANCH   6  24
BRANCH   8  26
ATOM     26  O   UNL     1      63.934  16.027  46.923  1.00  0.00    -0.508 OA
ATOM     27  H   UNL     1      64.506  15.227  46.676  1.00  0.00     0.293 HD
ENDBRANCH   8  26
TORSDOF 6
ENDMDL
MODEL 5
REMARK VINA RESULT:    -6.023      3.842      6.415
REMARK INTER + INTRA:          -7.526
REMARK INTER:                  -7.413
REMARK INTRA:                  -0.113
REMARK UNBOUND:                -0.270
REMARK SMILES O=c1c(O)c(-c2ccc(O)c(O)c2)oc2cc(O)cc(O)c12
REMARK SMILES IDX 5 1 3 2 2 3 1 4 22 5 20 6 19 7 17 8 16 9 15 10 14 11 6 12
REMARK SMILES IDX 7 13 8 14 9 15 13 16 11 17 10 18 12 20 4 22 21 24 18 26
REMARK H PARENT 10 19 12 21 4 23 21 25 18 27
REMARK Flexibility Score: inf
ROOT
ATOM      1  C   UNL     1      60.076  19.341  47.807  1.00  0.00     0.180 A 
ATOM      2  C   UNL     1      58.738  19.450  48.225  1.00  0.00     0.208 A 
ATOM      3  C   UNL     1      57.787  18.557  47.705  1.00  0.00     0.238 A 
ATOM      4  O   UNL     1      56.602  18.625  48.123  1.00  0.00    -0.285 OA
ATOM      5  C   UNL     1      58.183  17.578  46.762  1.00  0.00     0.111 A 
ATOM      6  C   UNL     1      57.297  16.648  46.140  1.00  0.00     0.134 A 
ATOM      7  C   UNL     1      57.818  15.637  45.322  1.00  0.00     0.093 A 
ATOM      8  C   UNL     1      59.184  15.564  45.051  1.00  0.00     0.123 A 
ATOM      9  C   UNL     1      60.052  16.505  45.607  1.00  0.00     0.094 A 
ATOM     10  C   UNL     1      59.566  17.501  46.456  1.00  0.00     0.146 A 
ATOM     11  O   UNL     1      60.427  18.370  46.973  1.00  0.00    -0.452 OA
ENDROOT
BRANCH   1  12
ATOM     12  C   UNL     1      61.129  20.261  48.291  1.00  0.00     0.025 A 
ATOM     13  C   UNL     1      61.003  21.640  48.059  1.00  0.00     0.016 A 
ATOM     14  C   UNL     1      61.974  22.529  48.525  1.00  0.00     0.051 A 
ATOM     15  C   UNL     1      63.080  22.054  49.243  1.00  0.00     0.157 A 
ATOM     16  C   UNL     1      62.231  19.791  49.031  1.00  0.00     0.062 A 
ATOM     17  C   UNL     1      63.205  20.683  49.500  1.00  0.00     0.158 A 
BRANCH  15  18
ATOM     18  O   UNL     1      64.052  22.937  49.708  1.00  0.00    -0.504 OA
ATOM     19  H   UNL     1      63.811  23.864  50.039  1.00  0.00     0.293 HD
ENDBRANCH  15  18
BRANCH  17  20
ATOM     20  O   UNL     1      64.299  20.215  50.226  1.00  0.00    -0.504 OA
ATOM     21  H   UNL     1      65.213  20.647  50.146  1.00  0.00     0.293 HD
ENDBRANCH  17  20
ENDBRANCH   1  12
BRANCH   2  22
ATOM     22  O   UNL     1      58.374  20.410  49.173  1.00  0.00    -0.502 OA
ATOM     23  H   UNL     1      57.780  20.194  49.965  1.00  0.00     0.293 HD
ENDBRANCH   2  22
BRANCH   6  24
ATOM     24  O   UNL     1      55.905  16.688  46.270  1.00  0.00    -0.507 OA
ATOM     25  H   UNL     1      55.411  16.704  47.149  1.00  0.00     0.293 HD
ENDBRANCH   6  24
BRANCH   8  26
ATOM     26  O   UNL     1      59.667  14.555  44.220  1.00  0.00    -0.508 OA
ATOM     27  H   UNL     1      60.644  14.507  43.958  1.00  0.00     0.293 HD
ENDBRANCH   8  26
TORSDOF 6
ENDMDL
MODEL 6
REMARK VINA RESULT:    -5.998      3.376      7.486
REMARK INTER + INTRA:          -7.496
REMARK INTER:                  -7.305
REMARK INTRA:                  -0.191
REMARK UNBOUND:                -0.270
REMARK SMILES O=c1c(O)c(-c2ccc(O)c(O)c2)oc2cc(O)cc(O)c12
REMARK SMILES IDX 5 1 3 2 2 3 1 4 22 5 20 6 19 7 17 8 16 9 15 10 14 11 6 12
REMARK SMILES IDX 7 13 8 14 9 15 13 16 11 17 10 18 12 20 4 22 21 24 18 26
REMARK H PARENT 10 19 12 21 4 23 21 25 18 27
REMARK Flexibility Score: inf
ROOT
ATOM      1  C   UNL     1      60.509  19.571  47.311  1.00  0.00     0.180 A 
ATOM      2  C   UNL     1      61.487  19.881  48.272  1.00  0.00     0.208 A 
ATOM      3  C   UNL     1      62.510  18.953  48.527  1.00  0.00     0.238 A 
ATOM      4  O   UNL     1      63.411  19.259  49.351  1.00  0.00    -0.285 OA
ATOM      5  C   UNL     1      62.533  17.722  47.830  1.00  0.00     0.111 A 
ATOM      6  C   UNL     1      63.499  16.692  48.036  1.00  0.00     0.134 A 
ATOM      7  C   UNL     1      63.504  15.570  47.198  1.00  0.00     0.093 A 
ATOM      8  C   UNL     1      62.539  15.410  46.204  1.00  0.00     0.123 A 
ATOM      9  C   UNL     1      61.553  16.383  46.032  1.00  0.00     0.094 A 
ATOM     10  C   UNL     1      61.545  17.530  46.829  1.00  0.00     0.146 A 
ATOM     11  O   UNL     1      60.596  18.437  46.626  1.00  0.00    -0.452 OA
ENDROOT
BRANCH   1  12
ATOM     12  C   UNL     1      59.387  20.487  47.006  1.00  0.00     0.025 A 
ATOM     13  C   UNL     1      58.084  20.137  47.397  1.00  0.00     0.016 A 
ATOM     14  C   UNL     1      57.013  20.996  47.138  1.00  0.00     0.051 A 
ATOM     15  C   UNL     1      57.229  22.222  46.497  1.00  0.00     0.157 A 
ATOM     16  C   UNL     1      59.602  21.729  46.381  1.00  0.00     0.062 A 
ATOM     17  C   UNL     1      58.527  22.591  46.121  1.00  0.00     0.158 A 
BRANCH  15  18
ATOM     18  O   UNL     1      56.163  23.081  46.235  1.00  0.00    -0.504 OA
ATOM     19  H   UNL     1      56.313  24.019  45.881  1.00  0.00     0.293 HD
ENDBRANCH  15  18
BRANCH  17  20
ATOM     20  O   UNL     1      58.742  23.818  45.496  1.00  0.00    -0.504 OA
ATOM     21  H   UNL     1      59.216  23.882  44.603  1.00  0.00     0.293 HD
ENDBRANCH  17  20
ENDBRANCH   1  12
BRANCH   2  22
ATOM     22  O   UNL     1      61.456  21.112  48.934  1.00  0.00    -0.502 OA
ATOM     23  H   UNL     1      60.667  21.406  49.498  1.00  0.00     0.293 HD
ENDBRANCH   2  22
BRANCH   6  24
ATOM     24  O   UNL     1      64.451  16.709  49.061  1.00  0.00    -0.507 OA
ATOM     25  H   UNL     1      65.036  17.499  49.287  1.00  0.00     0.293 HD
ENDBRANCH   6  24
BRANCH   8  26
ATOM     26  O   UNL     1      62.564  14.274  45.398  1.00  0.00    -0.508 OA
ATOM     27  H   UNL     1      63.207  13.511  45.576  1.00  0.00     0.293 HD
ENDBRANCH   8  26
TORSDOF 6
ENDMDL
MODEL 7
REMARK VINA RESULT:    -5.986      2.045      3.441
REMARK INTER + INTRA:          -7.481
REMARK INTER:                  -7.206
REMARK INTRA:                  -0.276
REMARK UNBOUND:                -0.270
REMARK SMILES O=c1c(O)c(-c2ccc(O)c(O)c2)oc2cc(O)cc(O)c12
REMARK SMILES IDX 5 1 3 2 2 3 1 4 22 5 20 6 19 7 17 8 16 9 15 10 14 11 6 12
REMARK SMILES IDX 7 13 8 14 9 15 13 16 11 17 10 18 12 20 4 22 21 24 18 26
REMARK H PARENT 10 19 12 21 4 23 21 25 18 27
REMARK Flexibility Score: inf
ROOT
ATOM      1  C   UNL     1      58.125  17.758  46.130  1.00  0.00     0.180 A 
ATOM      2  C   UNL     1      57.076  18.422  45.469  1.00  0.00     0.208 A 
ATOM      3  C   UNL     1      57.085  19.825  45.416  1.00  0.00     0.238 A 
ATOM      4  O   UNL     1      56.171  20.411  44.778  1.00  0.00    -0.285 OA
ATOM      5  C   UNL     1      58.132  20.547  46.037  1.00  0.00     0.111 A 
ATOM      6  C   UNL     1      58.220  21.971  46.080  1.00  0.00     0.134 A 
ATOM      7  C   UNL     1      59.367  22.577  46.607  1.00  0.00     0.093 A 
ATOM      8  C   UNL     1      60.399  21.813  47.153  1.00  0.00     0.123 A 
ATOM      9  C   UNL     1      60.296  20.421  47.170  1.00  0.00     0.094 A 
ATOM     10  C   UNL     1      59.181  19.788  46.618  1.00  0.00     0.146 A 
ATOM     11  O   UNL     1      59.127  18.461  46.645  1.00  0.00    -0.452 OA
ENDROOT
BRANCH   1  12
ATOM     12  C   UNL     1      58.172  16.284  46.250  1.00  0.00     0.025 A 
ATOM     13  C   UNL     1      59.113  15.559  45.501  1.00  0.00     0.016 A 
ATOM     14  C   UNL     1      59.189  14.169  45.614  1.00  0.00     0.051 A 
ATOM     15  C   UNL     1      58.336  13.484  46.488  1.00  0.00     0.157 A 
ATOM     16  C   UNL     1      57.331  15.593  47.142  1.00  0.00     0.062 A 
ATOM     17  C   UNL     1      57.408  14.198  47.256  1.00  0.00     0.158 A 
BRANCH  15  18
ATOM     18  O   UNL     1      58.407  12.097  46.603  1.00  0.00    -0.504 OA
ATOM     19  H   UNL     1      59.266  11.593  46.413  1.00  0.00     0.293 HD
ENDBRANCH  15  18
BRANCH  17  20
ATOM     20  O   UNL     1      56.569  13.515  48.136  1.00  0.00    -0.504 OA
ATOM     21  H   UNL     1      55.829  13.990  48.639  1.00  0.00     0.293 HD
ENDBRANCH  17  20
ENDBRANCH   1  12
BRANCH   2  22
ATOM     22  O   UNL     1      56.064  17.688  44.845  1.00  0.00    -0.502 OA
ATOM     23  H   UNL     1      55.081  17.848  45.034  1.00  0.00     0.293 HD
ENDBRANCH   2  22
BRANCH   6  24
ATOM     24  O   UNL     1      57.205  22.830  45.646  1.00  0.00    -0.507 OA
ATOM     25  H   UNL     1      57.216  23.832  45.755  1.00  0.00     0.293 HD
ENDBRANCH   6  24
BRANCH   8  26
ATOM     26  O   UNL     1      61.519  22.449  47.683  1.00  0.00    -0.508 OA
ATOM     27  H   UNL     1      61.527  22.806  48.632  1.00  0.00     0.293 HD
ENDBRANCH   8  26
TORSDOF 6
ENDMDL
MODEL 8
REMARK VINA RESULT:    -5.947      4.091      5.946
REMARK INTER + INTRA:          -7.434
REMARK INTER:                  -7.173
REMARK INTRA:                  -0.261
REMARK UNBOUND:                -0.270
REMARK SMILES O=c1c(O)c(-c2ccc(O)c(O)c2)oc2cc(O)cc(O)c12
REMARK SMILES IDX 5 1 3 2 2 3 1 4 22 5 20 6 19 7 17 8 16 9 15 10 14 11 6 12
REMARK SMILES IDX 7 13 8 14 9 15 13 16 11 17 10 18 12 20 4 22 21 24 18 26
REMARK H PARENT 10 19 12 21 4 23 21 25 18 27
REMARK Flexibility Score: inf
ROOT
ATOM      1  C   UNL     1      60.099  20.578  47.652  1.00  0.00     0.180 A 
ATOM      2  C   UNL     1      59.557  19.307  47.910  1.00  0.00     0.208 A 
ATOM      3  C   UNL     1      58.428  18.888  47.187  1.00  0.00     0.238 A 
ATOM      4  O   UNL     1      57.980  17.728  47.385  1.00  0.00    -0.285 OA
ATOM      5  C   UNL     1      57.845  19.752  46.229  1.00  0.00     0.111 A 
ATOM      6  C   UNL     1      56.676  19.447  45.468  1.00  0.00     0.134 A 
ATOM      7  C   UNL     1      56.264  20.320  44.454  1.00  0.00     0.093 A 
ATOM      8  C   UNL     1      56.938  21.518  44.218  1.00  0.00     0.123 A 
ATOM      9  C   UNL     1      58.047  21.854  44.996  1.00  0.00     0.094 A 
ATOM     10  C   UNL     1      58.504  20.986  45.989  1.00  0.00     0.146 A 
ATOM     11  O   UNL     1      59.569  21.338  46.700  1.00  0.00    -0.452 OA
ENDROOT
BRANCH   1  12
ATOM     12  C   UNL     1      61.271  21.099  48.389  1.00  0.00     0.025 A 
ATOM     13  C   UNL     1      62.556  20.638  48.060  1.00  0.00     0.016 A 
ATOM     14  C   UNL     1      63.678  21.132  48.729  1.00  0.00     0.051 A 
ATOM     15  C   UNL     1      63.535  22.104  49.727  1.00  0.00     0.157 A 
ATOM     16  C   UNL     1      61.134  22.092  49.378  1.00  0.00     0.062 A 
ATOM     17  C   UNL     1      62.261  22.588  50.049  1.00  0.00     0.158 A 
BRANCH  15  18
ATOM     18  O   UNL     1      64.652  22.598  50.398  1.00  0.00    -0.504 OA
ATOM     19  H   UNL     1      65.584  22.510  50.011  1.00  0.00     0.293 HD
ENDBRANCH  15  18
BRANCH  17  20
ATOM     20  O   UNL     1      62.122  23.566  51.033  1.00  0.00    -0.504 OA
ATOM     21  H   UNL     1      62.197  24.553  50.813  1.00  0.00     0.293 HD
ENDBRANCH  17  20
ENDBRANCH   1  12
BRANCH   2  22
ATOM     22  O   UNL     1      60.162  18.463  48.845  1.00  0.00    -0.502 OA
ATOM     23  H   UNL     1      61.020  17.960  48.649  1.00  0.00     0.293 HD
ENDBRANCH   2  22
BRANCH   6  24
ATOM     24  O   UNL     1      55.875  18.321  45.685  1.00  0.00    -0.507 OA
ATOM     25  H   UNL     1      56.223  17.378  45.775  1.00  0.00     0.293 HD
ENDBRANCH   6  24
BRANCH   8  26
ATOM     26  O   UNL     1      56.492  22.371  43.212  1.00  0.00    -0.508 OA
ATOM     27  H   UNL     1      56.864  23.308  43.107  1.00  0.00     0.293 HD
ENDBRANCH   8  26
TORSDOF 6
ENDMDL
MODEL 9
REMARK VINA RESULT:    -5.933      2.785      7.581
REMARK INTER + INTRA:          -7.418
REMARK INTER:                  -7.159
REMARK INTRA:                  -0.258
REMARK UNBOUND:                -0.270
REMARK SMILES O=c1c(O)c(-c2ccc(O)c(O)c2)oc2cc(O)cc(O)c12
REMARK SMILES IDX 5 1 3 2 2 3 1 4 22 5 20 6 19 7 17 8 16 9 15 10 14 11 6 12
REMARK SMILES IDX 7 13 8 14 9 15 13 16 11 17 10 18 12 20 4 22 21 24 18 26
REMARK H PARENT 10 19 12 21 4 23 21 25 18 27
REMARK Flexibility Score: inf
ROOT
ATOM      1  C   UNL     1      59.766  18.232  47.018  1.00  0.00     0.180 A 
ATOM      2  C   UNL     1      59.411  17.150  46.192  1.00  0.00     0.208 A 
ATOM      3  C   UNL     1      60.366  16.156  45.926  1.00  0.00     0.238 A 
ATOM      4  O   UNL     1      60.025  15.163  45.229  1.00  0.00    -0.285 OA
ATOM      5  C   UNL     1      61.666  16.263  46.473  1.00  0.00     0.111 A 
ATOM      6  C   UNL     1      62.724  15.334  46.237  1.00  0.00     0.134 A 
ATOM      7  C   UNL     1      63.930  15.467  46.935  1.00  0.00     0.093 A 
ATOM      8  C   UNL     1      64.141  16.532  47.811  1.00  0.00     0.123 A 
ATOM      9  C   UNL     1      63.135  17.480  48.005  1.00  0.00     0.094 A 
ATOM     10  C   UNL     1      61.908  17.352  47.350  1.00  0.00     0.146 A 
ATOM     11  O   UNL     1      60.973  18.269  47.570  1.00  0.00    -0.452 OA
ENDROOT
BRANCH   1  12
ATOM     12  C   UNL     1      58.824  19.331  47.324  1.00  0.00     0.025 A 
ATOM     13  C   UNL     1      58.525  20.281  46.334  1.00  0.00     0.016 A 
ATOM     14  C   UNL     1      57.622  21.315  46.594  1.00  0.00     0.051 A 
ATOM     15  C   UNL     1      56.994  21.407  47.843  1.00  0.00     0.157 A 
ATOM     16  C   UNL     1      58.174  19.415  48.570  1.00  0.00     0.062 A 
ATOM     17  C   UNL     1      57.267  20.452  48.831  1.00  0.00     0.158 A 
BRANCH  15  18
ATOM     18  O   UNL     1      56.094  22.437  48.108  1.00  0.00    -0.504 OA
ATOM     19  H   UNL     1      56.411  23.382  48.292  1.00  0.00     0.293 HD
ENDBRANCH  15  18
BRANCH  17  20
ATOM     20  O   UNL     1      56.630  20.538  50.068  1.00  0.00    -0.504 OA
ATOM     21  H   UNL     1      56.368  21.432  50.468  1.00  0.00     0.293 HD
ENDBRANCH  17  20
ENDBRANCH   1  12
BRANCH   2  22
ATOM     22  O   UNL     1      58.115  17.054  45.679  1.00  0.00    -0.502 OA
ATOM     23  H   UNL     1      57.923  16.703  44.748  1.00  0.00     0.293 HD
ENDBRANCH   2  22
BRANCH   6  24
ATOM     24  O   UNL     1      62.651  14.286  45.313  1.00  0.00    -0.507 OA
ATOM     25  H   UNL     1      62.016  14.255  44.530  1.00  0.00     0.293 HD
ENDBRANCH   6  24
BRANCH   8  26
ATOM     26  O   UNL     1      65.359  16.643  48.477  1.00  0.00    -0.508 OA
ATOM     27  H   UNL     1      65.646  15.967  49.175  1.00  0.00     0.293 HD
ENDBRANCH   8  26
TORSDOF 6
ENDMDL
