MODEL 1
REMARK VINA RESULT:    -3.116      0.000      0.000
REMARK INTER + INTRA:          -3.694
REMARK INTER:                  -3.663
REMARK INTRA:                  -0.032
REMARK UNBOUND:                -0.032
REMARK SMILES O=C([O-])CCC(=O)[O-]
REMARK SMILES IDX 4 1 2 2 1 3 3 4 5 5 6 6 7 7 8 8
REMARK H PARENT
REMARK Flexibility Score: inf
ROOT
ATOM      1  C   UNL     1      -3.382  25.532 -20.696  1.00  0.00     0.059 C 
ENDROOT
BRANCH   1   2
ATOM      2  C   UNL     1      -3.496  25.229 -22.158  1.00  0.00     0.042 C 
ATOM      3  O   UNL     1      -4.607  25.329 -22.742  1.00  0.00    -0.550 OA
ATOM      4  O   UNL     1      -2.366  24.875 -22.885  1.00  0.00    -0.550 OA
ENDBRANCH   1   2
BRANCH   1   5
ATOM      5  C   UNL     1      -1.924  25.741 -20.274  1.00  0.00     0.059 C 
BRANCH   5   6
ATOM      6  C   UNL     1      -1.827  26.402 -18.933  1.00  0.00     0.042 C 
ATOM      7  O   UNL     1      -0.904  27.226 -18.698  1.00  0.00    -0.550 OA
ATOM      8  O   UNL     1      -2.731  26.079 -17.930  1.00  0.00    -0.550 OA
ENDBRANCH   5   6
ENDBRANCH   1   5
TORSDOF 3
ENDMDL
MODEL 2
REMARK VINA RESULT:    -2.616     22.867     23.933
REMARK INTER + INTRA:          -3.107
REMARK INTER:                  -2.988
REMARK INTRA:                  -0.118
REMARK UNBOUND:                -0.032
REMARK SMILES O=C([O-])CCC(=O)[O-]
REMARK SMILES IDX 4 1 2 2 1 3 3 4 5 5 6 6 7 7 8 8
REMARK H PARENT
REMARK Flexibility Score: inf
ROOT
ATOM      1  C   UNL     1     -20.020  27.571  -5.798  1.00  0.00     0.059 C 
ENDROOT
BRANCH   1   2
ATOM      2  C   UNL     1     -20.674  26.229  -5.920  1.00  0.00     0.042 C 
ATOM      3  O   UNL     1     -20.790  25.680  -7.048  1.00  0.00    -0.550 OA
ATOM      4  O   UNL     1     -21.120  25.567  -4.783  1.00  0.00    -0.550 OA
ENDBRANCH   1   2
BRANCH   1   5
ATOM      5  C   UNL     1     -20.911  28.569  -5.051  1.00  0.00     0.059 C 
BRANCH   5   6
ATOM      6  C   UNL     1     -20.378  28.868  -3.683  1.00  0.00     0.042 C 
ATOM      7  O   UNL     1     -20.894  29.781  -2.987  1.00  0.00    -0.550 OA
ATOM      8  O   UNL     1     -19.284  28.165  -3.192  1.00  0.00    -0.550 OA
ENDBRANCH   5   6
ENDBRANCH   1   5
TORSDOF 3
ENDMDL
MODEL 3
REMARK VINA RESULT:    -2.587     22.824     24.078
REMARK INTER + INTRA:          -3.072
REMARK INTER:                  -2.968
REMARK INTRA:                  -0.104
REMARK UNBOUND:                -0.032
REMARK SMILES O=C([O-])CCC(=O)[O-]
REMARK SMILES IDX 4 1 2 2 1 3 3 4 5 5 6 6 7 7 8 8
REMARK H PARENT
REMARK Flexibility Score: inf
ROOT
ATOM      1  C   UNL     1     -19.358  27.634  -4.680  1.00  0.00     0.059 C 
ENDROOT
BRANCH   1   2
ATOM      2  C   UNL     1     -19.963  28.276  -3.469  1.00  0.00     0.042 C 
ATOM      3  O   UNL     1     -19.443  29.311  -2.973  1.00  0.00    -0.550 OA
ATOM      4  O   UNL     1     -21.125  27.755  -2.914  1.00  0.00    -0.550 OA
ENDBRANCH   1   2
BRANCH   1   5
ATOM      5  C   UNL     1     -20.371  27.517  -5.824  1.00  0.00     0.059 C 
BRANCH   5   6
ATOM      6  C   UNL     1     -20.755  26.092  -6.077  1.00  0.00     0.042 C 
ATOM      7  O   UNL     1     -21.069  25.340  -5.117  1.00  0.00    -0.550 OA
ATOM      8  O   UNL     1     -20.727  25.582  -7.369  1.00  0.00    -0.550 OA
ENDBRANCH   5   6
ENDBRANCH   1   5
TORSDOF 3
ENDMDL
MODEL 4
REMARK VINA RESULT:    -2.285     23.505     24.331
REMARK INTER + INTRA:          -2.718
REMARK INTER:                  -2.593
REMARK INTRA:                  -0.125
REMARK UNBOUND:                -0.032
REMARK SMILES O=C([O-])CCC(=O)[O-]
REMARK SMILES IDX 4 1 2 2 1 3 3 4 5 5 6 6 7 7 8 8
REMARK H PARENT
REMARK Flexibility Score: inf
ROOT
ATOM      1  C   UNL     1     -19.422  28.165  -4.921  1.00  0.00     0.059 C 
ENDROOT
BRANCH   1   2
ATOM      2  C   UNL     1     -20.307  29.178  -4.262  1.00  0.00     0.042 C 
ATOM      3  O   UNL     1     -21.125  29.847  -4.947  1.00  0.00    -0.550 OA
ATOM      4  O   UNL     1     -20.257  29.353  -2.884  1.00  0.00    -0.550 OA
ENDBRANCH   1   2
BRANCH   1   5
ATOM      5  C   UNL     1     -19.259  26.910  -4.057  1.00  0.00     0.059 C 
BRANCH   5   6
ATOM      6  C   UNL     1     -20.410  25.967  -4.231  1.00  0.00     0.042 C 
ATOM      7  O   UNL     1     -20.808  25.267  -3.264  1.00  0.00    -0.550 OA
ATOM      8  O   UNL     1     -21.017  25.832  -5.474  1.00  0.00    -0.550 OA
ENDBRANCH   5   6
ENDBRANCH   1   5
TORSDOF 3
ENDMDL
MODEL 5
REMARK VINA RESULT:    -2.199     23.678     24.468
REMARK INTER + INTRA:          -2.616
REMARK INTER:                  -2.480
REMARK INTRA:                  -0.136
REMARK UNBOUND:                -0.032
REMARK SMILES O=C([O-])CCC(=O)[O-]
REMARK SMILES IDX 4 1 2 2 1 3 3 4 5 5 6 6 7 7 8 8
REMARK H PARENT
REMARK Flexibility Score: inf
ROOT
ATOM      1  C   UNL     1     -19.178  27.009  -4.024  1.00  0.00     0.059 C 
ENDROOT
BRANCH   1   2
ATOM      2  C   UNL     1     -20.359  26.091  -4.098  1.00  0.00     0.042 C 
ATOM      3  O   UNL     1     -20.747  25.471  -3.072  1.00  0.00    -0.550 OA
ATOM      4  O   UNL     1     -21.057  25.951  -5.292  1.00  0.00    -0.550 OA
ENDBRANCH   1   2
BRANCH   1   5
ATOM      5  C   UNL     1     -19.434  28.183  -3.072  1.00  0.00     0.059 C 
BRANCH   5   6
ATOM      6  C   UNL     1     -20.338  29.206  -3.689  1.00  0.00     0.042 C 
ATOM      7  O   UNL     1     -21.124  29.875  -2.968  1.00  0.00    -0.550 OA
ATOM      8  O   UNL     1     -20.341  29.393  -5.066  1.00  0.00    -0.550 OA
ENDBRANCH   5   6
ENDBRANCH   1   5
TORSDOF 3
ENDMDL
MODEL 6
REMARK VINA RESULT:    -2.147     23.207     24.042
REMARK INTER + INTRA:          -2.555
REMARK INTER:                  -2.469
REMARK INTRA:                  -0.085
REMARK UNBOUND:                -0.032
REMARK SMILES O=C([O-])CCC(=O)[O-]
REMARK SMILES IDX 4 1 2 2 1 3 3 4 5 5 6 6 7 7 8 8
REMARK H PARENT
REMARK Flexibility Score: inf
ROOT
ATOM      1  C   UNL     1     -19.167  27.876  -4.150  1.00  0.00     0.059 C 
ENDROOT
BRANCH   1   2
ATOM      2  C   UNL     1     -20.191  28.178  -5.201  1.00  0.00     0.042 C 
ATOM      3  O   UNL     1     -20.354  27.393  -6.172  1.00  0.00    -0.550 OA
ATOM      4  O   UNL     1     -20.992  29.308  -5.087  1.00  0.00    -0.550 OA
ENDBRANCH   1   2
BRANCH   1   5
ATOM      5  C   UNL     1     -19.804  27.245  -2.907  1.00  0.00     0.059 C 
BRANCH   5   6
ATOM      6  C   UNL     1     -19.614  25.759  -2.884  1.00  0.00     0.042 C 
ATOM      7  O   UNL     1     -18.455  25.268  -2.875  1.00  0.00    -0.550 OA
ATOM      8  O   UNL     1     -20.718  24.915  -2.914  1.00  0.00    -0.550 OA
ENDBRANCH   5   6
ENDBRANCH   1   5
TORSDOF 3
ENDMDL
MODEL 7
REMARK VINA RESULT:    -1.960     28.587     29.534
REMARK INTER + INTRA:          -2.336
REMARK INTER:                  -2.229
REMARK INTRA:                  -0.106
REMARK UNBOUND:                -0.032
REMARK SMILES O=C([O-])CCC(=O)[O-]
REMARK SMILES IDX 4 1 2 2 1 3 3 4 5 5 6 6 7 7 8 8
REMARK H PARENT
REMARK Flexibility Score: inf
ROOT
ATOM      1  C   UNL     1     -19.652  42.696  -3.492  1.00  0.00     0.059 C 
ENDROOT
BRANCH   1   2
ATOM      2  C   UNL     1     -20.141  43.921  -4.202  1.00  0.00     0.042 C 
ATOM      3  O   UNL     1     -19.913  45.064  -3.727  1.00  0.00    -0.550 OA
ATOM      4  O   UNL     1     -20.815  43.800  -5.412  1.00  0.00    -0.550 OA
ENDBRANCH   1   2
BRANCH   1   5
ATOM      5  C   UNL     1     -20.813  41.812  -3.025  1.00  0.00     0.059 C 
BRANCH   5   6
ATOM      6  C   UNL     1     -20.742  40.444  -3.632  1.00  0.00     0.042 C 
ATOM      7  O   UNL     1     -21.124  40.255  -4.816  1.00  0.00    -0.550 OA
ATOM      8  O   UNL     1     -20.292  39.369  -2.875  1.00  0.00    -0.550 OA
ENDBRANCH   5   6
ENDBRANCH   1   5
TORSDOF 3
ENDMDL
