MODEL 1
REMARK VINA RESULT:    -4.455      0.000      0.000
REMARK INTER + INTRA:          -5.188
REMARK INTER:                  -5.107
REMARK INTRA:                  -0.082
REMARK UNBOUND:                -0.082
REMARK SMILES COc1cc(C(=O)[O-])ccc1O
REMARK SMILES IDX 5 1 9 2 4 3 10 4 3 5 11 6 6 7 7 8 8 9 2 10 1 11 12 12
REMARK H PARENT 12 13
REMARK Flexibility Score: inf
ROOT
ATOM      1  C   UNL     1     172.174 172.089 161.945  1.00  0.00     0.001 A 
ATOM      2  C   UNL     1     171.247 172.888 162.636  1.00  0.00     0.014 A 
ATOM      3  C   UNL     1     173.043 171.262 162.680  1.00  0.00     0.060 A 
ATOM      4  C   UNL     1     171.189 172.860 164.031  1.00  0.00     0.051 A 
ATOM      5  C   UNL     1     172.989 171.231 164.088  1.00  0.00     0.161 A 
ATOM      6  C   UNL     1     172.057 172.036 164.758  1.00  0.00     0.157 A 
ENDROOT
BRANCH   1   7
ATOM      7  C   UNL     1     172.238 172.117 160.467  1.00  0.00     0.072 C 
ATOM      8  O   UNL     1     172.866 171.226 159.837  1.00  0.00    -0.545 OA
ATOM      9  O   UNL     1     171.604 173.128 159.752  1.00  0.00    -0.545 OA
ENDBRANCH   1   7
BRANCH   5  10
ATOM     10  O   UNL     1     173.841 170.419 164.852  1.00  0.00    -0.493 OA
ATOM     11  C   UNL     1     174.808 169.526 164.308  1.00  0.00     0.278 C 
ENDBRANCH   5  10
BRANCH   6  12
ATOM     12  O   UNL     1     171.998 172.009 166.150  1.00  0.00    -0.504 OA
ATOM     13  H   UNL     1     171.637 172.793 166.681  1.00  0.00     0.293 HD
ENDBRANCH   6  12
TORSDOF 3
ENDMDL
MODEL 2
REMARK VINA RESULT:    -4.455      1.192      2.811
REMARK INTER + INTRA:          -5.187
REMARK INTER:                  -5.104
REMARK INTRA:                  -0.083
REMARK UNBOUND:                -0.082
REMARK SMILES COc1cc(C(=O)[O-])ccc1O
REMARK SMILES IDX 5 1 9 2 4 3 10 4 3 5 11 6 6 7 7 8 8 9 2 10 1 11 12 12
REMARK H PARENT 12 13
REMARK Flexibility Score: inf
ROOT
ATOM      1  C   UNL     1     172.186 172.099 161.948  1.00  0.00     0.001 A 
ATOM      2  C   UNL     1     172.578 170.956 162.664  1.00  0.00     0.014 A 
ATOM      3  C   UNL     1     171.739 173.229 162.658  1.00  0.00     0.060 A 
ATOM      4  C   UNL     1     172.526 170.942 164.060  1.00  0.00     0.051 A 
ATOM      5  C   UNL     1     171.685 173.219 164.066  1.00  0.00     0.161 A 
ATOM      6  C   UNL     1     172.081 172.068 164.762  1.00  0.00     0.157 A 
ENDROOT
BRANCH   1   7
ATOM      7  C   UNL     1     172.239 172.117 160.470  1.00  0.00     0.072 C 
ATOM      8  O   UNL     1     172.871 171.227 159.841  1.00  0.00    -0.545 OA
ATOM      9  O   UNL     1     171.594 173.118 159.752  1.00  0.00    -0.545 OA
ENDBRANCH   1   7
BRANCH   5  10
ATOM     10  O   UNL     1     171.245 174.328 164.806  1.00  0.00    -0.493 OA
ATOM     11  C   UNL     1     171.219 175.666 164.318  1.00  0.00     0.278 C 
ENDBRANCH   5  10
BRANCH   6  12
ATOM     12  O   UNL     1     172.029 172.053 166.154  1.00  0.00    -0.504 OA
ATOM     13  H   UNL     1     171.623 172.819 166.679  1.00  0.00     0.293 HD
ENDBRANCH   6  12
TORSDOF 3
ENDMDL
MODEL 3
REMARK VINA RESULT:    -4.430      2.972      3.627
REMARK INTER + INTRA:          -5.160
REMARK INTER:                  -5.077
REMARK INTRA:                  -0.082
REMARK UNBOUND:                -0.082
REMARK SMILES COc1cc(C(=O)[O-])ccc1O
REMARK SMILES IDX 5 1 9 2 4 3 10 4 3 5 11 6 6 7 7 8 8 9 2 10 1 11 12 12
REMARK H PARENT 12 13
REMARK Flexibility Score: inf
ROOT
ATOM      1  C   UNL     1     171.512 171.188 164.315  1.00  0.00     0.001 A 
ATOM      2  C   UNL     1     170.267 171.837 164.264  1.00  0.00     0.014 A 
ATOM      3  C   UNL     1     172.685 171.963 164.365  1.00  0.00     0.060 A 
ATOM      4  C   UNL     1     170.196 173.232 164.264  1.00  0.00     0.051 A 
ATOM      5  C   UNL     1     172.618 173.371 164.364  1.00  0.00     0.161 A 
ATOM      6  C   UNL     1     171.366 173.999 164.313  1.00  0.00     0.157 A 
ENDROOT
BRANCH   1   7
ATOM      7  C   UNL     1     171.591 169.710 164.316  1.00  0.00     0.072 C 
ATOM      8  O   UNL     1     172.707 169.128 164.281  1.00  0.00    -0.545 OA
ATOM      9  O   UNL     1     170.432 168.942 164.354  1.00  0.00    -0.545 OA
ENDBRANCH   1   7
BRANCH   5  10
ATOM     10  O   UNL     1     173.767 174.175 164.413  1.00  0.00    -0.493 OA
ATOM     11  C   UNL     1     175.098 173.691 164.263  1.00  0.00     0.278 C 
ENDBRANCH   5  10
BRANCH   6  12
ATOM     12  O   UNL     1     171.293 175.391 164.312  1.00  0.00    -0.504 OA
ATOM     13  H   UNL     1     171.694 175.943 163.563  1.00  0.00     0.293 HD
ENDBRANCH   6  12
TORSDOF 3
ENDMDL
MODEL 4
REMARK VINA RESULT:    -4.374      1.561      2.870
REMARK INTER + INTRA:          -5.095
REMARK INTER:                  -5.001
REMARK INTRA:                  -0.094
REMARK UNBOUND:                -0.082
REMARK SMILES COc1cc(C(=O)[O-])ccc1O
REMARK SMILES IDX 5 1 9 2 4 3 10 4 3 5 11 6 6 7 7 8 8 9 2 10 1 11 12 12
REMARK H PARENT 12 13
REMARK Flexibility Score: inf
ROOT
ATOM      1  C   UNL     1     172.107 172.319 161.811  1.00  0.00     0.001 A 
ATOM      2  C   UNL     1     173.194 172.678 162.626  1.00  0.00     0.014 A 
ATOM      3  C   UNL     1     170.889 171.960 162.416  1.00  0.00     0.060 A 
ATOM      4  C   UNL     1     173.065 172.680 164.017  1.00  0.00     0.051 A 
ATOM      5  C   UNL     1     170.755 171.960 163.820  1.00  0.00     0.161 A 
ATOM      6  C   UNL     1     171.851 172.322 164.615  1.00  0.00     0.157 A 
ENDROOT
BRANCH   1   7
ATOM      7  C   UNL     1     172.240 172.316 160.338  1.00  0.00     0.072 C 
ATOM      8  O   UNL     1     171.696 173.214 159.644  1.00  0.00    -0.545 OA
ATOM      9  O   UNL     1     172.969 171.319 159.697  1.00  0.00    -0.545 OA
ENDBRANCH   1   7
BRANCH   5  10
ATOM     10  O   UNL     1     169.555 171.608 164.457  1.00  0.00    -0.493 OA
ATOM     11  C   UNL     1     168.358 172.378 164.407  1.00  0.00     0.278 C 
ENDBRANCH   5  10
BRANCH   6  12
ATOM     12  O   UNL     1     171.725 172.323 166.003  1.00  0.00    -0.504 OA
ATOM     13  H   UNL     1     172.509 172.109 166.607  1.00  0.00     0.293 HD
ENDBRANCH   6  12
TORSDOF 3
ENDMDL
MODEL 5
REMARK VINA RESULT:    -4.330      3.022      4.109
REMARK INTER + INTRA:          -5.045
REMARK INTER:                  -4.963
REMARK INTRA:                  -0.082
REMARK UNBOUND:                -0.082
REMARK SMILES COc1cc(C(=O)[O-])ccc1O
REMARK SMILES IDX 5 1 9 2 4 3 10 4 3 5 11 6 6 7 7 8 8 9 2 10 1 11 12 12
REMARK H PARENT 12 13
REMARK Flexibility Score: inf
ROOT
ATOM      1  C   UNL     1     173.043 172.273 164.288  1.00  0.00     0.001 A 
ATOM      2  C   UNL     1     173.681 171.022 164.277  1.00  0.00     0.014 A 
ATOM      3  C   UNL     1     171.637 172.323 164.281  1.00  0.00     0.060 A 
ATOM      4  C   UNL     1     172.930 169.845 164.260  1.00  0.00     0.051 A 
ATOM      5  C   UNL     1     170.875 171.137 164.263  1.00  0.00     0.161 A 
ATOM      6  C   UNL     1     171.531 169.898 164.253  1.00  0.00     0.157 A 
ENDROOT
BRANCH   1   7
ATOM      7  C   UNL     1     173.835 173.523 164.306  1.00  0.00     0.072 C 
ATOM      8  O   UNL     1     175.093 173.483 164.348  1.00  0.00    -0.545 OA
ATOM      9  O   UNL     1     173.202 174.761 164.277  1.00  0.00    -0.545 OA
ENDBRANCH   1   7
BRANCH   5  10
ATOM     10  O   UNL     1     169.472 171.148 164.255  1.00  0.00    -0.493 OA
ATOM     11  C   UNL     1     168.673 172.327 164.311  1.00  0.00     0.278 C 
ENDBRANCH   5  10
BRANCH   6  12
ATOM     12  O   UNL     1     170.784 168.722 164.235  1.00  0.00    -0.504 OA
ATOM     13  H   UNL     1     169.858 168.676 164.644  1.00  0.00     0.293 HD
ENDBRANCH   6  12
TORSDOF 3
ENDMDL
MODEL 6
REMARK VINA RESULT:    -4.319      2.833      3.624
REMARK INTER + INTRA:          -5.032
REMARK INTER:                  -4.950
REMARK INTRA:                  -0.083
REMARK UNBOUND:                -0.082
REMARK SMILES COc1cc(C(=O)[O-])ccc1O
REMARK SMILES IDX 5 1 9 2 4 3 10 4 3 5 11 6 6 7 7 8 8 9 2 10 1 11 12 12
REMARK H PARENT 12 13
REMARK Flexibility Score: inf
ROOT
ATOM      1  C   UNL     1     171.940 172.748 164.284  1.00  0.00     0.001 A 
ATOM      2  C   UNL     1     173.330 172.941 164.215  1.00  0.00     0.014 A 
ATOM      3  C   UNL     1     171.434 171.437 164.353  1.00  0.00     0.060 A 
ATOM      4  C   UNL     1     174.196 171.845 164.218  1.00  0.00     0.051 A 
ATOM      5  C   UNL     1     172.305 170.329 164.355  1.00  0.00     0.161 A 
ATOM      6  C   UNL     1     173.689 170.542 164.287  1.00  0.00     0.157 A 
ENDROOT
BRANCH   1   7
ATOM      7  C   UNL     1     171.019 173.906 164.281  1.00  0.00     0.072 C 
ATOM      8  O   UNL     1     171.468 175.082 164.320  1.00  0.00    -0.545 OA
ATOM      9  O   UNL     1     169.642 173.713 164.237  1.00  0.00    -0.545 OA
ENDBRANCH   1   7
BRANCH   5  10
ATOM     10  O   UNL     1     171.836 169.008 164.423  1.00  0.00    -0.493 OA
ATOM     11  C   UNL     1     170.476 168.624 164.244  1.00  0.00     0.278 C 
ENDBRANCH   5  10
BRANCH   6  12
ATOM     12  O   UNL     1     174.555 169.450 164.288  1.00  0.00    -0.504 OA
ATOM     13  H   UNL     1     175.388 169.433 163.711  1.00  0.00     0.293 HD
ENDBRANCH   6  12
TORSDOF 3
ENDMDL
MODEL 7
REMARK VINA RESULT:    -4.293      2.709      3.129
REMARK INTER + INTRA:          -5.002
REMARK INTER:                  -4.920
REMARK INTRA:                  -0.082
REMARK UNBOUND:                -0.082
REMARK SMILES COc1cc(C(=O)[O-])ccc1O
REMARK SMILES IDX 5 1 9 2 4 3 10 4 3 5 11 6 6 7 7 8 8 9 2 10 1 11 12 12
REMARK H PARENT 12 13
REMARK Flexibility Score: inf
ROOT
ATOM      1  C   UNL     1     171.647 172.879 164.261  1.00  0.00     0.001 A 
ATOM      2  C   UNL     1     170.301 172.477 164.271  1.00  0.00     0.014 A 
ATOM      3  C   UNL     1     172.653 171.895 164.245  1.00  0.00     0.060 A 
ATOM      4  C   UNL     1     169.967 171.121 164.264  1.00  0.00     0.051 A 
ATOM      5  C   UNL     1     172.320 170.526 164.239  1.00  0.00     0.161 A 
ATOM      6  C   UNL     1     170.971 170.146 164.249  1.00  0.00     0.157 A 
ENDROOT
BRANCH   1   7
ATOM      7  C   UNL     1     172.004 174.314 164.269  1.00  0.00     0.072 C 
ATOM      8  O   UNL     1     173.210 174.675 164.247  1.00  0.00    -0.545 OA
ATOM      9  O   UNL     1     171.012 175.288 164.300  1.00  0.00    -0.545 OA
ENDBRANCH   1   7
BRANCH   5  10
ATOM     10  O   UNL     1     173.297 169.518 164.223  1.00  0.00    -0.493 OA
ATOM     11  C   UNL     1     174.696 169.747 164.367  1.00  0.00     0.278 C 
ENDBRANCH   5  10
BRANCH   6  12
ATOM     12  O   UNL     1     170.636 168.793 164.242  1.00  0.00    -0.504 OA
ATOM     13  H   UNL     1     170.137 168.366 165.014  1.00  0.00     0.293 HD
ENDBRANCH   6  12
TORSDOF 3
ENDMDL
MODEL 8
REMARK VINA RESULT:    -4.265      2.709      4.215
REMARK INTER + INTRA:          -4.970
REMARK INTER:                  -4.887
REMARK INTRA:                  -0.083
REMARK UNBOUND:                -0.082
REMARK SMILES COc1cc(C(=O)[O-])ccc1O
REMARK SMILES IDX 5 1 9 2 4 3 10 4 3 5 11 6 6 7 7 8 8 9 2 10 1 11 12 12
REMARK H PARENT 12 13
REMARK Flexibility Score: inf
ROOT
ATOM      1  C   UNL     1     172.644 171.369 164.200  1.00  0.00     0.001 A 
ATOM      2  C   UNL     1     171.660 170.365 164.211  1.00  0.00     0.014 A 
ATOM      3  C   UNL     1     172.244 172.717 164.177  1.00  0.00     0.060 A 
ATOM      4  C   UNL     1     170.305 170.703 164.201  1.00  0.00     0.051 A 
ATOM      5  C   UNL     1     170.877 173.062 164.166  1.00  0.00     0.161 A 
ATOM      6  C   UNL     1     169.911 172.046 164.178  1.00  0.00     0.157 A 
ENDROOT
BRANCH   1   7
ATOM      7  C   UNL     1     174.080 171.014 164.211  1.00  0.00     0.072 C 
ATOM      8  O   UNL     1     174.962 171.914 164.205  1.00  0.00    -0.545 OA
ATOM      9  O   UNL     1     174.478 169.682 164.228  1.00  0.00    -0.545 OA
ENDBRANCH   1   7
BRANCH   5  10
ATOM     10  O   UNL     1     170.441 174.396 164.142  1.00  0.00    -0.493 OA
ATOM     11  C   UNL     1     171.250 175.516 164.492  1.00  0.00     0.278 C 
ENDBRANCH   5  10
BRANCH   6  12
ATOM     12  O   UNL     1     168.558 172.381 164.167  1.00  0.00    -0.504 OA
ATOM     13  H   UNL     1     168.224 173.250 164.566  1.00  0.00     0.293 HD
ENDBRANCH   6  12
TORSDOF 3
ENDMDL
MODEL 9
REMARK VINA RESULT:    -4.244      3.016      4.321
REMARK INTER + INTRA:          -4.946
REMARK INTER:                  -4.864
REMARK INTRA:                  -0.082
REMARK UNBOUND:                -0.082
REMARK SMILES COc1cc(C(=O)[O-])ccc1O
REMARK SMILES IDX 5 1 9 2 4 3 10 4 3 5 11 6 6 7 7 8 8 9 2 10 1 11 12 12
REMARK H PARENT 12 13
REMARK Flexibility Score: inf
ROOT
ATOM      1  C   UNL     1     171.775 171.255 164.270  1.00  0.00     0.001 A 
ATOM      2  C   UNL     1     173.101 170.791 164.278  1.00  0.00     0.014 A 
ATOM      3  C   UNL     1     171.537 172.642 164.259  1.00  0.00     0.060 A 
ATOM      4  C   UNL     1     174.167 171.694 164.273  1.00  0.00     0.051 A 
ATOM      5  C   UNL     1     172.610 173.556 164.256  1.00  0.00     0.161 A 
ATOM      6  C   UNL     1     173.925 173.072 164.263  1.00  0.00     0.157 A 
ENDROOT
BRANCH   1   7
ATOM      7  C   UNL     1     170.644 170.302 164.275  1.00  0.00     0.072 C 
ATOM      8  O   UNL     1     169.456 170.717 164.240  1.00  0.00    -0.545 OA
ATOM      9  O   UNL     1     170.876 168.931 164.317  1.00  0.00    -0.545 OA
ENDBRANCH   1   7
BRANCH   5  10
ATOM     10  O   UNL     1     172.410 174.945 164.245  1.00  0.00    -0.493 OA
ATOM     11  C   UNL     1     171.145 175.580 164.411  1.00  0.00     0.278 C 
ENDBRANCH   5  10
BRANCH   6  12
ATOM     12  O   UNL     1     174.990 173.972 164.260  1.00  0.00    -0.504 OA
ATOM     13  H   UNL     1     175.544 174.142 165.091  1.00  0.00     0.293 HD
ENDBRANCH   6  12
TORSDOF 3
ENDMDL
