MODEL 1
REMARK VINA RESULT:    -3.651      0.000      0.000
REMARK INTER + INTRA:          -4.284
REMARK INTER:                  -4.078
REMARK INTRA:                  -0.207
REMARK UNBOUND:                -0.207
REMARK SMILES CC(C)c1ccc(C(=O)[O-])cc1
REMARK SMILES IDX 7 1 6 2 11 3 5 4 12 5 4 6 8 7 9 8 10 9 2 10 1 11 3 12
REMARK H PARENT
REMARK Flexibility Score: inf
ROOT
ATOM      1  C   UNL     1       4.873 -35.739  19.787  1.00  0.00    -0.003 A 
ATOM      2  C   UNL     1       5.202 -34.663  18.944  1.00  0.00     0.010 A 
ATOM      3  C   UNL     1       4.021 -36.746  19.305  1.00  0.00     0.010 A 
ATOM      4  C   UNL     1       4.690 -34.597  17.646  1.00  0.00     0.004 A 
ATOM      5  C   UNL     1       3.509 -36.680  18.006  1.00  0.00     0.004 A 
ATOM      6  C   UNL     1       3.837 -35.606  17.162  1.00  0.00    -0.045 A 
ENDROOT
BRANCH   1   7
ATOM      7  C   UNL     1       5.413 -35.813  21.163  1.00  0.00     0.071 C 
ATOM      8  O   UNL     1       5.752 -36.920  21.660  1.00  0.00    -0.545 OA
ATOM      9  O   UNL     1       5.553 -34.660  21.928  1.00  0.00    -0.545 OA
ENDBRANCH   1   7
BRANCH   6  10
ATOM     10  C   UNL     1       3.273 -35.546  15.755  1.00  0.00     0.013 C 
ATOM     11  C   UNL     1       3.854 -36.662  14.878  1.00  0.00     0.012 C 
ATOM     12  C   UNL     1       1.740 -35.598  15.771  1.00  0.00     0.012 C 
ENDBRANCH   6  10
TORSDOF 2
ENDMDL
MODEL 2
REMARK VINA RESULT:    -3.630      0.040      1.398
REMARK INTER + INTRA:          -4.261
REMARK INTER:                  -4.056
REMARK INTRA:                  -0.205
REMARK UNBOUND:                -0.207
REMARK SMILES CC(C)c1ccc(C(=O)[O-])cc1
REMARK SMILES IDX 7 1 6 2 11 3 5 4 12 5 4 6 8 7 9 8 10 9 2 10 1 11 3 12
REMARK H PARENT
REMARK Flexibility Score: inf
ROOT
ATOM      1  C   UNL     1       4.880 -35.740  19.774  1.00  0.00    -0.003 A 
ATOM      2  C   UNL     1       4.038 -36.755  19.287  1.00  0.00     0.010 A 
ATOM      3  C   UNL     1       5.195 -34.657  18.938  1.00  0.00     0.010 A 
ATOM      4  C   UNL     1       3.523 -36.686  17.991  1.00  0.00     0.004 A 
ATOM      5  C   UNL     1       4.679 -34.588  17.641  1.00  0.00     0.004 A 
ATOM      6  C   UNL     1       3.838 -35.601  17.152  1.00  0.00    -0.045 A 
ENDROOT
BRANCH   1   7
ATOM      7  C   UNL     1       5.429 -35.809  21.147  1.00  0.00     0.071 C 
ATOM      8  O   UNL     1       5.751 -36.917  21.653  1.00  0.00    -0.545 OA
ATOM      9  O   UNL     1       5.595 -34.652  21.899  1.00  0.00    -0.545 OA
ENDBRANCH   1   7
BRANCH   6  10
ATOM     10  C   UNL     1       3.286 -35.514  15.742  1.00  0.00     0.013 C 
ATOM     11  C   UNL     1       3.910 -36.583  14.836  1.00  0.00     0.012 C 
ATOM     12  C   UNL     1       1.755 -35.614  15.740  1.00  0.00     0.012 C 
ENDBRANCH   6  10
TORSDOF 2
ENDMDL
MODEL 3
REMARK VINA RESULT:    -3.170      2.910      5.099
REMARK INTER + INTRA:          -3.747
REMARK INTER:                  -3.543
REMARK INTRA:                  -0.204
REMARK UNBOUND:                -0.207
REMARK SMILES CC(C)c1ccc(C(=O)[O-])cc1
REMARK SMILES IDX 7 1 6 2 11 3 5 4 12 5 4 6 8 7 9 8 10 9 2 10 1 11 3 12
REMARK H PARENT
REMARK Flexibility Score: inf
ROOT
ATOM      1  C   UNL     1       3.724 -35.901  17.546  1.00  0.00    -0.003 A 
ATOM      2  C   UNL     1       4.577 -34.801  17.740  1.00  0.00     0.010 A 
ATOM      3  C   UNL     1       3.506 -36.789  18.612  1.00  0.00     0.010 A 
ATOM      4  C   UNL     1       5.198 -34.594  18.974  1.00  0.00     0.004 A 
ATOM      5  C   UNL     1       4.127 -36.582  19.847  1.00  0.00     0.004 A 
ATOM      6  C   UNL     1       4.980 -35.483  20.042  1.00  0.00    -0.045 A 
ENDROOT
BRANCH   1   7
ATOM      7  C   UNL     1       3.065 -36.125  16.240  1.00  0.00     0.071 C 
ATOM      8  O   UNL     1       1.930 -35.632  16.003  1.00  0.00    -0.545 OA
ATOM      9  O   UNL     1       3.689 -36.884  15.256  1.00  0.00    -0.545 OA
ENDBRANCH   1   7
BRANCH   6  10
ATOM     10  C   UNL     1       5.648 -35.270  21.388  1.00  0.00     0.013 C 
ATOM     11  C   UNL     1       4.878 -34.248  22.233  1.00  0.00     0.012 C 
ATOM     12  C   UNL     1       5.811 -36.597  22.139  1.00  0.00     0.012 C 
ENDBRANCH   6  10
TORSDOF 2
ENDMDL
MODEL 4
REMARK VINA RESULT:    -2.893      2.549      4.278
REMARK INTER + INTRA:          -3.438
REMARK INTER:                  -3.223
REMARK INTRA:                  -0.215
REMARK UNBOUND:                -0.207
REMARK SMILES CC(C)c1ccc(C(=O)[O-])cc1
REMARK SMILES IDX 7 1 6 2 11 3 5 4 12 5 4 6 8 7 9 8 10 9 2 10 1 11 3 12
REMARK H PARENT
REMARK Flexibility Score: inf
ROOT
ATOM      1  C   UNL     1       5.701 -35.825  23.531  1.00  0.00    -0.003 A 
ATOM      2  C   UNL     1       5.755 -37.030  22.809  1.00  0.00     0.010 A 
ATOM      3  C   UNL     1       5.493 -34.623  22.835  1.00  0.00     0.010 A 
ATOM      4  C   UNL     1       5.604 -37.031  21.420  1.00  0.00     0.004 A 
ATOM      5  C   UNL     1       5.341 -34.625  21.446  1.00  0.00     0.004 A 
ATOM      6  C   UNL     1       5.395 -35.828  20.723  1.00  0.00    -0.045 A 
ENDROOT
BRANCH   1   7
ATOM      7  C   UNL     1       5.861 -35.819  25.002  1.00  0.00     0.071 C 
ATOM      8  O   UNL     1       6.124 -34.749  25.614  1.00  0.00    -0.545 OA
ATOM      9  O   UNL     1       5.723 -36.995  25.731  1.00  0.00    -0.545 OA
ENDBRANCH   1   7
BRANCH   6  10
ATOM     10  C   UNL     1       5.231 -35.815  19.214  1.00  0.00     0.013 C 
ATOM     11  C   UNL     1       3.911 -36.473  18.796  1.00  0.00     0.012 C 
ATOM     12  C   UNL     1       5.337 -34.389  18.659  1.00  0.00     0.012 C 
ENDBRANCH   6  10
TORSDOF 2
ENDMDL
MODEL 5
REMARK VINA RESULT:    -2.581      2.992      6.531
REMARK INTER + INTRA:          -3.090
REMARK INTER:                  -2.875
REMARK INTRA:                  -0.215
REMARK UNBOUND:                -0.207
REMARK SMILES CC(C)c1ccc(C(=O)[O-])cc1
REMARK SMILES IDX 7 1 6 2 11 3 5 4 12 5 4 6 8 7 9 8 10 9 2 10 1 11 3 12
REMARK H PARENT
REMARK Flexibility Score: inf
ROOT
ATOM      1  C   UNL     1       5.315 -35.552  20.898  1.00  0.00    -0.003 A 
ATOM      2  C   UNL     1       5.448 -36.838  21.450  1.00  0.00     0.010 A 
ATOM      3  C   UNL     1       5.444 -34.434  21.738  1.00  0.00     0.010 A 
ATOM      4  C   UNL     1       5.706 -37.001  22.813  1.00  0.00     0.004 A 
ATOM      5  C   UNL     1       5.703 -34.598  23.102  1.00  0.00     0.004 A 
ATOM      6  C   UNL     1       5.836 -35.882  23.655  1.00  0.00    -0.045 A 
ENDROOT
BRANCH   1   7
ATOM      7  C   UNL     1       5.041 -35.375  19.454  1.00  0.00     0.071 C 
ATOM      8  O   UNL     1       5.596 -34.447  18.806  1.00  0.00    -0.545 OA
ATOM      9  O   UNL     1       4.166 -36.229  18.793  1.00  0.00    -0.545 OA
ENDBRANCH   1   7
BRANCH   6  10
ATOM     10  C   UNL     1       6.116 -36.044  25.137  1.00  0.00     0.013 C 
ATOM     11  C   UNL     1       6.125 -34.687  25.851  1.00  0.00     0.012 C 
ATOM     12  C   UNL     1       5.111 -37.003  25.787  1.00  0.00     0.012 C 
ENDBRANCH   6  10
TORSDOF 2
ENDMDL
MODEL 6
REMARK VINA RESULT:    -1.874      2.596      5.560
REMARK INTER + INTRA:          -2.300
REMARK INTER:                  -2.080
REMARK INTRA:                  -0.219
REMARK UNBOUND:                -0.207
REMARK SMILES CC(C)c1ccc(C(=O)[O-])cc1
REMARK SMILES IDX 7 1 6 2 11 3 5 4 12 5 4 6 8 7 9 8 10 9 2 10 1 11 3 12
REMARK H PARENT
REMARK Flexibility Score: inf
ROOT
ATOM      1  C   UNL     1       4.599 -35.733  19.307  1.00  0.00    -0.003 A 
ATOM      2  C   UNL     1       5.271 -34.580  19.750  1.00  0.00     0.010 A 
ATOM      3  C   UNL     1       4.431 -36.806  20.197  1.00  0.00     0.010 A 
ATOM      4  C   UNL     1       5.763 -34.504  21.055  1.00  0.00     0.004 A 
ATOM      5  C   UNL     1       4.923 -36.730  21.503  1.00  0.00     0.004 A 
ATOM      6  C   UNL     1       5.595 -35.579  21.947  1.00  0.00    -0.045 A 
ENDROOT
BRANCH   1   7
ATOM      7  C   UNL     1       4.077 -35.818  17.925  1.00  0.00     0.071 C 
ATOM      8  O   UNL     1       4.318 -34.905  17.091  1.00  0.00    -0.545 OA
ATOM      9  O   UNL     1       3.310 -36.908  17.528  1.00  0.00    -0.545 OA
ENDBRANCH   1   7
BRANCH   6  10
ATOM     10  C   UNL     1       6.125 -35.510  23.367  1.00  0.00     0.013 C 
ATOM     11  C   UNL     1       5.679 -34.217  24.062  1.00  0.00     0.012 C 
ATOM     12  C   UNL     1       5.705 -36.744  24.174  1.00  0.00     0.012 C 
ENDBRANCH   6  10
TORSDOF 2
ENDMDL
MODEL 7
REMARK VINA RESULT:    -1.539      3.230      5.115
REMARK INTER + INTRA:          -1.926
REMARK INTER:                  -1.715
REMARK INTRA:                  -0.210
REMARK UNBOUND:                -0.207
REMARK SMILES CC(C)c1ccc(C(=O)[O-])cc1
REMARK SMILES IDX 7 1 6 2 11 3 5 4 12 5 4 6 8 7 9 8 10 9 2 10 1 11 3 12
REMARK H PARENT
REMARK Flexibility Score: inf
ROOT
ATOM      1  C   UNL     1       5.342 -36.594  24.288  1.00  0.00    -0.003 A 
ATOM      2  C   UNL     1       5.288 -37.538  23.247  1.00  0.00     0.010 A 
ATOM      3  C   UNL     1       5.600 -35.250  23.975  1.00  0.00     0.010 A 
ATOM      4  C   UNL     1       5.488 -37.144  21.922  1.00  0.00     0.004 A 
ATOM      5  C   UNL     1       5.800 -34.855  22.649  1.00  0.00     0.004 A 
ATOM      6  C   UNL     1       5.747 -35.797  21.608  1.00  0.00    -0.045 A 
ENDROOT
BRANCH   1   7
ATOM      7  C   UNL     1       5.131 -37.007  25.693  1.00  0.00     0.071 C 
ATOM      8  O   UNL     1       6.109 -37.319  26.423  1.00  0.00    -0.545 OA
ATOM      9  O   UNL     1       3.848 -37.059  26.227  1.00  0.00    -0.545 OA
ENDBRANCH   1   7
BRANCH   6  10
ATOM     10  C   UNL     1       5.968 -35.355  20.173  1.00  0.00     0.013 C 
ATOM     11  C   UNL     1       4.851 -35.872  19.257  1.00  0.00     0.012 C 
ATOM     12  C   UNL     1       6.098 -33.830  20.079  1.00  0.00     0.012 C 
ENDBRANCH   6  10
TORSDOF 2
ENDMDL
