MODEL 1
REMARK VINA RESULT:    -7.917      0.000      0.000
REMARK INTER + INTRA:          -7.917
REMARK INTER:                  -7.917
REMARK INTRA:                   0.000
REMARK UNBOUND:                 0.000
REMARK SMILES C=C1CCC[C@@]2(C)CC(=O)C(=C(C)C)C[C@H]12
REMARK SMILES IDX 13 1 12 2 11 3 15 4 16 5 2 6 1 7 3 8 4 9 5 10 6 11 8 12 9 13
REMARK SMILES IDX 10 14 7 15 14 16
REMARK H PARENT
REMARK Flexibility Score: inf
ROOT
ATOM      1  C   UNL     1      -8.406  31.679  27.872  1.00  0.00     0.039 C 
ATOM      2  C   UNL     1      -8.394  30.726  26.699  1.00  0.00    -0.070 C 
ATOM      3  C   UNL     1      -8.465  31.183  25.413  1.00  0.00    -0.006 C 
ATOM      4  C   UNL     1      -8.539  32.674  25.110  1.00  0.00     0.047 C 
ATOM      5  C   UNL     1      -7.888  33.043  23.754  1.00  0.00     0.025 C 
ATOM      6  C   UNL     1      -7.968  34.523  23.377  1.00  0.00    -0.073 C 
ATOM      7  C   UNL     1      -8.562  35.464  24.136  1.00  0.00     0.008 C 
ATOM      8  C   UNL     1      -7.288  34.921  22.088  1.00  0.00     0.031 C 
ATOM      9  C   UNL     1      -7.783  34.047  20.933  1.00  0.00     0.005 C 
ATOM     10  C   UNL     1      -7.673  32.548  21.267  1.00  0.00     0.008 C 
ATOM     11  C   UNL     1      -8.416  32.159  22.581  1.00  0.00    -0.018 C 
ATOM     12  C   UNL     1      -8.095  30.678  22.894  1.00  0.00     0.088 C 
ATOM     13  C   UNL     1      -8.600  30.263  24.247  1.00  0.00     0.159 C 
ATOM     14  O   UNL     1      -9.149  29.134  24.365  1.00  0.00    -0.295 OA
ATOM     15  C   UNL     1      -9.948  32.322  22.379  1.00  0.00     0.012 C 
ATOM     16  C   UNL     1      -8.258  29.254  27.014  1.00  0.00     0.039 C 
ENDROOT
TORSDOF 0
ENDMDL
MODEL 2
REMARK VINA RESULT:    -6.948      1.852      5.463
REMARK INTER + INTRA:          -6.948
REMARK INTER:                  -6.948
REMARK INTRA:                   0.000
REMARK UNBOUND:                 0.000
REMARK SMILES C=C1CCC[C@@]2(C)CC(=O)C(=C(C)C)C[C@H]12
REMARK SMILES IDX 13 1 12 2 11 3 15 4 16 5 2 6 1 7 3 8 4 9 5 10 6 11 8 12 9 13
REMARK SMILES IDX 10 14 7 15 14 16
REMARK H PARENT
REMARK Flexibility Score: inf
ROOT
ATOM      1  C   UNL     1      -7.856  32.798  20.796  1.00  0.00     0.039 C 
ATOM      2  C   UNL     1      -7.878  33.704  22.006  1.00  0.00    -0.070 C 
ATOM      3  C   UNL     1      -8.158  33.217  23.251  1.00  0.00    -0.006 C 
ATOM      4  C   UNL     1      -8.441  31.736  23.473  1.00  0.00     0.047 C 
ATOM      5  C   UNL     1      -8.008  31.247  24.879  1.00  0.00     0.025 C 
ATOM      6  C   UNL     1      -8.304  29.776  25.173  1.00  0.00    -0.073 C 
ATOM      7  C   UNL     1      -8.905  28.939  24.306  1.00  0.00     0.008 C 
ATOM      8  C   UNL     1      -7.839  29.258  26.514  1.00  0.00     0.031 C 
ATOM      9  C   UNL     1      -8.368  30.147  27.642  1.00  0.00     0.005 C 
ATOM     10  C   UNL     1      -8.045  31.631  27.394  1.00  0.00     0.008 C 
ATOM     11  C   UNL     1      -8.571  32.150  26.021  1.00  0.00    -0.018 C 
ATOM     12  C   UNL     1      -8.045  33.591  25.817  1.00  0.00     0.088 C 
ATOM     13  C   UNL     1      -8.329  34.108  24.435  1.00  0.00     0.159 C 
ATOM     14  O   UNL     1      -8.725  35.297  24.307  1.00  0.00    -0.295 OA
ATOM     15  C   UNL     1     -10.124  32.166  26.032  1.00  0.00     0.012 C 
ATOM     16  C   UNL     1      -7.536  35.158  21.778  1.00  0.00     0.039 C 
ENDROOT
TORSDOF 0
ENDMDL
MODEL 3
REMARK VINA RESULT:    -6.892      1.488      4.802
REMARK INTER + INTRA:          -6.892
REMARK INTER:                  -6.892
REMARK INTRA:                   0.000
REMARK UNBOUND:                 0.000
REMARK SMILES C=C1CCC[C@@]2(C)CC(=O)C(=C(C)C)C[C@H]12
REMARK SMILES IDX 13 1 12 2 11 3 15 4 16 5 2 6 1 7 3 8 4 9 5 10 6 11 8 12 9 13
REMARK SMILES IDX 10 14 7 15 14 16
REMARK H PARENT
REMARK Flexibility Score: inf
ROOT
ATOM      1  C   UNL     1      -7.615  34.882  22.389  1.00  0.00     0.039 C 
ATOM      2  C   UNL     1      -7.837  33.438  22.000  1.00  0.00    -0.070 C 
ATOM      3  C   UNL     1      -8.069  32.478  22.943  1.00  0.00    -0.006 C 
ATOM      4  C   UNL     1      -8.133  32.827  24.424  1.00  0.00     0.047 C 
ATOM      5  C   UNL     1      -9.080  31.894  25.220  1.00  0.00     0.025 C 
ATOM      6  C   UNL     1      -9.154  32.172  26.722  1.00  0.00    -0.073 C 
ATOM      7  C   UNL     1      -8.454  33.140  27.345  1.00  0.00     0.008 C 
ATOM      8  C   UNL     1     -10.115  31.316  27.512  1.00  0.00     0.031 C 
ATOM      9  C   UNL     1      -9.842  29.831  27.255  1.00  0.00     0.005 C 
ATOM     10  C   UNL     1      -9.806  29.513  25.750  1.00  0.00     0.008 C 
ATOM     11  C   UNL     1      -8.778  30.384  24.966  1.00  0.00    -0.018 C 
ATOM     12  C   UNL     1      -8.953  30.092  23.456  1.00  0.00     0.088 C 
ATOM     13  C   UNL     1      -8.147  31.028  22.601  1.00  0.00     0.159 C 
ATOM     14  O   UNL     1      -7.533  30.557  21.606  1.00  0.00    -0.295 OA
ATOM     15  C   UNL     1      -7.336  30.002  25.400  1.00  0.00     0.012 C 
ATOM     16  C   UNL     1      -7.831  33.119  20.522  1.00  0.00     0.039 C 
ENDROOT
TORSDOF 0
ENDMDL
MODEL 4
REMARK VINA RESULT:    -6.387     17.864     19.820
REMARK INTER + INTRA:          -6.387
REMARK INTER:                  -6.387
REMARK INTRA:                   0.000
REMARK UNBOUND:                 0.000
REMARK SMILES C=C1CCC[C@@]2(C)CC(=O)C(=C(C)C)C[C@H]12
REMARK SMILES IDX 13 1 12 2 11 3 15 4 16 5 2 6 1 7 3 8 4 9 5 10 6 11 8 12 9 13
REMARK SMILES IDX 10 14 7 15 14 16
REMARK H PARENT
REMARK Flexibility Score: inf
ROOT
ATOM      1  C   UNL     1      -2.612  45.163   9.539  1.00  0.00     0.039 C 
ATOM      2  C   UNL     1      -3.463  46.203  10.232  1.00  0.00    -0.070 C 
ATOM      3  C   UNL     1      -3.239  46.550  11.534  1.00  0.00    -0.006 C 
ATOM      4  C   UNL     1      -2.108  45.916  12.335  1.00  0.00     0.047 C 
ATOM      5  C   UNL     1      -1.534  46.866  13.417  1.00  0.00     0.025 C 
ATOM      6  C   UNL     1      -0.422  46.269  14.280  1.00  0.00    -0.073 C 
ATOM      7  C   UNL     1       0.043  45.011  14.148  1.00  0.00     0.008 C 
ATOM      8  C   UNL     1       0.197  47.193  15.303  1.00  0.00     0.031 C 
ATOM      9  C   UNL     1      -0.889  47.817  16.183  1.00  0.00     0.005 C 
ATOM     10  C   UNL     1      -2.001  48.465  15.340  1.00  0.00     0.008 C 
ATOM     11  C   UNL     1      -2.649  47.480  14.321  1.00  0.00    -0.018 C 
ATOM     12  C   UNL     1      -3.624  48.283  13.428  1.00  0.00     0.088 C 
ATOM     13  C   UNL     1      -4.150  47.464  12.283  1.00  0.00     0.159 C 
ATOM     14  O   UNL     1      -5.371  47.557  11.985  1.00  0.00    -0.295 OA
ATOM     15  C   UNL     1      -3.438  46.383  15.089  1.00  0.00     0.012 C 
ATOM     16  C   UNL     1      -4.540  46.866   9.405  1.00  0.00     0.039 C 
ENDROOT
TORSDOF 0
ENDMDL
MODEL 5
REMARK VINA RESULT:    -6.380      2.037      4.039
REMARK INTER + INTRA:          -6.380
REMARK INTER:                  -6.380
REMARK INTRA:                   0.000
REMARK UNBOUND:                 0.000
REMARK SMILES C=C1CCC[C@@]2(C)CC(=O)C(=C(C)C)C[C@H]12
REMARK SMILES IDX 13 1 12 2 11 3 15 4 16 5 2 6 1 7 3 8 4 9 5 10 6 11 8 12 9 13
REMARK SMILES IDX 10 14 7 15 14 16
REMARK H PARENT
REMARK Flexibility Score: inf
ROOT
ATOM      1  C   UNL     1      -9.000  36.196  24.627  1.00  0.00     0.039 C 
ATOM      2  C   UNL     1      -8.648  35.124  25.633  1.00  0.00    -0.070 C 
ATOM      3  C   UNL     1      -8.704  33.799  25.307  1.00  0.00    -0.006 C 
ATOM      4  C   UNL     1      -9.105  33.348  23.908  1.00  0.00     0.047 C 
ATOM      5  C   UNL     1      -8.436  32.013  23.493  1.00  0.00     0.025 C 
ATOM      6  C   UNL     1      -8.833  31.490  22.112  1.00  0.00    -0.073 C 
ATOM      7  C   UNL     1      -9.705  32.109  21.293  1.00  0.00     0.008 C 
ATOM      8  C   UNL     1      -8.149  30.222  21.658  1.00  0.00     0.031 C 
ATOM      9  C   UNL     1      -8.308  29.124  22.713  1.00  0.00     0.005 C 
ATOM     10  C   UNL     1      -7.873  29.609  24.107  1.00  0.00     0.008 C 
ATOM     11  C   UNL     1      -8.622  30.896  24.567  1.00  0.00    -0.018 C 
ATOM     12  C   UNL     1      -7.986  31.375  25.895  1.00  0.00     0.088 C 
ATOM     13  C   UNL     1      -8.503  32.721  26.318  1.00  0.00     0.159 C 
ATOM     14  O   UNL     1      -8.773  32.906  27.535  1.00  0.00    -0.295 OA
ATOM     15  C   UNL     1     -10.122  30.567  24.805  1.00  0.00     0.012 C 
ATOM     16  C   UNL     1      -8.193  35.590  26.997  1.00  0.00     0.039 C 
ENDROOT
TORSDOF 0
ENDMDL
MODEL 6
REMARK VINA RESULT:    -6.049     18.285     20.501
REMARK INTER + INTRA:          -6.049
REMARK INTER:                  -6.049
REMARK INTRA:                   0.000
REMARK UNBOUND:                 0.000
REMARK SMILES C=C1CCC[C@@]2(C)CC(=O)C(=C(C)C)C[C@H]12
REMARK SMILES IDX 13 1 12 2 11 3 15 4 16 5 2 6 1 7 3 8 4 9 5 10 6 11 8 12 9 13
REMARK SMILES IDX 10 14 7 15 14 16
REMARK H PARENT
REMARK Flexibility Score: inf
ROOT
ATOM      1  C   UNL     1      -0.490  44.745  14.136  1.00  0.00     0.039 C 
ATOM      2  C   UNL     1      -0.918  46.192  14.238  1.00  0.00    -0.070 C 
ATOM      3  C   UNL     1      -1.540  46.822  13.197  1.00  0.00    -0.006 C 
ATOM      4  C   UNL     1      -1.846  46.085  11.899  1.00  0.00     0.047 C 
ATOM      5  C   UNL     1      -3.113  46.623  11.189  1.00  0.00     0.025 C 
ATOM      6  C   UNL     1      -3.447  45.948   9.858  1.00  0.00    -0.073 C 
ATOM      7  C   UNL     1      -2.712  44.963   9.307  1.00  0.00     0.008 C 
ATOM      8  C   UNL     1      -4.711  46.412   9.174  1.00  0.00     0.031 C 
ATOM      9  C   UNL     1      -4.703  47.935   9.014  1.00  0.00     0.005 C 
ATOM     10  C   UNL     1      -4.412  48.644  10.349  1.00  0.00     0.008 C 
ATOM     11  C   UNL     1      -3.083  48.174  11.014  1.00  0.00    -0.018 C 
ATOM     12  C   UNL     1      -2.987  48.829  12.413  1.00  0.00     0.088 C 
ATOM     13  C   UNL     1      -1.841  48.283  13.216  1.00  0.00     0.159 C 
ATOM     14  O   UNL     1      -1.140  49.086  13.888  1.00  0.00    -0.295 OA
ATOM     15  C   UNL     1      -1.878  48.634  10.147  1.00  0.00     0.012 C 
ATOM     16  C   UNL     1      -0.662  46.890  15.554  1.00  0.00     0.039 C 
ENDROOT
TORSDOF 0
ENDMDL
MODEL 7
REMARK VINA RESULT:    -5.918     18.701     20.532
REMARK INTER + INTRA:          -5.918
REMARK INTER:                  -5.918
REMARK INTRA:                   0.000
REMARK UNBOUND:                 0.000
REMARK SMILES C=C1CCC[C@@]2(C)CC(=O)C(=C(C)C)C[C@H]12
REMARK SMILES IDX 13 1 12 2 11 3 15 4 16 5 2 6 1 7 3 8 4 9 5 10 6 11 8 12 9 13
REMARK SMILES IDX 10 14 7 15 14 16
REMARK H PARENT
REMARK Flexibility Score: inf
ROOT
ATOM      1  C   UNL     1       1.265  48.862  13.667  1.00  0.00     0.039 C 
ATOM      2  C   UNL     1       0.137  48.041  14.250  1.00  0.00    -0.070 C 
ATOM      3  C   UNL     1      -0.983  47.757  13.521  1.00  0.00    -0.006 C 
ATOM      4  C   UNL     1      -1.131  48.239  12.083  1.00  0.00     0.047 C 
ATOM      5  C   UNL     1      -1.991  47.286  11.216  1.00  0.00     0.025 C 
ATOM      6  C   UNL     1      -2.208  47.739   9.772  1.00  0.00    -0.073 C 
ATOM      7  C   UNL     1      -1.714  48.882   9.258  1.00  0.00     0.008 C 
ATOM      8  C   UNL     1      -2.993  46.798   8.888  1.00  0.00     0.031 C 
ATOM      9  C   UNL     1      -4.329  46.442   9.544  1.00  0.00     0.005 C 
ATOM     10  C   UNL     1      -4.138  45.939  10.986  1.00  0.00     0.008 C 
ATOM     11  C   UNL     1      -3.360  46.946  11.886  1.00  0.00    -0.018 C 
ATOM     12  C   UNL     1      -3.088  46.263  13.248  1.00  0.00     0.088 C 
ATOM     13  C   UNL     1      -2.169  47.076  14.116  1.00  0.00     0.159 C 
ATOM     14  O   UNL     1      -2.433  47.177  15.344  1.00  0.00    -0.295 OA
ATOM     15  C   UNL     1      -4.224  48.217  12.110  1.00  0.00     0.012 C 
ATOM     16  C   UNL     1       0.326  47.519  15.655  1.00  0.00     0.039 C 
ENDROOT
TORSDOF 0
ENDMDL
MODEL 8
REMARK VINA RESULT:    -5.855     17.680     18.682
REMARK INTER + INTRA:          -5.855
REMARK INTER:                  -5.855
REMARK INTRA:                   0.000
REMARK UNBOUND:                 0.000
REMARK SMILES C=C1CCC[C@@]2(C)CC(=O)C(=C(C)C)C[C@H]12
REMARK SMILES IDX 13 1 12 2 11 3 15 4 16 5 2 6 1 7 3 8 4 9 5 10 6 11 8 12 9 13
REMARK SMILES IDX 10 14 7 15 14 16
REMARK H PARENT
REMARK Flexibility Score: inf
ROOT
ATOM      1  C   UNL     1       1.370  48.014  19.673  1.00  0.00     0.039 C 
ATOM      2  C   UNL     1      -0.137  47.971  19.568  1.00  0.00    -0.070 C 
ATOM      3  C   UNL     1      -0.761  47.851  18.358  1.00  0.00    -0.006 C 
ATOM      4  C   UNL     1       0.040  47.734  17.067  1.00  0.00     0.047 C 
ATOM      5  C   UNL     1      -0.689  46.902  15.982  1.00  0.00     0.025 C 
ATOM      6  C   UNL     1       0.050  46.784  14.649  1.00  0.00    -0.073 C 
ATOM      7  C   UNL     1       1.242  47.357  14.394  1.00  0.00     0.008 C 
ATOM      8  C   UNL     1      -0.610  45.928  13.594  1.00  0.00     0.031 C 
ATOM      9  C   UNL     1      -2.055  46.381  13.368  1.00  0.00     0.005 C 
ATOM     10  C   UNL     1      -2.837  46.466  14.690  1.00  0.00     0.008 C 
ATOM     11  C   UNL     1      -2.154  47.386  15.746  1.00  0.00    -0.018 C 
ATOM     12  C   UNL     1      -2.938  47.259  17.075  1.00  0.00     0.088 C 
ATOM     13  C   UNL     1      -2.242  47.952  18.212  1.00  0.00     0.159 C 
ATOM     14  O   UNL     1      -2.934  48.625  19.021  1.00  0.00    -0.295 OA
ATOM     15  C   UNL     1      -2.203  48.861  15.259  1.00  0.00     0.012 C 
ATOM     16  C   UNL     1      -0.915  48.027  20.863  1.00  0.00     0.039 C 
ENDROOT
TORSDOF 0
ENDMDL
MODEL 9
REMARK VINA RESULT:    -5.641     17.732     19.754
REMARK INTER + INTRA:          -5.641
REMARK INTER:                  -5.641
REMARK INTRA:                   0.000
REMARK UNBOUND:                 0.000
REMARK SMILES C=C1CCC[C@@]2(C)CC(=O)C(=C(C)C)C[C@H]12
REMARK SMILES IDX 13 1 12 2 11 3 15 4 16 5 2 6 1 7 3 8 4 9 5 10 6 11 8 12 9 13
REMARK SMILES IDX 10 14 7 15 14 16
REMARK H PARENT
REMARK Flexibility Score: inf
ROOT
ATOM      1  C   UNL     1       0.484  48.435  18.855  1.00  0.00     0.039 C 
ATOM      2  C   UNL     1       1.243  48.469  17.547  1.00  0.00    -0.070 C 
ATOM      3  C   UNL     1       0.673  48.031  16.386  1.00  0.00    -0.006 C 
ATOM      4  C   UNL     1      -0.758  47.509  16.357  1.00  0.00     0.047 C 
ATOM      5  C   UNL     1      -1.462  47.763  15.000  1.00  0.00     0.025 C 
ATOM      6  C   UNL     1      -2.889  47.225  14.899  1.00  0.00    -0.073 C 
ATOM      7  C   UNL     1      -3.518  46.563  15.890  1.00  0.00     0.008 C 
ATOM      8  C   UNL     1      -3.620  47.511  13.609  1.00  0.00     0.031 C 
ATOM      9  C   UNL     1      -2.787  47.048  12.410  1.00  0.00     0.005 C 
ATOM     10  C   UNL     1      -1.356  47.612  12.462  1.00  0.00     0.008 C 
ATOM     11  C   UNL     1      -0.612  47.269  13.788  1.00  0.00    -0.018 C 
ATOM     12  C   UNL     1       0.740  48.023  13.791  1.00  0.00     0.088 C 
ATOM     13  C   UNL     1       1.445  47.919  15.114  1.00  0.00     0.159 C 
ATOM     14  O   UNL     1       2.689  47.721  15.119  1.00  0.00    -0.295 OA
ATOM     15  C   UNL     1      -0.347  45.739  13.854  1.00  0.00     0.012 C 
ATOM     16  C   UNL     1       2.640  49.046  17.582  1.00  0.00     0.039 C 
ENDROOT
TORSDOF 0
ENDMDL
