MODEL 1
REMARK VINA RESULT:    -4.637      0.000      0.000
REMARK INTER + INTRA:          -5.204
REMARK INTER:                  -5.043
REMARK INTRA:                  -0.161
REMARK UNBOUND:                -0.161
REMARK SMILES O=C([O-])c1ccccc1O
REMARK SMILES IDX 4 1 9 2 5 3 8 4 6 5 7 6 2 7 1 8 3 9 10 10
REMARK H PARENT 10 11
REMARK Flexibility Score: inf
ROOT
ATOM      1  C   UNL     1     -16.028  -6.065 -27.239  1.00  0.00     0.039 A 
ATOM      2  C   UNL     1     -15.706  -5.142 -26.215  1.00  0.00     0.124 A 
ATOM      3  C   UNL     1     -17.360  -6.135 -27.693  1.00  0.00     0.014 A 
ATOM      4  C   UNL     1     -16.707  -4.321 -25.673  1.00  0.00     0.047 A 
ATOM      5  C   UNL     1     -18.346  -5.312 -27.145  1.00  0.00     0.001 A 
ATOM      6  C   UNL     1     -18.020  -4.406 -26.136  1.00  0.00     0.004 A 
ENDROOT
BRANCH   1   7
ATOM      7  C   UNL     1     -15.000  -6.953 -27.841  1.00  0.00     0.075 C 
ATOM      8  O   UNL     1     -14.166  -6.492 -28.666  1.00  0.00    -0.545 OA
ATOM      9  O   UNL     1     -14.935  -8.302 -27.513  1.00  0.00    -0.545 OA
ENDBRANCH   1   7
BRANCH   2  10
ATOM     10  O   UNL     1     -14.402  -5.037 -25.733  1.00  0.00    -0.507 OA
ATOM     11  H   UNL     1     -13.697  -5.734 -25.947  1.00  0.00     0.293 HD
ENDBRANCH   2  10
TORSDOF 2
ENDMDL
MODEL 2
REMARK VINA RESULT:    -4.614      9.628     10.951
REMARK INTER + INTRA:          -5.179
REMARK INTER:                  -4.969
REMARK INTRA:                  -0.210
REMARK UNBOUND:                -0.161
REMARK SMILES O=C([O-])c1ccccc1O
REMARK SMILES IDX 4 1 9 2 5 3 8 4 6 5 7 6 2 7 1 8 3 9 10 10
REMARK H PARENT 10 11
REMARK Flexibility Score: inf
ROOT
ATOM      1  C   UNL     1     -24.172 -11.415 -30.125  1.00  0.00     0.039 A 
ATOM      2  C   UNL     1     -24.046 -11.765 -31.490  1.00  0.00     0.124 A 
ATOM      3  C   UNL     1     -25.406 -11.637 -29.480  1.00  0.00     0.014 A 
ATOM      4  C   UNL     1     -25.138 -12.321 -32.175  1.00  0.00     0.047 A 
ATOM      5  C   UNL     1     -26.485 -12.189 -30.173  1.00  0.00     0.001 A 
ATOM      6  C   UNL     1     -26.351 -12.531 -31.519  1.00  0.00     0.004 A 
ENDROOT
BRANCH   1   7
ATOM      7  C   UNL     1     -23.042 -10.826 -29.361  1.00  0.00     0.075 C 
ATOM      8  O   UNL     1     -23.261 -10.160 -28.314  1.00  0.00    -0.545 OA
ATOM      9  O   UNL     1     -21.728 -10.993 -29.781  1.00  0.00    -0.545 OA
ENDBRANCH   1   7
BRANCH   2  10
ATOM     10  O   UNL     1     -22.844 -11.565 -32.170  1.00  0.00    -0.507 OA
ATOM     11  H   UNL     1     -22.248 -12.340 -32.437  1.00  0.00     0.293 HD
ENDBRANCH   2  10
TORSDOF 2
ENDMDL
MODEL 3
REMARK VINA RESULT:    -4.605     10.570     11.855
REMARK INTER + INTRA:          -5.170
REMARK INTER:                  -4.927
REMARK INTRA:                  -0.243
REMARK UNBOUND:                -0.161
REMARK SMILES O=C([O-])c1ccccc1O
REMARK SMILES IDX 4 1 9 2 5 3 8 4 6 5 7 6 2 7 1 8 3 9 10 10
REMARK H PARENT 10 11
REMARK Flexibility Score: inf
ROOT
ATOM      1  C   UNL     1     -25.365 -11.193 -29.639  1.00  0.00     0.039 A 
ATOM      2  C   UNL     1     -26.533 -11.892 -29.250  1.00  0.00     0.124 A 
ATOM      3  C   UNL     1     -24.868 -11.378 -30.945  1.00  0.00     0.014 A 
ATOM      4  C   UNL     1     -27.170 -12.751 -30.160  1.00  0.00     0.047 A 
ATOM      5  C   UNL     1     -25.512 -12.236 -31.839  1.00  0.00     0.001 A 
ATOM      6  C   UNL     1     -26.662 -12.921 -31.447  1.00  0.00     0.004 A 
ENDROOT
BRANCH   1   7
ATOM      7  C   UNL     1     -24.659 -10.274 -28.710  1.00  0.00     0.075 C 
ATOM      8  O   UNL     1     -25.267  -9.296 -28.198  1.00  0.00    -0.545 OA
ATOM      9  O   UNL     1     -23.322 -10.469 -28.385  1.00  0.00    -0.545 OA
ENDBRANCH   1   7
BRANCH   2  10
ATOM     10  O   UNL     1     -27.062 -11.741 -27.969  1.00  0.00    -0.507 OA
ATOM     11  H   UNL     1     -27.739 -12.394 -27.591  1.00  0.00     0.293 HD
ENDBRANCH   2  10
TORSDOF 2
ENDMDL
MODEL 4
REMARK VINA RESULT:    -4.523     10.499     11.815
REMARK INTER + INTRA:          -5.081
REMARK INTER:                  -4.826
REMARK INTRA:                  -0.255
REMARK UNBOUND:                -0.161
REMARK SMILES O=C([O-])c1ccccc1O
REMARK SMILES IDX 4 1 9 2 5 3 8 4 6 5 7 6 2 7 1 8 3 9 10 10
REMARK H PARENT 10 11
REMARK Flexibility Score: inf
ROOT
ATOM      1  C   UNL     1     -25.850 -10.989 -29.164  1.00  0.00     0.039 A 
ATOM      2  C   UNL     1     -27.041 -11.749 -29.081  1.00  0.00     0.124 A 
ATOM      3  C   UNL     1     -25.782  -9.760 -28.478  1.00  0.00     0.014 A 
ATOM      4  C   UNL     1     -28.125 -11.272 -28.327  1.00  0.00     0.047 A 
ATOM      5  C   UNL     1     -26.867  -9.298 -27.731  1.00  0.00     0.001 A 
ATOM      6  C   UNL     1     -28.037 -10.053 -27.656  1.00  0.00     0.004 A 
ENDROOT
BRANCH   1   7
ATOM      7  C   UNL     1     -24.679 -11.456 -29.950  1.00  0.00     0.075 C 
ATOM      8  O   UNL     1     -23.519 -11.397 -29.460  1.00  0.00    -0.545 OA
ATOM      9  O   UNL     1     -24.832 -11.964 -31.234  1.00  0.00    -0.545 OA
ENDBRANCH   1   7
BRANCH   2  10
ATOM     10  O   UNL     1     -27.156 -12.972 -29.743  1.00  0.00    -0.507 OA
ATOM     11  H   UNL     1     -26.414 -13.661 -29.720  1.00  0.00     0.293 HD
ENDBRANCH   2  10
TORSDOF 2
ENDMDL
MODEL 5
REMARK VINA RESULT:    -4.520     11.044     12.266
REMARK INTER + INTRA:          -5.078
REMARK INTER:                  -4.828
REMARK INTRA:                  -0.249
REMARK UNBOUND:                -0.161
REMARK SMILES O=C([O-])c1ccccc1O
REMARK SMILES IDX 4 1 9 2 5 3 8 4 6 5 7 6 2 7 1 8 3 9 10 10
REMARK H PARENT 10 11
REMARK Flexibility Score: inf
ROOT
ATOM      1  C   UNL     1     -25.685 -12.024 -31.039  1.00  0.00     0.039 A 
ATOM      2  C   UNL     1     -25.120 -11.620 -29.806  1.00  0.00     0.124 A 
ATOM      3  C   UNL     1     -24.847 -12.125 -32.167  1.00  0.00     0.014 A 
ATOM      4  C   UNL     1     -23.750 -11.329 -29.725  1.00  0.00     0.047 A 
ATOM      5  C   UNL     1     -23.485 -11.832 -32.074  1.00  0.00     0.001 A 
ATOM      6  C   UNL     1     -22.937 -11.435 -30.853  1.00  0.00     0.004 A 
ENDROOT
BRANCH   1   7
ATOM      7  C   UNL     1     -27.131 -12.342 -31.170  1.00  0.00     0.075 C 
ATOM      8  O   UNL     1     -27.667 -13.188 -30.404  1.00  0.00    -0.545 OA
ATOM      9  O   UNL     1     -27.919 -11.721 -32.131  1.00  0.00    -0.545 OA
ENDBRANCH   1   7
BRANCH   2  10
ATOM     10  O   UNL     1     -25.911 -11.506 -28.662  1.00  0.00    -0.507 OA
ATOM     11  H   UNL     1     -25.649 -11.946 -27.788  1.00  0.00     0.293 HD
ENDBRANCH   2  10
TORSDOF 2
ENDMDL
MODEL 6
REMARK VINA RESULT:    -4.500     11.171     12.585
REMARK INTER + INTRA:          -5.056
REMARK INTER:                  -4.848
REMARK INTRA:                  -0.207
REMARK UNBOUND:                -0.161
REMARK SMILES O=C([O-])c1ccccc1O
REMARK SMILES IDX 4 1 9 2 5 3 8 4 6 5 7 6 2 7 1 8 3 9 10 10
REMARK H PARENT 10 11
REMARK Flexibility Score: inf
ROOT
ATOM      1  C   UNL     1     -25.827 -11.758 -30.175  1.00  0.00     0.039 A 
ATOM      2  C   UNL     1     -26.034 -12.335 -31.451  1.00  0.00     0.124 A 
ATOM      3  C   UNL     1     -24.544 -11.272 -29.852  1.00  0.00     0.014 A 
ATOM      4  C   UNL     1     -24.972 -12.414 -32.364  1.00  0.00     0.047 A 
ATOM      5  C   UNL     1     -23.496 -11.357 -30.769  1.00  0.00     0.001 A 
ATOM      6  C   UNL     1     -23.709 -11.928 -32.025  1.00  0.00     0.004 A 
ENDROOT
BRANCH   1   7
ATOM      7  C   UNL     1     -26.923 -11.653 -29.178  1.00  0.00     0.075 C 
ATOM      8  O   UNL     1     -28.125 -11.608 -29.556  1.00  0.00    -0.545 OA
ATOM      9  O   UNL     1     -26.653 -11.601 -27.816  1.00  0.00    -0.545 OA
ENDBRANCH   1   7
BRANCH   2  10
ATOM     10  O   UNL     1     -27.286 -12.829 -31.816  1.00  0.00    -0.507 OA
ATOM     11  H   UNL     1     -27.504 -13.072 -32.775  1.00  0.00     0.293 HD
ENDBRANCH   2  10
TORSDOF 2
ENDMDL
MODEL 7
REMARK VINA RESULT:    -4.362      7.519      8.592
REMARK INTER + INTRA:          -4.906
REMARK INTER:                  -4.657
REMARK INTRA:                  -0.249
REMARK UNBOUND:                -0.161
REMARK SMILES O=C([O-])c1ccccc1O
REMARK SMILES IDX 4 1 9 2 5 3 8 4 6 5 7 6 2 7 1 8 3 9 10 10
REMARK H PARENT 10 11
REMARK Flexibility Score: inf
ROOT
ATOM      1  C   UNL     1     -24.385  -5.964 -27.116  1.00  0.00     0.039 A 
ATOM      2  C   UNL     1     -24.800  -5.590 -25.815  1.00  0.00     0.124 A 
ATOM      3  C   UNL     1     -24.980  -5.330 -28.225  1.00  0.00     0.014 A 
ATOM      4  C   UNL     1     -25.787  -4.606 -25.651  1.00  0.00     0.047 A 
ATOM      5  C   UNL     1     -25.961  -4.353 -28.047  1.00  0.00     0.001 A 
ATOM      6  C   UNL     1     -26.364  -3.991 -26.761  1.00  0.00     0.004 A 
ENDROOT
BRANCH   1   7
ATOM      7  C   UNL     1     -23.343  -7.000 -27.336  1.00  0.00     0.075 C 
ATOM      8  O   UNL     1     -23.571  -7.981 -28.093  1.00  0.00    -0.545 OA
ATOM      9  O   UNL     1     -22.102  -6.914 -26.716  1.00  0.00    -0.545 OA
ENDBRANCH   1   7
BRANCH   2  10
ATOM     10  O   UNL     1     -24.239  -6.190 -24.687  1.00  0.00    -0.507 OA
ATOM     11  H   UNL     1     -24.750  -6.869 -24.135  1.00  0.00     0.293 HD
ENDBRANCH   2  10
TORSDOF 2
ENDMDL
MODEL 8
REMARK VINA RESULT:    -4.357      1.827      3.697
REMARK INTER + INTRA:          -4.900
REMARK INTER:                  -4.651
REMARK INTRA:                  -0.249
REMARK UNBOUND:                -0.161
REMARK SMILES O=C([O-])c1ccccc1O
REMARK SMILES IDX 4 1 9 2 5 3 8 4 6 5 7 6 2 7 1 8 3 9 10 10
REMARK H PARENT 10 11
REMARK Flexibility Score: inf
ROOT
ATOM      1  C   UNL     1     -16.893  -4.314 -25.723  1.00  0.00     0.039 A 
ATOM      2  C   UNL     1     -15.758  -5.112 -26.001  1.00  0.00     0.124 A 
ATOM      3  C   UNL     1     -18.069  -4.525 -26.470  1.00  0.00     0.014 A 
ATOM      4  C   UNL     1     -15.819  -6.090 -27.006  1.00  0.00     0.047 A 
ATOM      5  C   UNL     1     -18.116  -5.501 -27.467  1.00  0.00     0.001 A 
ATOM      6  C   UNL     1     -16.992  -6.283 -27.735  1.00  0.00     0.004 A 
ENDROOT
BRANCH   1   7
ATOM      7  C   UNL     1     -16.872  -3.268 -24.667  1.00  0.00     0.075 C 
ATOM      8  O   UNL     1     -15.894  -2.479 -24.573  1.00  0.00    -0.545 OA
ATOM      9  O   UNL     1     -17.921  -3.136 -23.766  1.00  0.00    -0.545 OA
ENDBRANCH   1   7
BRANCH   2  10
ATOM     10  O   UNL     1     -14.571  -4.940 -25.288  1.00  0.00    -0.507 OA
ATOM     11  H   UNL     1     -13.746  -4.538 -25.716  1.00  0.00     0.293 HD
ENDBRANCH   2  10
TORSDOF 2
ENDMDL
MODEL 9
REMARK VINA RESULT:    -4.345     10.348     11.704
REMARK INTER + INTRA:          -4.887
REMARK INTER:                  -4.638
REMARK INTRA:                  -0.249
REMARK UNBOUND:                -0.161
REMARK SMILES O=C([O-])c1ccccc1O
REMARK SMILES IDX 4 1 9 2 5 3 8 4 6 5 7 6 2 7 1 8 3 9 10 10
REMARK H PARENT 10 11
REMARK Flexibility Score: inf
ROOT
ATOM      1  C   UNL     1     -25.427 -11.509 -29.949  1.00  0.00     0.039 A 
ATOM      2  C   UNL     1     -24.489 -11.735 -30.984  1.00  0.00     0.124 A 
ATOM      3  C   UNL     1     -24.991 -10.884 -28.763  1.00  0.00     0.014 A 
ATOM      4  C   UNL     1     -23.153 -11.338 -30.817  1.00  0.00     0.047 A 
ATOM      5  C   UNL     1     -23.659 -10.495 -28.610  1.00  0.00     0.001 A 
ATOM      6  C   UNL     1     -22.741 -10.722 -29.635  1.00  0.00     0.004 A 
ENDROOT
BRANCH   1   7
ATOM      7  C   UNL     1     -26.851 -11.911 -30.084  1.00  0.00     0.075 C 
ATOM      8  O   UNL     1     -27.151 -13.100 -30.377  1.00  0.00    -0.545 OA
ATOM      9  O   UNL     1     -27.878 -10.995 -29.893  1.00  0.00    -0.545 OA
ENDBRANCH   1   7
BRANCH   2  10
ATOM     10  O   UNL     1     -24.874 -12.350 -32.175  1.00  0.00    -0.507 OA
ATOM     11  H   UNL     1     -24.403 -12.156 -33.051  1.00  0.00     0.293 HD
ENDBRANCH   2  10
TORSDOF 2
ENDMDL
