MODEL 1
REMARK VINA RESULT:    -1.661      0.000      0.000
REMARK INTER + INTRA:          -1.661
REMARK INTER:                  -1.661
REMARK INTRA:                   0.000
REMARK UNBOUND:                 0.000
REMARK SMILES CC1=CC(=O)[C@@H]2C[C@H]1C2(C)C
REMARK SMILES IDX 1 1 2 2 3 3 4 4 5 5 6 6 7 7 8 8 9 9 10 10 11 11
REMARK H PARENT
REMARK Flexibility Score: inf
ROOT
ATOM      1  C   UNL     1      29.264  24.990  27.613  1.00  0.00     0.040 C 
ATOM      2  C   UNL     1      30.679  24.787  28.054  1.00  0.00    -0.066 C 
ATOM      3  C   UNL     1      31.085  25.124  29.309  1.00  0.00     0.047 C 
ATOM      4  C   UNL     1      32.520  24.843  29.640  1.00  0.00     0.159 C 
ATOM      5  O   UNL     1      33.006  25.073  30.777  1.00  0.00    -0.295 OA
ATOM      6  C   UNL     1      33.352  24.256  28.497  1.00  0.00     0.067 C 
ATOM      7  C   UNL     1      32.980  25.124  27.275  1.00  0.00     0.021 C 
ATOM      8  C   UNL     1      31.749  24.205  27.106  1.00  0.00     0.022 C 
ATOM      9  C   UNL     1      32.548  23.094  27.847  1.00  0.00    -0.019 C 
ATOM     10  C   UNL     1      33.415  22.246  26.881  1.00  0.00     0.012 C 
ATOM     11  C   UNL     1      31.767  22.124  28.778  1.00  0.00     0.012 C 
ENDROOT
TORSDOF 0
ENDMDL
MODEL 2
REMARK VINA RESULT:    -1.326      1.836      3.056
REMARK INTER + INTRA:          -1.326
REMARK INTER:                  -1.326
REMARK INTRA:                   0.000
REMARK UNBOUND:                 0.000
REMARK SMILES CC1=CC(=O)[C@@H]2C[C@H]1C2(C)C
REMARK SMILES IDX 1 1 2 2 3 3 4 4 5 5 6 6 7 7 8 8 9 9 10 10 11 11
REMARK H PARENT
REMARK Flexibility Score: inf
ROOT
ATOM      1  C   UNL     1      32.211  25.121  31.222  1.00  0.00     0.040 C 
ATOM      2  C   UNL     1      31.589  24.579  29.975  1.00  0.00    -0.066 C 
ATOM      3  C   UNL     1      30.455  25.125  29.454  1.00  0.00     0.047 C 
ATOM      4  C   UNL     1      29.947  24.512  28.184  1.00  0.00     0.159 C 
ATOM      5  O   UNL     1      28.933  24.951  27.583  1.00  0.00    -0.295 OA
ATOM      6  C   UNL     1      30.750  23.316  27.667  1.00  0.00     0.067 C 
ATOM      7  C   UNL     1      30.982  22.447  28.923  1.00  0.00     0.021 C 
ATOM      8  C   UNL     1      32.186  23.367  29.229  1.00  0.00     0.022 C 
ATOM      9  C   UNL     1      32.261  23.681  27.707  1.00  0.00    -0.019 C 
ATOM     10  C   UNL     1      33.134  22.658  26.935  1.00  0.00     0.012 C 
ATOM     11  C   UNL     1      32.688  25.111  27.272  1.00  0.00     0.012 C 
ENDROOT
TORSDOF 0
ENDMDL
MODEL 3
REMARK VINA RESULT:    -0.802      1.158      3.068
REMARK INTER + INTRA:          -0.802
REMARK INTER:                  -0.802
REMARK INTRA:                   0.000
REMARK UNBOUND:                 0.000
REMARK SMILES CC1=CC(=O)[C@@H]2C[C@H]1C2(C)C
REMARK SMILES IDX 1 1 2 2 3 3 4 4 5 5 6 6 7 7 8 8 9 9 10 10 11 11
REMARK H PARENT
REMARK Flexibility Score: inf
ROOT
ATOM      1  C   UNL     1      34.672  23.135  26.875  1.00  0.00     0.040 C 
ATOM      2  C   UNL     1      33.561  23.364  27.851  1.00  0.00    -0.066 C 
ATOM      3  C   UNL     1      33.719  24.186  28.925  1.00  0.00     0.047 C 
ATOM      4  C   UNL     1      32.523  24.357  29.811  1.00  0.00     0.159 C 
ATOM      5  O   UNL     1      32.530  25.120  30.811  1.00  0.00    -0.295 OA
ATOM      6  C   UNL     1      31.292  23.540  29.414  1.00  0.00     0.067 C 
ATOM      7  C   UNL     1      31.854  22.133  29.112  1.00  0.00     0.021 C 
ATOM      8  C   UNL     1      32.192  22.667  27.701  1.00  0.00     0.022 C 
ATOM      9  C   UNL     1      31.055  23.713  27.887  1.00  0.00    -0.019 C 
ATOM     10  C   UNL     1      29.674  23.170  27.439  1.00  0.00     0.012 C 
ATOM     11  C   UNL     1      31.248  25.125  27.265  1.00  0.00     0.012 C 
ENDROOT
TORSDOF 0
ENDMDL
MODEL 4
REMARK VINA RESULT:    -0.092      1.688      3.001
REMARK INTER + INTRA:          -0.092
REMARK INTER:                  -0.092
REMARK INTRA:                   0.000
REMARK UNBOUND:                 0.000
REMARK SMILES CC1=CC(=O)[C@@H]2C[C@H]1C2(C)C
REMARK SMILES IDX 1 1 2 2 3 3 4 4 5 5 6 6 7 7 8 8 9 9 10 10 11 11
REMARK H PARENT
REMARK Flexibility Score: inf
ROOT
ATOM      1  C   UNL     1      32.135  24.977  31.711  1.00  0.00     0.040 C 
ATOM      2  C   UNL     1      31.843  24.781  30.256  1.00  0.00    -0.066 C 
ATOM      3  C   UNL     1      32.749  25.125  29.299  1.00  0.00     0.047 C 
ATOM      4  C   UNL     1      32.351  24.850  27.880  1.00  0.00     0.159 C 
ATOM      5  O   UNL     1      33.115  25.086  26.910  1.00  0.00    -0.295 OA
ATOM      6  C   UNL     1      30.950  24.262  27.696  1.00  0.00     0.067 C 
ATOM      7  C   UNL     1      30.055  25.125  28.613  1.00  0.00     0.021 C 
ATOM      8  C   UNL     1      30.499  24.200  29.769  1.00  0.00     0.022 C 
ATOM      9  C   UNL     1      30.767  23.095  28.707  1.00  0.00    -0.019 C 
ATOM     10  C   UNL     1      29.505  22.247  28.405  1.00  0.00     0.012 C 
ATOM     11  C   UNL     1      31.960  22.125  28.940  1.00  0.00     0.012 C 
ENDROOT
TORSDOF 0
ENDMDL
