MODEL 1
REMARK VINA RESULT:    -6.889      0.000      0.000
REMARK INTER + INTRA:          -8.852
REMARK INTER:                  -8.500
REMARK INTRA:                  -0.352
REMARK UNBOUND:                -0.352
REMARK SMILES O=c1c(O)c(-c2cc(O)c(O)c(O)c2)oc2cc(O)cc(O)c12
REMARK SMILES IDX 5 1 3 2 2 3 1 4 23 5 21 6 20 7 18 8 17 9 16 10 15 11 6 12
REMARK SMILES IDX 7 13 8 14 14 15 10 16 12 17 9 18 11 20 13 22 4 24 22 26
REMARK SMILES IDX 19 28
REMARK H PARENT 9 19 11 21 13 23 4 25 22 27 19 29
REMARK Flexibility Score: inf
ROOT
ATOM      1  C   UNL     1      -7.110  -6.114   5.138  1.00  0.00     0.180 A 
ATOM      2  C   UNL     1      -6.021  -6.965   5.396  1.00  0.00     0.208 A 
ATOM      3  C   UNL     1      -5.549  -7.798   4.369  1.00  0.00     0.238 A 
ATOM      4  O   UNL     1      -4.610  -8.597   4.622  1.00  0.00    -0.285 OA
ATOM      5  C   UNL     1      -6.160  -7.757   3.092  1.00  0.00     0.111 A 
ATOM      6  C   UNL     1      -5.738  -8.528   1.967  1.00  0.00     0.134 A 
ATOM      7  C   UNL     1      -6.497  -8.505   0.791  1.00  0.00     0.093 A 
ATOM      8  C   UNL     1      -7.624  -7.692   0.677  1.00  0.00     0.123 A 
ATOM      9  C   UNL     1      -8.011  -6.889   1.750  1.00  0.00     0.094 A 
ATOM     10  C   UNL     1      -7.296  -6.917   2.949  1.00  0.00     0.146 A 
ATOM     11  O   UNL     1      -7.703  -6.146   3.950  1.00  0.00    -0.452 OA
ENDROOT
BRANCH   1  12
ATOM     12  C   UNL     1      -7.647  -5.190   6.162  1.00  0.00     0.029 A 
ATOM     13  C   UNL     1      -8.622  -5.647   7.061  1.00  0.00     0.062 A 
ATOM     14  C   UNL     1      -9.168  -4.795   8.028  1.00  0.00     0.162 A 
ATOM     15  C   UNL     1      -7.246  -3.847   6.218  1.00  0.00     0.062 A 
ATOM     16  C   UNL     1      -8.740  -3.447   8.095  1.00  0.00     0.200 A 
ATOM     17  C   UNL     1      -7.780  -2.981   7.176  1.00  0.00     0.162 A 
BRANCH  14  18
ATOM     18  O   UNL     1     -10.125  -5.328   8.894  1.00  0.00    -0.504 OA
ATOM     19  H   UNL     1      -9.918  -5.985   9.633  1.00  0.00     0.293 HD
ENDBRANCH  14  18
BRANCH  16  20
ATOM     20  O   UNL     1      -9.244  -2.551   9.041  1.00  0.00    -0.502 OA
ATOM     21  H   UNL     1     -10.202  -2.237   9.073  1.00  0.00     0.293 HD
ENDBRANCH  16  20
BRANCH  17  22
ATOM     22  O   UNL     1      -7.346  -1.657   7.199  1.00  0.00    -0.504 OA
ATOM     23  H   UNL     1      -6.927  -1.238   8.021  1.00  0.00     0.293 HD
ENDBRANCH  17  22
ENDBRANCH   1  12
BRANCH   2  24
ATOM     24  O   UNL     1      -5.446  -7.004   6.670  1.00  0.00    -0.502 OA
ATOM     25  H   UNL     1      -5.921  -7.408   7.468  1.00  0.00     0.293 HD
ENDBRANCH   2  24
BRANCH   6  26
ATOM     26  O   UNL     1      -4.575  -9.304   1.945  1.00  0.00    -0.507 OA
ATOM     27  H   UNL     1      -3.648  -8.946   1.772  1.00  0.00     0.293 HD
ENDBRANCH   6  26
BRANCH   8  28
ATOM     28  O   UNL     1      -8.347  -7.683  -0.515  1.00  0.00    -0.508 OA
ATOM     29  H   UNL     1      -8.786  -8.523  -0.875  1.00  0.00     0.293 HD
ENDBRANCH   8  28
TORSDOF 7
ENDMDL
MODEL 2
REMARK VINA RESULT:    -6.554      2.307      7.817
REMARK INTER + INTRA:          -8.439
REMARK INTER:                  -8.567
REMARK INTRA:                   0.128
REMARK UNBOUND:                -0.352
REMARK SMILES O=c1c(O)c(-c2cc(O)c(O)c(O)c2)oc2cc(O)cc(O)c12
REMARK SMILES IDX 5 1 3 2 2 3 1 4 23 5 21 6 20 7 18 8 17 9 16 10 15 11 6 12
REMARK SMILES IDX 7 13 8 14 14 15 10 16 12 17 9 18 11 20 13 22 4 24 22 26
REMARK SMILES IDX 19 28
REMARK H PARENT 9 19 11 21 13 23 4 25 22 27 19 29
REMARK Flexibility Score: inf
ROOT
ATOM      1  C   UNL     1      -6.810  -8.210   1.024  1.00  0.00     0.180 A 
ATOM      2  C   UNL     1      -5.753  -8.733   1.790  1.00  0.00     0.208 A 
ATOM      3  C   UNL     1      -5.550  -8.248   3.091  1.00  0.00     0.238 A 
ATOM      4  O   UNL     1      -4.569  -8.681   3.751  1.00  0.00    -0.285 OA
ATOM      5  C   UNL     1      -6.415  -7.259   3.618  1.00  0.00     0.111 A 
ATOM      6  C   UNL     1      -6.327  -6.724   4.939  1.00  0.00     0.134 A 
ATOM      7  C   UNL     1      -7.154  -5.656   5.307  1.00  0.00     0.093 A 
ATOM      8  C   UNL     1      -8.108  -5.147   4.428  1.00  0.00     0.123 A 
ATOM      9  C   UNL     1      -8.244  -5.702   3.155  1.00  0.00     0.094 A 
ATOM     10  C   UNL     1      -7.409  -6.744   2.745  1.00  0.00     0.146 A 
ATOM     11  O   UNL     1      -7.564  -7.237   1.521  1.00  0.00    -0.452 OA
ENDROOT
BRANCH   1  12
ATOM     12  C   UNL     1      -7.102  -8.689  -0.346  1.00  0.00     0.029 A 
ATOM     13  C   UNL     1      -8.432  -8.909  -0.732  1.00  0.00     0.062 A 
ATOM     14  C   UNL     1      -8.742  -9.383  -2.012  1.00  0.00     0.162 A 
ATOM     15  C   UNL     1      -6.072  -8.986  -1.251  1.00  0.00     0.062 A 
ATOM     16  C   UNL     1      -7.699  -9.657  -2.929  1.00  0.00     0.200 A 
ATOM     17  C   UNL     1      -6.363  -9.460  -2.533  1.00  0.00     0.162 A 
BRANCH  14  18
ATOM     18  O   UNL     1     -10.091  -9.565  -2.325  1.00  0.00    -0.504 OA
ATOM     19  H   UNL     1     -10.854  -9.330  -1.706  1.00  0.00     0.293 HD
ENDBRANCH  14  18
BRANCH  16  20
ATOM     20  O   UNL     1      -7.947 -10.125  -4.222  1.00  0.00    -0.502 OA
ATOM     21  H   UNL     1      -7.344 -10.762  -4.721  1.00  0.00     0.293 HD
ENDBRANCH  16  20
BRANCH  17  22
ATOM     22  O   UNL     1      -5.307  -9.734  -3.402  1.00  0.00    -0.504 OA
ATOM     23  H   UNL     1      -4.351  -9.471  -3.193  1.00  0.00     0.293 HD
ENDBRANCH  17  22
ENDBRANCH   1  12
BRANCH   2  24
ATOM     24  O   UNL     1      -4.898  -9.694   1.243  1.00  0.00    -0.502 OA
ATOM     25  H   UNL     1      -5.177 -10.300   0.481  1.00  0.00     0.293 HD
ENDBRANCH   2  24
BRANCH   6  26
ATOM     26  O   UNL     1      -5.470  -7.221   5.925  1.00  0.00    -0.507 OA
ATOM     27  H   UNL     1      -4.980  -8.101   5.871  1.00  0.00     0.293 HD
ENDBRANCH   6  26
BRANCH   8  28
ATOM     28  O   UNL     1      -8.925  -4.094   4.835  1.00  0.00    -0.508 OA
ATOM     29  H   UNL     1      -9.474  -3.561   4.170  1.00  0.00     0.293 HD
ENDBRANCH   8  28
TORSDOF 7
ENDMDL
MODEL 3
REMARK VINA RESULT:    -6.402      1.715      7.044
REMARK INTER + INTRA:          -8.251
REMARK INTER:                  -8.557
REMARK INTRA:                   0.306
REMARK UNBOUND:                -0.352
REMARK SMILES O=c1c(O)c(-c2cc(O)c(O)c(O)c2)oc2cc(O)cc(O)c12
REMARK SMILES IDX 5 1 3 2 2 3 1 4 23 5 21 6 20 7 18 8 17 9 16 10 15 11 6 12
REMARK SMILES IDX 7 13 8 14 14 15 10 16 12 17 9 18 11 20 13 22 4 24 22 26
REMARK SMILES IDX 19 28
REMARK H PARENT 9 19 11 21 13 23 4 25 22 27 19 29
REMARK Flexibility Score: inf
ROOT
ATOM      1  C   UNL     1      -6.188  -7.496   3.512  1.00  0.00     0.180 A 
ATOM      2  C   UNL     1      -5.428  -8.191   4.469  1.00  0.00     0.208 A 
ATOM      3  C   UNL     1      -5.282  -7.641   5.752  1.00  0.00     0.238 A 
ATOM      4  O   UNL     1      -4.555  -8.241   6.588  1.00  0.00    -0.285 OA
ATOM      5  C   UNL     1      -5.912  -6.413   6.069  1.00  0.00     0.111 A 
ATOM      6  C   UNL     1      -5.865  -5.785   7.350  1.00  0.00     0.134 A 
ATOM      7  C   UNL     1      -6.416  -4.508   7.512  1.00  0.00     0.093 A 
ATOM      8  C   UNL     1      -7.067  -3.865   6.461  1.00  0.00     0.123 A 
ATOM      9  C   UNL     1      -7.171  -4.496   5.220  1.00  0.00     0.094 A 
ATOM     10  C   UNL     1      -6.600  -5.754   5.017  1.00  0.00     0.146 A 
ATOM     11  O   UNL     1      -6.712  -6.316   3.819  1.00  0.00    -0.452 OA
ENDROOT
BRANCH   1  12
ATOM     12  C   UNL     1      -6.406  -8.024   2.146  1.00  0.00     0.029 A 
ATOM     13  C   UNL     1      -5.422  -8.826   1.550  1.00  0.00     0.062 A 
ATOM     14  C   UNL     1      -5.586  -9.323   0.252  1.00  0.00     0.162 A 
ATOM     15  C   UNL     1      -7.553  -7.691   1.409  1.00  0.00     0.062 A 
ATOM     16  C   UNL     1      -6.757  -9.004  -0.478  1.00  0.00     0.200 A 
ATOM     17  C   UNL     1      -7.733  -8.179   0.111  1.00  0.00     0.162 A 
BRANCH  14  18
ATOM     18  O   UNL     1      -4.567 -10.124  -0.268  1.00  0.00    -0.504 OA
ATOM     19  H   UNL     1      -4.666 -11.108  -0.470  1.00  0.00     0.293 HD
ENDBRANCH  14  18
BRANCH  16  20
ATOM     20  O   UNL     1      -6.979  -9.476  -1.774  1.00  0.00    -0.502 OA
ATOM     21  H   UNL     1      -7.817  -9.298  -2.308  1.00  0.00     0.293 HD
ENDBRANCH  16  20
BRANCH  17  22
ATOM     22  O   UNL     1      -8.892  -7.829  -0.581  1.00  0.00    -0.504 OA
ATOM     23  H   UNL     1      -8.925  -7.782  -1.593  1.00  0.00     0.293 HD
ENDBRANCH  17  22
ENDBRANCH   1  12
BRANCH   2  24
ATOM     24  O   UNL     1      -4.797  -9.391   4.129  1.00  0.00    -0.502 OA
ATOM     25  H   UNL     1      -3.819  -9.567   4.327  1.00  0.00     0.293 HD
ENDBRANCH   2  24
BRANCH   6  26
ATOM     26  O   UNL     1      -5.319  -6.380   8.491  1.00  0.00    -0.507 OA
ATOM     27  H   UNL     1      -4.366  -6.700   8.572  1.00  0.00     0.293 HD
ENDBRANCH   6  26
BRANCH   8  28
ATOM     28  O   UNL     1      -7.617  -2.601   6.664  1.00  0.00    -0.508 OA
ATOM     29  H   UNL     1      -7.332  -2.017   7.442  1.00  0.00     0.293 HD
ENDBRANCH   8  28
TORSDOF 7
ENDMDL
MODEL 4
REMARK VINA RESULT:    -6.325      1.246      7.114
REMARK INTER + INTRA:          -8.155
REMARK INTER:                  -7.798
REMARK INTRA:                  -0.357
REMARK UNBOUND:                -0.352
REMARK SMILES O=c1c(O)c(-c2cc(O)c(O)c(O)c2)oc2cc(O)cc(O)c12
REMARK SMILES IDX 5 1 3 2 2 3 1 4 23 5 21 6 20 7 18 8 17 9 16 10 15 11 6 12
REMARK SMILES IDX 7 13 8 14 14 15 10 16 12 17 9 18 11 20 13 22 4 24 22 26
REMARK SMILES IDX 19 28
REMARK H PARENT 9 19 11 21 13 23 4 25 22 27 19 29
REMARK Flexibility Score: inf
ROOT
ATOM      1  C   UNL     1      -7.820  -6.392   5.030  1.00  0.00     0.180 A 
ATOM      2  C   UNL     1      -8.614  -7.090   5.957  1.00  0.00     0.208 A 
ATOM      3  C   UNL     1      -9.067  -6.421   7.105  1.00  0.00     0.238 A 
ATOM      4  O   UNL     1      -9.731  -7.066   7.959  1.00  0.00    -0.285 OA
ATOM      5  C   UNL     1      -8.734  -5.059   7.305  1.00  0.00     0.111 A 
ATOM      6  C   UNL     1      -9.172  -4.271   8.412  1.00  0.00     0.134 A 
ATOM      7  C   UNL     1      -8.674  -2.973   8.575  1.00  0.00     0.093 A 
ATOM      8  C   UNL     1      -7.808  -2.411   7.638  1.00  0.00     0.123 A 
ATOM      9  C   UNL     1      -7.420  -3.151   6.520  1.00  0.00     0.094 A 
ATOM     10  C   UNL     1      -7.871  -4.462   6.349  1.00  0.00     0.146 A 
ATOM     11  O   UNL     1      -7.471  -5.136   5.277  1.00  0.00    -0.452 OA
ENDROOT
BRANCH   1  12
ATOM     12  C   UNL     1      -7.327  -7.023   3.785  1.00  0.00     0.029 A 
ATOM     13  C   UNL     1      -8.118  -6.978   2.628  1.00  0.00     0.062 A 
ATOM     14  C   UNL     1      -7.693  -7.583   1.439  1.00  0.00     0.162 A 
ATOM     15  C   UNL     1      -6.109  -7.719   3.751  1.00  0.00     0.062 A 
ATOM     16  C   UNL     1      -6.451  -8.262   1.405  1.00  0.00     0.200 A 
ATOM     17  C   UNL     1      -5.669  -8.329   2.573  1.00  0.00     0.162 A 
BRANCH  14  18
ATOM     18  O   UNL     1      -8.531  -7.484   0.327  1.00  0.00    -0.504 OA
ATOM     19  H   UNL     1      -9.271  -6.803   0.233  1.00  0.00     0.293 HD
ENDBRANCH  14  18
BRANCH  16  20
ATOM     20  O   UNL     1      -5.972  -8.879   0.247  1.00  0.00    -0.502 OA
ATOM     21  H   UNL     1      -4.993  -9.000   0.031  1.00  0.00     0.293 HD
ENDBRANCH  16  20
BRANCH  17  22
ATOM     22  O   UNL     1      -4.448  -9.003   2.583  1.00  0.00    -0.504 OA
ATOM     23  H   UNL     1      -3.664  -8.712   2.012  1.00  0.00     0.293 HD
ENDBRANCH  17  22
ENDBRANCH   1  12
BRANCH   2  24
ATOM     24  O   UNL     1      -8.914  -8.440   5.751  1.00  0.00    -0.502 OA
ATOM     25  H   UNL     1      -8.925  -8.860   4.830  1.00  0.00     0.293 HD
ENDBRANCH   2  24
BRANCH   6  26
ATOM     26  O   UNL     1     -10.106  -4.705   9.357  1.00  0.00    -0.507 OA
ATOM     27  H   UNL     1     -11.055  -4.974   9.145  1.00  0.00     0.293 HD
ENDBRANCH   6  26
BRANCH   8  28
ATOM     28  O   UNL     1      -7.345  -1.110   7.824  1.00  0.00    -0.508 OA
ATOM     29  H   UNL     1      -6.423  -0.924   8.203  1.00  0.00     0.293 HD
ENDBRANCH   8  28
TORSDOF 7
ENDMDL
MODEL 5
REMARK VINA RESULT:    -6.150      2.790      4.910
REMARK INTER + INTRA:          -7.940
REMARK INTER:                  -7.638
REMARK INTRA:                  -0.302
REMARK UNBOUND:                -0.352
REMARK SMILES O=c1c(O)c(-c2cc(O)c(O)c(O)c2)oc2cc(O)cc(O)c12
REMARK SMILES IDX 5 1 3 2 2 3 1 4 23 5 21 6 20 7 18 8 17 9 16 10 15 11 6 12
REMARK SMILES IDX 7 13 8 14 14 15 10 16 12 17 9 18 11 20 13 22 4 24 22 26
REMARK SMILES IDX 19 28
REMARK H PARENT 9 19 11 21 13 23 4 25 22 27 19 29
REMARK Flexibility Score: inf
ROOT
ATOM      1  C   UNL     1      -5.388  -7.892   5.215  1.00  0.00     0.180 A 
ATOM      2  C   UNL     1      -6.344  -6.862   5.240  1.00  0.00     0.208 A 
ATOM      3  C   UNL     1      -7.055  -6.564   4.067  1.00  0.00     0.238 A 
ATOM      4  O   UNL     1      -7.870  -5.604   4.081  1.00  0.00    -0.285 OA
ATOM      5  C   UNL     1      -6.815  -7.311   2.888  1.00  0.00     0.111 A 
ATOM      6  C   UNL     1      -7.507  -7.122   1.654  1.00  0.00     0.134 A 
ATOM      7  C   UNL     1      -7.096  -7.829   0.518  1.00  0.00     0.093 A 
ATOM      8  C   UNL     1      -6.064  -8.764   0.585  1.00  0.00     0.123 A 
ATOM      9  C   UNL     1      -5.420  -9.000   1.801  1.00  0.00     0.094 A 
ATOM     10  C   UNL     1      -5.783  -8.284   2.943  1.00  0.00     0.146 A 
ATOM     11  O   UNL     1      -5.139  -8.531   4.078  1.00  0.00    -0.452 OA
ENDROOT
BRANCH   1  12
ATOM     12  C   UNL     1      -4.617  -8.280   6.418  1.00  0.00     0.029 A 
ATOM     13  C   UNL     1      -5.244  -9.017   7.433  1.00  0.00     0.062 A 
ATOM     14  C   UNL     1      -4.552  -9.381   8.593  1.00  0.00     0.162 A 
ATOM     15  C   UNL     1      -3.285  -7.875   6.594  1.00  0.00     0.062 A 
ATOM     16  C   UNL     1      -3.200  -8.990   8.754  1.00  0.00     0.200 A 
ATOM     17  C   UNL     1      -2.578  -8.229   7.746  1.00  0.00     0.162 A 
BRANCH  14  18
ATOM     18  O   UNL     1      -5.242 -10.125   9.553  1.00  0.00    -0.504 OA
ATOM     19  H   UNL     1      -5.866  -9.726  10.239  1.00  0.00     0.293 HD
ENDBRANCH  14  18
BRANCH  16  20
ATOM     20  O   UNL     1      -2.456  -9.330   9.886  1.00  0.00    -0.502 OA
ATOM     21  H   UNL     1      -2.674  -9.022  10.823  1.00  0.00     0.293 HD
ENDBRANCH  16  20
BRANCH  17  22
ATOM     22  O   UNL     1      -1.254  -7.811   7.875  1.00  0.00    -0.504 OA
ATOM     23  H   UNL     1      -0.978  -7.075   8.513  1.00  0.00     0.293 HD
ENDBRANCH  17  22
ENDBRANCH   1  12
BRANCH   2  24
ATOM     24  O   UNL     1      -6.550  -6.123   6.409  1.00  0.00    -0.502 OA
ATOM     25  H   UNL     1      -7.468  -5.806   6.697  1.00  0.00     0.293 HD
ENDBRANCH   2  24
BRANCH   6  26
ATOM     26  O   UNL     1      -8.611  -6.279   1.500  1.00  0.00    -0.507 OA
ATOM     27  H   UNL     1      -9.551  -6.592   1.307  1.00  0.00     0.293 HD
ENDBRANCH   6  26
BRANCH   8  28
ATOM     28  O   UNL     1      -5.692  -9.461  -0.563  1.00  0.00    -0.508 OA
ATOM     29  H   UNL     1      -6.323 -10.113  -1.015  1.00  0.00     0.293 HD
ENDBRANCH   8  28
TORSDOF 7
ENDMDL
MODEL 6
REMARK VINA RESULT:    -6.114      1.137      2.222
REMARK INTER + INTRA:          -7.896
REMARK INTER:                  -7.587
REMARK INTRA:                  -0.309
REMARK UNBOUND:                -0.352
REMARK SMILES O=c1c(O)c(-c2cc(O)c(O)c(O)c2)oc2cc(O)cc(O)c12
REMARK SMILES IDX 5 1 3 2 2 3 1 4 23 5 21 6 20 7 18 8 17 9 16 10 15 11 6 12
REMARK SMILES IDX 7 13 8 14 14 15 10 16 12 17 9 18 11 20 13 22 4 24 22 26
REMARK SMILES IDX 19 28
REMARK H PARENT 9 19 11 21 13 23 4 25 22 27 19 29
REMARK Flexibility Score: inf
ROOT
ATOM      1  C   UNL     1      -7.202  -6.870   4.112  1.00  0.00     0.180 A 
ATOM      2  C   UNL     1      -5.903  -7.404   4.176  1.00  0.00     0.208 A 
ATOM      3  C   UNL     1      -5.424  -8.162   3.096  1.00  0.00     0.238 A 
ATOM      4  O   UNL     1      -4.281  -8.683   3.182  1.00  0.00    -0.285 OA
ATOM      5  C   UNL     1      -6.243  -8.362   1.958  1.00  0.00     0.111 A 
ATOM      6  C   UNL     1      -5.844  -9.079   0.789  1.00  0.00     0.134 A 
ATOM      7  C   UNL     1      -6.781  -9.326  -0.222  1.00  0.00     0.093 A 
ATOM      8  C   UNL     1      -8.081  -8.828  -0.137  1.00  0.00     0.123 A 
ATOM      9  C   UNL     1      -8.463  -8.075   0.974  1.00  0.00     0.094 A 
ATOM     10  C   UNL     1      -7.562  -7.843   2.015  1.00  0.00     0.146 A 
ATOM     11  O   UNL     1      -7.969  -7.130   3.060  1.00  0.00    -0.452 OA
ENDROOT
BRANCH   1  12
ATOM     12  C   UNL     1      -7.767  -6.041   5.200  1.00  0.00     0.029 A 
ATOM     13  C   UNL     1      -7.349  -4.710   5.342  1.00  0.00     0.062 A 
ATOM     14  C   UNL     1      -7.845  -3.904   6.373  1.00  0.00     0.162 A 
ATOM     15  C   UNL     1      -8.669  -6.575   6.133  1.00  0.00     0.062 A 
ATOM     16  C   UNL     1      -8.774  -4.441   7.296  1.00  0.00     0.200 A 
ATOM     17  C   UNL     1      -9.175  -5.785   7.169  1.00  0.00     0.162 A 
BRANCH  14  18
ATOM     18  O   UNL     1      -7.390  -2.585   6.440  1.00  0.00    -0.504 OA
ATOM     19  H   UNL     1      -7.014  -2.074   5.655  1.00  0.00     0.293 HD
ENDBRANCH  14  18
BRANCH  16  20
ATOM     20  O   UNL     1      -9.309  -3.684   8.342  1.00  0.00    -0.502 OA
ATOM     21  H   UNL     1      -9.669  -2.747   8.238  1.00  0.00     0.293 HD
ENDBRANCH  16  20
BRANCH  17  22
ATOM     22  O   UNL     1     -10.075  -6.356   8.068  1.00  0.00    -0.504 OA
ATOM     23  H   UNL     1     -10.644  -7.159   7.829  1.00  0.00     0.293 HD
ENDBRANCH  17  22
ENDBRANCH   1  12
BRANCH   2  24
ATOM     24  O   UNL     1      -5.120  -7.211   5.318  1.00  0.00    -0.502 OA
ATOM     25  H   UNL     1      -4.687  -7.980   5.816  1.00  0.00     0.293 HD
ENDBRANCH   2  24
BRANCH   6  26
ATOM     26  O   UNL     1      -4.544  -9.541   0.563  1.00  0.00    -0.507 OA
ATOM     27  H   UNL     1      -3.959  -9.975   1.260  1.00  0.00     0.293 HD
ENDBRANCH   6  26
BRANCH   8  28
ATOM     28  O   UNL     1      -8.982  -9.081  -1.169  1.00  0.00    -0.508 OA
ATOM     29  H   UNL     1      -8.667  -9.273  -2.113  1.00  0.00     0.293 HD
ENDBRANCH   8  28
TORSDOF 7
ENDMDL
MODEL 7
REMARK VINA RESULT:    -6.024      2.404      3.927
REMARK INTER + INTRA:          -7.785
REMARK INTER:                  -7.475
REMARK INTRA:                  -0.309
REMARK UNBOUND:                -0.352
REMARK SMILES O=c1c(O)c(-c2cc(O)c(O)c(O)c2)oc2cc(O)cc(O)c12
REMARK SMILES IDX 5 1 3 2 2 3 1 4 23 5 21 6 20 7 18 8 17 9 16 10 15 11 6 12
REMARK SMILES IDX 7 13 8 14 14 15 10 16 12 17 9 18 11 20 13 22 4 24 22 26
REMARK SMILES IDX 19 28
REMARK H PARENT 9 19 11 21 13 23 4 25 22 27 19 29
REMARK Flexibility Score: inf
ROOT
ATOM      1  C   UNL     1      -6.939  -7.179   4.086  1.00  0.00     0.180 A 
ATOM      2  C   UNL     1      -8.075  -6.658   3.443  1.00  0.00     0.208 A 
ATOM      3  C   UNL     1      -8.302  -6.979   2.096  1.00  0.00     0.238 A 
ATOM      4  O   UNL     1      -9.292  -6.465   1.510  1.00  0.00    -0.285 OA
ATOM      5  C   UNL     1      -7.400  -7.829   1.412  1.00  0.00     0.111 A 
ATOM      6  C   UNL     1      -7.554  -8.253   0.057  1.00  0.00     0.134 A 
ATOM      7  C   UNL     1      -6.532  -8.988  -0.556  1.00  0.00     0.093 A 
ATOM      8  C   UNL     1      -5.395  -9.371   0.154  1.00  0.00     0.123 A 
ATOM      9  C   UNL     1      -5.262  -9.013   1.496  1.00  0.00     0.094 A 
ATOM     10  C   UNL     1      -6.246  -8.249   2.125  1.00  0.00     0.146 A 
ATOM     11  O   UNL     1      -6.077  -7.920   3.401  1.00  0.00    -0.452 OA
ENDROOT
BRANCH   1  12
ATOM     12  C   UNL     1      -6.647  -6.905   5.512  1.00  0.00     0.029 A 
ATOM     13  C   UNL     1      -6.086  -5.673   5.877  1.00  0.00     0.062 A 
ATOM     14  C   UNL     1      -5.776  -5.389   7.212  1.00  0.00     0.162 A 
ATOM     15  C   UNL     1      -6.863  -7.875   6.501  1.00  0.00     0.062 A 
ATOM     16  C   UNL     1      -6.020  -6.364   8.210  1.00  0.00     0.200 A 
ATOM     17  C   UNL     1      -6.559  -7.610   7.840  1.00  0.00     0.162 A 
BRANCH  14  18
ATOM     18  O   UNL     1      -5.231  -4.135   7.498  1.00  0.00    -0.504 OA
ATOM     19  H   UNL     1      -4.697  -3.586   6.840  1.00  0.00     0.293 HD
ENDBRANCH  14  18
BRANCH  16  20
ATOM     20  O   UNL     1      -5.737  -6.136   9.559  1.00  0.00    -0.502 OA
ATOM     21  H   UNL     1      -6.253  -5.498  10.147  1.00  0.00     0.293 HD
ENDBRANCH  16  20
BRANCH  17  22
ATOM     22  O   UNL     1      -6.798  -8.602   8.790  1.00  0.00    -0.504 OA
ATOM     23  H   UNL     1      -7.347  -9.428   8.585  1.00  0.00     0.293 HD
ENDBRANCH  17  22
ENDBRANCH   1  12
BRANCH   2  24
ATOM     24  O   UNL     1      -8.942  -5.803   4.131  1.00  0.00    -0.502 OA
ATOM     25  H   UNL     1      -8.750  -5.473   5.069  1.00  0.00     0.293 HD
ENDBRANCH   2  24
BRANCH   6  26
ATOM     26  O   UNL     1      -8.692  -8.002  -0.714  1.00  0.00    -0.507 OA
ATOM     27  H   UNL     1      -9.613  -8.361  -0.513  1.00  0.00     0.293 HD
ENDBRANCH   6  26
BRANCH   8  28
ATOM     28  O   UNL     1      -4.405 -10.116  -0.484  1.00  0.00    -0.508 OA
ATOM     29  H   UNL     1      -4.607 -10.667  -1.311  1.00  0.00     0.293 HD
ENDBRANCH   8  28
TORSDOF 7
ENDMDL
MODEL 8
REMARK VINA RESULT:    -6.013      2.914      5.102
REMARK INTER + INTRA:          -7.771
REMARK INTER:                  -7.422
REMARK INTRA:                  -0.349
REMARK UNBOUND:                -0.352
REMARK SMILES O=c1c(O)c(-c2cc(O)c(O)c(O)c2)oc2cc(O)cc(O)c12
REMARK SMILES IDX 5 1 3 2 2 3 1 4 23 5 21 6 20 7 18 8 17 9 16 10 15 11 6 12
REMARK SMILES IDX 7 13 8 14 14 15 10 16 12 17 9 18 11 20 13 22 4 24 22 26
REMARK SMILES IDX 19 28
REMARK H PARENT 9 19 11 21 13 23 4 25 22 27 19 29
REMARK Flexibility Score: inf
ROOT
ATOM      1  C   UNL     1      -7.831  -8.178   0.939  1.00  0.00     0.180 A 
ATOM      2  C   UNL     1      -6.543  -8.722   0.796  1.00  0.00     0.208 A 
ATOM      3  C   UNL     1      -6.165  -9.259  -0.445  1.00  0.00     0.238 A 
ATOM      4  O   UNL     1      -5.030  -9.794  -0.552  1.00  0.00    -0.285 OA
ATOM      5  C   UNL     1      -7.072  -9.229  -1.532  1.00  0.00     0.111 A 
ATOM      6  C   UNL     1      -6.780  -9.707  -2.845  1.00  0.00     0.134 A 
ATOM      7  C   UNL     1      -7.797  -9.747  -3.807  1.00  0.00     0.093 A 
ATOM      8  C   UNL     1      -9.075  -9.267  -3.524  1.00  0.00     0.123 A 
ATOM      9  C   UNL     1      -9.355  -8.742  -2.262  1.00  0.00     0.094 A 
ATOM     10  C   UNL     1      -8.372  -8.722  -1.270  1.00  0.00     0.146 A 
ATOM     11  O   UNL     1      -8.682  -8.224  -0.079  1.00  0.00    -0.452 OA
ENDROOT
BRANCH   1  12
ATOM     12  C   UNL     1      -8.293  -7.573   2.209  1.00  0.00     0.029 A 
ATOM     13  C   UNL     1      -7.965  -6.240   2.499  1.00  0.00     0.062 A 
ATOM     14  C   UNL     1      -8.365  -5.643   3.699  1.00  0.00     0.162 A 
ATOM     15  C   UNL     1      -9.003  -8.321   3.160  1.00  0.00     0.062 A 
ATOM     16  C   UNL     1      -9.103  -6.397   4.644  1.00  0.00     0.200 A 
ATOM     17  C   UNL     1      -9.411  -7.742   4.364  1.00  0.00     0.162 A 
BRANCH  14  18
ATOM     18  O   UNL     1      -8.010  -4.309   3.909  1.00  0.00    -0.504 OA
ATOM     19  H   UNL     1      -7.302  -3.821   3.379  1.00  0.00     0.293 HD
ENDBRANCH  14  18
BRANCH  16  20
ATOM     20  O   UNL     1      -9.536  -5.854   5.856  1.00  0.00    -0.502 OA
ATOM     21  H   UNL     1      -9.454  -4.878   6.103  1.00  0.00     0.293 HD
ENDBRANCH  16  20
BRANCH  17  22
ATOM     22  O   UNL     1     -10.122  -8.521   5.276  1.00  0.00    -0.504 OA
ATOM     23  H   UNL     1     -10.521  -9.419   5.027  1.00  0.00     0.293 HD
ENDBRANCH  17  22
ENDBRANCH   1  12
BRANCH   2  24
ATOM     24  O   UNL     1      -5.671  -8.761   1.887  1.00  0.00    -0.502 OA
ATOM     25  H   UNL     1      -5.046  -7.995   2.112  1.00  0.00     0.293 HD
ENDBRANCH   2  24
BRANCH   6  26
ATOM     26  O   UNL     1      -5.512 -10.125  -3.259  1.00  0.00    -0.507 OA
ATOM     27  H   UNL     1      -5.321 -10.989  -3.743  1.00  0.00     0.293 HD
ENDBRANCH   6  26
BRANCH   8  28
ATOM     28  O   UNL     1     -10.058  -9.308  -4.511  1.00  0.00    -0.508 OA
ATOM     29  H   UNL     1     -10.985  -9.674  -4.321  1.00  0.00     0.293 HD
ENDBRANCH   8  28
TORSDOF 7
ENDMDL
MODEL 9
REMARK VINA RESULT:    -6.000      2.895      5.258
REMARK INTER + INTRA:          -7.755
REMARK INTER:                  -7.437
REMARK INTRA:                  -0.317
REMARK UNBOUND:                -0.352
REMARK SMILES O=c1c(O)c(-c2cc(O)c(O)c(O)c2)oc2cc(O)cc(O)c12
REMARK SMILES IDX 5 1 3 2 2 3 1 4 23 5 21 6 20 7 18 8 17 9 16 10 15 11 6 12
REMARK SMILES IDX 7 13 8 14 14 15 10 16 12 17 9 18 11 20 13 22 4 24 22 26
REMARK SMILES IDX 19 28
REMARK H PARENT 9 19 11 21 13 23 4 25 22 27 19 29
REMARK Flexibility Score: inf
ROOT
ATOM      1  C   UNL     1      -5.448  -7.775   5.527  1.00  0.00     0.180 A 
ATOM      2  C   UNL     1      -5.345  -8.356   4.251  1.00  0.00     0.208 A 
ATOM      3  C   UNL     1      -6.164  -7.878   3.217  1.00  0.00     0.238 A 
ATOM      4  O   UNL     1      -6.106  -8.440   2.091  1.00  0.00    -0.285 OA
ATOM      5  C   UNL     1      -7.064  -6.814   3.465  1.00  0.00     0.111 A 
ATOM      6  C   UNL     1      -7.913  -6.224   2.481  1.00  0.00     0.134 A 
ATOM      7  C   UNL     1      -8.857  -5.265   2.869  1.00  0.00     0.093 A 
ATOM      8  C   UNL     1      -8.939  -4.829   4.190  1.00  0.00     0.123 A 
ATOM      9  C   UNL     1      -8.073  -5.356   5.150  1.00  0.00     0.094 A 
ATOM     10  C   UNL     1      -7.146  -6.340   4.801  1.00  0.00     0.146 A 
ATOM     11  O   UNL     1      -6.347  -6.824   5.745  1.00  0.00    -0.452 OA
ENDROOT
BRANCH   1  12
ATOM     12  C   UNL     1      -4.600  -8.209   6.661  1.00  0.00     0.029 A 
ATOM     13  C   UNL     1      -5.168  -8.961   7.699  1.00  0.00     0.062 A 
ATOM     14  C   UNL     1      -4.402  -9.369   8.797  1.00  0.00     0.162 A 
ATOM     15  C   UNL     1      -3.252  -7.834   6.750  1.00  0.00     0.062 A 
ATOM     16  C   UNL     1      -3.034  -9.008   8.869  1.00  0.00     0.200 A 
ATOM     17  C   UNL     1      -2.470  -8.232   7.838  1.00  0.00     0.162 A 
BRANCH  14  18
ATOM     18  O   UNL     1      -5.036 -10.125   9.785  1.00  0.00    -0.504 OA
ATOM     19  H   UNL     1      -5.871 -10.672   9.631  1.00  0.00     0.293 HD
ENDBRANCH  14  18
BRANCH  16  20
ATOM     20  O   UNL     1      -2.217  -9.391   9.936  1.00  0.00    -0.502 OA
ATOM     21  H   UNL     1      -2.284  -9.010  10.868  1.00  0.00     0.293 HD
ENDBRANCH  16  20
BRANCH  17  22
ATOM     22  O   UNL     1      -1.132  -7.843   7.881  1.00  0.00    -0.504 OA
ATOM     23  H   UNL     1      -0.631  -7.535   7.056  1.00  0.00     0.293 HD
ENDBRANCH  17  22
ENDBRANCH   1  12
BRANCH   2  24
ATOM     24  O   UNL     1      -4.464  -9.420   4.033  1.00  0.00    -0.502 OA
ATOM     25  H   UNL     1      -3.792  -9.722   4.728  1.00  0.00     0.293 HD
ENDBRANCH   2  24
BRANCH   6  26
ATOM     26  O   UNL     1      -7.850  -6.522   1.116  1.00  0.00    -0.507 OA
ATOM     27  H   UNL     1      -8.652  -6.654   0.519  1.00  0.00     0.293 HD
ENDBRANCH   6  26
BRANCH   8  28
ATOM     28  O   UNL     1      -9.880  -3.862   4.538  1.00  0.00    -0.508 OA
ATOM     29  H   UNL     1      -9.643  -3.086   5.145  1.00  0.00     0.293 HD
ENDBRANCH   8  28
TORSDOF 7
ENDMDL
