MODEL 1
REMARK VINA RESULT:    -6.449      0.000      0.000
REMARK INTER + INTRA:          -8.004
REMARK INTER:                  -7.768
REMARK INTRA:                  -0.236
REMARK UNBOUND:                -0.236
REMARK SMILES Oc1cc(O)c2c(c1)O[C@@H](c1ccc(O)c(O)c1)[C@H](O)C2
REMARK SMILES IDX 21 1 19 2 10 3 9 4 7 5 8 6 2 7 3 8 4 9 6 10 20 11 11 13
REMARK SMILES IDX 18 14 12 15 16 16 13 17 14 18 17 19 15 21 5 23 1 25
REMARK H PARENT 20 12 17 20 15 22 5 24 1 26
REMARK Flexibility Score: inf
ROOT
ATOM      1  C   UNL     1      -4.750 -22.185  33.938  1.00  0.00     0.079 C 
ATOM      2  C   UNL     1      -5.453 -23.509  34.285  1.00  0.00     0.164 C 
ATOM      3  C   UNL     1      -5.687 -23.590  35.806  1.00  0.00     0.232 C 
ATOM      4  O   UNL     1      -6.429 -22.453  36.251  1.00  0.00    -0.482 OA
ATOM      5  C   UNL     1      -6.244 -21.177  35.708  1.00  0.00     0.131 A 
ATOM      6  C   UNL     1      -6.876 -20.080  36.302  1.00  0.00     0.093 A 
ATOM      7  C   UNL     1      -6.703 -18.796  35.774  1.00  0.00     0.122 A 
ATOM      8  C   UNL     1      -5.894 -18.608  34.651  1.00  0.00     0.092 A 
ATOM      9  C   UNL     1      -5.259 -19.701  34.043  1.00  0.00     0.126 A 
ATOM     10  C   UNL     1      -5.447 -20.997  34.558  1.00  0.00     0.039 A 
ENDROOT
BRANCH   2  11
ATOM     11  O   UNL     1      -4.660 -24.591  33.871  1.00  0.00    -0.389 OA
ATOM     12  H   UNL     1      -4.978 -25.387  34.374  1.00  0.00     0.211 HD
ENDBRANCH   2  11
BRANCH   3  13
ATOM     13  C   UNL     1      -6.426 -24.854  36.178  1.00  0.00    -0.001 A 
ATOM     14  C   UNL     1      -7.829 -24.905  36.112  1.00  0.00     0.057 A 
ATOM     15  C   UNL     1      -5.715 -26.008  36.547  1.00  0.00     0.012 A 
ATOM     16  C   UNL     1      -8.514 -26.087  36.430  1.00  0.00     0.157 A 
ATOM     17  C   UNL     1      -6.396 -27.185  36.864  1.00  0.00     0.050 A 
ATOM     18  C   UNL     1      -7.795 -27.229  36.809  1.00  0.00     0.157 A 
BRANCH  16  19
ATOM     19  O   UNL     1      -9.905 -26.135  36.371  1.00  0.00    -0.504 OA
ATOM     20  H   UNL     1     -10.389 -26.561  35.590  1.00  0.00     0.293 HD
ENDBRANCH  16  19
BRANCH  18  21
ATOM     21  O   UNL     1      -8.478 -28.402  37.125  1.00  0.00    -0.504 OA
ATOM     22  H   UNL     1      -8.059 -29.314  36.982  1.00  0.00     0.293 HD
ENDBRANCH  18  21
ENDBRANCH   3  13
BRANCH   9  23
ATOM     23  O   UNL     1      -4.442 -19.502  32.930  1.00  0.00    -0.507 OA
ATOM     24  H   UNL     1      -4.745 -18.942  32.142  1.00  0.00     0.293 HD
ENDBRANCH   9  23
BRANCH   7  25
ATOM     25  O   UNL     1      -7.328 -17.697  36.361  1.00  0.00    -0.508 OA
ATOM     26  H   UNL     1      -7.918 -17.798  37.180  1.00  0.00     0.293 HD
ENDBRANCH   7  25
TORSDOF 6
ENDMDL
MODEL 2
REMARK VINA RESULT:    -6.296      1.930      7.072
REMARK INTER + INTRA:          -7.820
REMARK INTER:                  -7.477
REMARK INTRA:                  -0.344
REMARK UNBOUND:                -0.236
REMARK SMILES Oc1cc(O)c2c(c1)O[C@@H](c1ccc(O)c(O)c1)[C@H](O)C2
REMARK SMILES IDX 21 1 19 2 10 3 9 4 7 5 8 6 2 7 3 8 4 9 6 10 20 11 11 13
REMARK SMILES IDX 18 14 12 15 16 16 13 17 14 18 17 19 15 21 5 23 1 25
REMARK H PARENT 20 12 17 20 15 22 5 24 1 26
REMARK Flexibility Score: inf
ROOT
ATOM      1  C   UNL     1      -7.702 -22.528  36.653  1.00  0.00     0.079 C 
ATOM      2  C   UNL     1      -6.746 -21.497  36.029  1.00  0.00     0.164 C 
ATOM      3  C   UNL     1      -5.304 -22.039  36.062  1.00  0.00     0.232 C 
ATOM      4  O   UNL     1      -5.239 -23.303  35.400  1.00  0.00    -0.482 OA
ATOM      5  C   UNL     1      -6.270 -24.246  35.479  1.00  0.00     0.131 A 
ATOM      6  C   UNL     1      -6.071 -25.525  34.950  1.00  0.00     0.093 A 
ATOM      7  C   UNL     1      -7.089 -26.482  35.021  1.00  0.00     0.122 A 
ATOM      8  C   UNL     1      -8.308 -26.159  35.623  1.00  0.00     0.092 A 
ATOM      9  C   UNL     1      -8.521 -24.877  36.151  1.00  0.00     0.126 A 
ATOM     10  C   UNL     1      -7.506 -23.906  36.064  1.00  0.00     0.039 A 
ENDROOT
BRANCH   2  11
ATOM     11  O   UNL     1      -6.814 -20.291  36.747  1.00  0.00    -0.389 OA
ATOM     12  H   UNL     1      -7.757 -20.188  37.041  1.00  0.00     0.211 HD
ENDBRANCH   2  11
BRANCH   3  13
ATOM     13  C   UNL     1      -4.344 -21.074  35.407  1.00  0.00    -0.001 A 
ATOM     14  C   UNL     1      -4.613 -20.557  34.128  1.00  0.00     0.057 A 
ATOM     15  C   UNL     1      -3.195 -20.645  36.091  1.00  0.00     0.012 A 
ATOM     16  C   UNL     1      -3.735 -19.640  33.532  1.00  0.00     0.157 A 
ATOM     17  C   UNL     1      -2.320 -19.732  35.498  1.00  0.00     0.050 A 
ATOM     18  C   UNL     1      -2.585 -19.228  34.218  1.00  0.00     0.157 A 
BRANCH  16  19
ATOM     19  O   UNL     1      -4.000 -19.134  32.260  1.00  0.00    -0.504 OA
ATOM     20  H   UNL     1      -3.833 -19.682  31.425  1.00  0.00     0.293 HD
ENDBRANCH  16  19
BRANCH  18  21
ATOM     21  O   UNL     1      -1.715 -18.316  33.623  1.00  0.00    -0.504 OA
ATOM     22  H   UNL     1      -1.800 -17.320  33.784  1.00  0.00     0.293 HD
ENDBRANCH  18  21
ENDBRANCH   3  13
BRANCH   9  23
ATOM     23  O   UNL     1      -9.736 -24.569  36.763  1.00  0.00    -0.507 OA
ATOM     24  H   UNL     1     -10.297 -23.780  36.462  1.00  0.00     0.293 HD
ENDBRANCH   9  23
BRANCH   7  25
ATOM     25  O   UNL     1      -6.899 -27.760  34.498  1.00  0.00    -0.508 OA
ATOM     26  H   UNL     1      -6.866 -28.577  35.096  1.00  0.00     0.293 HD
ENDBRANCH   7  25
TORSDOF 6
ENDMDL
MODEL 3
REMARK VINA RESULT:    -6.265      1.831      6.636
REMARK INTER + INTRA:          -7.782
REMARK INTER:                  -7.435
REMARK INTRA:                  -0.348
REMARK UNBOUND:                -0.236
REMARK SMILES Oc1cc(O)c2c(c1)O[C@@H](c1ccc(O)c(O)c1)[C@H](O)C2
REMARK SMILES IDX 21 1 19 2 10 3 9 4 7 5 8 6 2 7 3 8 4 9 6 10 20 11 11 13
REMARK SMILES IDX 18 14 12 15 16 16 13 17 14 18 17 19 15 21 5 23 1 25
REMARK H PARENT 20 12 17 20 15 22 5 24 1 26
REMARK Flexibility Score: inf
ROOT
ATOM      1  C   UNL     1      -6.039 -25.307  33.445  1.00  0.00     0.079 C 
ATOM      2  C   UNL     1      -5.217 -24.068  33.839  1.00  0.00     0.164 C 
ATOM      3  C   UNL     1      -6.164 -22.888  34.130  1.00  0.00     0.232 C 
ATOM      4  O   UNL     1      -7.108 -23.251  35.139  1.00  0.00    -0.482 OA
ATOM      5  C   UNL     1      -7.655 -24.536  35.227  1.00  0.00     0.131 A 
ATOM      6  C   UNL     1      -8.696 -24.777  36.128  1.00  0.00     0.093 A 
ATOM      7  C   UNL     1      -9.258 -26.055  36.230  1.00  0.00     0.122 A 
ATOM      8  C   UNL     1      -8.778 -27.093  35.427  1.00  0.00     0.092 A 
ATOM      9  C   UNL     1      -7.730 -26.863  34.523  1.00  0.00     0.126 A 
ATOM     10  C   UNL     1      -7.149 -25.585  34.432  1.00  0.00     0.039 A 
ENDROOT
BRANCH   2  11
ATOM     11  O   UNL     1      -4.343 -23.726  32.795  1.00  0.00    -0.389 OA
ATOM     12  H   UNL     1      -4.587 -24.298  32.020  1.00  0.00     0.211 HD
ENDBRANCH   2  11
BRANCH   3  13
ATOM     13  C   UNL     1      -5.393 -21.667  34.574  1.00  0.00    -0.001 A 
ATOM     14  C   UNL     1      -5.629 -20.417  33.976  1.00  0.00     0.057 A 
ATOM     15  C   UNL     1      -4.465 -21.759  35.624  1.00  0.00     0.012 A 
ATOM     16  C   UNL     1      -4.933 -19.278  34.408  1.00  0.00     0.157 A 
ATOM     17  C   UNL     1      -3.770 -20.626  36.055  1.00  0.00     0.050 A 
ATOM     18  C   UNL     1      -4.000 -19.384  35.448  1.00  0.00     0.157 A 
BRANCH  16  19
ATOM     19  O   UNL     1      -5.164 -18.041  33.810  1.00  0.00    -0.504 OA
ATOM     20  H   UNL     1      -4.452 -17.577  33.259  1.00  0.00     0.293 HD
ENDBRANCH  16  19
BRANCH  18  21
ATOM     21  O   UNL     1      -3.310 -18.251  35.875  1.00  0.00    -0.504 OA
ATOM     22  H   UNL     1      -3.512 -17.333  35.495  1.00  0.00     0.293 HD
ENDBRANCH  18  21
ENDBRANCH   3  13
BRANCH   9  23
ATOM     23  O   UNL     1      -7.267 -27.902  33.715  1.00  0.00    -0.507 OA
ATOM     24  H   UNL     1      -7.900 -28.471  33.166  1.00  0.00     0.293 HD
ENDBRANCH   9  23
BRANCH   7  25
ATOM     25  O   UNL     1     -10.297 -26.304  37.125  1.00  0.00    -0.508 OA
ATOM     26  H   UNL     1     -10.997 -27.013  36.939  1.00  0.00     0.293 HD
ENDBRANCH   7  25
TORSDOF 6
ENDMDL
MODEL 4
REMARK VINA RESULT:    -6.229      2.064      2.467
REMARK INTER + INTRA:          -7.739
REMARK INTER:                  -7.501
REMARK INTRA:                  -0.237
REMARK UNBOUND:                -0.236
REMARK SMILES Oc1cc(O)c2c(c1)O[C@@H](c1ccc(O)c(O)c1)[C@H](O)C2
REMARK SMILES IDX 21 1 19 2 10 3 9 4 7 5 8 6 2 7 3 8 4 9 6 10 20 11 11 13
REMARK SMILES IDX 18 14 12 15 16 16 13 17 14 18 17 19 15 21 5 23 1 25
REMARK H PARENT 20 12 17 20 15 22 5 24 1 26
REMARK Flexibility Score: inf
ROOT
ATOM      1  C   UNL     1      -6.368 -20.707  33.559  1.00  0.00     0.079 C 
ATOM      2  C   UNL     1      -7.192 -21.926  34.010  1.00  0.00     0.164 C 
ATOM      3  C   UNL     1      -6.250 -23.110  34.299  1.00  0.00     0.232 C 
ATOM      4  O   UNL     1      -5.270 -22.734  35.269  1.00  0.00    -0.482 OA
ATOM      5  C   UNL     1      -4.705 -21.455  35.307  1.00  0.00     0.131 A 
ATOM      6  C   UNL     1      -3.633 -21.204  36.169  1.00  0.00     0.093 A 
ATOM      7  C   UNL     1      -3.053 -19.931  36.221  1.00  0.00     0.122 A 
ATOM      8  C   UNL     1      -3.547 -18.908  35.408  1.00  0.00     0.092 A 
ATOM      9  C   UNL     1      -4.626 -19.146  34.543  1.00  0.00     0.126 A 
ATOM     10  C   UNL     1      -5.224 -20.419  34.503  1.00  0.00     0.039 A 
ENDROOT
BRANCH   2  11
ATOM     11  O   UNL     1      -8.103 -22.282  33.002  1.00  0.00    -0.389 OA
ATOM     12  H   UNL     1      -8.510 -23.145  33.278  1.00  0.00     0.211 HD
ENDBRANCH   2  11
BRANCH   3  13
ATOM     13  C   UNL     1      -7.021 -24.310  34.798  1.00  0.00    -0.001 A 
ATOM     14  C   UNL     1      -8.126 -24.144  35.651  1.00  0.00     0.057 A 
ATOM     15  C   UNL     1      -6.671 -25.603  34.375  1.00  0.00     0.012 A 
ATOM     16  C   UNL     1      -8.858 -25.256  36.092  1.00  0.00     0.157 A 
ATOM     17  C   UNL     1      -7.399 -26.711  34.813  1.00  0.00     0.050 A 
ATOM     18  C   UNL     1      -8.493 -26.542  35.673  1.00  0.00     0.157 A 
BRANCH  16  19
ATOM     19  O   UNL     1      -9.949 -25.091  36.943  1.00  0.00    -0.504 OA
ATOM     20  H   UNL     1      -9.859 -25.193  37.947  1.00  0.00     0.293 HD
ENDBRANCH  16  19
BRANCH  18  21
ATOM     21  O   UNL     1      -9.222 -27.646  36.112  1.00  0.00    -0.504 OA
ATOM     22  H   UNL     1      -8.999 -28.116  36.982  1.00  0.00     0.293 HD
ENDBRANCH  18  21
ENDBRANCH   3  13
BRANCH   9  23
ATOM     23  O   UNL     1      -5.102 -18.122  33.725  1.00  0.00    -0.507 OA
ATOM     24  H   UNL     1      -5.950 -17.614  33.949  1.00  0.00     0.293 HD
ENDBRANCH   9  23
BRANCH   7  25
ATOM     25  O   UNL     1      -1.984 -19.673  37.076  1.00  0.00    -0.508 OA
ATOM     26  H   UNL     1      -1.050 -20.013  36.873  1.00  0.00     0.293 HD
ENDBRANCH   7  25
TORSDOF 6
ENDMDL
MODEL 5
REMARK VINA RESULT:    -6.204      1.873      3.270
REMARK INTER + INTRA:          -7.710
REMARK INTER:                  -7.369
REMARK INTRA:                  -0.341
REMARK UNBOUND:                -0.236
REMARK SMILES Oc1cc(O)c2c(c1)O[C@@H](c1ccc(O)c(O)c1)[C@H](O)C2
REMARK SMILES IDX 21 1 19 2 10 3 9 4 7 5 8 6 2 7 3 8 4 9 6 10 20 11 11 13
REMARK SMILES IDX 18 14 12 15 16 16 13 17 14 18 17 19 15 21 5 23 1 25
REMARK H PARENT 20 12 17 20 15 22 5 24 1 26
REMARK Flexibility Score: inf
ROOT
ATOM      1  C   UNL     1      -6.693 -19.582  35.229  1.00  0.00     0.079 C 
ATOM      2  C   UNL     1      -6.726 -21.019  35.777  1.00  0.00     0.164 C 
ATOM      3  C   UNL     1      -6.275 -22.004  34.682  1.00  0.00     0.232 C 
ATOM      4  O   UNL     1      -4.979 -21.641  34.198  1.00  0.00    -0.482 OA
ATOM      5  C   UNL     1      -4.578 -20.309  34.054  1.00  0.00     0.131 A 
ATOM      6  C   UNL     1      -3.366 -20.023  33.419  1.00  0.00     0.093 A 
ATOM      7  C   UNL     1      -2.948 -18.696  33.263  1.00  0.00     0.122 A 
ATOM      8  C   UNL     1      -3.745 -17.654  33.744  1.00  0.00     0.092 A 
ATOM      9  C   UNL     1      -4.960 -17.929  34.388  1.00  0.00     0.126 A 
ATOM     10  C   UNL     1      -5.374 -19.263  34.564  1.00  0.00     0.039 A 
ENDROOT
BRANCH   2  11
ATOM     11  O   UNL     1      -8.029 -21.339  36.192  1.00  0.00    -0.389 OA
ATOM     12  H   UNL     1      -8.227 -20.766  36.978  1.00  0.00     0.211 HD
ENDBRANCH   2  11
BRANCH   3  13
ATOM     13  C   UNL     1      -6.242 -23.421  35.203  1.00  0.00    -0.001 A 
ATOM     14  C   UNL     1      -6.841 -24.464  34.473  1.00  0.00     0.057 A 
ATOM     15  C   UNL     1      -5.570 -23.721  36.399  1.00  0.00     0.012 A 
ATOM     16  C   UNL     1      -6.786 -25.784  34.943  1.00  0.00     0.157 A 
ATOM     17  C   UNL     1      -5.515 -25.036  36.868  1.00  0.00     0.050 A 
ATOM     18  C   UNL     1      -6.124 -26.070  36.144  1.00  0.00     0.157 A 
BRANCH  16  19
ATOM     19  O   UNL     1      -7.386 -26.815  34.222  1.00  0.00    -0.504 OA
ATOM     20  H   UNL     1      -7.761 -26.665  33.293  1.00  0.00     0.293 HD
ENDBRANCH  16  19
BRANCH  18  21
ATOM     21  O   UNL     1      -6.071 -27.383  36.609  1.00  0.00    -0.504 OA
ATOM     22  H   UNL     1      -6.767 -27.745  37.250  1.00  0.00     0.293 HD
ENDBRANCH  18  21
ENDBRANCH   3  13
BRANCH   9  23
ATOM     23  O   UNL     1      -5.756 -16.882  34.852  1.00  0.00    -0.507 OA
ATOM     24  H   UNL     1      -5.366 -16.118  35.393  1.00  0.00     0.293 HD
ENDBRANCH   9  23
BRANCH   7  25
ATOM     25  O   UNL     1      -1.742 -18.402  32.630  1.00  0.00    -0.508 OA
ATOM     26  H   UNL     1      -0.981 -17.951  33.123  1.00  0.00     0.293 HD
ENDBRANCH   7  25
TORSDOF 6
ENDMDL
MODEL 6
REMARK VINA RESULT:    -6.080      1.994      7.387
REMARK INTER + INTRA:          -7.560
REMARK INTER:                  -7.198
REMARK INTRA:                  -0.362
REMARK UNBOUND:                -0.236
REMARK SMILES Oc1cc(O)c2c(c1)O[C@@H](c1ccc(O)c(O)c1)[C@H](O)C2
REMARK SMILES IDX 21 1 19 2 10 3 9 4 7 5 8 6 2 7 3 8 4 9 6 10 20 11 11 13
REMARK SMILES IDX 18 14 12 15 16 16 13 17 14 18 17 19 15 21 5 23 1 25
REMARK H PARENT 20 12 17 20 15 22 5 24 1 26
REMARK Flexibility Score: inf
ROOT
ATOM      1  C   UNL     1      -8.002 -21.875  35.802  1.00  0.00     0.079 C 
ATOM      2  C   UNL     1      -7.162 -20.801  35.089  1.00  0.00     0.164 C 
ATOM      3  C   UNL     1      -5.714 -20.843  35.612  1.00  0.00     0.232 C 
ATOM      4  O   UNL     1      -5.168 -22.153  35.445  1.00  0.00    -0.482 OA
ATOM      5  C   UNL     1      -5.934 -23.312  35.613  1.00  0.00     0.131 A 
ATOM      6  C   UNL     1      -5.301 -24.559  35.603  1.00  0.00     0.093 A 
ATOM      7  C   UNL     1      -6.049 -25.730  35.771  1.00  0.00     0.122 A 
ATOM      8  C   UNL     1      -7.432 -25.652  35.952  1.00  0.00     0.092 A 
ATOM      9  C   UNL     1      -8.078 -24.407  35.958  1.00  0.00     0.126 A 
ATOM     10  C   UNL     1      -7.332 -23.229  35.769  1.00  0.00     0.039 A 
ENDROOT
BRANCH   2  11
ATOM     11  O   UNL     1      -7.714 -19.532  35.326  1.00  0.00    -0.389 OA
ATOM     12  H   UNL     1      -6.973 -18.877  35.235  1.00  0.00     0.211 HD
ENDBRANCH   2  11
BRANCH   3  13
ATOM     13  C   UNL     1      -4.846 -19.837  34.893  1.00  0.00    -0.001 A 
ATOM     14  C   UNL     1      -4.076 -18.911  35.618  1.00  0.00     0.057 A 
ATOM     15  C   UNL     1      -4.761 -19.849  33.491  1.00  0.00     0.012 A 
ATOM     16  C   UNL     1      -3.249 -17.996  34.951  1.00  0.00     0.157 A 
ATOM     17  C   UNL     1      -3.938 -18.938  32.826  1.00  0.00     0.050 A 
ATOM     18  C   UNL     1      -3.181 -18.008  33.552  1.00  0.00     0.157 A 
BRANCH  16  19
ATOM     19  O   UNL     1      -2.492 -17.074  35.672  1.00  0.00    -0.504 OA
ATOM     20  H   UNL     1      -1.932 -16.369  35.207  1.00  0.00     0.293 HD
ENDBRANCH  16  19
BRANCH  18  21
ATOM     21  O   UNL     1      -2.358 -17.097  32.892  1.00  0.00    -0.504 OA
ATOM     22  H   UNL     1      -2.696 -16.184  32.614  1.00  0.00     0.293 HD
ENDBRANCH  18  21
ENDBRANCH   3  13
BRANCH   9  23
ATOM     23  O   UNL     1      -9.458 -24.339  36.153  1.00  0.00    -0.507 OA
ATOM     24  H   UNL     1     -10.083 -24.019  35.423  1.00  0.00     0.293 HD
ENDBRANCH   9  23
BRANCH   7  25
ATOM     25  O   UNL     1      -5.426 -26.976  35.764  1.00  0.00    -0.508 OA
ATOM     26  H   UNL     1      -5.932 -27.819  35.517  1.00  0.00     0.293 HD
ENDBRANCH   7  25
TORSDOF 6
ENDMDL
MODEL 7
REMARK VINA RESULT:    -5.964      1.878      7.251
REMARK INTER + INTRA:          -7.420
REMARK INTER:                  -7.150
REMARK INTRA:                  -0.270
REMARK UNBOUND:                -0.236
REMARK SMILES Oc1cc(O)c2c(c1)O[C@@H](c1ccc(O)c(O)c1)[C@H](O)C2
REMARK SMILES IDX 21 1 19 2 10 3 9 4 7 5 8 6 2 7 3 8 4 9 6 10 20 11 11 13
REMARK SMILES IDX 18 14 12 15 16 16 13 17 14 18 17 19 15 21 5 23 1 25
REMARK H PARENT 20 12 17 20 15 22 5 24 1 26
REMARK Flexibility Score: inf
ROOT
ATOM      1  C   UNL     1      -8.331 -23.990  36.698  1.00  0.00     0.079 C 
ATOM      2  C   UNL     1      -7.751 -22.680  36.134  1.00  0.00     0.164 C 
ATOM      3  C   UNL     1      -6.301 -22.912  35.670  1.00  0.00     0.232 C 
ATOM      4  O   UNL     1      -6.253 -23.976  34.717  1.00  0.00    -0.482 OA
ATOM      5  C   UNL     1      -7.074 -25.105  34.812  1.00  0.00     0.131 A 
ATOM      6  C   UNL     1      -6.860 -26.183  33.947  1.00  0.00     0.093 A 
ATOM      7  C   UNL     1      -7.668 -27.322  34.027  1.00  0.00     0.122 A 
ATOM      8  C   UNL     1      -8.693 -27.383  34.975  1.00  0.00     0.092 A 
ATOM      9  C   UNL     1      -8.921 -26.306  35.844  1.00  0.00     0.126 A 
ATOM     10  C   UNL     1      -8.123 -25.151  35.753  1.00  0.00     0.039 A 
ENDROOT
BRANCH   2  11
ATOM     11  O   UNL     1      -7.777 -21.685  37.125  1.00  0.00    -0.389 OA
ATOM     12  H   UNL     1      -7.380 -22.086  37.942  1.00  0.00     0.211 HD
ENDBRANCH   2  11
BRANCH   3  13
ATOM     13  C   UNL     1      -5.717 -21.659  35.060  1.00  0.00    -0.001 A 
ATOM     14  C   UNL     1      -4.376 -21.310  35.294  1.00  0.00     0.057 A 
ATOM     15  C   UNL     1      -6.496 -20.856  34.211  1.00  0.00     0.012 A 
ATOM     16  C   UNL     1      -3.827 -20.162  34.705  1.00  0.00     0.157 A 
ATOM     17  C   UNL     1      -5.950 -19.712  33.624  1.00  0.00     0.050 A 
ATOM     18  C   UNL     1      -4.616 -19.360  33.869  1.00  0.00     0.157 A 
BRANCH  16  19
ATOM     19  O   UNL     1      -2.499 -19.813  34.943  1.00  0.00    -0.504 OA
ATOM     20  H   UNL     1      -2.197 -18.846  34.951  1.00  0.00     0.293 HD
ENDBRANCH  16  19
BRANCH  18  21
ATOM     21  O   UNL     1      -4.068 -18.220  33.286  1.00  0.00    -0.504 OA
ATOM     22  H   UNL     1      -4.651 -17.455  32.968  1.00  0.00     0.293 HD
ENDBRANCH  18  21
ENDBRANCH   3  13
BRANCH   9  23
ATOM     23  O   UNL     1      -9.938 -26.382  36.796  1.00  0.00    -0.507 OA
ATOM     24  H   UNL     1     -10.877 -26.671  36.549  1.00  0.00     0.293 HD
ENDBRANCH   9  23
BRANCH   7  25
ATOM     25  O   UNL     1      -7.461 -28.401  33.171  1.00  0.00    -0.508 OA
ATOM     26  H   UNL     1      -6.528 -28.735  32.956  1.00  0.00     0.293 HD
ENDBRANCH   7  25
TORSDOF 6
ENDMDL
MODEL 8
REMARK VINA RESULT:    -5.897      1.961      6.953
REMARK INTER + INTRA:          -7.339
REMARK INTER:                  -7.037
REMARK INTRA:                  -0.302
REMARK UNBOUND:                -0.236
REMARK SMILES Oc1cc(O)c2c(c1)O[C@@H](c1ccc(O)c(O)c1)[C@H](O)C2
REMARK SMILES IDX 21 1 19 2 10 3 9 4 7 5 8 6 2 7 3 8 4 9 6 10 20 11 11 13
REMARK SMILES IDX 18 14 12 15 16 16 13 17 14 18 17 19 15 21 5 23 1 25
REMARK H PARENT 20 12 17 20 15 22 5 24 1 26
REMARK Flexibility Score: inf
ROOT
ATOM      1  C   UNL     1      -4.758 -24.581  36.518  1.00  0.00     0.079 C 
ATOM      2  C   UNL     1      -4.928 -23.059  36.368  1.00  0.00     0.164 C 
ATOM      3  C   UNL     1      -4.792 -22.665  34.885  1.00  0.00     0.232 C 
ATOM      4  O   UNL     1      -5.734 -23.394  34.094  1.00  0.00    -0.482 OA
ATOM      5  C   UNL     1      -6.072 -24.724  34.365  1.00  0.00     0.131 A 
ATOM      6  C   UNL     1      -6.867 -25.428  33.456  1.00  0.00     0.093 A 
ATOM      7  C   UNL     1      -7.214 -26.760  33.709  1.00  0.00     0.122 A 
ATOM      8  C   UNL     1      -6.764 -27.389  34.873  1.00  0.00     0.092 A 
ATOM      9  C   UNL     1      -5.970 -26.690  35.794  1.00  0.00     0.126 A 
ATOM     10  C   UNL     1      -5.636 -25.345  35.554  1.00  0.00     0.039 A 
ENDROOT
BRANCH   2  11
ATOM     11  O   UNL     1      -3.950 -22.395  37.125  1.00  0.00    -0.389 OA
ATOM     12  H   UNL     1      -3.928 -21.456  36.801  1.00  0.00     0.211 HD
ENDBRANCH   2  11
BRANCH   3  13
ATOM     13  C   UNL     1      -5.010 -21.183  34.693  1.00  0.00    -0.001 A 
ATOM     14  C   UNL     1      -6.072 -20.527  35.340  1.00  0.00     0.057 A 
ATOM     15  C   UNL     1      -4.122 -20.433  33.903  1.00  0.00     0.012 A 
ATOM     16  C   UNL     1      -6.256 -19.146  35.183  1.00  0.00     0.157 A 
ATOM     17  C   UNL     1      -4.305 -19.058  33.746  1.00  0.00     0.050 A 
ATOM     18  C   UNL     1      -5.372 -18.410  34.383  1.00  0.00     0.157 A 
BRANCH  16  19
ATOM     19  O   UNL     1      -7.313 -18.499  35.820  1.00  0.00    -0.504 OA
ATOM     20  H   UNL     1      -8.257 -18.535  35.452  1.00  0.00     0.293 HD
ENDBRANCH  16  19
BRANCH  18  21
ATOM     21  O   UNL     1      -5.558 -17.037  34.229  1.00  0.00    -0.504 OA
ATOM     22  H   UNL     1      -4.791 -16.423  33.982  1.00  0.00     0.293 HD
ENDBRANCH  18  21
ENDBRANCH   3  13
BRANCH   9  23
ATOM     23  O   UNL     1      -5.514 -27.330  36.947  1.00  0.00    -0.507 OA
ATOM     24  H   UNL     1      -5.465 -28.340  37.010  1.00  0.00     0.293 HD
ENDBRANCH   9  23
BRANCH   7  25
ATOM     25  O   UNL     1      -8.005 -27.470  32.807  1.00  0.00    -0.508 OA
ATOM     26  H   UNL     1      -7.598 -28.108  32.133  1.00  0.00     0.293 HD
ENDBRANCH   7  25
TORSDOF 6
ENDMDL
MODEL 9
REMARK VINA RESULT:    -5.675      2.038      7.065
REMARK INTER + INTRA:          -7.072
REMARK INTER:                  -6.716
REMARK INTRA:                  -0.356
REMARK UNBOUND:                -0.236
REMARK SMILES Oc1cc(O)c2c(c1)O[C@@H](c1ccc(O)c(O)c1)[C@H](O)C2
REMARK SMILES IDX 21 1 19 2 10 3 9 4 7 5 8 6 2 7 3 8 4 9 6 10 20 11 11 13
REMARK SMILES IDX 18 14 12 15 16 16 13 17 14 18 17 19 15 21 5 23 1 25
REMARK H PARENT 20 12 17 20 15 22 5 24 1 26
REMARK Flexibility Score: inf
ROOT
ATOM      1  C   UNL     1      -7.378 -23.882  33.074  1.00  0.00     0.079 C 
ATOM      2  C   UNL     1      -6.674 -22.514  33.098  1.00  0.00     0.164 C 
ATOM      3  C   UNL     1      -6.660 -21.962  34.536  1.00  0.00     0.232 C 
ATOM      4  O   UNL     1      -6.041 -22.901  35.417  1.00  0.00    -0.482 OA
ATOM      5  C   UNL     1      -6.201 -24.283  35.273  1.00  0.00     0.131 A 
ATOM      6  C   UNL     1      -5.710 -25.138  36.265  1.00  0.00     0.093 A 
ATOM      7  C   UNL     1      -5.862 -26.523  36.140  1.00  0.00     0.122 A 
ATOM      8  C   UNL     1      -6.508 -27.055  35.021  1.00  0.00     0.092 A 
ATOM      9  C   UNL     1      -7.000 -26.208  34.017  1.00  0.00     0.126 A 
ATOM     10  C   UNL     1      -6.831 -24.815  34.129  1.00  0.00     0.039 A 
ENDROOT
BRANCH   2  11
ATOM     11  O   UNL     1      -7.351 -21.618  32.254  1.00  0.00    -0.389 OA
ATOM     12  H   UNL     1      -7.788 -22.164  31.550  1.00  0.00     0.211 HD
ENDBRANCH   2  11
BRANCH   3  13
ATOM     13  C   UNL     1      -5.927 -20.643  34.606  1.00  0.00    -0.001 A 
ATOM     14  C   UNL     1      -4.623 -20.522  34.094  1.00  0.00     0.057 A 
ATOM     15  C   UNL     1      -6.560 -19.509  35.141  1.00  0.00     0.012 A 
ATOM     16  C   UNL     1      -3.954 -19.291  34.134  1.00  0.00     0.157 A 
ATOM     17  C   UNL     1      -5.894 -18.282  35.182  1.00  0.00     0.050 A 
ATOM     18  C   UNL     1      -4.590 -18.169  34.681  1.00  0.00     0.157 A 
BRANCH  16  19
ATOM     19  O   UNL     1      -2.659 -19.175  33.632  1.00  0.00    -0.504 OA
ATOM     20  H   UNL     1      -1.861 -19.059  34.245  1.00  0.00     0.293 HD
ENDBRANCH  16  19
BRANCH  18  21
ATOM     21  O   UNL     1      -3.922 -16.946  34.720  1.00  0.00    -0.504 OA
ATOM     22  H   UNL     1      -3.581 -16.557  35.591  1.00  0.00     0.293 HD
ENDBRANCH  18  21
ENDBRANCH   3  13
BRANCH   9  23
ATOM     23  O   UNL     1      -7.655 -26.747  32.910  1.00  0.00    -0.507 OA
ATOM     24  H   UNL     1      -7.202 -27.414  32.297  1.00  0.00     0.293 HD
ENDBRANCH   9  23
BRANCH   7  25
ATOM     25  O   UNL     1      -5.377 -27.382  37.125  1.00  0.00    -0.508 OA
ATOM     26  H   UNL     1      -5.872 -28.229  37.379  1.00  0.00     0.293 HD
ENDBRANCH   7  25
TORSDOF 6
ENDMDL
