MODEL 1
REMARK VINA RESULT:    11.777      0.000      0.000
REMARK INTER + INTRA:          21.455
REMARK INTER:                  22.104
REMARK INTRA:                  -0.648
REMARK UNBOUND:                -0.648
REMARK SMILES O=C([O-])CCCCCCCCCCCCCCC(=O)[O-]
REMARK SMILES IDX 10 1 9 2 8 3 7 4 6 5 5 6 4 7 2 8 1 9 3 10 11 11 12 12 13 13
REMARK SMILES IDX 14 14 15 15 16 16 17 17 18 18 19 19 20 20
REMARK H PARENT
REMARK Flexibility Score: inf
ROOT
ATOM      1  C   UNL     1      15.073  17.255  17.869  1.00  0.00     0.000 C 
ENDROOT
BRANCH   1   2
ATOM      2  C   UNL     1      16.365  17.826  18.477  1.00  0.00     0.000 C 
BRANCH   2   3
ATOM      3  C   UNL     1      16.104  18.732  19.695  1.00  0.00     0.000 C 
BRANCH   3   4
ATOM      4  C   UNL     1      16.976  20.002  19.767  1.00  0.00     0.000 C 
BRANCH   4   5
ATOM      5  C   UNL     1      16.272  21.304  19.336  1.00  0.00     0.000 C 
BRANCH   5   6
ATOM      6  C   UNL     1      16.503  21.713  17.867  1.00  0.00     0.006 C 
BRANCH   6   7
ATOM      7  C   UNL     1      15.221  21.796  17.023  1.00  0.00     0.053 C 
BRANCH   7   8
ATOM      8  C   UNL     1      15.441  21.310  15.623  1.00  0.00     0.041 C 
ATOM      9  O   UNL     1      16.417  21.735  14.950  1.00  0.00    -0.550 OA
ATOM     10  O   UNL     1      14.586  20.363  15.073  1.00  0.00    -0.550 OA
ENDBRANCH   7   8
ENDBRANCH   6   7
ENDBRANCH   5   6
ENDBRANCH   4   5
ENDBRANCH   3   4
ENDBRANCH   2   3
ENDBRANCH   1   2
BRANCH   1  11
ATOM     11  C   UNL     1      15.008  15.719  17.932  1.00  0.00     0.000 C 
BRANCH  11  12
ATOM     12  C   UNL     1      14.028  15.057  16.941  1.00  0.00     0.000 C 
BRANCH  12  13
ATOM     13  C   UNL     1      14.149  13.526  16.825  1.00  0.00     0.000 C 
BRANCH  13  14
ATOM     14  C   UNL     1      13.285  12.733  17.825  1.00  0.00     0.000 C 
BRANCH  14  15
ATOM     15  C   UNL     1      12.297  11.757  17.151  1.00  0.00     0.000 C 
BRANCH  15  16
ATOM     16  C   UNL     1      11.156  12.484  16.421  1.00  0.00     0.006 C 
BRANCH  16  17
ATOM     17  C   UNL     1       9.864  11.656  16.395  1.00  0.00     0.053 C 
BRANCH  17  18
ATOM     18  C   UNL     1       8.764  12.367  15.667  1.00  0.00     0.041 C 
ATOM     19  O   UNL     1       8.661  12.259  14.416  1.00  0.00    -0.550 OA
ATOM     20  O   UNL     1       7.875  13.173  16.364  1.00  0.00    -0.550 OA
ENDBRANCH  17  18
ENDBRANCH  16  17
ENDBRANCH  15  16
ENDBRANCH  14  15
ENDBRANCH  13  14
ENDBRANCH  12  13
ENDBRANCH  11  12
ENDBRANCH   1  11
TORSDOF 15
ENDMDL
MODEL 2
REMARK VINA RESULT:    11.929      2.135      3.318
REMARK INTER + INTRA:          21.741
REMARK INTER:                  22.502
REMARK INTRA:                  -0.760
REMARK UNBOUND:                -0.648
REMARK SMILES O=C([O-])CCCCCCCCCCCCCCC(=O)[O-]
REMARK SMILES IDX 10 1 9 2 8 3 7 4 6 5 5 6 4 7 2 8 1 9 3 10 11 11 12 12 13 13
REMARK SMILES IDX 14 14 15 15 16 16 17 17 18 18 19 19 20 20
REMARK H PARENT
REMARK Flexibility Score: inf
ROOT
ATOM      1  C   UNL     1      14.817  14.227  17.122  1.00  0.00     0.000 C 
ENDROOT
BRANCH   1   2
ATOM      2  C   UNL     1      13.799  15.347  16.852  1.00  0.00     0.000 C 
BRANCH   2   3
ATOM      3  C   UNL     1      14.151  16.662  17.572  1.00  0.00     0.000 C 
BRANCH   3   4
ATOM      4  C   UNL     1      15.606  16.769  18.071  1.00  0.00     0.000 C 
BRANCH   4   5
ATOM      5  C   UNL     1      16.137  18.207  18.240  1.00  0.00     0.000 C 
BRANCH   5   6
ATOM      6  C   UNL     1      17.043  18.426  19.469  1.00  0.00     0.006 C 
BRANCH   6   7
ATOM      7  C   UNL     1      16.611  19.588  20.377  1.00  0.00     0.053 C 
BRANCH   7   8
ATOM      8  C   UNL     1      16.606  20.895  19.646  1.00  0.00     0.041 C 
ATOM      9  O   UNL     1      17.581  21.219  18.917  1.00  0.00    -0.550 OA
ATOM     10  O   UNL     1      15.510  21.743  19.745  1.00  0.00    -0.550 OA
ENDBRANCH   7   8
ENDBRANCH   6   7
ENDBRANCH   5   6
ENDBRANCH   4   5
ENDBRANCH   3   4
ENDBRANCH   2   3
ENDBRANCH   1   2
BRANCH   1  11
ATOM     11  C   UNL     1      14.446  12.901  16.433  1.00  0.00     0.000 C 
BRANCH  11  12
ATOM     12  C   UNL     1      13.816  11.832  17.350  1.00  0.00     0.000 C 
BRANCH  12  13
ATOM     13  C   UNL     1      12.385  12.141  17.827  1.00  0.00     0.000 C 
BRANCH  13  14
ATOM     14  C   UNL     1      11.365  12.377  16.697  1.00  0.00     0.000 C 
BRANCH  14  15
ATOM     15  C   UNL     1       9.946  11.865  17.026  1.00  0.00     0.000 C 
BRANCH  15  16
ATOM     16  C   UNL     1       8.855  12.890  16.676  1.00  0.00     0.006 C 
BRANCH  16  17
ATOM     17  C   UNL     1       7.948  12.404  15.536  1.00  0.00     0.053 C 
BRANCH  17  18
ATOM     18  C   UNL     1       8.719  12.179  14.272  1.00  0.00     0.041 C 
ATOM     19  O   UNL     1       9.421  13.106  13.786  1.00  0.00    -0.550 OA
ATOM     20  O   UNL     1       8.638  10.960  13.614  1.00  0.00    -0.550 OA
ENDBRANCH  17  18
ENDBRANCH  16  17
ENDBRANCH  15  16
ENDBRANCH  14  15
ENDBRANCH  13  14
ENDBRANCH  12  13
ENDBRANCH  11  12
ENDBRANCH   1  11
TORSDOF 15
ENDMDL
MODEL 3
REMARK VINA RESULT:    11.947      2.073      9.561
REMARK INTER + INTRA:          21.775
REMARK INTER:                  21.972
REMARK INTRA:                  -0.196
REMARK UNBOUND:                -0.648
REMARK SMILES O=C([O-])CCCCCCCCCCCCCCC(=O)[O-]
REMARK SMILES IDX 10 1 9 2 8 3 7 4 6 5 5 6 4 7 2 8 1 9 3 10 11 11 12 12 13 13
REMARK SMILES IDX 14 14 15 15 16 16 17 17 18 18 19 19 20 20
REMARK H PARENT
REMARK Flexibility Score: inf
ROOT
ATOM      1  C   UNL     1      14.473  12.591  16.465  1.00  0.00     0.000 C 
ENDROOT
BRANCH   1   2
ATOM      2  C   UNL     1      13.741  11.651  17.437  1.00  0.00     0.000 C 
BRANCH   2   3
ATOM      3  C   UNL     1      12.336  12.156  17.814  1.00  0.00     0.000 C 
BRANCH   3   4
ATOM      4  C   UNL     1      11.356  12.315  16.634  1.00  0.00     0.000 C 
BRANCH   4   5
ATOM      5  C   UNL     1       9.958  11.706  16.858  1.00  0.00     0.000 C 
BRANCH   5   6
ATOM      6  C   UNL     1       8.795  12.720  16.844  1.00  0.00     0.006 C 
BRANCH   6   7
ATOM      7  C   UNL     1       7.890  12.629  15.605  1.00  0.00     0.053 C 
BRANCH   7   8
ATOM      8  C   UNL     1       8.662  12.262  14.375  1.00  0.00     0.041 C 
ATOM      9  O   UNL     1       9.386  13.117  13.801  1.00  0.00    -0.550 OA
ATOM     10  O   UNL     1       8.606  10.964  13.881  1.00  0.00    -0.550 OA
ENDBRANCH   7   8
ENDBRANCH   6   7
ENDBRANCH   5   6
ENDBRANCH   4   5
ENDBRANCH   3   4
ENDBRANCH   2   3
ENDBRANCH   1   2
BRANCH   1  11
ATOM     11  C   UNL     1      14.053  14.063  16.624  1.00  0.00     0.000 C 
BRANCH  11  12
ATOM     12  C   UNL     1      14.601  14.775  17.878  1.00  0.00     0.000 C 
BRANCH  12  13
ATOM     13  C   UNL     1      14.729  16.305  17.759  1.00  0.00     0.000 C 
BRANCH  13  14
ATOM     14  C   UNL     1      16.112  16.868  18.139  1.00  0.00     0.000 C 
BRANCH  14  15
ATOM     15  C   UNL     1      16.083  18.358  18.545  1.00  0.00     0.000 C 
BRANCH  15  16
ATOM     16  C   UNL     1      17.091  18.683  19.659  1.00  0.00     0.006 C 
BRANCH  16  17
ATOM     17  C   UNL     1      16.704  19.947  20.440  1.00  0.00     0.053 C 
BRANCH  17  18
ATOM     18  C   UNL     1      16.599  21.142  19.544  1.00  0.00     0.041 C 
ATOM     19  O   UNL     1      17.613  21.556  18.920  1.00  0.00    -0.550 OA
ATOM     20  O   UNL     1      15.393  21.818  19.422  1.00  0.00    -0.550 OA
ENDBRANCH  17  18
ENDBRANCH  16  17
ENDBRANCH  15  16
ENDBRANCH  14  15
ENDBRANCH  13  14
ENDBRANCH  12  13
ENDBRANCH  11  12
ENDBRANCH   1  11
TORSDOF 15
ENDMDL
MODEL 4
REMARK VINA RESULT:    12.135      0.258      9.288
REMARK INTER + INTRA:          22.128
REMARK INTER:                  22.740
REMARK INTRA:                  -0.612
REMARK UNBOUND:                -0.648
REMARK SMILES O=C([O-])CCCCCCCCCCCCCCC(=O)[O-]
REMARK SMILES IDX 10 1 9 2 8 3 7 4 6 5 5 6 4 7 2 8 1 9 3 10 11 11 12 12 13 13
REMARK SMILES IDX 14 14 15 15 16 16 17 17 18 18 19 19 20 20
REMARK H PARENT
REMARK Flexibility Score: inf
ROOT
ATOM      1  C   UNL     1      15.342  15.898  17.573  1.00  0.00     0.000 C 
ENDROOT
BRANCH   1   2
ATOM      2  C   UNL     1      14.037  15.210  17.140  1.00  0.00     0.000 C 
BRANCH   2   3
ATOM      3  C   UNL     1      14.211  13.700  16.894  1.00  0.00     0.000 C 
BRANCH   3   4
ATOM      4  C   UNL     1      13.440  12.783  17.866  1.00  0.00     0.000 C 
BRANCH   4   5
ATOM      5  C   UNL     1      12.416  11.840  17.203  1.00  0.00     0.000 C 
BRANCH   5   6
ATOM      6  C   UNL     1      11.127  12.526  16.706  1.00  0.00     0.006 C 
BRANCH   6   7
ATOM      7  C   UNL     1      10.025  11.554  16.255  1.00  0.00     0.053 C 
BRANCH   7   8
ATOM      8  C   UNL     1       8.924  12.258  15.523  1.00  0.00     0.041 C 
ATOM      9  O   UNL     1       8.183  13.077  16.127  1.00  0.00    -0.550 OA
ATOM     10  O   UNL     1       8.737  12.033  14.165  1.00  0.00    -0.550 OA
ENDBRANCH   7   8
ENDBRANCH   6   7
ENDBRANCH   5   6
ENDBRANCH   4   5
ENDBRANCH   3   4
ENDBRANCH   2   3
ENDBRANCH   1   2
BRANCH   1  11
ATOM     11  C   UNL     1      15.113  17.302  18.161  1.00  0.00     0.000 C 
BRANCH  11  12
ATOM     12  C   UNL     1      16.389  18.055  18.593  1.00  0.00     0.000 C 
BRANCH  12  13
ATOM     13  C   UNL     1      16.253  18.892  19.878  1.00  0.00     0.000 C 
BRANCH  13  14
ATOM     14  C   UNL     1      17.076  20.194  19.891  1.00  0.00     0.000 C 
BRANCH  14  15
ATOM     15  C   UNL     1      16.333  21.402  19.283  1.00  0.00     0.000 C 
BRANCH  15  16
ATOM     16  C   UNL     1      16.601  21.561  17.777  1.00  0.00     0.006 C 
BRANCH  16  17
ATOM     17  C   UNL     1      15.306  21.748  16.974  1.00  0.00     0.053 C 
BRANCH  17  18
ATOM     18  C   UNL     1      15.482  21.357  15.539  1.00  0.00     0.041 C 
ATOM     19  O   UNL     1      16.404  21.871  14.852  1.00  0.00    -0.550 OA
ATOM     20  O   UNL     1      14.610  20.451  14.952  1.00  0.00    -0.550 OA
ENDBRANCH  17  18
ENDBRANCH  16  17
ENDBRANCH  15  16
ENDBRANCH  14  15
ENDBRANCH  13  14
ENDBRANCH  12  13
ENDBRANCH  11  12
ENDBRANCH   1  11
TORSDOF 15
ENDMDL
MODEL 5
REMARK VINA RESULT:    12.317      1.984      2.931
REMARK INTER + INTRA:          22.469
REMARK INTER:                  22.864
REMARK INTRA:                  -0.395
REMARK UNBOUND:                -0.648
REMARK SMILES O=C([O-])CCCCCCCCCCCCCCC(=O)[O-]
REMARK SMILES IDX 10 1 9 2 8 3 7 4 6 5 5 6 4 7 2 8 1 9 3 10 11 11 12 12 13 13
REMARK SMILES IDX 14 14 15 15 16 16 17 17 18 18 19 19 20 20
REMARK H PARENT
REMARK Flexibility Score: inf
ROOT
ATOM      1  C   UNL     1      14.672  14.965  17.744  1.00  0.00     0.000 C 
ENDROOT
BRANCH   1   2
ATOM      2  C   UNL     1      14.363  16.444  17.459  1.00  0.00     0.000 C 
BRANCH   2   3
ATOM      3  C   UNL     1      13.551  16.647  16.167  1.00  0.00     0.000 C 
BRANCH   3   4
ATOM      4  C   UNL     1      13.197  18.111  15.836  1.00  0.00     0.000 C 
BRANCH   4   5
ATOM      5  C   UNL     1      14.402  19.026  15.541  1.00  0.00     0.000 C 
BRANCH   5   6
ATOM      6  C   UNL     1      14.085  20.535  15.523  1.00  0.00     0.006 C 
BRANCH   6   7
ATOM      7  C   UNL     1      15.176  21.420  16.147  1.00  0.00     0.053 C 
BRANCH   7   8
ATOM      8  C   UNL     1      16.271  21.728  15.172  1.00  0.00     0.041 C 
ATOM      9  O   UNL     1      16.187  21.333  13.979  1.00  0.00    -0.550 OA
ATOM     10  O   UNL     1      17.369  22.478  15.573  1.00  0.00    -0.550 OA
ENDBRANCH   7   8
ENDBRANCH   6   7
ENDBRANCH   5   6
ENDBRANCH   4   5
ENDBRANCH   3   4
ENDBRANCH   2   3
ENDBRANCH   1   2
BRANCH   1  11
ATOM     11  C   UNL     1      13.961  14.006  16.772  1.00  0.00     0.000 C 
BRANCH  11  12
ATOM     12  C   UNL     1      14.018  12.512  17.156  1.00  0.00     0.000 C 
BRANCH  12  13
ATOM     13  C   UNL     1      12.649  11.831  17.336  1.00  0.00     0.000 C 
BRANCH  13  14
ATOM     14  C   UNL     1      11.461  12.596  16.721  1.00  0.00     0.000 C 
BRANCH  14  15
ATOM     15  C   UNL     1      10.188  11.738  16.559  1.00  0.00     0.000 C 
BRANCH  15  16
ATOM     16  C   UNL     1       8.904  12.527  16.864  1.00  0.00     0.006 C 
BRANCH  16  17
ATOM     17  C   UNL     1       8.039  12.733  15.612  1.00  0.00     0.053 C 
BRANCH  17  18
ATOM     18  C   UNL     1       8.672  12.129  14.396  1.00  0.00     0.041 C 
ATOM     19  O   UNL     1       9.459  12.811  13.687  1.00  0.00    -0.550 OA
ATOM     20  O   UNL     1       8.368  10.825  14.028  1.00  0.00    -0.550 OA
ENDBRANCH  17  18
ENDBRANCH  16  17
ENDBRANCH  15  16
ENDBRANCH  14  15
ENDBRANCH  13  14
ENDBRANCH  12  13
ENDBRANCH  11  12
ENDBRANCH   1  11
TORSDOF 15
ENDMDL
MODEL 6
REMARK VINA RESULT:    12.461      5.446      8.972
REMARK INTER + INTRA:          22.741
REMARK INTER:                  23.535
REMARK INTRA:                  -0.794
REMARK UNBOUND:                -0.648
REMARK SMILES O=C([O-])CCCCCCCCCCCCCCC(=O)[O-]
REMARK SMILES IDX 10 1 9 2 8 3 7 4 6 5 5 6 4 7 2 8 1 9 3 10 11 11 12 12 13 13
REMARK SMILES IDX 14 14 15 15 16 16 17 17 18 18 19 19 20 20
REMARK H PARENT
REMARK Flexibility Score: inf
ROOT
ATOM      1  C   UNL     1      15.197  11.239  16.140  1.00  0.00     0.000 C 
ENDROOT
BRANCH   1   2
ATOM      2  C   UNL     1      15.046  12.765  16.042  1.00  0.00     0.000 C 
BRANCH   2   3
ATOM      3  C   UNL     1      13.821  13.296  16.809  1.00  0.00     0.000 C 
BRANCH   3   4
ATOM      4  C   UNL     1      13.334  12.404  17.968  1.00  0.00     0.000 C 
BRANCH   4   5
ATOM      5  C   UNL     1      11.846  12.004  17.907  1.00  0.00     0.000 C 
BRANCH   5   6
ATOM      6  C   UNL     1      11.182  12.176  16.525  1.00  0.00     0.006 C 
BRANCH   6   7
ATOM      7  C   UNL     1       9.814  11.490  16.390  1.00  0.00     0.053 C 
BRANCH   7   8
ATOM      8  C   UNL     1       8.831  12.346  15.652  1.00  0.00     0.041 C 
ATOM      9  O   UNL     1       8.790  12.325  14.393  1.00  0.00    -0.550 OA
ATOM     10  O   UNL     1       7.937  13.143  16.356  1.00  0.00    -0.550 OA
ENDBRANCH   7   8
ENDBRANCH   6   7
ENDBRANCH   5   6
ENDBRANCH   4   5
ENDBRANCH   3   4
ENDBRANCH   2   3
ENDBRANCH   1   2
BRANCH   1  11
ATOM     11  C   UNL     1      16.261  10.678  15.179  1.00  0.00     0.000 C 
BRANCH  11  12
ATOM     12  C   UNL     1      15.998   9.248  14.663  1.00  0.00     0.000 C 
BRANCH  12  13
ATOM     13  C   UNL     1      15.917   9.109  13.132  1.00  0.00     0.000 C 
BRANCH  13  14
ATOM     14  C   UNL     1      16.821  10.079  12.347  1.00  0.00     0.000 C 
BRANCH  14  15
ATOM     15  C   UNL     1      16.852   9.804  10.829  1.00  0.00     0.000 C 
BRANCH  15  16
ATOM     16  C   UNL     1      16.400  11.019  10.001  1.00  0.00     0.006 C 
BRANCH  16  17
ATOM     17  C   UNL     1      17.435  12.153  10.023  1.00  0.00     0.053 C 
BRANCH  17  18
ATOM     18  C   UNL     1      16.787  13.490  10.212  1.00  0.00     0.041 C 
ATOM     19  O   UNL     1      15.959  13.918   9.365  1.00  0.00    -0.550 OA
ATOM     20  O   UNL     1      17.121  14.277  11.306  1.00  0.00    -0.550 OA
ENDBRANCH  17  18
ENDBRANCH  16  17
ENDBRANCH  15  16
ENDBRANCH  14  15
ENDBRANCH  13  14
ENDBRANCH  12  13
ENDBRANCH  11  12
ENDBRANCH   1  11
TORSDOF 15
ENDMDL
MODEL 7
REMARK VINA RESULT:    12.546      2.020      9.424
REMARK INTER + INTRA:          22.899
REMARK INTER:                  23.569
REMARK INTRA:                  -0.670
REMARK UNBOUND:                -0.648
REMARK SMILES O=C([O-])CCCCCCCCCCCCCCC(=O)[O-]
REMARK SMILES IDX 10 1 9 2 8 3 7 4 6 5 5 6 4 7 2 8 1 9 3 10 11 11 12 12 13 13
REMARK SMILES IDX 14 14 15 15 16 16 17 17 18 18 19 19 20 20
REMARK H PARENT
REMARK Flexibility Score: inf
ROOT
ATOM      1  C   UNL     1      13.932  13.911  16.758  1.00  0.00     0.000 C 
ENDROOT
BRANCH   1   2
ATOM      2  C   UNL     1      13.957  12.557  17.485  1.00  0.00     0.000 C 
BRANCH   2   3
ATOM      3  C   UNL     1      12.561  11.920  17.612  1.00  0.00     0.000 C 
BRANCH   3   4
ATOM      4  C   UNL     1      11.470  12.544  16.718  1.00  0.00     0.000 C 
BRANCH   4   5
ATOM      5  C   UNL     1      10.104  11.832  16.758  1.00  0.00     0.000 C 
BRANCH   5   6
ATOM      6  C   UNL     1       8.882  12.771  16.836  1.00  0.00     0.006 C 
BRANCH   6   7
ATOM      7  C   UNL     1       7.916  12.652  15.646  1.00  0.00     0.053 C 
BRANCH   7   8
ATOM      8  C   UNL     1       8.624  12.252  14.389  1.00  0.00     0.041 C 
ATOM      9  O   UNL     1       9.400  13.059  13.813  1.00  0.00    -0.550 OA
ATOM     10  O   UNL     1       8.451  10.975  13.870  1.00  0.00    -0.550 OA
ENDBRANCH   7   8
ENDBRANCH   6   7
ENDBRANCH   5   6
ENDBRANCH   4   5
ENDBRANCH   3   4
ENDBRANCH   2   3
ENDBRANCH   1   2
BRANCH   1  11
ATOM     11  C   UNL     1      14.722  15.005  17.501  1.00  0.00     0.000 C 
BRANCH  11  12
ATOM     12  C   UNL     1      14.167  16.437  17.354  1.00  0.00     0.000 C 
BRANCH  12  13
ATOM     13  C   UNL     1      13.337  16.689  16.081  1.00  0.00     0.000 C 
BRANCH  13  14
ATOM     14  C   UNL     1      13.118  18.175  15.738  1.00  0.00     0.000 C 
BRANCH  14  15
ATOM     15  C   UNL     1      14.403  19.027  15.827  1.00  0.00     0.000 C 
BRANCH  15  16
ATOM     16  C   UNL     1      14.158  20.501  15.462  1.00  0.00     0.006 C 
BRANCH  16  17
ATOM     17  C   UNL     1      15.172  21.440  16.130  1.00  0.00     0.053 C 
BRANCH  17  18
ATOM     18  C   UNL     1      16.314  21.763  15.217  1.00  0.00     0.041 C 
ATOM     19  O   UNL     1      17.393  22.212  15.688  1.00  0.00    -0.550 OA
ATOM     20  O   UNL     1      16.178  21.598  13.846  1.00  0.00    -0.550 OA
ENDBRANCH  17  18
ENDBRANCH  16  17
ENDBRANCH  15  16
ENDBRANCH  14  15
ENDBRANCH  13  14
ENDBRANCH  12  13
ENDBRANCH  11  12
ENDBRANCH   1  11
TORSDOF 15
ENDMDL
MODEL 8
REMARK VINA RESULT:    12.778      1.871      2.723
REMARK INTER + INTRA:          23.334
REMARK INTER:                  24.017
REMARK INTRA:                  -0.683
REMARK UNBOUND:                -0.648
REMARK SMILES O=C([O-])CCCCCCCCCCCCCCC(=O)[O-]
REMARK SMILES IDX 10 1 9 2 8 3 7 4 6 5 5 6 4 7 2 8 1 9 3 10 11 11 12 12 13 13
REMARK SMILES IDX 14 14 15 15 16 16 17 17 18 18 19 19 20 20
REMARK H PARENT
REMARK Flexibility Score: inf
ROOT
ATOM      1  C   UNL     1      13.523  16.785  16.069  1.00  0.00     0.000 C 
ENDROOT
BRANCH   1   2
ATOM      2  C   UNL     1      13.209  18.286  15.962  1.00  0.00     0.000 C 
BRANCH   2   3
ATOM      3  C   UNL     1      14.327  19.083  15.265  1.00  0.00     0.000 C 
BRANCH   3   4
ATOM      4  C   UNL     1      14.335  20.598  15.557  1.00  0.00     0.000 C 
BRANCH   4   5
ATOM      5  C   UNL     1      15.734  21.231  15.695  1.00  0.00     0.000 C 
BRANCH   5   6
ATOM      6  C   UNL     1      15.918  22.142  16.926  1.00  0.00     0.006 C 
BRANCH   6   7
ATOM      7  C   UNL     1      15.596  21.466  18.269  1.00  0.00     0.053 C 
BRANCH   7   8
ATOM      8  C   UNL     1      16.836  21.023  18.983  1.00  0.00     0.041 C 
ATOM      9  O   UNL     1      17.908  21.672  18.856  1.00  0.00    -0.550 OA
ATOM     10  O   UNL     1      16.800  19.910  19.814  1.00  0.00    -0.550 OA
ENDBRANCH   7   8
ENDBRANCH   6   7
ENDBRANCH   5   6
ENDBRANCH   4   5
ENDBRANCH   3   4
ENDBRANCH   2   3
ENDBRANCH   1   2
BRANCH   1  11
ATOM     11  C   UNL     1      14.102  16.391  17.440  1.00  0.00     0.000 C 
BRANCH  11  12
ATOM     12  C   UNL     1      14.724  14.981  17.515  1.00  0.00     0.000 C 
BRANCH  12  13
ATOM     13  C   UNL     1      13.900  13.865  16.846  1.00  0.00     0.000 C 
BRANCH  13  14
ATOM     14  C   UNL     1      13.504  12.706  17.781  1.00  0.00     0.000 C 
BRANCH  14  15
ATOM     15  C   UNL     1      12.482  11.731  17.160  1.00  0.00     0.000 C 
BRANCH  15  16
ATOM     16  C   UNL     1      11.300  12.459  16.497  1.00  0.00     0.006 C 
BRANCH  16  17
ATOM     17  C   UNL     1      10.064  11.559  16.367  1.00  0.00     0.053 C 
BRANCH  17  18
ATOM     18  C   UNL     1       8.956  12.242  15.625  1.00  0.00     0.041 C 
ATOM     19  O   UNL     1       8.813  12.053  14.388  1.00  0.00    -0.550 OA
ATOM     20  O   UNL     1       8.104  13.111  16.292  1.00  0.00    -0.550 OA
ENDBRANCH  17  18
ENDBRANCH  16  17
ENDBRANCH  15  16
ENDBRANCH  14  15
ENDBRANCH  13  14
ENDBRANCH  12  13
ENDBRANCH  11  12
ENDBRANCH   1  11
TORSDOF 15
ENDMDL
MODEL 9
REMARK VINA RESULT:    13.078      5.538      7.841
REMARK INTER + INTRA:          23.897
REMARK INTER:                  24.664
REMARK INTRA:                  -0.766
REMARK UNBOUND:                -0.648
REMARK SMILES O=C([O-])CCCCCCCCCCCCCCC(=O)[O-]
REMARK SMILES IDX 10 1 9 2 8 3 7 4 6 5 5 6 4 7 2 8 1 9 3 10 11 11 12 12 13 13
REMARK SMILES IDX 14 14 15 15 16 16 17 17 18 18 19 19 20 20
REMARK H PARENT
REMARK Flexibility Score: inf
ROOT
ATOM      1  C   UNL     1      16.186  10.545  15.575  1.00  0.00     0.000 C 
ENDROOT
BRANCH   1   2
ATOM      2  C   UNL     1      15.788   9.606  14.424  1.00  0.00     0.000 C 
BRANCH   2   3
ATOM      3  C   UNL     1      16.825   9.581  13.286  1.00  0.00     0.000 C 
BRANCH   3   4
ATOM      4  C   UNL     1      16.238   9.551  11.861  1.00  0.00     0.000 C 
BRANCH   4   5
ATOM      5  C   UNL     1      17.229   9.908  10.736  1.00  0.00     0.000 C 
BRANCH   5   6
ATOM      6  C   UNL     1      16.897  11.200   9.961  1.00  0.00     0.006 C 
BRANCH   6   7
ATOM      7  C   UNL     1      16.916  12.476  10.817  1.00  0.00     0.053 C 
BRANCH   7   8
ATOM      8  C   UNL     1      16.868  13.714   9.975  1.00  0.00     0.041 C 
ATOM      9  O   UNL     1      17.935  14.277   9.612  1.00  0.00    -0.550 OA
ATOM     10  O   UNL     1      15.645  14.228   9.564  1.00  0.00    -0.550 OA
ENDBRANCH   7   8
ENDBRANCH   6   7
ENDBRANCH   5   6
ENDBRANCH   4   5
ENDBRANCH   3   4
ENDBRANCH   2   3
ENDBRANCH   1   2
BRANCH   1  11
ATOM     11  C   UNL     1      14.972  11.178  16.279  1.00  0.00     0.000 C 
BRANCH  11  12
ATOM     12  C   UNL     1      14.890  12.716  16.200  1.00  0.00     0.000 C 
BRANCH  12  13
ATOM     13  C   UNL     1      13.751  13.354  17.018  1.00  0.00     0.000 C 
BRANCH  13  14
ATOM     14  C   UNL     1      13.096  12.417  18.051  1.00  0.00     0.000 C 
BRANCH  14  15
ATOM     15  C   UNL     1      11.559  12.340  17.930  1.00  0.00     0.000 C 
BRANCH  15  16
ATOM     16  C   UNL     1      11.086  12.280  16.468  1.00  0.00     0.006 C 
BRANCH  16  17
ATOM     17  C   UNL     1       9.765  11.513  16.317  1.00  0.00     0.053 C 
BRANCH  17  18
ATOM     18  C   UNL     1       8.755  12.298  15.538  1.00  0.00     0.041 C 
ATOM     19  O   UNL     1       7.908  13.011  16.138  1.00  0.00    -0.550 OA
ATOM     20  O   UNL     1       8.727  12.216  14.152  1.00  0.00    -0.550 OA
ENDBRANCH  17  18
ENDBRANCH  16  17
ENDBRANCH  15  16
ENDBRANCH  14  15
ENDBRANCH  13  14
ENDBRANCH  12  13
ENDBRANCH  11  12
ENDBRANCH   1  11
TORSDOF 15
ENDMDL
