MODEL 1
REMARK VINA RESULT:    -3.889      0.000      0.000
REMARK INTER + INTRA:          -5.874
REMARK INTER:                  -5.480
REMARK INTRA:                  -0.394
REMARK UNBOUND:                -0.394
REMARK SMILES CCCCCCCCC(=O)[O-]
REMARK SMILES IDX 6 1 7 2 8 3 9 4 10 5 11 6 5 7 4 8 3 9 2 10 1 11
REMARK H PARENT
REMARK Flexibility Score: inf
ROOT
ATOM      1  C   UNL     1      45.931  26.531   5.572  1.00  0.00     0.000 C 
ENDROOT
BRANCH   1   2
ATOM      2  C   UNL     1      45.972  26.288   4.059  1.00  0.00     0.006 C 
BRANCH   2   3
ATOM      3  C   UNL     1      44.612  26.582   3.419  1.00  0.00     0.053 C 
BRANCH   3   4
ATOM      4  C   UNL     1      44.752  27.600   2.332  1.00  0.00     0.041 C 
ATOM      5  O   UNL     1      44.551  28.818   2.576  1.00  0.00    -0.550 OA
ATOM      6  O   UNL     1      45.055  27.197   1.037  1.00  0.00    -0.550 OA
ENDBRANCH   3   4
ENDBRANCH   2   3
ENDBRANCH   1   2
BRANCH   1   7
ATOM      7  C   UNL     1      45.959  28.032   5.889  1.00  0.00     0.000 C 
BRANCH   7   8
ATOM      8  C   UNL     1      45.800  28.279   7.395  1.00  0.00    -0.000 C 
BRANCH   8   9
ATOM      9  C   UNL     1      45.709  26.953   8.163  1.00  0.00    -0.000 C 
BRANCH   9  10
ATOM     10  C   UNL     1      45.116  27.125   9.570  1.00  0.00    -0.003 C 
ATOM     11  C   UNL     1      44.824  28.584   9.915  1.00  0.00     0.004 C 
ENDBRANCH   9  10
ENDBRANCH   8   9
ENDBRANCH   7   8
ENDBRANCH   1   7
TORSDOF 7
ENDMDL
MODEL 2
REMARK VINA RESULT:    -3.793      3.573      5.881
REMARK INTER + INTRA:          -5.739
REMARK INTER:                  -5.260
REMARK INTRA:                  -0.479
REMARK UNBOUND:                -0.394
REMARK SMILES CCCCCCCCC(=O)[O-]
REMARK SMILES IDX 6 1 7 2 8 3 9 4 10 5 11 6 5 7 4 8 3 9 2 10 1 11
REMARK H PARENT
REMARK Flexibility Score: inf
ROOT
ATOM      1  C   UNL     1      46.055  28.092   5.857  1.00  0.00     0.000 C 
ENDROOT
BRANCH   1   2
ATOM      2  C   UNL     1      45.877  28.156   7.379  1.00  0.00     0.006 C 
BRANCH   2   3
ATOM      3  C   UNL     1      45.691  26.756   7.969  1.00  0.00     0.053 C 
BRANCH   3   4
ATOM      4  C   UNL     1      45.475  26.834   9.447  1.00  0.00     0.041 C 
ATOM      5  O   UNL     1      44.764  27.751   9.936  1.00  0.00    -0.550 OA
ATOM      6  O   UNL     1      46.100  25.923  10.290  1.00  0.00    -0.550 OA
ENDBRANCH   3   4
ENDBRANCH   2   3
ENDBRANCH   1   2
BRANCH   1   7
ATOM      7  C   UNL     1      46.668  26.752   5.431  1.00  0.00     0.000 C 
BRANCH   7   8
ATOM      8  C   UNL     1      46.293  26.411   3.982  1.00  0.00    -0.000 C 
BRANCH   8   9
ATOM      9  C   UNL     1      44.793  26.109   3.860  1.00  0.00    -0.000 C 
BRANCH   9  10
ATOM     10  C   UNL     1      44.076  27.064   2.891  1.00  0.00    -0.003 C 
ATOM     11  C   UNL     1      45.046  27.876   2.035  1.00  0.00     0.004 C 
ENDBRANCH   9  10
ENDBRANCH   8   9
ENDBRANCH   7   8
ENDBRANCH   1   7
TORSDOF 7
ENDMDL
MODEL 3
REMARK VINA RESULT:    -3.757      1.476      2.297
REMARK INTER + INTRA:          -5.689
REMARK INTER:                  -5.270
REMARK INTRA:                  -0.418
REMARK UNBOUND:                -0.394
REMARK SMILES CCCCCCCCC(=O)[O-]
REMARK SMILES IDX 6 1 7 2 8 3 9 4 10 5 11 6 5 7 4 8 3 9 2 10 1 11
REMARK H PARENT
REMARK Flexibility Score: inf
ROOT
ATOM      1  C   UNL     1      45.941  26.812   7.241  1.00  0.00     0.000 C 
ENDROOT
BRANCH   1   2
ATOM      2  C   UNL     1      46.653  26.708   5.887  1.00  0.00     0.006 C 
BRANCH   2   3
ATOM      3  C   UNL     1      45.855  27.419   4.791  1.00  0.00     0.053 C 
BRANCH   3   4
ATOM      4  C   UNL     1      45.607  26.496   3.640  1.00  0.00     0.041 C 
ATOM      5  O   UNL     1      45.631  26.935   2.460  1.00  0.00    -0.550 OA
ATOM      6  O   UNL     1      45.299  25.162   3.873  1.00  0.00    -0.550 OA
ENDBRANCH   3   4
ENDBRANCH   2   3
ENDBRANCH   1   2
BRANCH   1   7
ATOM      7  C   UNL     1      46.857  26.347   8.381  1.00  0.00     0.000 C 
BRANCH   7   8
ATOM      8  C   UNL     1      46.324  26.817   9.741  1.00  0.00    -0.000 C 
BRANCH   8   9
ATOM      9  C   UNL     1      44.906  27.389   9.607  1.00  0.00    -0.000 C 
BRANCH   9  10
ATOM     10  C   UNL     1      44.793  28.822  10.150  1.00  0.00    -0.003 C 
ATOM     11  C   UNL     1      44.859  29.879   9.049  1.00  0.00     0.004 C 
ENDBRANCH   9  10
ENDBRANCH   8   9
ENDBRANCH   7   8
ENDBRANCH   1   7
TORSDOF 7
ENDMDL
MODEL 4
REMARK VINA RESULT:    -3.717      3.971      6.250
REMARK INTER + INTRA:          -5.632
REMARK INTER:                  -5.273
REMARK INTRA:                  -0.360
REMARK UNBOUND:                -0.394
REMARK SMILES CCCCCCCCC(=O)[O-]
REMARK SMILES IDX 6 1 7 2 8 3 9 4 10 5 11 6 5 7 4 8 3 9 2 10 1 11
REMARK H PARENT
REMARK Flexibility Score: inf
ROOT
ATOM      1  C   UNL     1      45.862  28.286   7.142  1.00  0.00     0.000 C 
ENDROOT
BRANCH   1   2
ATOM      2  C   UNL     1      45.650  27.024   7.987  1.00  0.00     0.006 C 
BRANCH   2   3
ATOM      3  C   UNL     1      45.207  27.382   9.408  1.00  0.00     0.053 C 
BRANCH   3   4
ATOM      4  C   UNL     1      46.168  26.828  10.412  1.00  0.00     0.041 C 
ATOM      5  O   UNL     1      46.397  25.590  10.453  1.00  0.00    -0.550 OA
ATOM      6  O   UNL     1      46.772  27.671  11.336  1.00  0.00    -0.550 OA
ENDBRANCH   3   4
ENDBRANCH   2   3
ENDBRANCH   1   2
BRANCH   1   7
ATOM      7  C   UNL     1      46.051  27.932   5.662  1.00  0.00     0.000 C 
BRANCH   7   8
ATOM      8  C   UNL     1      46.164  26.414   5.469  1.00  0.00    -0.000 C 
BRANCH   8   9
ATOM      9  C   UNL     1      45.325  25.950   4.270  1.00  0.00    -0.000 C 
BRANCH   9  10
ATOM     10  C   UNL     1      45.119  27.061   3.228  1.00  0.00    -0.003 C 
ATOM     11  C   UNL     1      43.665  27.185   2.775  1.00  0.00     0.004 C 
ENDBRANCH   9  10
ENDBRANCH   8   9
ENDBRANCH   7   8
ENDBRANCH   1   7
TORSDOF 7
ENDMDL
MODEL 5
REMARK VINA RESULT:    -3.619      1.567      2.354
REMARK INTER + INTRA:          -5.494
REMARK INTER:                  -5.006
REMARK INTRA:                  -0.488
REMARK UNBOUND:                -0.394
REMARK SMILES CCCCCCCCC(=O)[O-]
REMARK SMILES IDX 6 1 7 2 8 3 9 4 10 5 11 6 5 7 4 8 3 9 2 10 1 11
REMARK H PARENT
REMARK Flexibility Score: inf
ROOT
ATOM      1  C   UNL     1      45.993  28.750   5.427  1.00  0.00     0.000 C 
ENDROOT
BRANCH   1   2
ATOM      2  C   UNL     1      46.067  27.312   5.955  1.00  0.00     0.006 C 
BRANCH   2   3
ATOM      3  C   UNL     1      46.928  26.436   5.041  1.00  0.00     0.053 C 
BRANCH   3   4
ATOM      4  C   UNL     1      46.175  26.074   3.799  1.00  0.00     0.041 C 
ATOM      5  O   UNL     1      45.286  25.184   3.834  1.00  0.00    -0.550 OA
ATOM      6  O   UNL     1      46.491  26.686   2.592  1.00  0.00    -0.550 OA
ENDBRANCH   3   4
ENDBRANCH   2   3
ENDBRANCH   1   2
BRANCH   1   7
ATOM      7  C   UNL     1      45.632  29.730   6.551  1.00  0.00     0.000 C 
BRANCH   7   8
ATOM      8  C   UNL     1      45.991  29.148   7.925  1.00  0.00    -0.000 C 
BRANCH   8   9
ATOM      9  C   UNL     1      44.890  29.447   8.952  1.00  0.00    -0.000 C 
BRANCH   9  10
ATOM     10  C   UNL     1      44.725  28.321   9.985  1.00  0.00    -0.003 C 
ATOM     11  C   UNL     1      45.183  26.962   9.457  1.00  0.00     0.004 C 
ENDBRANCH   9  10
ENDBRANCH   8   9
ENDBRANCH   7   8
ENDBRANCH   1   7
TORSDOF 7
ENDMDL
MODEL 6
REMARK VINA RESULT:    -3.402      1.929      3.274
REMARK INTER + INTRA:          -5.189
REMARK INTER:                  -4.697
REMARK INTRA:                  -0.492
REMARK UNBOUND:                -0.394
REMARK SMILES CCCCCCCCC(=O)[O-]
REMARK SMILES IDX 6 1 7 2 8 3 9 4 10 5 11 6 5 7 4 8 3 9 2 10 1 11
REMARK H PARENT
REMARK Flexibility Score: inf
ROOT
ATOM      1  C   UNL     1      44.608  28.294   3.310  1.00  0.00     0.000 C 
ENDROOT
BRANCH   1   2
ATOM      2  C   UNL     1      45.159  28.934   2.030  1.00  0.00     0.006 C 
BRANCH   2   3
ATOM      3  C   UNL     1      45.841  27.888   1.143  1.00  0.00     0.053 C 
BRANCH   3   4
ATOM      4  C   UNL     1      45.511  28.125  -0.297  1.00  0.00     0.041 C 
ATOM      5  O   UNL     1      45.227  27.157  -1.049  1.00  0.00    -0.550 OA
ATOM      6  O   UNL     1      45.566  29.411  -0.820  1.00  0.00    -0.550 OA
ENDBRANCH   3   4
ENDBRANCH   2   3
ENDBRANCH   1   2
BRANCH   1   7
ATOM      7  C   UNL     1      44.467  26.775   3.149  1.00  0.00     0.000 C 
BRANCH   7   8
ATOM      8  C   UNL     1      45.152  26.034   4.305  1.00  0.00    -0.000 C 
BRANCH   8   9
ATOM      9  C   UNL     1      46.162  26.943   5.019  1.00  0.00    -0.000 C 
BRANCH   9  10
ATOM     10  C   UNL     1      46.008  26.910   6.548  1.00  0.00    -0.003 C 
ATOM     11  C   UNL     1      45.774  28.294   7.149  1.00  0.00     0.004 C 
ENDBRANCH   9  10
ENDBRANCH   8   9
ENDBRANCH   7   8
ENDBRANCH   1   7
TORSDOF 7
ENDMDL
MODEL 7
REMARK VINA RESULT:    -3.283      4.291      6.255
REMARK INTER + INTRA:          -5.020
REMARK INTER:                  -4.751
REMARK INTRA:                  -0.269
REMARK UNBOUND:                -0.394
REMARK SMILES CCCCCCCCC(=O)[O-]
REMARK SMILES IDX 6 1 7 2 8 3 9 4 10 5 11 6 5 7 4 8 3 9 2 10 1 11
REMARK H PARENT
REMARK Flexibility Score: inf
ROOT
ATOM      1  C   UNL     1      45.571  28.629  -0.806  1.00  0.00     0.000 C 
ENDROOT
BRANCH   1   2
ATOM      2  C   UNL     1      45.074  27.744  -1.955  1.00  0.00     0.006 C 
BRANCH   2   3
ATOM      3  C   UNL     1      44.412  28.584  -3.049  1.00  0.00     0.053 C 
BRANCH   3   4
ATOM      4  C   UNL     1      43.277  27.835  -3.673  1.00  0.00     0.041 C 
ATOM      5  O   UNL     1      42.264  28.453  -4.092  1.00  0.00    -0.550 OA
ATOM      6  O   UNL     1      43.317  26.447  -3.746  1.00  0.00    -0.550 OA
ENDBRANCH   3   4
ENDBRANCH   2   3
ENDBRANCH   1   2
BRANCH   1   7
ATOM      7  C   UNL     1      45.533  27.873   0.528  1.00  0.00     0.000 C 
BRANCH   7   8
ATOM      8  C   UNL     1      45.559  28.847   1.714  1.00  0.00    -0.000 C 
BRANCH   8   9
ATOM      9  C   UNL     1      44.417  28.547   2.695  1.00  0.00    -0.000 C 
BRANCH   9  10
ATOM     10  C   UNL     1      44.067  27.051   2.755  1.00  0.00    -0.003 C 
ATOM     11  C   UNL     1      44.860  26.301   3.823  1.00  0.00     0.004 C 
ENDBRANCH   9  10
ENDBRANCH   8   9
ENDBRANCH   7   8
ENDBRANCH   1   7
TORSDOF 7
ENDMDL
MODEL 8
REMARK VINA RESULT:    -3.180      3.587      7.439
REMARK INTER + INTRA:          -4.875
REMARK INTER:                  -4.522
REMARK INTRA:                  -0.353
REMARK UNBOUND:                -0.394
REMARK SMILES CCCCCCCCC(=O)[O-]
REMARK SMILES IDX 6 1 7 2 8 3 9 4 10 5 11 6 5 7 4 8 3 9 2 10 1 11
REMARK H PARENT
REMARK Flexibility Score: inf
ROOT
ATOM      1  C   UNL     1      46.030  28.161   1.375  1.00  0.00     0.000 C 
ENDROOT
BRANCH   1   2
ATOM      2  C   UNL     1      44.840  28.492   2.282  1.00  0.00     0.006 C 
BRANCH   2   3
ATOM      3  C   UNL     1      44.186  27.215   2.818  1.00  0.00     0.053 C 
BRANCH   3   4
ATOM      4  C   UNL     1      45.053  26.578   3.857  1.00  0.00     0.041 C 
ATOM      5  O   UNL     1      45.596  27.282   4.748  1.00  0.00    -0.550 OA
ATOM      6  O   UNL     1      45.302  25.212   3.812  1.00  0.00    -0.550 OA
ENDBRANCH   3   4
ENDBRANCH   2   3
ENDBRANCH   1   2
BRANCH   1   7
ATOM      7  C   UNL     1      45.569  27.904  -0.065  1.00  0.00     0.000 C 
BRANCH   7   8
ATOM      8  C   UNL     1      45.419  29.220  -0.839  1.00  0.00    -0.000 C 
BRANCH   8   9
ATOM      9  C   UNL     1      44.917  28.963  -2.267  1.00  0.00    -0.000 C 
BRANCH   9  10
ATOM     10  C   UNL     1      44.895  27.468  -2.625  1.00  0.00    -0.003 C 
ATOM     11  C   UNL     1      43.853  27.130  -3.689  1.00  0.00     0.004 C 
ENDBRANCH   9  10
ENDBRANCH   8   9
ENDBRANCH   7   8
ENDBRANCH   1   7
TORSDOF 7
ENDMDL
MODEL 9
REMARK VINA RESULT:    -3.167      3.385      5.490
REMARK INTER + INTRA:          -4.856
REMARK INTER:                  -4.233
REMARK INTRA:                  -0.624
REMARK UNBOUND:                -0.394
REMARK SMILES CCCCCCCCC(=O)[O-]
REMARK SMILES IDX 6 1 7 2 8 3 9 4 10 5 11 6 5 7 4 8 3 9 2 10 1 11
REMARK H PARENT
REMARK Flexibility Score: inf
ROOT
ATOM      1  C   UNL     1      46.766  29.380   5.703  1.00  0.00     0.000 C 
ENDROOT
BRANCH   1   2
ATOM      2  C   UNL     1      45.657  28.996   6.689  1.00  0.00     0.006 C 
BRANCH   2   3
ATOM      3  C   UNL     1      45.967  27.660   7.371  1.00  0.00     0.053 C 
BRANCH   3   4
ATOM      4  C   UNL     1      45.311  27.592   8.713  1.00  0.00     0.041 C 
ATOM      5  O   UNL     1      44.897  28.642   9.271  1.00  0.00    -0.550 OA
ATOM      6  O   UNL     1      45.201  26.374   9.373  1.00  0.00    -0.550 OA
ENDBRANCH   3   4
ENDBRANCH   2   3
ENDBRANCH   1   2
BRANCH   1   7
ATOM      7  C   UNL     1      46.195  29.621   4.300  1.00  0.00     0.000 C 
BRANCH   7   8
ATOM      8  C   UNL     1      46.293  28.354   3.440  1.00  0.00    -0.000 C 
BRANCH   8   9
ATOM      9  C   UNL     1      44.963  28.071   2.726  1.00  0.00    -0.000 C 
BRANCH   9  10
ATOM     10  C   UNL     1      44.233  26.847   3.301  1.00  0.00    -0.003 C 
ATOM     11  C   UNL     1      45.156  25.928   4.097  1.00  0.00     0.004 C 
ENDBRANCH   9  10
ENDBRANCH   8   9
ENDBRANCH   7   8
ENDBRANCH   1   7
TORSDOF 7
ENDMDL
