MODEL 1
REMARK VINA RESULT:    -3.698      0.000      0.000
REMARK INTER + INTRA:          -4.053
REMARK INTER:                  -4.022
REMARK INTRA:                  -0.031
REMARK UNBOUND:                -0.031
REMARK SMILES O=C([O-])c1ccc(O)cc1
REMARK SMILES IDX 7 1 6 2 9 3 5 4 10 5 4 6 8 7 2 9 1 10 3 11
REMARK H PARENT 8 8
REMARK Flexibility Score: inf
ROOT
ATOM      1  C   UNL     1     -92.523 145.560 241.239  1.00  0.00     0.115 A 
ATOM      2  C   UNL     1     -93.296 144.994 242.256  1.00  0.00     0.047 A 
ATOM      3  C   UNL     1     -92.876 146.809 240.711  1.00  0.00     0.047 A 
ATOM      4  C   UNL     1     -94.417 145.670 242.749  1.00  0.00     0.014 A 
ATOM      5  C   UNL     1     -93.996 147.488 241.201  1.00  0.00     0.014 A 
ATOM      6  C   UNL     1     -94.779 146.925 242.225  1.00  0.00    -0.003 A 
ENDROOT
BRANCH   1   7
ATOM      7  O   UNL     1     -91.409 144.875 240.757  1.00  0.00    -0.508 OA
ATOM      8  H   UNL     1     -91.219 144.805 239.765  1.00  0.00     0.293 HD
ENDBRANCH   1   7
BRANCH   6   9
ATOM      9  C   UNL     1     -95.963 147.645 242.742  1.00  0.00     0.071 C 
ATOM     10  O   UNL     1     -97.054 147.040 242.919  1.00  0.00    -0.545 OA
ATOM     11  O   UNL     1     -95.889 149.000 243.040  1.00  0.00    -0.545 OA
ENDBRANCH   6   9
TORSDOF 2
ENDMDL
MODEL 2
REMARK VINA RESULT:    -3.492      2.680      3.275
REMARK INTER + INTRA:          -3.830
REMARK INTER:                  -3.802
REMARK INTRA:                  -0.028
REMARK UNBOUND:                -0.031
REMARK SMILES O=C([O-])c1ccc(O)cc1
REMARK SMILES IDX 7 1 6 2 9 3 5 4 10 5 4 6 8 7 2 9 1 10 3 11
REMARK H PARENT 8 8
REMARK Flexibility Score: inf
ROOT
ATOM      1  C   UNL     1     -92.577 145.788 240.527  1.00  0.00     0.115 A 
ATOM      2  C   UNL     1     -92.917 145.625 239.182  1.00  0.00     0.047 A 
ATOM      3  C   UNL     1     -93.103 146.865 241.251  1.00  0.00     0.047 A 
ATOM      4  C   UNL     1     -93.779 146.532 238.558  1.00  0.00     0.014 A 
ATOM      5  C   UNL     1     -93.967 147.774 240.631  1.00  0.00     0.014 A 
ATOM      6  C   UNL     1     -94.313 147.617 239.277  1.00  0.00    -0.003 A 
ENDROOT
BRANCH   1   7
ATOM      7  O   UNL     1     -91.717 144.876 241.136  1.00  0.00    -0.508 OA
ATOM      8  H   UNL     1     -91.134 144.253 240.590  1.00  0.00     0.293 HD
ENDBRANCH   1   7
BRANCH   6   9
ATOM      9  C   UNL     1     -95.226 148.581 238.623  1.00  0.00     0.071 C 
ATOM     10  O   UNL     1     -96.445 148.622 238.936  1.00  0.00    -0.545 OA
ATOM     11  O   UNL     1     -94.750 149.455 237.654  1.00  0.00    -0.545 OA
ENDBRANCH   6   9
TORSDOF 2
ENDMDL
MODEL 3
REMARK VINA RESULT:    -3.410      2.437      3.007
REMARK INTER + INTRA:          -3.740
REMARK INTER:                  -3.712
REMARK INTRA:                  -0.029
REMARK UNBOUND:                -0.031
REMARK SMILES O=C([O-])c1ccc(O)cc1
REMARK SMILES IDX 7 1 6 2 9 3 5 4 10 5 4 6 8 7 2 9 1 10 3 11
REMARK H PARENT 8 8
REMARK Flexibility Score: inf
ROOT
ATOM      1  C   UNL     1     -92.349 145.701 240.414  1.00  0.00     0.115 A 
ATOM      2  C   UNL     1     -92.879 146.684 241.253  1.00  0.00     0.047 A 
ATOM      3  C   UNL     1     -92.848 145.553 239.114  1.00  0.00     0.047 A 
ATOM      4  C   UNL     1     -93.904 147.520 240.799  1.00  0.00     0.014 A 
ATOM      5  C   UNL     1     -93.873 146.387 238.655  1.00  0.00     0.014 A 
ATOM      6  C   UNL     1     -94.413 147.379 239.494  1.00  0.00    -0.003 A 
ENDROOT
BRANCH   1   7
ATOM      7  O   UNL     1     -91.327 144.875 240.880  1.00  0.00    -0.508 OA
ATOM      8  H   UNL     1     -90.363 145.185 240.898  1.00  0.00     0.293 HD
ENDBRANCH   1   7
BRANCH   6   9
ATOM      9  C   UNL     1     -95.497 148.260 239.007  1.00  0.00     0.071 C 
ATOM     10  O   UNL     1     -95.304 149.035 238.033  1.00  0.00    -0.545 OA
ATOM     11  O   UNL     1     -96.745 148.244 239.618  1.00  0.00    -0.545 OA
ENDBRANCH   6   9
TORSDOF 2
ENDMDL
MODEL 4
REMARK VINA RESULT:    -3.353      1.049      4.278
REMARK INTER + INTRA:          -3.678
REMARK INTER:                  -3.647
REMARK INTRA:                  -0.030
REMARK UNBOUND:                -0.031
REMARK SMILES O=C([O-])c1ccc(O)cc1
REMARK SMILES IDX 7 1 6 2 9 3 5 4 10 5 4 6 8 7 2 9 1 10 3 11
REMARK H PARENT 8 8
REMARK Flexibility Score: inf
ROOT
ATOM      1  C   UNL     1     -95.323 147.492 242.244  1.00  0.00     0.115 A 
ATOM      2  C   UNL     1     -94.810 146.296 242.753  1.00  0.00     0.047 A 
ATOM      3  C   UNL     1     -94.796 148.027 241.061  1.00  0.00     0.047 A 
ATOM      4  C   UNL     1     -93.776 145.633 242.086  1.00  0.00     0.014 A 
ATOM      5  C   UNL     1     -93.762 147.365 240.391  1.00  0.00     0.014 A 
ATOM      6  C   UNL     1     -93.240 146.161 240.897  1.00  0.00    -0.003 A 
ENDROOT
BRANCH   1   7
ATOM      7  O   UNL     1     -96.354 148.143 242.919  1.00  0.00    -0.508 OA
ATOM      8  H   UNL     1     -97.199 148.434 242.441  1.00  0.00     0.293 HD
ENDBRANCH   1   7
BRANCH   6   9
ATOM      9  C   UNL     1     -92.146 145.463 240.187  1.00  0.00     0.071 C 
ATOM     10  O   UNL     1     -91.118 145.085 240.809  1.00  0.00    -0.545 OA
ATOM     11  O   UNL     1     -92.238 145.215 238.823  1.00  0.00    -0.545 OA
ENDBRANCH   6   9
TORSDOF 2
ENDMDL
MODEL 5
REMARK VINA RESULT:    -3.339      2.672      4.481
REMARK INTER + INTRA:          -3.663
REMARK INTER:                  -3.634
REMARK INTRA:                  -0.030
REMARK UNBOUND:                -0.031
REMARK SMILES O=C([O-])c1ccc(O)cc1
REMARK SMILES IDX 7 1 6 2 9 3 5 4 10 5 4 6 8 7 2 9 1 10 3 11
REMARK H PARENT 8 8
REMARK Flexibility Score: inf
ROOT
ATOM      1  C   UNL     1     -94.647 147.811 238.166  1.00  0.00     0.115 A 
ATOM      2  C   UNL     1     -94.025 146.627 237.762  1.00  0.00     0.047 A 
ATOM      3  C   UNL     1     -94.551 148.225 239.501  1.00  0.00     0.047 A 
ATOM      4  C   UNL     1     -93.308 145.857 238.683  1.00  0.00     0.014 A 
ATOM      5  C   UNL     1     -93.834 147.458 240.425  1.00  0.00     0.014 A 
ATOM      6  C   UNL     1     -93.206 146.265 240.026  1.00  0.00    -0.003 A 
ENDROOT
BRANCH   1   7
ATOM      7  O   UNL     1     -95.358 148.568 237.238  1.00  0.00    -0.508 OA
ATOM      8  H   UNL     1     -96.104 148.163 236.685  1.00  0.00     0.293 HD
ENDBRANCH   1   7
BRANCH   6   9
ATOM      9  C   UNL     1     -92.449 145.455 241.006  1.00  0.00     0.071 C 
ATOM     10  O   UNL     1     -92.993 145.069 242.074  1.00  0.00    -0.545 OA
ATOM     11  O   UNL     1     -91.126 145.108 240.761  1.00  0.00    -0.545 OA
ENDBRANCH   6   9
TORSDOF 2
ENDMDL
MODEL 6
REMARK VINA RESULT:    -3.336      2.910      4.642
REMARK INTER + INTRA:          -3.660
REMARK INTER:                  -3.630
REMARK INTRA:                  -0.030
REMARK UNBOUND:                -0.031
REMARK SMILES O=C([O-])c1ccc(O)cc1
REMARK SMILES IDX 7 1 6 2 9 3 5 4 10 5 4 6 8 7 2 9 1 10 3 11
REMARK H PARENT 8 8
REMARK Flexibility Score: inf
ROOT
ATOM      1  C   UNL     1     -94.507 147.591 238.070  1.00  0.00     0.115 A 
ATOM      2  C   UNL     1     -94.380 148.013 239.396  1.00  0.00     0.047 A 
ATOM      3  C   UNL     1     -93.859 146.423 237.647  1.00  0.00     0.047 A 
ATOM      4  C   UNL     1     -93.610 147.273 240.300  1.00  0.00     0.014 A 
ATOM      5  C   UNL     1     -93.090 145.680 238.548  1.00  0.00     0.014 A 
ATOM      6  C   UNL     1     -92.956 146.099 239.885  1.00  0.00    -0.003 A 
ENDROOT
BRANCH   1   7
ATOM      7  O   UNL     1     -95.277 148.337 237.181  1.00  0.00    -0.508 OA
ATOM      8  H   UNL     1     -96.287 148.264 237.164  1.00  0.00     0.293 HD
ENDBRANCH   1   7
BRANCH   6   9
ATOM      9  C   UNL     1     -92.141 145.312 240.836  1.00  0.00     0.071 C 
ATOM     10  O   UNL     1     -90.942 145.029 240.570  1.00  0.00    -0.545 OA
ATOM     11  O   UNL     1     -92.685 144.875 242.038  1.00  0.00    -0.545 OA
ENDBRANCH   6   9
TORSDOF 2
ENDMDL
MODEL 7
REMARK VINA RESULT:    -3.332      1.075      4.547
REMARK INTER + INTRA:          -3.655
REMARK INTER:                  -3.623
REMARK INTRA:                  -0.032
REMARK UNBOUND:                -0.031
REMARK SMILES O=C([O-])c1ccc(O)cc1
REMARK SMILES IDX 7 1 6 2 9 3 5 4 10 5 4 6 8 7 2 9 1 10 3 11
REMARK H PARENT 8 8
REMARK Flexibility Score: inf
ROOT
ATOM      1  C   UNL     1     -95.145 147.783 242.002  1.00  0.00     0.115 A 
ATOM      2  C   UNL     1     -94.752 148.075 240.693  1.00  0.00     0.047 A 
ATOM      3  C   UNL     1     -94.541 146.721 242.688  1.00  0.00     0.047 A 
ATOM      4  C   UNL     1     -93.759 147.313 240.068  1.00  0.00     0.014 A 
ATOM      5  C   UNL     1     -93.547 145.958 242.067  1.00  0.00     0.014 A 
ATOM      6  C   UNL     1     -93.146 146.245 240.750  1.00  0.00    -0.003 A 
ENDROOT
BRANCH   1   7
ATOM      7  O   UNL     1     -96.135 148.550 242.611  1.00  0.00    -0.508 OA
ATOM      8  H   UNL     1     -95.904 149.306 243.244  1.00  0.00     0.293 HD
ENDBRANCH   1   7
BRANCH   6   9
ATOM      9  C   UNL     1     -92.095 145.435 240.095  1.00  0.00     0.071 C 
ATOM     10  O   UNL     1     -92.195 145.119 238.880  1.00  0.00    -0.545 OA
ATOM     11  O   UNL     1     -90.983 145.013 240.812  1.00  0.00    -0.545 OA
ENDBRANCH   6   9
TORSDOF 2
ENDMDL
MODEL 8
REMARK VINA RESULT:    -3.260      1.614      4.419
REMARK INTER + INTRA:          -3.577
REMARK INTER:                  -3.541
REMARK INTRA:                  -0.036
REMARK UNBOUND:                -0.031
REMARK SMILES O=C([O-])c1ccc(O)cc1
REMARK SMILES IDX 7 1 6 2 9 3 5 4 10 5 4 6 8 7 2 9 1 10 3 11
REMARK H PARENT 8 8
REMARK Flexibility Score: inf
ROOT
ATOM      1  C   UNL     1     -96.971 147.874 243.652  1.00  0.00     0.115 A 
ATOM      2  C   UNL     1     -96.622 146.522 243.718  1.00  0.00     0.047 A 
ATOM      3  C   UNL     1     -96.172 148.763 242.921  1.00  0.00     0.047 A 
ATOM      4  C   UNL     1     -95.481 146.056 243.058  1.00  0.00     0.014 A 
ATOM      5  C   UNL     1     -95.031 148.300 242.258  1.00  0.00     0.014 A 
ATOM      6  C   UNL     1     -94.673 146.941 242.320  1.00  0.00    -0.003 A 
ENDROOT
BRANCH   1   7
ATOM      7  O   UNL     1     -98.111 148.325 244.315  1.00  0.00    -0.508 OA
ATOM      8  H   UNL     1     -98.395 149.296 244.277  1.00  0.00     0.293 HD
ENDBRANCH   1   7
BRANCH   6   9
ATOM      9  C   UNL     1     -93.465 146.454 241.619  1.00  0.00     0.071 C 
ATOM     10  O   UNL     1     -92.873 147.185 240.781  1.00  0.00    -0.545 OA
ATOM     11  O   UNL     1     -92.965 145.183 241.877  1.00  0.00    -0.545 OA
ENDBRANCH   6   9
TORSDOF 2
ENDMDL
MODEL 9
REMARK VINA RESULT:    -3.117     14.357     15.552
REMARK INTER + INTRA:          -3.422
REMARK INTER:                  -3.395
REMARK INTRA:                  -0.027
REMARK UNBOUND:                -0.031
REMARK SMILES O=C([O-])c1ccc(O)cc1
REMARK SMILES IDX 7 1 6 2 9 3 5 4 10 5 4 6 8 7 2 9 1 10 3 11
REMARK H PARENT 8 8
REMARK Flexibility Score: inf
ROOT
ATOM      1  C   UNL     1     -91.536 158.462 235.599  1.00  0.00     0.115 A 
ATOM      2  C   UNL     1     -90.311 159.038 235.944  1.00  0.00     0.047 A 
ATOM      3  C   UNL     1     -92.695 159.249 235.586  1.00  0.00     0.047 A 
ATOM      4  C   UNL     1     -90.238 160.395 236.275  1.00  0.00     0.014 A 
ATOM      5  C   UNL     1     -92.626 160.607 235.915  1.00  0.00     0.014 A 
ATOM      6  C   UNL     1     -91.396 161.194 236.264  1.00  0.00    -0.003 A 
ENDROOT
BRANCH   1   7
ATOM      7  O   UNL     1     -91.594 157.109 235.271  1.00  0.00    -0.508 OA
ATOM      8  H   UNL     1     -91.638 156.799 234.308  1.00  0.00     0.293 HD
ENDBRANCH   1   7
BRANCH   6   9
ATOM      9  C   UNL     1     -91.327 162.630 236.613  1.00  0.00     0.071 C 
ATOM     10  O   UNL     1     -91.315 163.509 235.710  1.00  0.00    -0.545 OA
ATOM     11  O   UNL     1     -91.274 163.030 237.943  1.00  0.00    -0.545 OA
ENDBRANCH   6   9
TORSDOF 2
ENDMDL
