MODEL 1
REMARK VINA RESULT:    -4.560      0.000      0.000
REMARK INTER + INTRA:          -9.440
REMARK INTER:                  -8.026
REMARK INTRA:                  -1.414
REMARK UNBOUND:                -1.414
REMARK SMILES CCCCCCCCCCCCCCC(=O)[O-]
REMARK SMILES IDX 9 1 10 2 11 3 12 4 13 5 14 6 15 7 16 8 17 9 8 10 7 11 6 12
REMARK SMILES IDX 5 13 4 14 3 15 2 16 1 17
REMARK H PARENT
REMARK Flexibility Score: inf
ROOT
ATOM      1  C   UNL     1       0.979  50.727  21.670  1.00  0.00     0.000 C 
ENDROOT
BRANCH   1   2
ATOM      2  C   UNL     1       1.936  49.524  21.615  1.00  0.00     0.000 C 
BRANCH   2   3
ATOM      3  C   UNL     1       1.201  48.176  21.675  1.00  0.00     0.000 C 
BRANCH   3   4
ATOM      4  C   UNL     1       0.244  48.126  22.874  1.00  0.00     0.000 C 
BRANCH   4   5
ATOM      5  C   UNL     1      -0.453  46.763  23.035  1.00  0.00     0.006 C 
BRANCH   5   6
ATOM      6  C   UNL     1      -0.547  46.277  24.493  1.00  0.00     0.053 C 
BRANCH   6   7
ATOM      7  C   UNL     1      -1.960  46.073  24.946  1.00  0.00     0.041 C 
ATOM      8  O   UNL     1      -2.663  45.156  24.444  1.00  0.00    -0.550 OA
ATOM      9  O   UNL     1      -2.493  46.875  25.948  1.00  0.00    -0.550 OA
ENDBRANCH   6   7
ENDBRANCH   5   6
ENDBRANCH   4   5
ENDBRANCH   3   4
ENDBRANCH   2   3
ENDBRANCH   1   2
BRANCH   1  10
ATOM     10  C   UNL     1       1.706  52.047  21.981  1.00  0.00     0.000 C 
BRANCH  10  11
ATOM     11  C   UNL     1       2.800  51.880  23.048  1.00  0.00    -0.000 C 
BRANCH  11  12
ATOM     12  C   UNL     1       2.469  52.615  24.359  1.00  0.00    -0.000 C 
BRANCH  12  13
ATOM     13  C   UNL     1       2.091  51.652  25.495  1.00  0.00    -0.000 C 
BRANCH  13  14
ATOM     14  C   UNL     1       2.398  50.184  25.150  1.00  0.00    -0.000 C 
BRANCH  14  15
ATOM     15  C   UNL     1       1.717  49.197  26.111  1.00  0.00    -0.000 C 
BRANCH  15  16
ATOM     16  C   UNL     1       2.724  48.311  26.858  1.00  0.00    -0.003 C 
ATOM     17  C   UNL     1       3.556  49.133  27.838  1.00  0.00     0.004 C 
ENDBRANCH  15  16
ENDBRANCH  14  15
ENDBRANCH  13  14
ENDBRANCH  12  13
ENDBRANCH  11  12
ENDBRANCH  10  11
ENDBRANCH   1  10
TORSDOF 13
ENDMDL
MODEL 2
REMARK VINA RESULT:    -4.399      2.312      5.182
REMARK INTER + INTRA:          -9.156
REMARK INTER:                  -7.872
REMARK INTRA:                  -1.284
REMARK UNBOUND:                -1.414
REMARK SMILES CCCCCCCCCCCCCCC(=O)[O-]
REMARK SMILES IDX 9 1 10 2 11 3 12 4 13 5 14 6 15 7 16 8 17 9 8 10 7 11 6 12
REMARK SMILES IDX 5 13 4 14 3 15 2 16 1 17
REMARK H PARENT
REMARK Flexibility Score: inf
ROOT
ATOM      1  C   UNL     1       1.514  51.639  22.137  1.00  0.00     0.000 C 
ENDROOT
BRANCH   1   2
ATOM      2  C   UNL     1       2.602  51.700  23.222  1.00  0.00     0.000 C 
BRANCH   2   3
ATOM      3  C   UNL     1       2.091  52.289  24.545  1.00  0.00     0.000 C 
BRANCH   3   4
ATOM      4  C   UNL     1       1.643  51.177  25.503  1.00  0.00     0.000 C 
BRANCH   4   5
ATOM      5  C   UNL     1       2.476  49.889  25.367  1.00  0.00     0.006 C 
BRANCH   5   6
ATOM      6  C   UNL     1       2.041  48.759  26.318  1.00  0.00     0.053 C 
BRANCH   6   7
ATOM      7  C   UNL     1       2.642  48.889  27.684  1.00  0.00     0.041 C 
ATOM      8  O   UNL     1       3.889  49.004  27.823  1.00  0.00    -0.550 OA
ATOM      9  O   UNL     1       1.822  48.916  28.805  1.00  0.00    -0.550 OA
ENDBRANCH   6   7
ENDBRANCH   5   6
ENDBRANCH   4   5
ENDBRANCH   3   4
ENDBRANCH   2   3
ENDBRANCH   1   2
BRANCH   1  10
ATOM     10  C   UNL     1       1.722  50.473  21.155  1.00  0.00     0.000 C 
BRANCH  10  11
ATOM     11  C   UNL     1       2.081  49.160  21.868  1.00  0.00    -0.000 C 
BRANCH  11  12
ATOM     12  C   UNL     1       0.959  48.109  21.779  1.00  0.00    -0.000 C 
BRANCH  12  13
ATOM     13  C   UNL     1       0.109  48.047  23.057  1.00  0.00    -0.000 C 
BRANCH  13  14
ATOM     14  C   UNL     1      -0.549  46.671  23.262  1.00  0.00    -0.000 C 
BRANCH  14  15
ATOM     15  C   UNL     1      -1.557  46.664  24.422  1.00  0.00    -0.000 C 
BRANCH  15  16
ATOM     16  C   UNL     1      -2.504  45.457  24.373  1.00  0.00    -0.003 C 
ATOM     17  C   UNL     1      -3.916  45.851  24.795  1.00  0.00     0.004 C 
ENDBRANCH  15  16
ENDBRANCH  14  15
ENDBRANCH  13  14
ENDBRANCH  12  13
ENDBRANCH  11  12
ENDBRANCH  10  11
ENDBRANCH   1  10
TORSDOF 13
ENDMDL
MODEL 3
REMARK VINA RESULT:    -4.395      1.311      1.989
REMARK INTER + INTRA:          -9.150
REMARK INTER:                  -7.492
REMARK INTRA:                  -1.658
REMARK UNBOUND:                -1.414
REMARK SMILES CCCCCCCCCCCCCCC(=O)[O-]
REMARK SMILES IDX 9 1 10 2 11 3 12 4 13 5 14 6 15 7 16 8 17 9 8 10 7 11 6 12
REMARK SMILES IDX 5 13 4 14 3 15 2 16 1 17
REMARK H PARENT
REMARK Flexibility Score: inf
ROOT
ATOM      1  C   UNL     1       0.324  51.934  22.095  1.00  0.00     0.000 C 
ENDROOT
BRANCH   1   2
ATOM      2  C   UNL     1       1.783  51.516  21.851  1.00  0.00     0.000 C 
BRANCH   2   3
ATOM      3  C   UNL     1       1.902  50.171  21.117  1.00  0.00     0.000 C 
BRANCH   3   4
ATOM      4  C   UNL     1       1.961  49.006  22.115  1.00  0.00     0.000 C 
BRANCH   4   5
ATOM      5  C   UNL     1       0.799  48.010  21.952  1.00  0.00     0.006 C 
BRANCH   5   6
ATOM      6  C   UNL     1      -0.186  48.000  23.135  1.00  0.00     0.053 C 
BRANCH   6   7
ATOM      7  C   UNL     1      -0.487  46.617  23.627  1.00  0.00     0.041 C 
ATOM      8  O   UNL     1      -1.074  45.789  22.881  1.00  0.00    -0.550 OA
ATOM      9  O   UNL     1      -0.089  46.230  24.901  1.00  0.00    -0.550 OA
ENDBRANCH   6   7
ENDBRANCH   5   6
ENDBRANCH   4   5
ENDBRANCH   3   4
ENDBRANCH   2   3
ENDBRANCH   1   2
BRANCH   1  10
ATOM     10  C   UNL     1       0.117  52.585  23.474  1.00  0.00     0.000 C 
BRANCH  10  11
ATOM     11  C   UNL     1       1.258  52.263  24.453  1.00  0.00    -0.000 C 
BRANCH  11  12
ATOM     12  C   UNL     1       0.759  51.596  25.747  1.00  0.00    -0.000 C 
BRANCH  12  13
ATOM     13  C   UNL     1       1.052  50.088  25.783  1.00  0.00    -0.000 C 
BRANCH  13  14
ATOM     14  C   UNL     1       2.553  49.775  25.655  1.00  0.00    -0.000 C 
BRANCH  14  15
ATOM     15  C   UNL     1       2.997  48.623  26.571  1.00  0.00    -0.000 C 
BRANCH  15  16
ATOM     16  C   UNL     1       3.925  49.092  27.700  1.00  0.00    -0.003 C 
ATOM     17  C   UNL     1       3.123  49.588  28.900  1.00  0.00     0.004 C 
ENDBRANCH  15  16
ENDBRANCH  14  15
ENDBRANCH  13  14
ENDBRANCH  12  13
ENDBRANCH  11  12
ENDBRANCH  10  11
ENDBRANCH   1  10
TORSDOF 13
ENDMDL
MODEL 4
REMARK VINA RESULT:    -4.395      0.859      1.436
REMARK INTER + INTRA:          -9.149
REMARK INTER:                  -7.655
REMARK INTRA:                  -1.495
REMARK UNBOUND:                -1.414
REMARK SMILES CCCCCCCCCCCCCCC(=O)[O-]
REMARK SMILES IDX 9 1 10 2 11 3 12 4 13 5 14 6 15 7 16 8 17 9 8 10 7 11 6 12
REMARK SMILES IDX 5 13 4 14 3 15 2 16 1 17
REMARK H PARENT
REMARK Flexibility Score: inf
ROOT
ATOM      1  C   UNL     1       1.010  51.352  21.787  1.00  0.00     0.000 C 
ENDROOT
BRANCH   1   2
ATOM      2  C   UNL     1       1.921  50.307  21.122  1.00  0.00     0.000 C 
BRANCH   2   3
ATOM      3  C   UNL     1       2.071  49.028  21.960  1.00  0.00     0.000 C 
BRANCH   3   4
ATOM      4  C   UNL     1       0.886  48.080  21.730  1.00  0.00     0.000 C 
BRANCH   4   5
ATOM      5  C   UNL     1       0.039  47.854  22.995  1.00  0.00     0.006 C 
BRANCH   5   6
ATOM      6  C   UNL     1      -0.593  46.453  23.083  1.00  0.00     0.053 C 
BRANCH   6   7
ATOM      7  C   UNL     1      -1.408  46.262  24.326  1.00  0.00     0.041 C 
ATOM      8  O   UNL     1      -1.143  46.918  25.368  1.00  0.00    -0.550 OA
ATOM      9  O   UNL     1      -2.483  45.382  24.324  1.00  0.00    -0.550 OA
ENDBRANCH   6   7
ENDBRANCH   5   6
ENDBRANCH   4   5
ENDBRANCH   3   4
ENDBRANCH   2   3
ENDBRANCH   1   2
BRANCH   1  10
ATOM     10  C   UNL     1       1.404  52.795  21.428  1.00  0.00     0.000 C 
BRANCH  10  11
ATOM     11  C   UNL     1       1.929  53.581  22.640  1.00  0.00    -0.000 C 
BRANCH  11  12
ATOM     12  C   UNL     1       3.031  52.826  23.405  1.00  0.00    -0.000 C 
BRANCH  12  13
ATOM     13  C   UNL     1       2.592  52.419  24.820  1.00  0.00    -0.000 C 
BRANCH  13  14
ATOM     14  C   UNL     1       2.633  50.895  25.035  1.00  0.00    -0.000 C 
BRANCH  14  15
ATOM     15  C   UNL     1       1.255  50.310  25.381  1.00  0.00    -0.000 C 
BRANCH  15  16
ATOM     16  C   UNL     1       1.330  49.223  26.462  1.00  0.00    -0.003 C 
ATOM     17  C   UNL     1       2.753  48.689  26.606  1.00  0.00     0.004 C 
ENDBRANCH  15  16
ENDBRANCH  14  15
ENDBRANCH  13  14
ENDBRANCH  12  13
ENDBRANCH  11  12
ENDBRANCH  10  11
ENDBRANCH   1  10
TORSDOF 13
ENDMDL
MODEL 5
REMARK VINA RESULT:    -4.395      1.912      3.577
REMARK INTER + INTRA:          -9.149
REMARK INTER:                  -8.021
REMARK INTRA:                  -1.128
REMARK UNBOUND:                -1.414
REMARK SMILES CCCCCCCCCCCCCCC(=O)[O-]
REMARK SMILES IDX 9 1 10 2 11 3 12 4 13 5 14 6 15 7 16 8 17 9 8 10 7 11 6 12
REMARK SMILES IDX 5 13 4 14 3 15 2 16 1 17
REMARK H PARENT
REMARK Flexibility Score: inf
ROOT
ATOM      1  C   UNL     1       0.213  48.080  22.948  1.00  0.00     0.000 C 
ENDROOT
BRANCH   1   2
ATOM      2  C   UNL     1      -0.504  46.728  23.101  1.00  0.00     0.000 C 
BRANCH   2   3
ATOM      3  C   UNL     1      -0.970  46.461  24.541  1.00  0.00     0.000 C 
BRANCH   3   4
ATOM      4  C   UNL     1      -2.499  46.541  24.647  1.00  0.00     0.000 C 
BRANCH   4   5
ATOM      5  C   UNL     1      -3.185  45.167  24.535  1.00  0.00     0.006 C 
BRANCH   5   6
ATOM      6  C   UNL     1      -4.722  45.230  24.578  1.00  0.00     0.053 C 
BRANCH   6   7
ATOM      7  C   UNL     1      -5.369  44.065  23.891  1.00  0.00     0.041 C 
ATOM      8  O   UNL     1      -5.083  42.887  24.231  1.00  0.00    -0.550 OA
ATOM      9  O   UNL     1      -6.314  44.282  22.896  1.00  0.00    -0.550 OA
ENDBRANCH   6   7
ENDBRANCH   5   6
ENDBRANCH   4   5
ENDBRANCH   3   4
ENDBRANCH   2   3
ENDBRANCH   1   2
BRANCH   1  10
ATOM     10  C   UNL     1       1.073  48.152  21.673  1.00  0.00     0.000 C 
BRANCH  10  11
ATOM     11  C   UNL     1       2.134  49.261  21.742  1.00  0.00    -0.000 C 
BRANCH  11  12
ATOM     12  C   UNL     1       1.536  50.668  21.561  1.00  0.00    -0.000 C 
BRANCH  12  13
ATOM     13  C   UNL     1       2.177  51.704  22.497  1.00  0.00    -0.000 C 
BRANCH  13  14
ATOM     14  C   UNL     1       1.215  52.174  23.603  1.00  0.00    -0.000 C 
BRANCH  14  15
ATOM     15  C   UNL     1       1.080  51.153  24.743  1.00  0.00    -0.000 C 
BRANCH  15  16
ATOM     16  C   UNL     1       2.440  50.688  25.283  1.00  0.00    -0.003 C 
ATOM     17  C   UNL     1       2.377  49.237  25.750  1.00  0.00     0.004 C 
ENDBRANCH  15  16
ENDBRANCH  14  15
ENDBRANCH  13  14
ENDBRANCH  12  13
ENDBRANCH  11  12
ENDBRANCH  10  11
ENDBRANCH   1  10
TORSDOF 13
ENDMDL
MODEL 6
REMARK VINA RESULT:    -4.328      2.874      4.931
REMARK INTER + INTRA:          -9.031
REMARK INTER:                  -7.189
REMARK INTRA:                  -1.842
REMARK UNBOUND:                -1.414
REMARK SMILES CCCCCCCCCCCCCCC(=O)[O-]
REMARK SMILES IDX 9 1 10 2 11 3 12 4 13 5 14 6 15 7 16 8 17 9 8 10 7 11 6 12
REMARK SMILES IDX 5 13 4 14 3 15 2 16 1 17
REMARK H PARENT
REMARK Flexibility Score: inf
ROOT
ATOM      1  C   UNL     1       1.855  52.506  22.938  1.00  0.00     0.000 C 
ENDROOT
BRANCH   1   2
ATOM      2  C   UNL     1       1.042  52.676  24.233  1.00  0.00     0.000 C 
BRANCH   2   3
ATOM      3  C   UNL     1       0.919  51.370  25.033  1.00  0.00     0.000 C 
BRANCH   3   4
ATOM      4  C   UNL     1       2.290  50.910  25.546  1.00  0.00     0.000 C 
BRANCH   4   5
ATOM      5  C   UNL     1       2.412  49.380  25.658  1.00  0.00     0.006 C 
BRANCH   5   6
ATOM      6  C   UNL     1       2.226  48.840  27.087  1.00  0.00     0.053 C 
BRANCH   6   7
ATOM      7  C   UNL     1       3.416  49.096  27.962  1.00  0.00     0.041 C 
ATOM      8  O   UNL     1       4.582  48.962  27.506  1.00  0.00    -0.550 OA
ATOM      9  O   UNL     1       3.236  49.516  29.274  1.00  0.00    -0.550 OA
ENDBRANCH   6   7
ENDBRANCH   5   6
ENDBRANCH   4   5
ENDBRANCH   3   4
ENDBRANCH   2   3
ENDBRANCH   1   2
BRANCH   1  10
ATOM     10  C   UNL     1       1.057  51.804  21.826  1.00  0.00     0.000 C 
BRANCH  10  11
ATOM     11  C   UNL     1       1.848  50.667  21.161  1.00  0.00    -0.000 C 
BRANCH  11  12
ATOM     12  C   UNL     1       1.995  49.434  22.071  1.00  0.00    -0.000 C 
BRANCH  12  13
ATOM     13  C   UNL     1       1.382  48.169  21.451  1.00  0.00    -0.000 C 
BRANCH  13  14
ATOM     14  C   UNL     1       0.306  47.534  22.350  1.00  0.00    -0.000 C 
BRANCH  14  15
ATOM     15  C   UNL     1      -0.275  48.527  23.368  1.00  0.00    -0.000 C 
BRANCH  15  16
ATOM     16  C   UNL     1      -0.997  47.828  24.528  1.00  0.00    -0.003 C 
ATOM     17  C   UNL     1      -0.314  46.512  24.886  1.00  0.00     0.004 C 
ENDBRANCH  15  16
ENDBRANCH  14  15
ENDBRANCH  13  14
ENDBRANCH  12  13
ENDBRANCH  11  12
ENDBRANCH  10  11
ENDBRANCH   1  10
TORSDOF 13
ENDMDL
MODEL 7
REMARK VINA RESULT:    -4.293     16.560     18.187
REMARK INTER + INTRA:          -8.970
REMARK INTER:                  -7.537
REMARK INTRA:                  -1.434
REMARK UNBOUND:                -1.414
REMARK SMILES CCCCCCCCCCCCCCC(=O)[O-]
REMARK SMILES IDX 9 1 10 2 11 3 12 4 13 5 14 6 15 7 16 8 17 9 8 10 7 11 6 12
REMARK SMILES IDX 5 13 4 14 3 15 2 16 1 17
REMARK H PARENT
REMARK Flexibility Score: inf
ROOT
ATOM      1  C   UNL     1      -9.164  49.497  41.125  1.00  0.00     0.000 C 
ENDROOT
BRANCH   1   2
ATOM      2  C   UNL     1      -8.110  49.283  40.026  1.00  0.00     0.000 C 
BRANCH   2   3
ATOM      3  C   UNL     1      -8.692  48.633  38.761  1.00  0.00     0.000 C 
BRANCH   3   4
ATOM      4  C   UNL     1      -7.781  47.505  38.257  1.00  0.00     0.000 C 
BRANCH   4   5
ATOM      5  C   UNL     1      -7.188  46.653  39.393  1.00  0.00     0.006 C 
BRANCH   5   6
ATOM      6  C   UNL     1      -6.174  45.596  38.919  1.00  0.00     0.053 C 
BRANCH   6   7
ATOM      7  C   UNL     1      -6.484  44.223  39.433  1.00  0.00     0.041 C 
ATOM      8  O   UNL     1      -6.486  43.236  38.650  1.00  0.00    -0.550 OA
ATOM      9  O   UNL     1      -6.741  44.028  40.785  1.00  0.00    -0.550 OA
ENDBRANCH   6   7
ENDBRANCH   5   6
ENDBRANCH   4   5
ENDBRANCH   3   4
ENDBRANCH   2   3
ENDBRANCH   1   2
BRANCH   1  10
ATOM     10  C   UNL     1      -9.864  50.864  41.016  1.00  0.00     0.000 C 
BRANCH  10  11
ATOM     11  C   UNL     1      -8.901  51.986  40.597  1.00  0.00    -0.000 C 
BRANCH  11  12
ATOM     12  C   UNL     1      -9.635  53.255  40.130  1.00  0.00    -0.000 C 
BRANCH  12  13
ATOM     13  C   UNL     1      -9.544  53.463  38.611  1.00  0.00    -0.000 C 
BRANCH  13  14
ATOM     14  C   UNL     1      -8.455  52.591  37.960  1.00  0.00    -0.000 C 
BRANCH  14  15
ATOM     15  C   UNL     1      -9.017  51.651  36.882  1.00  0.00    -0.000 C 
BRANCH  15  16
ATOM     16  C   UNL     1     -10.494  51.302  37.115  1.00  0.00    -0.003 C 
ATOM     17  C   UNL     1     -11.335  51.627  35.884  1.00  0.00     0.004 C 
ENDBRANCH  15  16
ENDBRANCH  14  15
ENDBRANCH  13  14
ENDBRANCH  12  13
ENDBRANCH  11  12
ENDBRANCH  10  11
ENDBRANCH   1  10
TORSDOF 13
ENDMDL
MODEL 8
REMARK VINA RESULT:    -4.286      3.631      5.591
REMARK INTER + INTRA:          -8.958
REMARK INTER:                  -7.489
REMARK INTRA:                  -1.469
REMARK UNBOUND:                -1.414
REMARK SMILES CCCCCCCCCCCCCCC(=O)[O-]
REMARK SMILES IDX 9 1 10 2 11 3 12 4 13 5 14 6 15 7 16 8 17 9 8 10 7 11 6 12
REMARK SMILES IDX 5 13 4 14 3 15 2 16 1 17
REMARK H PARENT
REMARK Flexibility Score: inf
ROOT
ATOM      1  C   UNL     1       1.062  48.092  21.707  1.00  0.00     0.000 C 
ENDROOT
BRANCH   1   2
ATOM      2  C   UNL     1       1.964  49.266  22.126  1.00  0.00     0.000 C 
BRANCH   2   3
ATOM      3  C   UNL     1       1.808  50.492  21.213  1.00  0.00     0.000 C 
BRANCH   3   4
ATOM      4  C   UNL     1       1.061  51.622  21.935  1.00  0.00     0.000 C 
BRANCH   4   5
ATOM      5  C   UNL     1       1.325  53.009  21.323  1.00  0.00     0.006 C 
BRANCH   5   6
ATOM      6  C   UNL     1       1.605  54.109  22.362  1.00  0.00     0.053 C 
BRANCH   6   7
ATOM      7  C   UNL     1       3.023  54.099  22.848  1.00  0.00     0.041 C 
ATOM      8  O   UNL     1       3.911  54.749  22.235  1.00  0.00    -0.550 OA
ATOM      9  O   UNL     1       3.359  53.397  23.999  1.00  0.00    -0.550 OA
ENDBRANCH   6   7
ENDBRANCH   5   6
ENDBRANCH   4   5
ENDBRANCH   3   4
ENDBRANCH   2   3
ENDBRANCH   1   2
BRANCH   1  10
ATOM     10  C   UNL     1       0.170  47.591  22.856  1.00  0.00     0.000 C 
BRANCH  10  11
ATOM     11  C   UNL     1      -0.638  48.723  23.510  1.00  0.00    -0.000 C 
BRANCH  11  12
ATOM     12  C   UNL     1      -0.263  48.946  24.986  1.00  0.00    -0.000 C 
BRANCH  12  13
ATOM     13  C   UNL     1       0.200  50.384  25.265  1.00  0.00    -0.000 C 
BRANCH  13  14
ATOM     14  C   UNL     1       1.456  50.438  26.153  1.00  0.00    -0.000 C 
BRANCH  14  15
ATOM     15  C   UNL     1       2.533  49.433  25.715  1.00  0.00    -0.000 C 
BRANCH  15  16
ATOM     16  C   UNL     1       2.916  48.455  26.834  1.00  0.00    -0.003 C 
ATOM     17  C   UNL     1       3.845  49.116  27.847  1.00  0.00     0.004 C 
ENDBRANCH  15  16
ENDBRANCH  14  15
ENDBRANCH  13  14
ENDBRANCH  12  13
ENDBRANCH  11  12
ENDBRANCH  10  11
ENDBRANCH   1  10
TORSDOF 13
ENDMDL
MODEL 9
REMARK VINA RESULT:    -4.228      2.272      5.417
REMARK INTER + INTRA:          -8.855
REMARK INTER:                  -7.548
REMARK INTRA:                  -1.307
REMARK UNBOUND:                -1.414
REMARK SMILES CCCCCCCCCCCCCCC(=O)[O-]
REMARK SMILES IDX 9 1 10 2 11 3 12 4 13 5 14 6 15 7 16 8 17 9 8 10 7 11 6 12
REMARK SMILES IDX 5 13 4 14 3 15 2 16 1 17
REMARK H PARENT
REMARK Flexibility Score: inf
ROOT
ATOM      1  C   UNL     1       2.108  49.113  21.780  1.00  0.00     0.000 C 
ENDROOT
BRANCH   1   2
ATOM      2  C   UNL     1       1.543  50.525  21.552  1.00  0.00     0.000 C 
BRANCH   2   3
ATOM      3  C   UNL     1       1.991  51.526  22.628  1.00  0.00     0.000 C 
BRANCH   3   4
ATOM      4  C   UNL     1       1.168  51.355  23.912  1.00  0.00     0.000 C 
BRANCH   4   5
ATOM      5  C   UNL     1       2.035  51.094  25.157  1.00  0.00     0.006 C 
BRANCH   5   6
ATOM      6  C   UNL     1       2.465  49.625  25.322  1.00  0.00     0.053 C 
BRANCH   6   7
ATOM      7  C   UNL     1       2.507  49.192  26.757  1.00  0.00     0.041 C 
ATOM      8  O   UNL     1       1.467  49.236  27.465  1.00  0.00    -0.550 OA
ATOM      9  O   UNL     1       3.690  48.710  27.303  1.00  0.00    -0.550 OA
ENDBRANCH   6   7
ENDBRANCH   5   6
ENDBRANCH   4   5
ENDBRANCH   3   4
ENDBRANCH   2   3
ENDBRANCH   1   2
BRANCH   1  10
ATOM     10  C   UNL     1       1.042  48.016  21.615  1.00  0.00     0.000 C 
BRANCH  10  11
ATOM     11  C   UNL     1       0.040  47.989  22.780  1.00  0.00    -0.000 C 
BRANCH  11  12
ATOM     12  C   UNL     1      -0.453  46.569  23.108  1.00  0.00    -0.000 C 
BRANCH  12  13
ATOM     13  C   UNL     1      -0.458  46.280  24.616  1.00  0.00    -0.000 C 
BRANCH  13  14
ATOM     14  C   UNL     1      -1.193  47.366  25.422  1.00  0.00    -0.000 C 
BRANCH  14  15
ATOM     15  C   UNL     1      -2.586  46.914  25.889  1.00  0.00    -0.000 C 
BRANCH  15  16
ATOM     16  C   UNL     1      -3.627  46.952  24.761  1.00  0.00    -0.003 C 
ATOM     17  C   UNL     1      -4.384  45.631  24.669  1.00  0.00     0.004 C 
ENDBRANCH  15  16
ENDBRANCH  14  15
ENDBRANCH  13  14
ENDBRANCH  12  13
ENDBRANCH  11  12
ENDBRANCH  10  11
ENDBRANCH   1  10
TORSDOF 13
ENDMDL
