MODEL 1
REMARK VINA RESULT:    -4.796      0.000      0.000
REMARK INTER + INTRA:          -7.396
REMARK INTER:                  -6.759
REMARK INTRA:                  -0.637
REMARK UNBOUND:                -0.637
REMARK SMILES C=CCCCCCCC(=O)[O-]
REMARK SMILES IDX 6 1 7 2 8 3 9 4 10 5 11 6 5 7 4 8 3 9 2 10 1 11
REMARK H PARENT
REMARK Flexibility Score: inf
ROOT
ATOM      1  C   UNL     1       9.815 -13.255  38.129  1.00  0.00     0.000 C 
ENDROOT
BRANCH   1   2
ATOM      2  C   UNL     1      10.241 -14.717  37.923  1.00  0.00     0.006 C 
BRANCH   2   3
ATOM      3  C   UNL     1      10.987 -14.935  36.599  1.00  0.00     0.053 C 
BRANCH   3   4
ATOM      4  C   UNL     1      12.205 -14.068  36.539  1.00  0.00     0.041 C 
ATOM      5  O   UNL     1      13.156 -14.254  37.343  1.00  0.00    -0.550 OA
ATOM      6  O   UNL     1      12.311 -13.087  35.562  1.00  0.00    -0.550 OA
ENDBRANCH   3   4
ENDBRANCH   2   3
ENDBRANCH   1   2
BRANCH   1   7
ATOM      7  C   UNL     1       8.333 -13.122  38.520  1.00  0.00     0.000 C 
BRANCH   7   8
ATOM      8  C   UNL     1       7.389 -13.729  37.469  1.00  0.00     0.004 C 
BRANCH   8   9
ATOM      9  C   UNL     1       7.176 -12.806  36.260  1.00  0.00     0.027 C 
BRANCH   9  10
ATOM     10  C   UNL     1       7.796 -13.386  35.018  1.00  0.00    -0.035 C 
ATOM     11  C   UNL     1       8.253 -12.610  34.031  1.00  0.00     0.004 C 
ENDBRANCH   9  10
ENDBRANCH   8   9
ENDBRANCH   7   8
ENDBRANCH   1   7
TORSDOF 7
ENDMDL
MODEL 2
REMARK VINA RESULT:    -4.749      3.181      5.060
REMARK INTER + INTRA:          -7.330
REMARK INTER:                  -6.606
REMARK INTRA:                  -0.724
REMARK UNBOUND:                -0.637
REMARK SMILES C=CCCCCCCC(=O)[O-]
REMARK SMILES IDX 6 1 7 2 8 3 9 4 10 5 11 6 5 7 4 8 3 9 2 10 1 11
REMARK H PARENT
REMARK Flexibility Score: inf
ROOT
ATOM      1  C   UNL     1      12.539 -11.995  35.396  1.00  0.00     0.000 C 
ENDROOT
BRANCH   1   2
ATOM      2  C   UNL     1      13.166 -13.357  35.729  1.00  0.00     0.006 C 
BRANCH   2   3
ATOM      3  C   UNL     1      12.824 -13.835  37.147  1.00  0.00     0.053 C 
BRANCH   3   4
ATOM      4  C   UNL     1      11.398 -14.285  37.216  1.00  0.00     0.041 C 
ATOM      5  O   UNL     1      11.042 -15.354  36.654  1.00  0.00    -0.550 OA
ATOM      6  O   UNL     1      10.472 -13.548  37.943  1.00  0.00    -0.550 OA
ENDBRANCH   3   4
ENDBRANCH   2   3
ENDBRANCH   1   2
BRANCH   1   7
ATOM      7  C   UNL     1      13.571 -10.853  35.403  1.00  0.00     0.000 C 
BRANCH   7   8
ATOM      8  C   UNL     1      13.589 -10.084  36.734  1.00  0.00     0.004 C 
BRANCH   8   9
ATOM      9  C   UNL     1      12.182  -9.860  37.309  1.00  0.00     0.027 C 
BRANCH   9  10
ATOM     10  C   UNL     1      12.063 -10.441  38.692  1.00  0.00    -0.035 C 
ATOM     11  C   UNL     1      13.077 -10.404  39.561  1.00  0.00     0.004 C 
ENDBRANCH   9  10
ENDBRANCH   8   9
ENDBRANCH   7   8
ENDBRANCH   1   7
TORSDOF 7
ENDMDL
MODEL 3
REMARK VINA RESULT:    -4.657      2.740      4.598
REMARK INTER + INTRA:          -7.201
REMARK INTER:                  -6.535
REMARK INTRA:                  -0.666
REMARK UNBOUND:                -0.637
REMARK SMILES C=CCCCCCCC(=O)[O-]
REMARK SMILES IDX 6 1 7 2 8 3 9 4 10 5 11 6 5 7 4 8 3 9 2 10 1 11
REMARK H PARENT
REMARK Flexibility Score: inf
ROOT
ATOM      1  C   UNL     1      11.761 -14.032  36.210  1.00  0.00     0.000 C 
ENDROOT
BRANCH   1   2
ATOM      2  C   UNL     1      10.726 -15.031  36.751  1.00  0.00     0.006 C 
BRANCH   2   3
ATOM      3  C   UNL     1      10.187 -14.635  38.133  1.00  0.00     0.053 C 
BRANCH   3   4
ATOM      4  C   UNL     1       9.237 -13.484  38.012  1.00  0.00     0.041 C 
ATOM      5  O   UNL     1       9.571 -12.342  38.421  1.00  0.00    -0.550 OA
ATOM      6  O   UNL     1       8.003 -13.665  37.402  1.00  0.00    -0.550 OA
ENDBRANCH   3   4
ENDBRANCH   2   3
ENDBRANCH   1   2
BRANCH   1   7
ATOM      7  C   UNL     1      12.890 -13.749  37.216  1.00  0.00     0.000 C 
BRANCH   7   8
ATOM      8  C   UNL     1      13.037 -12.252  37.532  1.00  0.00     0.004 C 
BRANCH   8   9
ATOM      9  C   UNL     1      12.532 -11.353  36.392  1.00  0.00     0.027 C 
BRANCH   9  10
ATOM     10  C   UNL     1      13.678 -10.714  35.657  1.00  0.00    -0.035 C 
ATOM     11  C   UNL     1      14.292 -11.327  34.641  1.00  0.00     0.004 C 
ENDBRANCH   9  10
ENDBRANCH   8   9
ENDBRANCH   7   8
ENDBRANCH   1   7
TORSDOF 7
ENDMDL
MODEL 4
REMARK VINA RESULT:    -4.627      2.176      4.222
REMARK INTER + INTRA:          -7.157
REMARK INTER:                  -6.636
REMARK INTRA:                  -0.522
REMARK UNBOUND:                -0.637
REMARK SMILES C=CCCCCCCC(=O)[O-]
REMARK SMILES IDX 6 1 7 2 8 3 9 4 10 5 11 6 5 7 4 8 3 9 2 10 1 11
REMARK H PARENT
REMARK Flexibility Score: inf
ROOT
ATOM      1  C   UNL     1       7.727 -13.825  37.965  1.00  0.00     0.000 C 
ENDROOT
BRANCH   1   2
ATOM      2  C   UNL     1       7.186 -13.502  36.563  1.00  0.00     0.006 C 
BRANCH   2   3
ATOM      3  C   UNL     1       7.954 -12.362  35.881  1.00  0.00     0.053 C 
BRANCH   3   4
ATOM      4  C   UNL     1       8.217 -12.696  34.446  1.00  0.00     0.041 C 
ATOM      5  O   UNL     1       7.529 -13.574  33.863  1.00  0.00    -0.550 OA
ATOM      6  O   UNL     1       9.189 -12.001  33.738  1.00  0.00    -0.550 OA
ENDBRANCH   3   4
ENDBRANCH   2   3
ENDBRANCH   1   2
BRANCH   1   7
ATOM      7  C   UNL     1       9.237 -13.553  38.091  1.00  0.00     0.000 C 
BRANCH   7   8
ATOM      8  C   UNL     1      10.070 -14.845  38.092  1.00  0.00     0.004 C 
BRANCH   8   9
ATOM      9  C   UNL     1      10.728 -15.126  36.732  1.00  0.00     0.027 C 
BRANCH   9  10
ATOM     10  C   UNL     1      11.846 -14.157  36.460  1.00  0.00    -0.035 C 
ATOM     11  C   UNL     1      12.931 -14.097  37.239  1.00  0.00     0.004 C 
ENDBRANCH   9  10
ENDBRANCH   8   9
ENDBRANCH   7   8
ENDBRANCH   1   7
TORSDOF 7
ENDMDL
MODEL 5
REMARK VINA RESULT:    -4.572      1.833      3.051
REMARK INTER + INTRA:          -7.081
REMARK INTER:                  -6.245
REMARK INTRA:                  -0.836
REMARK UNBOUND:                -0.637
REMARK SMILES C=CCCCCCCC(=O)[O-]
REMARK SMILES IDX 6 1 7 2 8 3 9 4 10 5 11 6 5 7 4 8 3 9 2 10 1 11
REMARK H PARENT
REMARK Flexibility Score: inf
ROOT
ATOM      1  C   UNL     1      12.561 -14.381  37.286  1.00  0.00     0.000 C 
ENDROOT
BRANCH   1   2
ATOM      2  C   UNL     1      12.700 -12.884  36.967  1.00  0.00     0.006 C 
BRANCH   2   3
ATOM      3  C   UNL     1      12.304 -12.547  35.523  1.00  0.00     0.053 C 
BRANCH   3   4
ATOM      4  C   UNL     1      11.460 -11.312  35.489  1.00  0.00     0.041 C 
ATOM      5  O   UNL     1      11.370 -10.635  34.431  1.00  0.00    -0.550 OA
ATOM      6  O   UNL     1      10.734 -10.936  36.611  1.00  0.00    -0.550 OA
ENDBRANCH   3   4
ENDBRANCH   2   3
ENDBRANCH   1   2
BRANCH   1   7
ATOM      7  C   UNL     1      11.202 -14.953  36.849  1.00  0.00     0.000 C 
BRANCH   7   8
ATOM      8  C   UNL     1      10.092 -14.688  37.878  1.00  0.00     0.004 C 
BRANCH   8   9
ATOM      9  C   UNL     1       8.952 -13.826  37.313  1.00  0.00     0.027 C 
BRANCH   9  10
ATOM     10  C   UNL     1       8.849 -13.975  35.819  1.00  0.00    -0.035 C 
ATOM     11  C   UNL     1       8.035 -13.207  35.090  1.00  0.00     0.004 C 
ENDBRANCH   9  10
ENDBRANCH   8   9
ENDBRANCH   7   8
ENDBRANCH   1   7
TORSDOF 7
ENDMDL
MODEL 6
REMARK VINA RESULT:    -4.566      2.987      4.933
REMARK INTER + INTRA:          -7.072
REMARK INTER:                  -6.492
REMARK INTRA:                  -0.580
REMARK UNBOUND:                -0.637
REMARK SMILES C=CCCCCCCC(=O)[O-]
REMARK SMILES IDX 6 1 7 2 8 3 9 4 10 5 11 6 5 7 4 8 3 9 2 10 1 11
REMARK H PARENT
REMARK Flexibility Score: inf
ROOT
ATOM      1  C   UNL     1      11.350 -14.992  36.952  1.00  0.00     0.000 C 
ENDROOT
BRANCH   1   2
ATOM      2  C   UNL     1      10.233 -14.463  37.866  1.00  0.00     0.006 C 
BRANCH   2   3
ATOM      3  C   UNL     1       9.345 -13.420  37.173  1.00  0.00     0.053 C 
BRANCH   3   4
ATOM      4  C   UNL     1       7.910 -13.629  37.542  1.00  0.00     0.041 C 
ATOM      5  O   UNL     1       7.603 -14.015  38.701  1.00  0.00    -0.550 OA
ATOM      6  O   UNL     1       6.908 -13.349  36.622  1.00  0.00    -0.550 OA
ENDBRANCH   3   4
ENDBRANCH   2   3
ENDBRANCH   1   2
BRANCH   1   7
ATOM      7  C   UNL     1      12.658 -14.193  37.097  1.00  0.00     0.000 C 
BRANCH   7   8
ATOM      8  C   UNL     1      12.919 -13.269  35.897  1.00  0.00     0.004 C 
BRANCH   8   9
ATOM      9  C   UNL     1      12.976 -11.785  36.293  1.00  0.00     0.027 C 
BRANCH   9  10
ATOM     10  C   UNL     1      12.941 -11.621  37.788  1.00  0.00    -0.035 C 
ATOM     11  C   UNL     1      12.955 -10.416  38.364  1.00  0.00     0.004 C 
ENDBRANCH   9  10
ENDBRANCH   8   9
ENDBRANCH   7   8
ENDBRANCH   1   7
TORSDOF 7
ENDMDL
MODEL 7
REMARK VINA RESULT:    -4.540      1.633      2.411
REMARK INTER + INTRA:          -7.035
REMARK INTER:                  -6.385
REMARK INTRA:                  -0.650
REMARK UNBOUND:                -0.637
REMARK SMILES C=CCCCCCCC(=O)[O-]
REMARK SMILES IDX 6 1 7 2 8 3 9 4 10 5 11 6 5 7 4 8 3 9 2 10 1 11
REMARK H PARENT
REMARK Flexibility Score: inf
ROOT
ATOM      1  C   UNL     1      10.975 -14.864  36.849  1.00  0.00     0.000 C 
ENDROOT
BRANCH   1   2
ATOM      2  C   UNL     1      11.545 -13.538  36.320  1.00  0.00     0.006 C 
BRANCH   2   3
ATOM      3  C   UNL     1      12.860 -13.143  37.006  1.00  0.00     0.053 C 
BRANCH   3   4
ATOM      4  C   UNL     1      12.851 -11.687  37.352  1.00  0.00     0.041 C 
ATOM      5  O   UNL     1      12.089 -11.255  38.256  1.00  0.00    -0.550 OA
ATOM      6  O   UNL     1      13.720 -10.815  36.709  1.00  0.00    -0.550 OA
ENDBRANCH   3   4
ENDBRANCH   2   3
ENDBRANCH   1   2
BRANCH   1   7
ATOM      7  C   UNL     1      10.180 -14.685  38.154  1.00  0.00     0.000 C 
BRANCH   7   8
ATOM      8  C   UNL     1       9.271 -13.446  38.125  1.00  0.00     0.004 C 
BRANCH   8   9
ATOM      9  C   UNL     1       7.799 -13.796  37.862  1.00  0.00     0.027 C 
BRANCH   9  10
ATOM     10  C   UNL     1       7.296 -13.123  36.613  1.00  0.00    -0.035 C 
ATOM     11  C   UNL     1       7.780 -13.428  35.406  1.00  0.00     0.004 C 
ENDBRANCH   9  10
ENDBRANCH   8   9
ENDBRANCH   7   8
ENDBRANCH   1   7
TORSDOF 7
ENDMDL
MODEL 8
REMARK VINA RESULT:    -4.485      1.350      2.792
REMARK INTER + INTRA:          -6.957
REMARK INTER:                  -6.196
REMARK INTRA:                  -0.761
REMARK UNBOUND:                -0.637
REMARK SMILES C=CCCCCCCC(=O)[O-]
REMARK SMILES IDX 6 1 7 2 8 3 9 4 10 5 11 6 5 7 4 8 3 9 2 10 1 11
REMARK H PARENT
REMARK Flexibility Score: inf
ROOT
ATOM      1  C   UNL     1       9.948 -11.649  35.383  1.00  0.00     0.000 C 
ENDROOT
BRANCH   1   2
ATOM      2  C   UNL     1      11.270 -12.421  35.525  1.00  0.00     0.006 C 
BRANCH   2   3
ATOM      3  C   UNL     1      11.550 -12.853  36.971  1.00  0.00     0.053 C 
BRANCH   3   4
ATOM      4  C   UNL     1      11.972 -14.288  37.014  1.00  0.00     0.041 C 
ATOM      5  O   UNL     1      13.129 -14.597  37.404  1.00  0.00    -0.550 OA
ATOM      6  O   UNL     1      11.071 -15.287  36.671  1.00  0.00    -0.550 OA
ENDBRANCH   3   4
ENDBRANCH   2   3
ENDBRANCH   1   2
BRANCH   1   7
ATOM      7  C   UNL     1       8.928 -12.384  34.496  1.00  0.00     0.000 C 
BRANCH   7   8
ATOM      8  C   UNL     1       8.325 -13.617  35.189  1.00  0.00     0.004 C 
BRANCH   8   9
ATOM      9  C   UNL     1       7.276 -13.247  36.250  1.00  0.00     0.027 C 
BRANCH   9  10
ATOM     10  C   UNL     1       7.580 -13.909  37.566  1.00  0.00    -0.035 C 
ATOM     11  C   UNL     1       8.326 -13.311  38.499  1.00  0.00     0.004 C 
ENDBRANCH   9  10
ENDBRANCH   8   9
ENDBRANCH   7   8
ENDBRANCH   1   7
TORSDOF 7
ENDMDL
MODEL 9
REMARK VINA RESULT:    -4.467      3.090      5.125
REMARK INTER + INTRA:          -6.933
REMARK INTER:                  -6.249
REMARK INTRA:                  -0.683
REMARK UNBOUND:                -0.637
REMARK SMILES C=CCCCCCCC(=O)[O-]
REMARK SMILES IDX 6 1 7 2 8 3 9 4 10 5 11 6 5 7 4 8 3 9 2 10 1 11
REMARK H PARENT
REMARK Flexibility Score: inf
ROOT
ATOM      1  C   UNL     1      12.426 -13.711  36.800  1.00  0.00     0.000 C 
ENDROOT
BRANCH   1   2
ATOM      2  C   UNL     1      10.900 -13.677  36.619  1.00  0.00     0.006 C 
BRANCH   2   3
ATOM      3  C   UNL     1      10.172 -13.100  37.841  1.00  0.00     0.053 C 
BRANCH   3   4
ATOM      4  C   UNL     1       9.196 -14.096  38.385  1.00  0.00     0.041 C 
ATOM      5  O   UNL     1       7.975 -13.803  38.475  1.00  0.00    -0.550 OA
ATOM      6  O   UNL     1       9.629 -15.365  38.748  1.00  0.00    -0.550 OA
ENDBRANCH   3   4
ENDBRANCH   2   3
ENDBRANCH   1   2
BRANCH   1   7
ATOM      7  C   UNL     1      13.173 -13.042  35.633  1.00  0.00     0.000 C 
BRANCH   7   8
ATOM      8  C   UNL     1      12.884 -11.536  35.534  1.00  0.00     0.004 C 
BRANCH   8   9
ATOM      9  C   UNL     1      13.643 -10.716  36.589  1.00  0.00     0.027 C 
BRANCH   9  10
ATOM     10  C   UNL     1      12.706 -10.181  37.637  1.00  0.00    -0.035 C 
ATOM     11  C   UNL     1      12.868 -10.459  38.934  1.00  0.00     0.004 C 
ENDBRANCH   9  10
ENDBRANCH   8   9
ENDBRANCH   7   8
ENDBRANCH   1   7
TORSDOF 7
ENDMDL
