MODEL 1
REMARK VINA RESULT:    -5.706      0.000      0.000
REMARK INTER + INTRA:         -12.342
REMARK INTER:                 -10.376
REMARK INTRA:                  -1.966
REMARK UNBOUND:                -1.966
REMARK SMILES CCCCCCCCCCCCCCCC(=O)[O-]
REMARK SMILES IDX 9 1 10 2 11 3 12 4 13 5 14 6 15 7 16 8 17 9 18 10 8 11 7 12
REMARK SMILES IDX 6 13 5 14 4 15 3 16 2 17 1 18
REMARK H PARENT
REMARK Flexibility Score: inf
ROOT
ATOM      1  C   UNL     1     -13.236  -9.448  10.317  1.00  0.00     0.000 C 
ENDROOT
BRANCH   1   2
ATOM      2  C   UNL     1     -11.938  -8.794  10.818  1.00  0.00     0.000 C 
BRANCH   2   3
ATOM      3  C   UNL     1     -11.040  -8.310   9.667  1.00  0.00     0.000 C 
BRANCH   3   4
ATOM      4  C   UNL     1     -11.600  -8.685   8.286  1.00  0.00     0.000 C 
BRANCH   4   5
ATOM      5  C   UNL     1     -10.883  -9.897   7.667  1.00  0.00     0.000 C 
BRANCH   5   6
ATOM      6  C   UNL     1      -9.572 -10.255   8.391  1.00  0.00     0.006 C 
BRANCH   6   7
ATOM      7  C   UNL     1      -8.492 -10.848   7.469  1.00  0.00     0.053 C 
BRANCH   7   8
ATOM      8  C   UNL     1      -7.414  -9.861   7.137  1.00  0.00     0.041 C 
ATOM      9  O   UNL     1      -6.243 -10.259   6.902  1.00  0.00    -0.550 OA
ATOM     10  O   UNL     1      -7.709  -8.505   7.052  1.00  0.00    -0.550 OA
ENDBRANCH   7   8
ENDBRANCH   6   7
ENDBRANCH   5   6
ENDBRANCH   4   5
ENDBRANCH   3   4
ENDBRANCH   2   3
ENDBRANCH   1   2
BRANCH   1  11
ATOM     11  C   UNL     1     -13.471 -10.838  10.933  1.00  0.00     0.000 C 
BRANCH  11  12
ATOM     12  C   UNL     1     -12.179 -11.468  11.476  1.00  0.00    -0.000 C 
BRANCH  12  13
ATOM     13  C   UNL     1     -11.491 -12.382  10.447  1.00  0.00    -0.000 C 
BRANCH  13  14
ATOM     14  C   UNL     1     -12.495 -13.096   9.528  1.00  0.00    -0.000 C 
BRANCH  14  15
ATOM     15  C   UNL     1     -11.808 -13.897   8.409  1.00  0.00    -0.000 C 
BRANCH  15  16
ATOM     16  C   UNL     1     -10.364 -14.297   8.779  1.00  0.00    -0.000 C 
BRANCH  16  17
ATOM     17  C   UNL     1     -10.229 -15.761   9.230  1.00  0.00    -0.003 C 
ATOM     18  C   UNL     1     -11.481 -16.591   8.954  1.00  0.00     0.004 C 
ENDBRANCH  16  17
ENDBRANCH  15  16
ENDBRANCH  14  15
ENDBRANCH  13  14
ENDBRANCH  12  13
ENDBRANCH  11  12
ENDBRANCH   1  11
TORSDOF 14
ENDMDL
MODEL 2
REMARK VINA RESULT:    -5.664      2.610      5.127
REMARK INTER + INTRA:         -12.265
REMARK INTER:                 -10.123
REMARK INTRA:                  -2.142
REMARK UNBOUND:                -1.966
REMARK SMILES CCCCCCCCCCCCCCCC(=O)[O-]
REMARK SMILES IDX 9 1 10 2 11 3 12 4 13 5 14 6 15 7 16 8 17 9 18 10 8 11 7 12
REMARK SMILES IDX 6 13 5 14 4 15 3 16 2 17 1 18
REMARK H PARENT
REMARK Flexibility Score: inf
ROOT
ATOM      1  C   UNL     1     -13.334  -9.086  10.299  1.00  0.00     0.000 C 
ENDROOT
BRANCH   1   2
ATOM      2  C   UNL     1     -13.626 -10.528  10.745  1.00  0.00     0.000 C 
BRANCH   2   3
ATOM      3  C   UNL     1     -12.389 -11.223  11.338  1.00  0.00     0.000 C 
BRANCH   3   4
ATOM      4  C   UNL     1     -12.001 -12.495  10.566  1.00  0.00     0.000 C 
BRANCH   4   5
ATOM      5  C   UNL     1     -13.117 -12.975   9.623  1.00  0.00     0.000 C 
BRANCH   5   6
ATOM      6  C   UNL     1     -12.613 -13.940   8.535  1.00  0.00     0.006 C 
BRANCH   6   7
ATOM      7  C   UNL     1     -11.090 -14.156   8.550  1.00  0.00     0.053 C 
BRANCH   7   8
ATOM      8  C   UNL     1     -10.714 -15.591   8.756  1.00  0.00     0.041 C 
ATOM      9  O   UNL     1     -11.609 -16.471   8.865  1.00  0.00    -0.550 OA
ATOM     10  O   UNL     1      -9.376 -15.966   8.794  1.00  0.00    -0.550 OA
ENDBRANCH   7   8
ENDBRANCH   6   7
ENDBRANCH   5   6
ENDBRANCH   4   5
ENDBRANCH   3   4
ENDBRANCH   2   3
ENDBRANCH   1   2
BRANCH   1  11
ATOM     11  C   UNL     1     -11.919  -8.624  10.688  1.00  0.00     0.000 C 
BRANCH  11  12
ATOM     12  C   UNL     1     -10.995  -8.469   9.470  1.00  0.00    -0.000 C 
BRANCH  12  13
ATOM     13  C   UNL     1     -11.649  -8.964   8.168  1.00  0.00    -0.000 C 
BRANCH  13  14
ATOM     14  C   UNL     1     -11.101 -10.325   7.713  1.00  0.00    -0.000 C 
BRANCH  14  15
ATOM     15  C   UNL     1      -9.780 -10.695   8.408  1.00  0.00    -0.000 C 
BRANCH  15  16
ATOM     16  C   UNL     1      -8.749 -11.287   7.424  1.00  0.00    -0.000 C 
BRANCH  16  17
ATOM     17  C   UNL     1      -7.589 -10.330   7.100  1.00  0.00    -0.003 C 
ATOM     18  C   UNL     1      -7.901  -8.875   7.442  1.00  0.00     0.004 C 
ENDBRANCH  16  17
ENDBRANCH  15  16
ENDBRANCH  14  15
ENDBRANCH  13  14
ENDBRANCH  12  13
ENDBRANCH  11  12
ENDBRANCH   1  11
TORSDOF 14
ENDMDL
MODEL 3
REMARK VINA RESULT:    -5.465      2.689      5.378
REMARK INTER + INTRA:         -11.903
REMARK INTER:                  -9.850
REMARK INTRA:                  -2.054
REMARK UNBOUND:                -1.966
REMARK SMILES CCCCCCCCCCCCCCCC(=O)[O-]
REMARK SMILES IDX 9 1 10 2 11 3 12 4 13 5 14 6 15 7 16 8 17 9 18 10 8 11 7 12
REMARK SMILES IDX 6 13 5 14 4 15 3 16 2 17 1 18
REMARK H PARENT
REMARK Flexibility Score: inf
ROOT
ATOM      1  C   UNL     1      -9.116  -9.281   8.571  1.00  0.00     0.000 C 
ENDROOT
BRANCH   1   2
ATOM      2  C   UNL     1      -8.367  -9.976   7.423  1.00  0.00     0.000 C 
BRANCH   2   3
ATOM      3  C   UNL     1      -8.654 -11.486   7.362  1.00  0.00     0.000 C 
BRANCH   3   4
ATOM      4  C   UNL     1      -9.710 -11.927   8.389  1.00  0.00     0.000 C 
BRANCH   4   5
ATOM      5  C   UNL     1     -11.036 -12.343   7.730  1.00  0.00     0.000 C 
BRANCH   5   6
ATOM      6  C   UNL     1     -11.464 -13.777   8.090  1.00  0.00     0.006 C 
BRANCH   6   7
ATOM      7  C   UNL     1     -10.742 -14.353   9.320  1.00  0.00     0.053 C 
BRANCH   7   8
ATOM      8  C   UNL     1     -10.177 -15.718   9.069  1.00  0.00     0.041 C 
ATOM      9  O   UNL     1     -10.834 -16.744   9.389  1.00  0.00    -0.550 OA
ATOM     10  O   UNL     1      -8.941 -15.861   8.449  1.00  0.00    -0.550 OA
ENDBRANCH   7   8
ENDBRANCH   6   7
ENDBRANCH   5   6
ENDBRANCH   4   5
ENDBRANCH   3   4
ENDBRANCH   2   3
ENDBRANCH   1   2
BRANCH   1  11
ATOM     11  C   UNL     1     -10.015  -8.132   8.080  1.00  0.00     0.000 C 
BRANCH  11  12
ATOM     12  C   UNL     1     -11.448  -8.595   7.776  1.00  0.00    -0.000 C 
BRANCH  12  13
ATOM     13  C   UNL     1     -12.508  -7.609   8.296  1.00  0.00    -0.000 C 
BRANCH  13  14
ATOM     14  C   UNL     1     -12.650  -7.646   9.826  1.00  0.00    -0.000 C 
BRANCH  14  15
ATOM     15  C   UNL     1     -12.992  -9.050  10.355  1.00  0.00    -0.000 C 
BRANCH  15  16
ATOM     16  C   UNL     1     -11.886  -9.613  11.272  1.00  0.00    -0.000 C 
BRANCH  16  17
ATOM     17  C   UNL     1     -11.829 -11.150  11.294  1.00  0.00    -0.003 C 
ATOM     18  C   UNL     1     -13.109 -11.803  10.777  1.00  0.00     0.004 C 
ENDBRANCH  16  17
ENDBRANCH  15  16
ENDBRANCH  14  15
ENDBRANCH  13  14
ENDBRANCH  12  13
ENDBRANCH  11  12
ENDBRANCH   1  11
TORSDOF 14
ENDMDL
MODEL 4
REMARK VINA RESULT:    -5.465      3.233      5.562
REMARK INTER + INTRA:         -11.903
REMARK INTER:                 -10.444
REMARK INTRA:                  -1.459
REMARK UNBOUND:                -1.966
REMARK SMILES CCCCCCCCCCCCCCCC(=O)[O-]
REMARK SMILES IDX 9 1 10 2 11 3 12 4 13 5 14 6 15 7 16 8 17 9 18 10 8 11 7 12
REMARK SMILES IDX 6 13 5 14 4 15 3 16 2 17 1 18
REMARK H PARENT
REMARK Flexibility Score: inf
ROOT
ATOM      1  C   UNL     1     -12.154 -10.909  11.655  1.00  0.00     0.000 C 
ENDROOT
BRANCH   1   2
ATOM      2  C   UNL     1     -13.329 -11.378  10.781  1.00  0.00     0.000 C 
BRANCH   2   3
ATOM      3  C   UNL     1     -13.133 -12.808  10.248  1.00  0.00     0.000 C 
BRANCH   3   4
ATOM      4  C   UNL     1     -11.969 -12.909   9.248  1.00  0.00     0.000 C 
BRANCH   4   5
ATOM      5  C   UNL     1     -10.751 -13.643   9.833  1.00  0.00     0.000 C 
BRANCH   5   6
ATOM      6  C   UNL     1     -10.196 -14.731   8.896  1.00  0.00     0.006 C 
BRANCH   6   7
ATOM      7  C   UNL     1     -10.179 -16.139   9.516  1.00  0.00     0.053 C 
BRANCH   7   8
ATOM      8  C   UNL     1     -11.408 -16.929   9.182  1.00  0.00     0.041 C 
ATOM      9  O   UNL     1     -11.518 -18.122   9.570  1.00  0.00    -0.550 OA
ATOM     10  O   UNL     1     -12.447 -16.339   8.471  1.00  0.00    -0.550 OA
ENDBRANCH   7   8
ENDBRANCH   6   7
ENDBRANCH   5   6
ENDBRANCH   4   5
ENDBRANCH   3   4
ENDBRANCH   2   3
ENDBRANCH   1   2
BRANCH   1  11
ATOM     11  C   UNL     1     -11.937  -9.388  11.585  1.00  0.00     0.000 C 
BRANCH  11  12
ATOM     12  C   UNL     1     -12.471  -8.777  10.279  1.00  0.00    -0.000 C 
BRANCH  12  13
ATOM     13  C   UNL     1     -11.527  -9.017   9.088  1.00  0.00    -0.000 C 
BRANCH  13  14
ATOM     14  C   UNL     1     -10.153  -8.356   9.280  1.00  0.00    -0.000 C 
BRANCH  14  15
ATOM     15  C   UNL     1      -8.996  -9.367   9.228  1.00  0.00    -0.000 C 
BRANCH  15  16
ATOM     16  C   UNL     1      -8.458  -9.566   7.794  1.00  0.00    -0.000 C 
BRANCH  16  17
ATOM     17  C   UNL     1      -8.339 -11.043   7.382  1.00  0.00    -0.003 C 
ATOM     18  C   UNL     1      -9.665 -11.645   6.922  1.00  0.00     0.004 C 
ENDBRANCH  16  17
ENDBRANCH  15  16
ENDBRANCH  14  15
ENDBRANCH  13  14
ENDBRANCH  12  13
ENDBRANCH  11  12
ENDBRANCH   1  11
TORSDOF 14
ENDMDL
MODEL 5
REMARK VINA RESULT:    -5.274      2.816      4.346
REMARK INTER + INTRA:         -11.556
REMARK INTER:                 -10.004
REMARK INTRA:                  -1.551
REMARK UNBOUND:                -1.966
REMARK SMILES CCCCCCCCCCCCCCCC(=O)[O-]
REMARK SMILES IDX 9 1 10 2 11 3 12 4 13 5 14 6 15 7 16 8 17 9 18 10 8 11 7 12
REMARK SMILES IDX 6 13 5 14 4 15 3 16 2 17 1 18
REMARK H PARENT
REMARK Flexibility Score: inf
ROOT
ATOM      1  C   UNL     1      -8.195 -10.328   7.494  1.00  0.00     0.000 C 
ENDROOT
BRANCH   1   2
ATOM      2  C   UNL     1      -8.818  -9.387   8.537  1.00  0.00     0.000 C 
BRANCH   2   3
ATOM      3  C   UNL     1      -9.665  -8.274   7.896  1.00  0.00     0.000 C 
BRANCH   3   4
ATOM      4  C   UNL     1     -10.600  -7.590   8.906  1.00  0.00     0.000 C 
BRANCH   4   5
ATOM      5  C   UNL     1     -12.069  -8.007   8.727  1.00  0.00     0.000 C 
BRANCH   5   6
ATOM      6  C   UNL     1     -12.407  -9.338   9.424  1.00  0.00     0.006 C 
BRANCH   6   7
ATOM      7  C   UNL     1     -11.880  -9.439  10.865  1.00  0.00     0.053 C 
BRANCH   7   8
ATOM      8  C   UNL     1     -12.508 -10.564  11.630  1.00  0.00     0.041 C 
ATOM      9  O   UNL     1     -13.212 -11.420  11.032  1.00  0.00    -0.550 OA
ATOM     10  O   UNL     1     -12.289 -10.689  12.997  1.00  0.00    -0.550 OA
ENDBRANCH   7   8
ENDBRANCH   6   7
ENDBRANCH   5   6
ENDBRANCH   4   5
ENDBRANCH   3   4
ENDBRANCH   2   3
ENDBRANCH   1   2
BRANCH   1  11
ATOM     11  C   UNL     1      -9.146 -11.467   7.084  1.00  0.00     0.000 C 
BRANCH  11  12
ATOM     12  C   UNL     1      -9.845 -12.113   8.292  1.00  0.00    -0.000 C 
BRANCH  12  13
ATOM     13  C   UNL     1     -11.200 -12.741   7.920  1.00  0.00    -0.000 C 
BRANCH  13  14
ATOM     14  C   UNL     1     -11.679 -13.767   8.958  1.00  0.00    -0.000 C 
BRANCH  14  15
ATOM     15  C   UNL     1     -10.563 -14.198   9.925  1.00  0.00    -0.000 C 
BRANCH  15  16
ATOM     16  C   UNL     1     -10.061 -15.629   9.637  1.00  0.00    -0.000 C 
BRANCH  16  17
ATOM     17  C   UNL     1     -11.006 -16.441   8.734  1.00  0.00    -0.003 C 
ATOM     18  C   UNL     1     -11.618 -17.648   9.441  1.00  0.00     0.004 C 
ENDBRANCH  16  17
ENDBRANCH  15  16
ENDBRANCH  14  15
ENDBRANCH  13  14
ENDBRANCH  12  13
ENDBRANCH  11  12
ENDBRANCH   1  11
TORSDOF 14
ENDMDL
MODEL 6
REMARK VINA RESULT:    -5.267      1.621      2.037
REMARK INTER + INTRA:         -11.543
REMARK INTER:                 -10.520
REMARK INTRA:                  -1.024
REMARK UNBOUND:                -1.966
REMARK SMILES CCCCCCCCCCCCCCCC(=O)[O-]
REMARK SMILES IDX 9 1 10 2 11 3 12 4 13 5 14 6 15 7 16 8 17 9 18 10 8 11 7 12
REMARK SMILES IDX 6 13 5 14 4 15 3 16 2 17 1 18
REMARK H PARENT
REMARK Flexibility Score: inf
ROOT
ATOM      1  C   UNL     1     -11.946  -9.535  11.532  1.00  0.00     0.000 C 
ENDROOT
BRANCH   1   2
ATOM      2  C   UNL     1     -12.712  -9.033  10.298  1.00  0.00     0.000 C 
BRANCH   2   3
ATOM      3  C   UNL     1     -12.361  -7.579   9.937  1.00  0.00     0.000 C 
BRANCH   3   4
ATOM      4  C   UNL     1     -10.845  -7.328   9.912  1.00  0.00     0.000 C 
BRANCH   4   5
ATOM      5  C   UNL     1     -10.151  -8.028   8.730  1.00  0.00     0.000 C 
BRANCH   5   6
ATOM      6  C   UNL     1      -9.272  -9.215   9.165  1.00  0.00     0.006 C 
BRANCH   6   7
ATOM      7  C   UNL     1      -8.799 -10.101   7.999  1.00  0.00     0.053 C 
BRANCH   7   8
ATOM      8  C   UNL     1      -9.892 -10.971   7.458  1.00  0.00     0.041 C 
ATOM      9  O   UNL     1     -11.088 -10.577   7.487  1.00  0.00    -0.550 OA
ATOM     10  O   UNL     1      -9.589 -12.203   6.890  1.00  0.00    -0.550 OA
ENDBRANCH   7   8
ENDBRANCH   6   7
ENDBRANCH   5   6
ENDBRANCH   4   5
ENDBRANCH   3   4
ENDBRANCH   2   3
ENDBRANCH   1   2
BRANCH   1  11
ATOM     11  C   UNL     1     -12.381 -10.946  11.963  1.00  0.00     0.000 C 
BRANCH  11  12
ATOM     12  C   UNL     1     -13.071 -11.721  10.828  1.00  0.00    -0.000 C 
BRANCH  12  13
ATOM     13  C   UNL     1     -12.125 -12.720  10.139  1.00  0.00    -0.000 C 
BRANCH  13  14
ATOM     14  C   UNL     1     -12.707 -13.276   8.829  1.00  0.00    -0.000 C 
BRANCH  14  15
ATOM     15  C   UNL     1     -11.885 -14.448   8.266  1.00  0.00    -0.000 C 
BRANCH  15  16
ATOM     16  C   UNL     1     -10.712 -14.836   9.192  1.00  0.00    -0.000 C 
BRANCH  16  17
ATOM     17  C   UNL     1     -10.219 -16.279   8.987  1.00  0.00    -0.003 C 
ATOM     18  C   UNL     1     -11.279 -17.326   9.321  1.00  0.00     0.004 C 
ENDBRANCH  16  17
ENDBRANCH  15  16
ENDBRANCH  14  15
ENDBRANCH  13  14
ENDBRANCH  12  13
ENDBRANCH  11  12
ENDBRANCH   1  11
TORSDOF 14
ENDMDL
MODEL 7
REMARK VINA RESULT:    -5.122      2.998      4.553
REMARK INTER + INTRA:         -11.281
REMARK INTER:                  -9.530
REMARK INTRA:                  -1.751
REMARK UNBOUND:                -1.966
REMARK SMILES CCCCCCCCCCCCCCCC(=O)[O-]
REMARK SMILES IDX 9 1 10 2 11 3 12 4 13 5 14 6 15 7 16 8 17 9 18 10 8 11 7 12
REMARK SMILES IDX 6 13 5 14 4 15 3 16 2 17 1 18
REMARK H PARENT
REMARK Flexibility Score: inf
ROOT
ATOM      1  C   UNL     1      -8.787 -10.711   7.369  1.00  0.00     0.000 C 
ENDROOT
BRANCH   1   2
ATOM      2  C   UNL     1      -8.397  -9.364   7.999  1.00  0.00     0.000 C 
BRANCH   2   3
ATOM      3  C   UNL     1      -9.288  -8.207   7.515  1.00  0.00     0.000 C 
BRANCH   3   4
ATOM      4  C   UNL     1     -10.657  -8.186   8.214  1.00  0.00     0.000 C 
BRANCH   4   5
ATOM      5  C   UNL     1     -10.540  -8.310   9.743  1.00  0.00     0.000 C 
BRANCH   5   6
ATOM      6  C   UNL     1     -11.876  -8.075  10.471  1.00  0.00     0.006 C 
BRANCH   6   7
ATOM      7  C   UNL     1     -13.115  -8.411   9.624  1.00  0.00     0.053 C 
BRANCH   7   8
ATOM      8  C   UNL     1     -14.182  -7.365   9.726  1.00  0.00     0.041 C 
ATOM      9  O   UNL     1     -13.901  -6.152   9.533  1.00  0.00    -0.550 OA
ATOM     10  O   UNL     1     -15.496  -7.729  10.001  1.00  0.00    -0.550 OA
ENDBRANCH   7   8
ENDBRANCH   6   7
ENDBRANCH   5   6
ENDBRANCH   4   5
ENDBRANCH   3   4
ENDBRANCH   2   3
ENDBRANCH   1   2
BRANCH   1  11
ATOM     11  C   UNL     1      -9.580 -11.607   8.337  1.00  0.00     0.000 C 
BRANCH  11  12
ATOM     12  C   UNL     1     -11.045 -11.787   7.908  1.00  0.00    -0.000 C 
BRANCH  12  13
ATOM     13  C   UNL     1     -12.012 -11.790   9.104  1.00  0.00    -0.000 C 
BRANCH  13  14
ATOM     14  C   UNL     1     -12.713 -13.145   9.292  1.00  0.00    -0.000 C 
BRANCH  14  15
ATOM     15  C   UNL     1     -12.466 -14.108   8.119  1.00  0.00    -0.000 C 
BRANCH  15  16
ATOM     16  C   UNL     1     -11.826 -15.435   8.579  1.00  0.00    -0.000 C 
BRANCH  16  17
ATOM     17  C   UNL     1     -10.524 -15.246   9.377  1.00  0.00    -0.003 C 
ATOM     18  C   UNL     1      -9.299 -15.821   8.669  1.00  0.00     0.004 C 
ENDBRANCH  16  17
ENDBRANCH  15  16
ENDBRANCH  14  15
ENDBRANCH  13  14
ENDBRANCH  12  13
ENDBRANCH  11  12
ENDBRANCH   1  11
TORSDOF 14
ENDMDL
MODEL 8
REMARK VINA RESULT:    -5.058      2.520      4.283
REMARK INTER + INTRA:         -11.164
REMARK INTER:                  -9.962
REMARK INTRA:                  -1.202
REMARK UNBOUND:                -1.966
REMARK SMILES CCCCCCCCCCCCCCCC(=O)[O-]
REMARK SMILES IDX 9 1 10 2 11 3 12 4 13 5 14 6 15 7 16 8 17 9 18 10 8 11 7 12
REMARK SMILES IDX 6 13 5 14 4 15 3 16 2 17 1 18
REMARK H PARENT
REMARK Flexibility Score: inf
ROOT
ATOM      1  C   UNL     1      -9.266  -9.941   8.969  1.00  0.00     0.000 C 
ENDROOT
BRANCH   1   2
ATOM      2  C   UNL     1     -10.127  -8.715   8.624  1.00  0.00     0.000 C 
BRANCH   2   3
ATOM      3  C   UNL     1     -10.556  -7.925   9.872  1.00  0.00     0.000 C 
BRANCH   3   4
ATOM      4  C   UNL     1     -12.083  -7.857  10.029  1.00  0.00     0.000 C 
BRANCH   4   5
ATOM      5  C   UNL     1     -12.793  -9.086   9.435  1.00  0.00     0.000 C 
BRANCH   5   6
ATOM      6  C   UNL     1     -13.861  -9.677  10.373  1.00  0.00     0.006 C 
BRANCH   6   7
ATOM      7  C   UNL     1     -13.494 -11.057  10.946  1.00  0.00     0.053 C 
BRANCH   7   8
ATOM      8  C   UNL     1     -12.199 -11.041  11.699  1.00  0.00     0.041 C 
ATOM      9  O   UNL     1     -11.197 -11.658  11.249  1.00  0.00    -0.550 OA
ATOM     10  O   UNL     1     -12.085 -10.316  12.880  1.00  0.00    -0.550 OA
ENDBRANCH   7   8
ENDBRANCH   6   7
ENDBRANCH   5   6
ENDBRANCH   4   5
ENDBRANCH   3   4
ENDBRANCH   2   3
ENDBRANCH   1   2
BRANCH   1  11
ATOM     11  C   UNL     1      -8.635 -10.589   7.724  1.00  0.00     0.000 C 
BRANCH  11  12
ATOM     12  C   UNL     1      -9.616 -11.506   6.977  1.00  0.00    -0.000 C 
BRANCH  12  13
ATOM     13  C   UNL     1     -10.621 -12.188   7.923  1.00  0.00    -0.000 C 
BRANCH  13  14
ATOM     14  C   UNL     1     -10.081 -13.500   8.512  1.00  0.00    -0.000 C 
BRANCH  14  15
ATOM     15  C   UNL     1     -11.201 -14.469   8.927  1.00  0.00    -0.000 C 
BRANCH  15  16
ATOM     16  C   UNL     1     -10.689 -15.916   9.093  1.00  0.00    -0.000 C 
BRANCH  16  17
ATOM     17  C   UNL     1     -11.760 -16.983   8.812  1.00  0.00    -0.003 C 
ATOM     18  C   UNL     1     -11.601 -18.233   9.675  1.00  0.00     0.004 C 
ENDBRANCH  16  17
ENDBRANCH  15  16
ENDBRANCH  14  15
ENDBRANCH  13  14
ENDBRANCH  12  13
ENDBRANCH  11  12
ENDBRANCH   1  11
TORSDOF 14
ENDMDL
MODEL 9
REMARK VINA RESULT:    -4.926      3.246      6.703
REMARK INTER + INTRA:         -10.924
REMARK INTER:                  -9.218
REMARK INTRA:                  -1.706
REMARK UNBOUND:                -1.966
REMARK SMILES CCCCCCCCCCCCCCCC(=O)[O-]
REMARK SMILES IDX 9 1 10 2 11 3 12 4 13 5 14 6 15 7 16 8 17 9 18 10 8 11 7 12
REMARK SMILES IDX 6 13 5 14 4 15 3 16 2 17 1 18
REMARK H PARENT
REMARK Flexibility Score: inf
ROOT
ATOM      1  C   UNL     1      -8.925  -9.494   7.843  1.00  0.00     0.000 C 
ENDROOT
BRANCH   1   2
ATOM      2  C   UNL     1      -8.639 -10.950   7.441  1.00  0.00     0.000 C 
BRANCH   2   3
ATOM      3  C   UNL     1      -9.926 -11.775   7.262  1.00  0.00     0.000 C 
BRANCH   3   4
ATOM      4  C   UNL     1     -10.049 -12.905   8.297  1.00  0.00     0.000 C 
BRANCH   4   5
ATOM      5  C   UNL     1     -11.501 -13.374   8.489  1.00  0.00     0.000 C 
BRANCH   5   6
ATOM      6  C   UNL     1     -12.332 -12.419   9.365  1.00  0.00     0.006 C 
BRANCH   6   7
ATOM      7  C   UNL     1     -11.592 -11.917  10.616  1.00  0.00     0.053 C 
BRANCH   7   8
ATOM      8  C   UNL     1     -12.488 -11.164  11.551  1.00  0.00     0.041 C 
ATOM      9  O   UNL     1     -13.657 -10.856  11.197  1.00  0.00    -0.550 OA
ATOM     10  O   UNL     1     -12.047 -10.831  12.827  1.00  0.00    -0.550 OA
ENDBRANCH   7   8
ENDBRANCH   6   7
ENDBRANCH   5   6
ENDBRANCH   4   5
ENDBRANCH   3   4
ENDBRANCH   2   3
ENDBRANCH   1   2
BRANCH   1  11
ATOM     11  C   UNL     1      -9.325  -9.358   9.322  1.00  0.00     0.000 C 
BRANCH  11  12
ATOM     12  C   UNL     1     -10.529  -8.424   9.523  1.00  0.00    -0.000 C 
BRANCH  12  13
ATOM     13  C   UNL     1     -11.715  -8.789   8.613  1.00  0.00    -0.000 C 
BRANCH  13  14
ATOM     14  C   UNL     1     -13.039  -8.172   9.092  1.00  0.00    -0.000 C 
BRANCH  14  15
ATOM     15  C   UNL     1     -12.844  -6.809   9.778  1.00  0.00    -0.000 C 
BRANCH  15  16
ATOM     16  C   UNL     1     -14.171  -6.035   9.924  1.00  0.00    -0.000 C 
BRANCH  16  17
ATOM     17  C   UNL     1     -14.272  -4.810   8.999  1.00  0.00    -0.003 C 
ATOM     18  C   UNL     1     -14.290  -5.179   7.517  1.00  0.00     0.004 C 
ENDBRANCH  16  17
ENDBRANCH  15  16
ENDBRANCH  14  15
ENDBRANCH  13  14
ENDBRANCH  12  13
ENDBRANCH  11  12
ENDBRANCH   1  11
TORSDOF 14
ENDMDL
