MODEL 1
REMARK VINA RESULT:    -5.287      0.000      0.000
REMARK INTER + INTRA:          -9.196
REMARK INTER:                  -8.378
REMARK INTRA:                  -0.818
REMARK UNBOUND:                -0.818
REMARK SMILES CCCCCCCCCCCC(=O)[O-]
REMARK SMILES IDX 7 1 8 2 9 3 10 4 11 5 12 6 13 7 14 8 6 9 5 10 4 11 3 12 2 13
REMARK SMILES IDX 1 14
REMARK H PARENT
REMARK Flexibility Score: inf
ROOT
ATOM      1  C   UNL     1      10.854   3.399  54.514  1.00  0.00     0.000 C 
ENDROOT
BRANCH   1   2
ATOM      2  C   UNL     1       9.546   4.063  54.998  1.00  0.00     0.000 C 
BRANCH   2   3
ATOM      3  C   UNL     1       9.770   5.188  56.022  1.00  0.00     0.000 C 
BRANCH   3   4
ATOM      4  C   UNL     1       9.521   6.588  55.435  1.00  0.00     0.006 C 
BRANCH   4   5
ATOM      5  C   UNL     1      10.824   7.291  55.036  1.00  0.00     0.053 C 
BRANCH   5   6
ATOM      6  C   UNL     1      11.052   7.236  53.557  1.00  0.00     0.041 C 
ATOM      7  O   UNL     1      12.185   6.930  53.100  1.00  0.00    -0.550 OA
ATOM      8  O   UNL     1      10.003   7.490  52.682  1.00  0.00    -0.550 OA
ENDBRANCH   5   6
ENDBRANCH   4   5
ENDBRANCH   3   4
ENDBRANCH   2   3
ENDBRANCH   1   2
BRANCH   1   9
ATOM      9  C   UNL     1      12.020   3.636  55.490  1.00  0.00     0.000 C 
BRANCH   9  10
ATOM     10  C   UNL     1      13.275   4.190  54.798  1.00  0.00    -0.000 C 
BRANCH  10  11
ATOM     11  C   UNL     1      14.523   4.122  55.694  1.00  0.00    -0.000 C 
BRANCH  11  12
ATOM     12  C   UNL     1      14.867   2.685  56.132  1.00  0.00    -0.000 C 
BRANCH  12  13
ATOM     13  C   UNL     1      16.187   2.131  55.569  1.00  0.00    -0.003 C 
ATOM     14  C   UNL     1      16.442   0.677  55.961  1.00  0.00     0.004 C 
ENDBRANCH  12  13
ENDBRANCH  11  12
ENDBRANCH  10  11
ENDBRANCH   9  10
ENDBRANCH   1   9
TORSDOF 10
ENDMDL
MODEL 2
REMARK VINA RESULT:    -5.056      3.237      6.553
REMARK INTER + INTRA:          -8.829
REMARK INTER:                  -7.653
REMARK INTRA:                  -1.176
REMARK UNBOUND:                -0.818
REMARK SMILES CCCCCCCCCCCC(=O)[O-]
REMARK SMILES IDX 7 1 8 2 9 3 10 4 11 5 12 6 13 7 14 8 6 9 5 10 4 11 3 12 2 13
REMARK SMILES IDX 1 14
REMARK H PARENT
REMARK Flexibility Score: inf
ROOT
ATOM      1  C   UNL     1      11.114   7.320  55.045  1.00  0.00     0.000 C 
ENDROOT
BRANCH   1   2
ATOM      2  C   UNL     1      11.689   7.602  53.640  1.00  0.00     0.000 C 
BRANCH   2   3
ATOM      3  C   UNL     1      11.784   6.349  52.752  1.00  0.00     0.000 C 
BRANCH   3   4
ATOM      4  C   UNL     1      12.524   5.187  53.435  1.00  0.00     0.006 C 
BRANCH   4   5
ATOM      5  C   UNL     1      11.755   3.865  53.324  1.00  0.00     0.053 C 
BRANCH   5   6
ATOM      6  C   UNL     1      11.077   3.508  54.611  1.00  0.00     0.041 C 
ATOM      7  O   UNL     1      11.760   3.189  55.620  1.00  0.00    -0.550 OA
ATOM      8  O   UNL     1       9.692   3.562  54.706  1.00  0.00    -0.550 OA
ENDBRANCH   5   6
ENDBRANCH   4   5
ENDBRANCH   3   4
ENDBRANCH   2   3
ENDBRANCH   1   2
BRANCH   1   9
ATOM      9  C   UNL     1       9.603   7.032  55.007  1.00  0.00     0.000 C 
BRANCH   9  10
ATOM     10  C   UNL     1       8.752   8.267  55.342  1.00  0.00    -0.000 C 
BRANCH  10  11
ATOM     11  C   UNL     1       7.935   8.765  54.137  1.00  0.00    -0.000 C 
BRANCH  11  12
ATOM     12  C   UNL     1       8.149   7.910  52.874  1.00  0.00    -0.000 C 
BRANCH  12  13
ATOM     13  C   UNL     1       8.197   8.700  51.554  1.00  0.00    -0.003 C 
ATOM     14  C   UNL     1       9.382   8.318  50.670  1.00  0.00     0.004 C 
ENDBRANCH  12  13
ENDBRANCH  11  12
ENDBRANCH  10  11
ENDBRANCH   9  10
ENDBRANCH   1   9
TORSDOF 10
ENDMDL
MODEL 3
REMARK VINA RESULT:    -5.024      1.403      1.892
REMARK INTER + INTRA:          -8.779
REMARK INTER:                  -8.365
REMARK INTRA:                  -0.414
REMARK UNBOUND:                -0.818
REMARK SMILES CCCCCCCCCCCC(=O)[O-]
REMARK SMILES IDX 7 1 8 2 9 3 10 4 11 5 12 6 13 7 14 8 6 9 5 10 4 11 3 12 2 13
REMARK SMILES IDX 1 14
REMARK H PARENT
REMARK Flexibility Score: inf
ROOT
ATOM      1  C   UNL     1      11.500   3.510  55.024  1.00  0.00     0.000 C 
ENDROOT
BRANCH   1   2
ATOM      2  C   UNL     1      10.621   4.266  56.044  1.00  0.00     0.000 C 
BRANCH   2   3
ATOM      3  C   UNL     1       9.554   5.161  55.392  1.00  0.00     0.000 C 
BRANCH   3   4
ATOM      4  C   UNL     1      10.095   6.546  54.998  1.00  0.00     0.006 C 
BRANCH   4   5
ATOM      5  C   UNL     1       9.109   7.671  55.337  1.00  0.00     0.053 C 
BRANCH   5   6
ATOM      6  C   UNL     1       8.344   8.119  54.131  1.00  0.00     0.041 C 
ATOM      7  O   UNL     1       8.532   7.561  53.017  1.00  0.00    -0.550 OA
ATOM      8  O   UNL     1       7.397   9.129  54.243  1.00  0.00    -0.550 OA
ENDBRANCH   5   6
ENDBRANCH   4   5
ENDBRANCH   3   4
ENDBRANCH   2   3
ENDBRANCH   1   2
BRANCH   1   9
ATOM      9  C   UNL     1      12.927   4.083  54.950  1.00  0.00     0.000 C 
BRANCH   9  10
ATOM     10  C   UNL     1      13.895   3.401  55.929  1.00  0.00    -0.000 C 
BRANCH  10  11
ATOM     11  C   UNL     1      15.368   3.720  55.621  1.00  0.00    -0.000 C 
BRANCH  11  12
ATOM     12  C   UNL     1      16.236   2.456  55.475  1.00  0.00    -0.000 C 
BRANCH  12  13
ATOM     13  C   UNL     1      15.805   1.266  56.350  1.00  0.00    -0.003 C 
ATOM     14  C   UNL     1      16.505  -0.039  55.975  1.00  0.00     0.004 C 
ENDBRANCH  12  13
ENDBRANCH  11  12
ENDBRANCH  10  11
ENDBRANCH   9  10
ENDBRANCH   1   9
TORSDOF 10
ENDMDL
MODEL 4
REMARK VINA RESULT:    -5.010      2.806      4.297
REMARK INTER + INTRA:          -8.756
REMARK INTER:                  -7.643
REMARK INTRA:                  -1.113
REMARK UNBOUND:                -0.818
REMARK SMILES CCCCCCCCCCCC(=O)[O-]
REMARK SMILES IDX 7 1 8 2 9 3 10 4 11 5 12 6 13 7 14 8 6 9 5 10 4 11 3 12 2 13
REMARK SMILES IDX 1 14
REMARK H PARENT
REMARK Flexibility Score: inf
ROOT
ATOM      1  C   UNL     1       9.167   6.735  55.475  1.00  0.00     0.000 C 
ENDROOT
BRANCH   1   2
ATOM      2  C   UNL     1       9.975   8.011  55.156  1.00  0.00     0.000 C 
BRANCH   2   3
ATOM      3  C   UNL     1       9.573   8.678  53.830  1.00  0.00     0.000 C 
BRANCH   3   4
ATOM      4  C   UNL     1       8.561   7.846  53.025  1.00  0.00     0.006 C 
BRANCH   4   5
ATOM      5  C   UNL     1       8.109   8.562  51.746  1.00  0.00     0.053 C 
BRANCH   5   6
ATOM      6  C   UNL     1       9.188   8.573  50.708  1.00  0.00     0.041 C 
ATOM      7  O   UNL     1       9.563   9.661  50.194  1.00  0.00    -0.550 OA
ATOM      8  O   UNL     1       9.804   7.386  50.332  1.00  0.00    -0.550 OA
ENDBRANCH   5   6
ENDBRANCH   4   5
ENDBRANCH   3   4
ENDBRANCH   2   3
ENDBRANCH   1   2
BRANCH   1   9
ATOM      9  C   UNL     1      10.077   5.531  55.775  1.00  0.00     0.000 C 
BRANCH   9  10
ATOM     10  C   UNL     1       9.484   4.199  55.290  1.00  0.00    -0.000 C 
BRANCH  10  11
ATOM     11  C   UNL     1      10.512   3.332  54.543  1.00  0.00    -0.000 C 
BRANCH  11  12
ATOM     12  C   UNL     1      11.859   4.048  54.333  1.00  0.00    -0.000 C 
BRANCH  12  13
ATOM     13  C   UNL     1      12.139   4.500  52.889  1.00  0.00    -0.003 C 
ATOM     14  C   UNL     1      12.139   6.018  52.725  1.00  0.00     0.004 C 
ENDBRANCH  12  13
ENDBRANCH  11  12
ENDBRANCH  10  11
ENDBRANCH   9  10
ENDBRANCH   1   9
TORSDOF 10
ENDMDL
MODEL 5
REMARK VINA RESULT:    -4.997      3.010      4.331
REMARK INTER + INTRA:          -8.736
REMARK INTER:                  -7.286
REMARK INTRA:                  -1.450
REMARK UNBOUND:                -0.818
REMARK SMILES CCCCCCCCCCCC(=O)[O-]
REMARK SMILES IDX 7 1 8 2 9 3 10 4 11 5 12 6 13 7 14 8 6 9 5 10 4 11 3 12 2 13
REMARK SMILES IDX 1 14
REMARK H PARENT
REMARK Flexibility Score: inf
ROOT
ATOM      1  C   UNL     1      11.721   6.586  52.997  1.00  0.00     0.000 C 
ENDROOT
BRANCH   1   2
ATOM      2  C   UNL     1      11.625   7.556  54.195  1.00  0.00     0.000 C 
BRANCH   2   3
ATOM      3  C   UNL     1      10.199   8.069  54.458  1.00  0.00     0.000 C 
BRANCH   3   4
ATOM      4  C   UNL     1       9.143   7.373  53.584  1.00  0.00     0.006 C 
BRANCH   4   5
ATOM      5  C   UNL     1       7.956   8.292  53.267  1.00  0.00     0.053 C 
BRANCH   5   6
ATOM      6  C   UNL     1       7.927   8.679  51.820  1.00  0.00     0.041 C 
ATOM      7  O   UNL     1       6.951   9.327  51.357  1.00  0.00    -0.550 OA
ATOM      8  O   UNL     1       8.993   8.354  50.992  1.00  0.00    -0.550 OA
ENDBRANCH   5   6
ENDBRANCH   4   5
ENDBRANCH   3   4
ENDBRANCH   2   3
ENDBRANCH   1   2
BRANCH   1   9
ATOM      9  C   UNL     1      12.512   5.313  53.343  1.00  0.00     0.000 C 
BRANCH   9  10
ATOM     10  C   UNL     1      11.726   4.025  53.052  1.00  0.00    -0.000 C 
BRANCH  10  11
ATOM     11  C   UNL     1      11.202   3.350  54.332  1.00  0.00    -0.000 C 
BRANCH  11  12
ATOM     12  C   UNL     1       9.807   3.855  54.746  1.00  0.00    -0.000 C 
BRANCH  12  13
ATOM     13  C   UNL     1       9.779   4.722  56.017  1.00  0.00    -0.003 C 
ATOM     14  C   UNL     1      11.114   4.742  56.759  1.00  0.00     0.004 C 
ENDBRANCH  12  13
ENDBRANCH  11  12
ENDBRANCH  10  11
ENDBRANCH   9  10
ENDBRANCH   1   9
TORSDOF 10
ENDMDL
MODEL 6
REMARK VINA RESULT:    -4.993      4.089      6.961
REMARK INTER + INTRA:          -8.729
REMARK INTER:                  -8.005
REMARK INTRA:                  -0.724
REMARK UNBOUND:                -0.818
REMARK SMILES CCCCCCCCCCCC(=O)[O-]
REMARK SMILES IDX 7 1 8 2 9 3 10 4 11 5 12 6 13 7 14 8 6 9 5 10 4 11 3 12 2 13
REMARK SMILES IDX 1 14
REMARK H PARENT
REMARK Flexibility Score: inf
ROOT
ATOM      1  C   UNL     1      12.875   4.439  55.927  1.00  0.00     0.000 C 
ENDROOT
BRANCH   1   2
ATOM      2  C   UNL     1      13.910   3.316  56.151  1.00  0.00     0.000 C 
BRANCH   2   3
ATOM      3  C   UNL     1      15.304   3.643  55.588  1.00  0.00     0.000 C 
BRANCH   3   4
ATOM      4  C   UNL     1      16.242   2.425  55.568  1.00  0.00     0.006 C 
BRANCH   4   5
ATOM      5  C   UNL     1      15.659   1.231  56.336  1.00  0.00     0.053 C 
BRANCH   5   6
ATOM      6  C   UNL     1      16.672   0.144  56.521  1.00  0.00     0.041 C 
ATOM      7  O   UNL     1      17.538   0.232  57.432  1.00  0.00    -0.550 OA
ATOM      8  O   UNL     1      16.639  -0.983  55.709  1.00  0.00    -0.550 OA
ENDBRANCH   5   6
ENDBRANCH   4   5
ENDBRANCH   3   4
ENDBRANCH   2   3
ENDBRANCH   1   2
BRANCH   1   9
ATOM      9  C   UNL     1      11.484   3.884  55.574  1.00  0.00     0.000 C 
BRANCH   9  10
ATOM     10  C   UNL     1      11.191   3.923  54.066  1.00  0.00    -0.000 C 
BRANCH  10  11
ATOM     11  C   UNL     1      12.321   4.588  53.262  1.00  0.00    -0.000 C 
BRANCH  11  12
ATOM     12  C   UNL     1      11.883   5.903  52.591  1.00  0.00    -0.000 C 
BRANCH  12  13
ATOM     13  C   UNL     1      11.753   7.107  53.540  1.00  0.00    -0.003 C 
ATOM     14  C   UNL     1      10.302   7.462  53.862  1.00  0.00     0.004 C 
ENDBRANCH  12  13
ENDBRANCH  11  12
ENDBRANCH  10  11
ENDBRANCH   9  10
ENDBRANCH   1   9
TORSDOF 10
ENDMDL
MODEL 7
REMARK VINA RESULT:    -4.988      1.569      2.290
REMARK INTER + INTRA:          -8.722
REMARK INTER:                  -7.786
REMARK INTRA:                  -0.936
REMARK UNBOUND:                -0.818
REMARK SMILES CCCCCCCCCCCC(=O)[O-]
REMARK SMILES IDX 7 1 8 2 9 3 10 4 11 5 12 6 13 7 14 8 6 9 5 10 4 11 3 12 2 13
REMARK SMILES IDX 1 14
REMARK H PARENT
REMARK Flexibility Score: inf
ROOT
ATOM      1  C   UNL     1      11.330   3.735  54.171  1.00  0.00     0.000 C 
ENDROOT
BRANCH   1   2
ATOM      2  C   UNL     1      12.096   4.221  52.922  1.00  0.00     0.000 C 
BRANCH   2   3
ATOM      3  C   UNL     1      12.517   5.698  52.995  1.00  0.00     0.000 C 
BRANCH   3   4
ATOM      4  C   UNL     1      11.341   6.667  52.789  1.00  0.00     0.006 C 
BRANCH   4   5
ATOM      5  C   UNL     1      11.176   7.637  53.966  1.00  0.00     0.053 C 
BRANCH   5   6
ATOM      6  C   UNL     1       9.858   7.455  54.653  1.00  0.00     0.041 C 
ATOM      7  O   UNL     1       9.160   6.431  54.425  1.00  0.00    -0.550 OA
ATOM      8  O   UNL     1       9.415   8.399  55.571  1.00  0.00    -0.550 OA
ENDBRANCH   5   6
ENDBRANCH   4   5
ENDBRANCH   3   4
ENDBRANCH   2   3
ENDBRANCH   1   2
BRANCH   1   9
ATOM      9  C   UNL     1      12.075   4.070  55.476  1.00  0.00     0.000 C 
BRANCH   9  10
ATOM     10  C   UNL     1      12.389   2.824  56.319  1.00  0.00    -0.000 C 
BRANCH  10  11
ATOM     11  C   UNL     1      13.866   2.758  56.748  1.00  0.00    -0.000 C 
BRANCH  11  12
ATOM     12  C   UNL     1      14.810   3.451  55.748  1.00  0.00    -0.000 C 
BRANCH  12  13
ATOM     13  C   UNL     1      16.046   2.629  55.343  1.00  0.00    -0.003 C 
ATOM     14  C   UNL     1      16.166   1.311  56.105  1.00  0.00     0.004 C 
ENDBRANCH  12  13
ENDBRANCH  11  12
ENDBRANCH  10  11
ENDBRANCH   9  10
ENDBRANCH   1   9
TORSDOF 10
ENDMDL
MODEL 8
REMARK VINA RESULT:    -4.939      1.654      2.918
REMARK INTER + INTRA:          -8.644
REMARK INTER:                  -7.327
REMARK INTRA:                  -1.317
REMARK UNBOUND:                -0.818
REMARK SMILES CCCCCCCCCCCC(=O)[O-]
REMARK SMILES IDX 7 1 8 2 9 3 10 4 11 5 12 6 13 7 14 8 6 9 5 10 4 11 3 12 2 13
REMARK SMILES IDX 1 14
REMARK H PARENT
REMARK Flexibility Score: inf
ROOT
ATOM      1  C   UNL     1       9.702   5.154  56.029  1.00  0.00     0.000 C 
ENDROOT
BRANCH   1   2
ATOM      2  C   UNL     1       9.520   6.603  55.528  1.00  0.00     0.000 C 
BRANCH   2   3
ATOM      3  C   UNL     1      10.847   7.331  55.257  1.00  0.00     0.000 C 
BRANCH   3   4
ATOM      4  C   UNL     1      10.918   7.939  53.846  1.00  0.00     0.006 C 
BRANCH   4   5
ATOM      5  C   UNL     1       9.813   7.404  52.928  1.00  0.00     0.053 C 
BRANCH   5   6
ATOM      6  C   UNL     1       9.797   8.114  51.609  1.00  0.00     0.041 C 
ATOM      7  O   UNL     1       9.825   7.457  50.534  1.00  0.00    -0.550 OA
ATOM      8  O   UNL     1       9.715   9.500  51.567  1.00  0.00    -0.550 OA
ENDBRANCH   5   6
ENDBRANCH   4   5
ENDBRANCH   3   4
ENDBRANCH   2   3
ENDBRANCH   1   2
BRANCH   1   9
ATOM      9  C   UNL     1       9.505   4.122  54.905  1.00  0.00     0.000 C 
BRANCH   9  10
ATOM     10  C   UNL     1      10.772   3.301  54.620  1.00  0.00    -0.000 C 
BRANCH  10  11
ATOM     11  C   UNL     1      11.652   3.932  53.528  1.00  0.00    -0.000 C 
BRANCH  11  12
ATOM     12  C   UNL     1      12.887   4.655  54.099  1.00  0.00    -0.000 C 
BRANCH  12  13
ATOM     13  C   UNL     1      13.289   4.231  55.523  1.00  0.00    -0.003 C 
ATOM     14  C   UNL     1      14.700   3.650  55.599  1.00  0.00     0.004 C 
ENDBRANCH  12  13
ENDBRANCH  11  12
ENDBRANCH  10  11
ENDBRANCH   9  10
ENDBRANCH   1   9
TORSDOF 10
ENDMDL
MODEL 9
REMARK VINA RESULT:    -4.932      2.834      6.418
REMARK INTER + INTRA:          -8.633
REMARK INTER:                  -7.493
REMARK INTRA:                  -1.140
REMARK UNBOUND:                -0.818
REMARK SMILES CCCCCCCCCCCC(=O)[O-]
REMARK SMILES IDX 7 1 8 2 9 3 10 4 11 5 12 6 13 7 14 8 6 9 5 10 4 11 3 12 2 13
REMARK SMILES IDX 1 14
REMARK H PARENT
REMARK Flexibility Score: inf
ROOT
ATOM      1  C   UNL     1      11.375   6.641  52.895  1.00  0.00     0.000 C 
ENDROOT
BRANCH   1   2
ATOM      2  C   UNL     1      12.490   5.577  52.987  1.00  0.00     0.000 C 
BRANCH   2   3
ATOM      3  C   UNL     1      11.960   4.140  53.115  1.00  0.00     0.000 C 
BRANCH   3   4
ATOM      4  C   UNL     1      11.559   3.776  54.555  1.00  0.00     0.006 C 
BRANCH   4   5
ATOM      5  C   UNL     1      12.489   4.414  55.594  1.00  0.00     0.053 C 
BRANCH   5   6
ATOM      6  C   UNL     1      13.561   3.464  56.034  1.00  0.00     0.041 C 
ATOM      7  O   UNL     1      14.706   3.514  55.512  1.00  0.00    -0.550 OA
ATOM      8  O   UNL     1      13.305   2.546  57.045  1.00  0.00    -0.550 OA
ENDBRANCH   5   6
ENDBRANCH   4   5
ENDBRANCH   3   4
ENDBRANCH   2   3
ENDBRANCH   1   2
BRANCH   1   9
ATOM      9  C   UNL     1      11.634   7.835  53.831  1.00  0.00     0.000 C 
BRANCH   9  10
ATOM     10  C   UNL     1      10.924   7.695  55.186  1.00  0.00    -0.000 C 
BRANCH  10  11
ATOM     11  C   UNL     1       9.461   7.241  55.043  1.00  0.00    -0.000 C 
BRANCH  11  12
ATOM     12  C   UNL     1       8.453   8.367  55.340  1.00  0.00    -0.000 C 
BRANCH  12  13
ATOM     13  C   UNL     1       7.749   8.954  54.104  1.00  0.00    -0.003 C 
ATOM     14  C   UNL     1       8.045   8.179  52.821  1.00  0.00     0.004 C 
ENDBRANCH  12  13
ENDBRANCH  11  12
ENDBRANCH  10  11
ENDBRANCH   9  10
ENDBRANCH   1   9
TORSDOF 10
ENDMDL
