MODEL 1
REMARK VINA RESULT:    -3.837      0.000      0.000
REMARK INTER + INTRA:          -4.557
REMARK INTER:                  -4.510
REMARK INTRA:                  -0.047
REMARK UNBOUND:                -0.047
REMARK SMILES CCCCC(=O)[O-]
REMARK SMILES IDX 4 1 5 2 6 3 7 4 3 5 2 6 1 7
REMARK H PARENT
REMARK Flexibility Score: inf
ROOT
ATOM      1  C   UNL     1     -28.936   3.831  33.752  1.00  0.00     0.053 C 
ENDROOT
BRANCH   1   2
ATOM      2  C   UNL     1     -28.062   2.616  33.680  1.00  0.00     0.041 C 
ATOM      3  O   UNL     1     -26.837   2.731  33.412  1.00  0.00    -0.550 OA
ATOM      4  O   UNL     1     -28.610   1.353  33.876  1.00  0.00    -0.550 OA
ENDBRANCH   1   2
BRANCH   1   5
ATOM      5  C   UNL     1     -30.417   3.465  33.946  1.00  0.00     0.006 C 
BRANCH   5   6
ATOM      6  C   UNL     1     -31.193   3.270  32.632  1.00  0.00    -0.003 C 
ATOM      7  C   UNL     1     -32.383   2.323  32.779  1.00  0.00     0.004 C 
ENDBRANCH   5   6
ENDBRANCH   1   5
TORSDOF 3
ENDMDL
MODEL 2
REMARK VINA RESULT:    -3.814      2.177      3.667
REMARK INTER + INTRA:          -4.529
REMARK INTER:                  -4.420
REMARK INTRA:                  -0.109
REMARK UNBOUND:                -0.047
REMARK SMILES CCCCC(=O)[O-]
REMARK SMILES IDX 4 1 5 2 6 3 7 4 3 5 2 6 1 7
REMARK H PARENT
REMARK Flexibility Score: inf
ROOT
ATOM      1  C   UNL     1     -30.391   3.418  34.121  1.00  0.00     0.053 C 
ENDROOT
BRANCH   1   2
ATOM      2  C   UNL     1     -31.249   3.031  32.955  1.00  0.00     0.041 C 
ATOM      3  O   UNL     1     -32.421   2.612  33.142  1.00  0.00    -0.550 OA
ATOM      4  O   UNL     1     -30.740   3.104  31.664  1.00  0.00    -0.550 OA
ENDBRANCH   1   2
BRANCH   1   5
ATOM      5  C   UNL     1     -28.936   3.683  33.703  1.00  0.00     0.006 C 
BRANCH   5   6
ATOM      6  C   UNL     1     -27.951   2.574  34.111  1.00  0.00    -0.003 C 
ATOM      7  C   UNL     1     -27.824   1.474  33.058  1.00  0.00     0.004 C 
ENDBRANCH   5   6
ENDBRANCH   1   5
TORSDOF 3
ENDMDL
MODEL 3
REMARK VINA RESULT:    -3.678     10.149     10.499
REMARK INTER + INTRA:          -4.369
REMARK INTER:                  -4.236
REMARK INTRA:                  -0.134
REMARK UNBOUND:                -0.047
REMARK SMILES CCCCC(=O)[O-]
REMARK SMILES IDX 4 1 5 2 6 3 7 4 3 5 2 6 1 7
REMARK H PARENT
REMARK Flexibility Score: inf
ROOT
ATOM      1  C   UNL     1     -26.756  -1.158  24.166  1.00  0.00     0.053 C 
ENDROOT
BRANCH   1   2
ATOM      2  C   UNL     1     -28.025  -1.792  24.648  1.00  0.00     0.041 C 
ATOM      3  O   UNL     1     -28.504  -2.788  24.046  1.00  0.00    -0.550 OA
ATOM      4  O   UNL     1     -28.695  -1.260  25.743  1.00  0.00    -0.550 OA
ENDBRANCH   1   2
BRANCH   1   5
ATOM      5  C   UNL     1     -26.978   0.286  23.688  1.00  0.00     0.006 C 
BRANCH   5   6
ATOM      6  C   UNL     1     -28.003   0.421  22.548  1.00  0.00    -0.003 C 
ATOM      7  C   UNL     1     -29.223   1.252  22.940  1.00  0.00     0.004 C 
ENDBRANCH   5   6
ENDBRANCH   1   5
TORSDOF 3
ENDMDL
MODEL 4
REMARK VINA RESULT:    -3.644     10.742     11.082
REMARK INTER + INTRA:          -4.330
REMARK INTER:                  -4.194
REMARK INTRA:                  -0.136
REMARK UNBOUND:                -0.047
REMARK SMILES CCCCC(=O)[O-]
REMARK SMILES IDX 4 1 5 2 6 3 7 4 3 5 2 6 1 7
REMARK H PARENT
REMARK Flexibility Score: inf
ROOT
ATOM      1  C   UNL     1     -27.174   0.884  23.124  1.00  0.00     0.053 C 
ENDROOT
BRANCH   1   2
ATOM      2  C   UNL     1     -28.582   0.840  22.613  1.00  0.00     0.041 C 
ATOM      3  O   UNL     1     -29.484   1.509  23.181  1.00  0.00    -0.550 OA
ATOM      4  O   UNL     1     -28.902   0.033  21.527  1.00  0.00    -0.550 OA
ENDBRANCH   1   2
BRANCH   1   5
ATOM      5  C   UNL     1     -26.695  -0.494  23.610  1.00  0.00     0.006 C 
BRANCH   5   6
ATOM      6  C   UNL     1     -27.545  -1.092  24.744  1.00  0.00    -0.003 C 
ATOM      7  C   UNL     1     -28.229  -2.400  24.349  1.00  0.00     0.004 C 
ENDBRANCH   5   6
ENDBRANCH   1   5
TORSDOF 3
ENDMDL
MODEL 5
REMARK VINA RESULT:    -3.632     10.566     11.177
REMARK INTER + INTRA:          -4.316
REMARK INTER:                  -4.215
REMARK INTRA:                  -0.101
REMARK UNBOUND:                -0.047
REMARK SMILES CCCCC(=O)[O-]
REMARK SMILES IDX 4 1 5 2 6 3 7 4 3 5 2 6 1 7
REMARK H PARENT
REMARK Flexibility Score: inf
ROOT
ATOM      1  C   UNL     1     -28.801  -2.318  23.414  1.00  0.00     0.053 C 
ENDROOT
BRANCH   1   2
ATOM      2  C   UNL     1     -30.173  -1.828  23.764  1.00  0.00     0.041 C 
ATOM      3  O   UNL     1     -31.145  -2.629  23.787  1.00  0.00    -0.550 OA
ATOM      4  O   UNL     1     -30.383  -0.481  24.032  1.00  0.00    -0.550 OA
ENDBRANCH   1   2
BRANCH   1   5
ATOM      5  C   UNL     1     -27.735  -1.791  24.389  1.00  0.00     0.006 C 
BRANCH   5   6
ATOM      6  C   UNL     1     -26.593  -1.014  23.713  1.00  0.00    -0.003 C 
ATOM      7  C   UNL     1     -26.899   0.474  23.552  1.00  0.00     0.004 C 
ENDBRANCH   5   6
ENDBRANCH   1   5
TORSDOF 3
ENDMDL
MODEL 6
REMARK VINA RESULT:    -3.594     10.854     11.283
REMARK INTER + INTRA:          -4.271
REMARK INTER:                  -4.170
REMARK INTRA:                  -0.101
REMARK UNBOUND:                -0.047
REMARK SMILES CCCCC(=O)[O-]
REMARK SMILES IDX 4 1 5 2 6 3 7 4 3 5 2 6 1 7
REMARK H PARENT
REMARK Flexibility Score: inf
ROOT
ATOM      1  C   UNL     1     -29.109   1.071  22.955  1.00  0.00     0.053 C 
ENDROOT
BRANCH   1   2
ATOM      2  C   UNL     1     -30.279   0.137  23.009  1.00  0.00     0.041 C 
ATOM      3  O   UNL     1     -30.098  -1.108  22.960  1.00  0.00    -0.550 OA
ATOM      4  O   UNL     1     -31.571   0.644  23.082  1.00  0.00    -0.550 OA
ENDBRANCH   1   2
BRANCH   1   5
ATOM      5  C   UNL     1     -27.824   0.359  22.502  1.00  0.00     0.006 C 
BRANCH   5   6
ATOM      6  C   UNL     1     -26.768   0.203  23.610  1.00  0.00    -0.003 C 
ATOM      7  C   UNL     1     -26.536  -1.254  24.009  1.00  0.00     0.004 C 
ENDBRANCH   5   6
ENDBRANCH   1   5
TORSDOF 3
ENDMDL
MODEL 7
REMARK VINA RESULT:    -3.586     10.001     10.410
REMARK INTER + INTRA:          -4.262
REMARK INTER:                  -4.154
REMARK INTRA:                  -0.108
REMARK UNBOUND:                -0.047
REMARK SMILES CCCCC(=O)[O-]
REMARK SMILES IDX 4 1 5 2 6 3 7 4 3 5 2 6 1 7
REMARK H PARENT
REMARK Flexibility Score: inf
ROOT
ATOM      1  C   UNL     1     -29.417   1.065  23.224  1.00  0.00     0.053 C 
ENDROOT
BRANCH   1   2
ATOM      2  C   UNL     1     -28.013   0.592  23.451  1.00  0.00     0.041 C 
ATOM      3  O   UNL     1     -27.050   1.173  22.885  1.00  0.00    -0.550 OA
ATOM      4  O   UNL     1     -27.774  -0.511  24.261  1.00  0.00    -0.550 OA
ENDBRANCH   1   2
BRANCH   1   5
ATOM      5  C   UNL     1     -30.437   0.252  24.038  1.00  0.00     0.006 C 
BRANCH   5   6
ATOM      6  C   UNL     1     -31.214  -0.788  23.213  1.00  0.00    -0.003 C 
ATOM      7  C   UNL     1     -30.864  -2.228  23.588  1.00  0.00     0.004 C 
ENDBRANCH   5   6
ENDBRANCH   1   5
TORSDOF 3
ENDMDL
MODEL 8
REMARK VINA RESULT:    -3.561     10.061     10.393
REMARK INTER + INTRA:          -4.232
REMARK INTER:                  -4.147
REMARK INTRA:                  -0.084
REMARK UNBOUND:                -0.047
REMARK SMILES CCCCC(=O)[O-]
REMARK SMILES IDX 4 1 5 2 6 3 7 4 3 5 2 6 1 7
REMARK H PARENT
REMARK Flexibility Score: inf
ROOT
ATOM      1  C   UNL     1     -27.028  -1.510  24.070  1.00  0.00     0.053 C 
ENDROOT
BRANCH   1   2
ATOM      2  C   UNL     1     -27.141  -0.044  24.358  1.00  0.00     0.041 C 
ATOM      3  O   UNL     1     -27.582   0.351  25.470  1.00  0.00    -0.550 OA
ATOM      4  O   UNL     1     -26.789   0.885  23.387  1.00  0.00    -0.550 OA
ENDBRANCH   1   2
BRANCH   1   5
ATOM      5  C   UNL     1     -28.373  -2.236  24.238  1.00  0.00     0.006 C 
BRANCH   5   6
ATOM      6  C   UNL     1     -29.476  -1.745  23.284  1.00  0.00    -0.003 C 
ATOM      7  C   UNL     1     -30.865  -2.250  23.672  1.00  0.00     0.004 C 
ENDBRANCH   5   6
ENDBRANCH   1   5
TORSDOF 3
ENDMDL
MODEL 9
REMARK VINA RESULT:    -3.537     10.927     11.565
REMARK INTER + INTRA:          -4.204
REMARK INTER:                  -4.095
REMARK INTRA:                  -0.109
REMARK UNBOUND:                -0.047
REMARK SMILES CCCCC(=O)[O-]
REMARK SMILES IDX 4 1 5 2 6 3 7 4 3 5 2 6 1 7
REMARK H PARENT
REMARK Flexibility Score: inf
ROOT
ATOM      1  C   UNL     1     -30.324  -1.738  22.851  1.00  0.00     0.053 C 
ENDROOT
BRANCH   1   2
ATOM      2  C   UNL     1     -30.416  -0.246  22.746  1.00  0.00     0.041 C 
ATOM      3  O   UNL     1     -31.423   0.360  23.196  1.00  0.00    -0.550 OA
ATOM      4  O   UNL     1     -29.401   0.471  22.123  1.00  0.00    -0.550 OA
ENDBRANCH   1   2
BRANCH   1   5
ATOM      5  C   UNL     1     -28.866  -2.223  22.901  1.00  0.00     0.006 C 
BRANCH   5   6
ATOM      6  C   UNL     1     -28.221  -2.135  24.295  1.00  0.00    -0.003 C 
ATOM      7  C   UNL     1     -26.882  -1.400  24.286  1.00  0.00     0.004 C 
ENDBRANCH   5   6
ENDBRANCH   1   5
TORSDOF 3
ENDMDL
