MODEL 1
REMARK VINA RESULT:    -2.839      0.000      0.000
REMARK INTER + INTRA:          -3.179
REMARK INTER:                  -3.171
REMARK INTRA:                  -0.008
REMARK UNBOUND:                -0.008
REMARK SMILES CCCC(=O)[O-]
REMARK SMILES IDX 3 1 4 2 5 3 6 4 2 5 1 6
REMARK H PARENT
REMARK Flexibility Score: inf
ROOT
ATOM      1  C   UNL     1       2.382  43.616  11.774  1.00  0.00     0.052 C 
ENDROOT
BRANCH   1   2
ATOM      2  C   UNL     1       3.709  44.272  11.548  1.00  0.00     0.041 C 
ATOM      3  O   UNL     1       3.851  45.111  10.621  1.00  0.00    -0.550 OA
ATOM      4  O   UNL     1       4.801  43.918  12.331  1.00  0.00    -0.550 OA
ENDBRANCH   1   2
BRANCH   1   5
ATOM      5  C   UNL     1       1.823  43.073  10.456  1.00  0.00     0.003 C 
ATOM      6  C   UNL     1       0.487  42.369  10.674  1.00  0.00     0.004 C 
ENDBRANCH   1   5
TORSDOF 2
ENDMDL
MODEL 2
REMARK VINA RESULT:    -2.773      3.780      4.815
REMARK INTER + INTRA:          -3.105
REMARK INTER:                  -3.039
REMARK INTRA:                  -0.066
REMARK UNBOUND:                -0.008
REMARK SMILES CCCC(=O)[O-]
REMARK SMILES IDX 3 1 4 2 5 3 6 4 2 5 1 6
REMARK H PARENT
REMARK Flexibility Score: inf
ROOT
ATOM      1  C   UNL     1       7.608  44.235  11.292  1.00  0.00     0.052 C 
ENDROOT
BRANCH   1   2
ATOM      2  C   UNL     1       6.149  44.426  11.562  1.00  0.00     0.041 C 
ATOM      3  O   UNL     1       5.771  45.125  12.538  1.00  0.00    -0.550 OA
ATOM      4  O   UNL     1       5.206  43.791  10.763  1.00  0.00    -0.550 OA
ENDBRANCH   1   2
BRANCH   1   5
ATOM      5  C   UNL     1       7.975  42.750  11.358  1.00  0.00     0.003 C 
ATOM      6  C   UNL     1       7.704  42.177  12.746  1.00  0.00     0.004 C 
ENDBRANCH   1   5
TORSDOF 2
ENDMDL
MODEL 3
REMARK VINA RESULT:    -2.721      1.489      2.204
REMARK INTER + INTRA:          -3.047
REMARK INTER:                  -3.032
REMARK INTRA:                  -0.014
REMARK UNBOUND:                -0.008
REMARK SMILES CCCC(=O)[O-]
REMARK SMILES IDX 3 1 4 2 5 3 6 4 2 5 1 6
REMARK H PARENT
REMARK Flexibility Score: inf
ROOT
ATOM      1  C   UNL     1       4.238  44.296  11.091  1.00  0.00     0.052 C 
ENDROOT
BRANCH   1   2
ATOM      2  C   UNL     1       5.400  44.313  12.034  1.00  0.00     0.041 C 
ATOM      3  O   UNL     1       5.370  43.626  13.088  1.00  0.00    -0.550 OA
ATOM      4  O   UNL     1       6.497  45.124  11.771  1.00  0.00    -0.550 OA
ENDBRANCH   1   2
BRANCH   1   5
ATOM      5  C   UNL     1       3.022  43.640  11.751  1.00  0.00     0.003 C 
ATOM      6  C   UNL     1       1.986  43.227  10.710  1.00  0.00     0.004 C 
ENDBRANCH   1   5
TORSDOF 2
ENDMDL
MODEL 4
REMARK VINA RESULT:    -2.717      4.390      4.969
REMARK INTER + INTRA:          -3.043
REMARK INTER:                  -2.979
REMARK INTRA:                  -0.064
REMARK UNBOUND:                -0.008
REMARK SMILES CCCC(=O)[O-]
REMARK SMILES IDX 3 1 4 2 5 3 6 4 2 5 1 6
REMARK H PARENT
REMARK Flexibility Score: inf
ROOT
ATOM      1  C   UNL     1       7.933  44.120  11.400  1.00  0.00     0.052 C 
ENDROOT
BRANCH   1   2
ATOM      2  C   UNL     1       7.622  42.673  11.622  1.00  0.00     0.041 C 
ATOM      3  O   UNL     1       7.242  41.952  10.663  1.00  0.00    -0.550 OA
ATOM      4  O   UNL     1       7.705  42.133  12.900  1.00  0.00    -0.550 OA
ENDBRANCH   1   2
BRANCH   1   5
ATOM      5  C   UNL     1       6.656  44.897  11.066  1.00  0.00     0.003 C 
ATOM      6  C   UNL     1       5.809  45.125  12.315  1.00  0.00     0.004 C 
ENDBRANCH   1   5
TORSDOF 2
ENDMDL
MODEL 5
REMARK VINA RESULT:    -2.642      1.626      2.192
REMARK INTER + INTRA:          -2.959
REMARK INTER:                  -2.947
REMARK INTRA:                  -0.013
REMARK UNBOUND:                -0.008
REMARK SMILES CCCC(=O)[O-]
REMARK SMILES IDX 3 1 4 2 5 3 6 4 2 5 1 6
REMARK H PARENT
REMARK Flexibility Score: inf
ROOT
ATOM      1  C   UNL     1       4.614  43.989  11.032  1.00  0.00     0.052 C 
ENDROOT
BRANCH   1   2
ATOM      2  C   UNL     1       5.688  44.295  12.029  1.00  0.00     0.041 C 
ATOM      3  O   UNL     1       6.592  45.125  11.750  1.00  0.00    -0.550 OA
ATOM      4  O   UNL     1       5.716  43.628  13.246  1.00  0.00    -0.550 OA
ENDBRANCH   1   2
BRANCH   1   5
ATOM      5  C   UNL     1       3.231  44.158  11.666  1.00  0.00     0.003 C 
ATOM      6  C   UNL     1       2.204  43.249  10.997  1.00  0.00     0.004 C 
ENDBRANCH   1   5
TORSDOF 2
ENDMDL
MODEL 6
REMARK VINA RESULT:    -2.563     14.434     14.867
REMARK INTER + INTRA:          -2.870
REMARK INTER:                  -2.844
REMARK INTRA:                  -0.026
REMARK UNBOUND:                -0.008
REMARK SMILES CCCC(=O)[O-]
REMARK SMILES IDX 3 1 4 2 5 3 6 4 2 5 1 6
REMARK H PARENT
REMARK Flexibility Score: inf
ROOT
ATOM      1  C   UNL     1       7.283  30.398  11.344  1.00  0.00     0.052 C 
ENDROOT
BRANCH   1   2
ATOM      2  C   UNL     1       8.257  29.262  11.313  1.00  0.00     0.041 C 
ATOM      3  O   UNL     1       8.801  28.865  12.376  1.00  0.00    -0.550 OA
ATOM      4  O   UNL     1       8.601  28.674  10.102  1.00  0.00    -0.550 OA
ENDBRANCH   1   2
BRANCH   1   5
ATOM      5  C   UNL     1       7.981  31.711  10.979  1.00  0.00     0.003 C 
ATOM      6  C   UNL     1       8.685  32.316  12.190  1.00  0.00     0.004 C 
ENDBRANCH   1   5
TORSDOF 2
ENDMDL
MODEL 7
REMARK VINA RESULT:    -2.536      3.207      4.350
REMARK INTER + INTRA:          -2.840
REMARK INTER:                  -2.782
REMARK INTRA:                  -0.058
REMARK UNBOUND:                -0.008
REMARK SMILES CCCC(=O)[O-]
REMARK SMILES IDX 3 1 4 2 5 3 6 4 2 5 1 6
REMARK H PARENT
REMARK Flexibility Score: inf
ROOT
ATOM      1  C   UNL     1       6.093  45.124  12.099  1.00  0.00     0.052 C 
ENDROOT
BRANCH   1   2
ATOM      2  C   UNL     1       5.227  43.982  12.533  1.00  0.00     0.041 C 
ATOM      3  O   UNL     1       4.164  43.723  11.911  1.00  0.00    -0.550 OA
ATOM      4  O   UNL     1       5.571  43.236  13.653  1.00  0.00    -0.550 OA
ENDBRANCH   1   2
BRANCH   1   5
ATOM      5  C   UNL     1       6.832  44.774  10.805  1.00  0.00     0.003 C 
ATOM      6  C   UNL     1       8.036  43.880  11.084  1.00  0.00     0.004 C 
ENDBRANCH   1   5
TORSDOF 2
ENDMDL
MODEL 8
REMARK VINA RESULT:    -2.510      2.353      3.419
REMARK INTER + INTRA:          -2.812
REMARK INTER:                  -2.773
REMARK INTRA:                  -0.039
REMARK UNBOUND:                -0.008
REMARK SMILES CCCC(=O)[O-]
REMARK SMILES IDX 3 1 4 2 5 3 6 4 2 5 1 6
REMARK H PARENT
REMARK Flexibility Score: inf
ROOT
ATOM      1  C   UNL     1       2.739  43.261   9.952  1.00  0.00     0.052 C 
ENDROOT
BRANCH   1   2
ATOM      2  C   UNL     1       1.646  43.153  10.969  1.00  0.00     0.041 C 
ATOM      3  O   UNL     1       1.762  43.724  12.085  1.00  0.00    -0.550 OA
ATOM      4  O   UNL     1       0.522  42.382  10.702  1.00  0.00    -0.550 OA
ENDBRANCH   1   2
BRANCH   1   5
ATOM      5  C   UNL     1       3.480  44.592  10.101  1.00  0.00     0.003 C 
ATOM      6  C   UNL     1       4.932  44.370  10.516  1.00  0.00     0.004 C 
ENDBRANCH   1   5
TORSDOF 2
ENDMDL
MODEL 9
REMARK VINA RESULT:    -2.447     13.333     13.628
REMARK INTER + INTRA:          -2.741
REMARK INTER:                  -2.713
REMARK INTRA:                  -0.028
REMARK UNBOUND:                -0.008
REMARK SMILES CCCC(=O)[O-]
REMARK SMILES IDX 3 1 4 2 5 3 6 4 2 5 1 6
REMARK H PARENT
REMARK Flexibility Score: inf
ROOT
ATOM      1  C   UNL     1       7.573  31.259  10.724  1.00  0.00     0.052 C 
ENDROOT
BRANCH   1   2
ATOM      2  C   UNL     1       8.426  32.309  11.363  1.00  0.00     0.041 C 
ATOM      3  O   UNL     1       8.855  33.277  10.682  1.00  0.00    -0.550 OA
ATOM      4  O   UNL     1       8.788  32.193  12.699  1.00  0.00    -0.550 OA
ENDBRANCH   1   2
BRANCH   1   5
ATOM      5  C   UNL     1       7.533  30.000  11.595  1.00  0.00     0.003 C 
ATOM      6  C   UNL     1       8.667  29.045  11.234  1.00  0.00     0.004 C 
ENDBRANCH   1   5
TORSDOF 2
ENDMDL
