MODEL 1
REMARK VINA RESULT:    -6.288      0.000      0.000
REMARK INTER + INTRA:         -11.202
REMARK INTER:                  -9.413
REMARK INTRA:                  -1.789
REMARK UNBOUND:                -1.789
REMARK SMILES O=c1c(O[C@H]2O[C@H](CO)[C@H](O)[C@H](O)[C@H]2O)c(-c2cc(O)c(O)c(O)c2)oc2cc(O)cc(O)c12
REMARK SMILES IDX 4 1 3 2 16 3 26 4 2 5 27 6 1 7 34 8 28 9 32 10 29 11 31 12
REMARK SMILES IDX 17 13 18 14 19 15 25 16 21 17 23 18 20 19 22 21 24 23 33 25
REMARK SMILES IDX 30 27 5 29 14 30 6 31 12 32 7 33 10 34 15 35 13 37 8 39 9 40
REMARK SMILES IDX 11 42
REMARK H PARENT 20 20 22 22 24 24 33 26 30 28 15 36 13 38 9 41 11 43
REMARK Flexibility Score: inf
ROOT
ATOM      1  O   UNL     1      13.914  36.690 123.772  1.00  0.00    -0.454 OA
ENDROOT
BRANCH   1   2
ATOM      2  C   UNL     1      13.837  37.971 124.355  1.00  0.00     0.214 A 
ATOM      3  C   UNL     1      14.591  39.006 123.770  1.00  0.00     0.181 A 
ATOM      4  O   UNL     1      14.601  40.214 124.316  1.00  0.00    -0.452 OA
ATOM      5  C   UNL     1      13.069  38.269 125.504  1.00  0.00     0.239 A 
ATOM      6  C   UNL     1      13.927  40.528 125.413  1.00  0.00     0.146 A 
ATOM      7  O   UNL     1      12.293  37.401 125.978  1.00  0.00    -0.285 OA
ATOM      8  C   UNL     1      13.147  39.557 126.089  1.00  0.00     0.111 A 
ATOM      9  C   UNL     1      13.993  41.843 125.883  1.00  0.00     0.094 A 
ATOM     10  C   UNL     1      12.477  39.942 127.290  1.00  0.00     0.134 A 
ATOM     11  C   UNL     1      13.285  42.222 127.024  1.00  0.00     0.123 A 
ATOM     12  C   UNL     1      12.531  41.276 127.715  1.00  0.00     0.093 A 
BRANCH   3  13
ATOM     13  C   UNL     1      15.401  38.789 122.549  1.00  0.00     0.029 A 
ATOM     14  C   UNL     1      16.792  38.656 122.656  1.00  0.00     0.062 A 
ATOM     15  C   UNL     1      17.580  38.456 121.518  1.00  0.00     0.162 A 
ATOM     16  C   UNL     1      14.807  38.760 121.277  1.00  0.00     0.062 A 
ATOM     17  C   UNL     1      16.979  38.399 120.249  1.00  0.00     0.200 A 
ATOM     18  C   UNL     1      15.587  38.555 120.131  1.00  0.00     0.162 A 
BRANCH  15  19
ATOM     19  O   UNL     1      18.960  38.317 121.667  1.00  0.00    -0.504 OA
ATOM     20  H   UNL     1      19.453  38.666 122.480  1.00  0.00     0.293 HD
ENDBRANCH  15  19
BRANCH  17  21
ATOM     21  O   UNL     1      17.770  38.191 119.119  1.00  0.00    -0.502 OA
ATOM     22  H   UNL     1      17.873  37.279 118.692  1.00  0.00     0.293 HD
ENDBRANCH  17  21
BRANCH  18  23
ATOM     23  O   UNL     1      14.983  38.508 118.876  1.00  0.00    -0.504 OA
ATOM     24  H   UNL     1      15.527  38.390 118.029  1.00  0.00     0.293 HD
ENDBRANCH  18  23
ENDBRANCH   3  13
BRANCH  10  25
ATOM     25  O   UNL     1      11.781  39.054 128.115  1.00  0.00    -0.507 OA
ATOM     26  H   UNL     1      11.938  38.948 129.106  1.00  0.00     0.293 HD
ENDBRANCH  10  25
BRANCH  11  27
ATOM     27  O   UNL     1      13.335  43.536 127.487  1.00  0.00    -0.508 OA
ATOM     28  H   UNL     1      13.568  44.307 126.871  1.00  0.00     0.293 HD
ENDBRANCH  11  27
ENDBRANCH   1   2
BRANCH   1  29
ATOM     29  C   UNL     1      12.966  36.068 122.897  1.00  0.00     0.339 C 
ATOM     30  C   UNL     1      12.465  34.748 123.511  1.00  0.00     0.214 C 
ATOM     31  O   UNL     1      13.511  35.855 121.601  1.00  0.00    -0.332 OA
ATOM     32  C   UNL     1      13.605  33.708 123.529  1.00  0.00     0.180 C 
ATOM     33  C   UNL     1      14.645  35.001 121.642  1.00  0.00     0.179 C 
ATOM     34  C   UNL     1      14.248  33.588 122.135  1.00  0.00     0.177 C 
BRANCH  30  35
ATOM     35  O   UNL     1      12.002  34.988 124.815  1.00  0.00    -0.384 OA
ATOM     36  H   UNL     1      11.271  35.656 124.744  1.00  0.00     0.211 HD
ENDBRANCH  30  35
BRANCH  32  37
ATOM     37  O   UNL     1      13.155  32.457 123.989  1.00  0.00    -0.387 OA
ATOM     38  H   UNL     1      12.433  32.147 123.382  1.00  0.00     0.211 HD
ENDBRANCH  32  37
BRANCH  33  39
ATOM     39  C   UNL     1      15.273  34.962 120.239  1.00  0.00     0.191 C 
BRANCH  39  40
ATOM     40  O   UNL     1      15.660  33.658 119.895  1.00  0.00    -0.394 OA
ATOM     41  H   UNL     1      15.823  33.175 120.746  1.00  0.00     0.210 HD
ENDBRANCH  39  40
ENDBRANCH  33  39
BRANCH  34  42
ATOM     42  O   UNL     1      13.339  32.997 121.239  1.00  0.00    -0.387 OA
ATOM     43  H   UNL     1      12.759  33.722 120.889  1.00  0.00     0.211 HD
ENDBRANCH  34  42
ENDBRANCH   1  29
TORSDOF 13
ENDMDL
MODEL 2
REMARK VINA RESULT:    -6.194      1.006      2.398
REMARK INTER + INTRA:         -11.061
REMARK INTER:                  -9.582
REMARK INTRA:                  -1.479
REMARK UNBOUND:                -1.789
REMARK SMILES O=c1c(O[C@H]2O[C@H](CO)[C@H](O)[C@H](O)[C@H]2O)c(-c2cc(O)c(O)c(O)c2)oc2cc(O)cc(O)c12
REMARK SMILES IDX 4 1 3 2 16 3 26 4 2 5 27 6 1 7 34 8 28 9 32 10 29 11 31 12
REMARK SMILES IDX 17 13 18 14 19 15 25 16 21 17 23 18 20 19 22 21 24 23 33 25
REMARK SMILES IDX 30 27 5 29 14 30 6 31 12 32 7 33 10 34 15 35 13 37 8 39 9 40
REMARK SMILES IDX 11 42
REMARK H PARENT 20 20 22 22 24 24 33 26 30 28 15 36 13 38 9 41 11 43
REMARK Flexibility Score: inf
ROOT
ATOM      1  O   UNL     1      13.743  36.828 123.876  1.00  0.00    -0.454 OA
ENDROOT
BRANCH   1   2
ATOM      2  C   UNL     1      13.718  38.122 124.433  1.00  0.00     0.214 A 
ATOM      3  C   UNL     1      14.546  39.102 123.856  1.00  0.00     0.181 A 
ATOM      4  O   UNL     1      14.606  40.319 124.379  1.00  0.00    -0.452 OA
ATOM      5  C   UNL     1      12.930  38.484 125.550  1.00  0.00     0.239 A 
ATOM      6  C   UNL     1      13.915  40.691 125.447  1.00  0.00     0.146 A 
ATOM      7  O   UNL     1      12.093  37.670 126.013  1.00  0.00    -0.285 OA
ATOM      8  C   UNL     1      13.060  39.778 126.114  1.00  0.00     0.111 A 
ATOM      9  C   UNL     1      14.038  42.009 125.896  1.00  0.00     0.094 A 
ATOM     10  C   UNL     1      12.374  40.223 127.285  1.00  0.00     0.134 A 
ATOM     11  C   UNL     1      13.316  42.449 127.005  1.00  0.00     0.123 A 
ATOM     12  C   UNL     1      12.488  41.560 127.687  1.00  0.00     0.093 A 
BRANCH   3  13
ATOM     13  C   UNL     1      15.382  38.817 122.666  1.00  0.00     0.029 A 
ATOM     14  C   UNL     1      16.777  38.753 122.800  1.00  0.00     0.062 A 
ATOM     15  C   UNL     1      17.589  38.491 121.692  1.00  0.00     0.162 A 
ATOM     16  C   UNL     1      14.810  38.656 121.394  1.00  0.00     0.062 A 
ATOM     17  C   UNL     1      17.009  38.302 120.426  1.00  0.00     0.200 A 
ATOM     18  C   UNL     1      15.613  38.387 120.279  1.00  0.00     0.162 A 
BRANCH  15  19
ATOM     19  O   UNL     1      18.971  38.424 121.867  1.00  0.00    -0.504 OA
ATOM     20  H   UNL     1      19.491  37.566 121.729  1.00  0.00     0.293 HD
ENDBRANCH  15  19
BRANCH  17  21
ATOM     21  O   UNL     1      17.825  38.032 119.326  1.00  0.00    -0.502 OA
ATOM     22  H   UNL     1      17.881  38.655 118.530  1.00  0.00     0.293 HD
ENDBRANCH  17  21
BRANCH  18  23
ATOM     23  O   UNL     1      15.030  38.208 119.026  1.00  0.00    -0.504 OA
ATOM     24  H   UNL     1      14.086  37.854 118.925  1.00  0.00     0.293 HD
ENDBRANCH  18  23
ENDBRANCH   3  13
BRANCH  10  25
ATOM     25  O   UNL     1      11.604  39.391 128.101  1.00  0.00    -0.507 OA
ATOM     26  H   UNL     1      10.801  38.865 127.790  1.00  0.00     0.293 HD
ENDBRANCH  10  25
BRANCH  11  27
ATOM     27  O   UNL     1      13.423  43.767 127.445  1.00  0.00    -0.508 OA
ATOM     28  H   UNL     1      13.545  44.536 126.795  1.00  0.00     0.293 HD
ENDBRANCH  11  27
ENDBRANCH   1   2
BRANCH   1  29
ATOM     29  C   UNL     1      14.271  35.633 124.462  1.00  0.00     0.339 C 
ATOM     30  C   UNL     1      14.787  34.686 123.364  1.00  0.00     0.214 C 
ATOM     31  O   UNL     1      13.310  34.986 125.287  1.00  0.00    -0.332 OA
ATOM     32  C   UNL     1      13.602  34.135 122.543  1.00  0.00     0.180 C 
ATOM     33  C   UNL     1      12.160  34.599 124.548  1.00  0.00     0.179 C 
ATOM     34  C   UNL     1      12.528  33.545 123.475  1.00  0.00     0.177 C 
BRANCH  30  35
ATOM     35  O   UNL     1      15.677  35.382 122.530  1.00  0.00    -0.384 OA
ATOM     36  H   UNL     1      15.403  36.337 122.549  1.00  0.00     0.211 HD
ENDBRANCH  30  35
BRANCH  32  37
ATOM     37  O   UNL     1      14.027  33.186 121.595  1.00  0.00    -0.387 OA
ATOM     38  H   UNL     1      13.560  32.331 121.785  1.00  0.00     0.211 HD
ENDBRANCH  32  37
BRANCH  33  39
ATOM     39  C   UNL     1      11.107  34.069 125.534  1.00  0.00     0.191 C 
BRANCH  39  40
ATOM     40  O   UNL     1      10.395  35.122 126.127  1.00  0.00    -0.394 OA
ATOM     41  H   UNL     1       9.553  34.732 126.481  1.00  0.00     0.210 HD
ENDBRANCH  39  40
ENDBRANCH  33  39
BRANCH  34  42
ATOM     42  O   UNL     1      13.015  32.376 124.088  1.00  0.00    -0.387 OA
ATOM     43  H   UNL     1      13.287  32.621 125.010  1.00  0.00     0.211 HD
ENDBRANCH  34  42
ENDBRANCH   1  29
TORSDOF 13
ENDMDL
MODEL 3
REMARK VINA RESULT:    -6.069      1.851      2.837
REMARK INTER + INTRA:         -10.874
REMARK INTER:                  -8.867
REMARK INTRA:                  -2.007
REMARK UNBOUND:                -1.789
REMARK SMILES O=c1c(O[C@H]2O[C@H](CO)[C@H](O)[C@H](O)[C@H]2O)c(-c2cc(O)c(O)c(O)c2)oc2cc(O)cc(O)c12
REMARK SMILES IDX 4 1 3 2 16 3 26 4 2 5 27 6 1 7 34 8 28 9 32 10 29 11 31 12
REMARK SMILES IDX 17 13 18 14 19 15 25 16 21 17 23 18 20 19 22 21 24 23 33 25
REMARK SMILES IDX 30 27 5 29 14 30 6 31 12 32 7 33 10 34 15 35 13 37 8 39 9 40
REMARK SMILES IDX 11 42
REMARK H PARENT 20 20 22 22 24 24 33 26 30 28 15 36 13 38 9 41 11 43
REMARK Flexibility Score: inf
ROOT
ATOM      1  O   UNL     1      12.819  37.297 125.379  1.00  0.00    -0.454 OA
ENDROOT
BRANCH   1   2
ATOM      2  C   UNL     1      13.178  38.647 125.564  1.00  0.00     0.214 A 
ATOM      3  C   UNL     1      14.403  39.081 125.025  1.00  0.00     0.181 A 
ATOM      4  O   UNL     1      14.817  40.326 125.224  1.00  0.00    -0.452 OA
ATOM      5  C   UNL     1      12.393  39.580 126.281  1.00  0.00     0.239 A 
ATOM      6  C   UNL     1      14.133  41.222 125.920  1.00  0.00     0.146 A 
ATOM      7  O   UNL     1      11.243  39.259 126.671  1.00  0.00    -0.285 OA
ATOM      8  C   UNL     1      12.893  40.885 126.518  1.00  0.00     0.111 A 
ATOM      9  C   UNL     1      14.656  42.512 126.043  1.00  0.00     0.094 A 
ATOM     10  C   UNL     1      12.222  41.880 127.293  1.00  0.00     0.134 A 
ATOM     11  C   UNL     1      13.961  43.493 126.752  1.00  0.00     0.123 A 
ATOM     12  C   UNL     1      12.752  43.174 127.366  1.00  0.00     0.093 A 
BRANCH   3  13
ATOM     13  C   UNL     1      15.274  38.179 124.237  1.00  0.00     0.029 A 
ATOM     14  C   UNL     1      15.304  38.293 122.839  1.00  0.00     0.062 A 
ATOM     15  C   UNL     1      16.113  37.450 122.071  1.00  0.00     0.162 A 
ATOM     16  C   UNL     1      16.037  37.176 124.857  1.00  0.00     0.062 A 
ATOM     17  C   UNL     1      16.897  36.467 122.698  1.00  0.00     0.200 A 
ATOM     18  C   UNL     1      16.855  36.331 124.097  1.00  0.00     0.162 A 
BRANCH  15  19
ATOM     19  O   UNL     1      16.124  37.602 120.685  1.00  0.00    -0.504 OA
ATOM     20  H   UNL     1      15.376  38.071 120.188  1.00  0.00     0.293 HD
ENDBRANCH  15  19
BRANCH  17  21
ATOM     21  O   UNL     1      17.708  35.635 121.926  1.00  0.00    -0.502 OA
ATOM     22  H   UNL     1      18.104  35.934 121.043  1.00  0.00     0.293 HD
ENDBRANCH  17  21
BRANCH  18  23
ATOM     23  O   UNL     1      17.624  35.353 124.727  1.00  0.00    -0.504 OA
ATOM     24  H   UNL     1      17.377  34.991 125.640  1.00  0.00     0.293 HD
ENDBRANCH  18  23
ENDBRANCH   3  13
BRANCH  10  25
ATOM     25  O   UNL     1      11.061  41.640 128.034  1.00  0.00    -0.507 OA
ATOM     26  H   UNL     1      10.229  42.211 127.999  1.00  0.00     0.293 HD
ENDBRANCH  10  25
BRANCH  11  27
ATOM     27  O   UNL     1      14.471  44.785 126.862  1.00  0.00    -0.508 OA
ATOM     28  H   UNL     1      14.427  45.300 127.734  1.00  0.00     0.293 HD
ENDBRANCH  11  27
ENDBRANCH   1   2
BRANCH   1  29
ATOM     29  C   UNL     1      11.924  36.757 124.400  1.00  0.00     0.339 C 
ATOM     30  C   UNL     1      10.778  35.996 125.091  1.00  0.00     0.214 C 
ATOM     31  O   UNL     1      12.607  35.921 123.472  1.00  0.00    -0.332 OA
ATOM     32  C   UNL     1      11.321  34.717 125.761  1.00  0.00     0.180 C 
ATOM     33  C   UNL     1      13.219  34.813 124.116  1.00  0.00     0.179 C 
ATOM     34  C   UNL     1      12.151  33.894 124.758  1.00  0.00     0.177 C 
BRANCH  30  35
ATOM     35  O   UNL     1      10.177  36.831 126.048  1.00  0.00    -0.384 OA
ATOM     36  H   UNL     1       9.412  37.278 125.601  1.00  0.00     0.211 HD
ENDBRANCH  30  35
BRANCH  32  37
ATOM     37  O   UNL     1      10.284  33.944 126.315  1.00  0.00    -0.387 OA
ATOM     38  H   UNL     1      10.023  34.354 127.180  1.00  0.00     0.211 HD
ENDBRANCH  32  37
BRANCH  33  39
ATOM     39  C   UNL     1      14.073  34.063 123.081  1.00  0.00     0.191 C 
BRANCH  39  40
ATOM     40  O   UNL     1      13.407  33.969 121.850  1.00  0.00    -0.394 OA
ATOM     41  H   UNL     1      13.977  34.432 121.182  1.00  0.00     0.210 HD
ENDBRANCH  39  40
ENDBRANCH  33  39
BRANCH  34  42
ATOM     42  O   UNL     1      11.309  33.359 123.766  1.00  0.00    -0.387 OA
ATOM     43  H   UNL     1      11.756  32.548 123.408  1.00  0.00     0.211 HD
ENDBRANCH  34  42
ENDBRANCH   1  29
TORSDOF 13
ENDMDL
MODEL 4
REMARK VINA RESULT:    -6.019      1.522      2.214
REMARK INTER + INTRA:         -10.799
REMARK INTER:                  -8.818
REMARK INTRA:                  -1.981
REMARK UNBOUND:                -1.789
REMARK SMILES O=c1c(O[C@H]2O[C@H](CO)[C@H](O)[C@H](O)[C@H]2O)c(-c2cc(O)c(O)c(O)c2)oc2cc(O)cc(O)c12
REMARK SMILES IDX 4 1 3 2 16 3 26 4 2 5 27 6 1 7 34 8 28 9 32 10 29 11 31 12
REMARK SMILES IDX 17 13 18 14 19 15 25 16 21 17 23 18 20 19 22 21 24 23 33 25
REMARK SMILES IDX 30 27 5 29 14 30 6 31 12 32 7 33 10 34 15 35 13 37 8 39 9 40
REMARK SMILES IDX 11 42
REMARK H PARENT 20 20 22 22 24 24 33 26 30 28 15 36 13 38 9 41 11 43
REMARK Flexibility Score: inf
ROOT
ATOM      1  O   UNL     1      12.694  36.544 124.807  1.00  0.00    -0.454 OA
ENDROOT
BRANCH   1   2
ATOM      2  C   UNL     1      12.724  37.836 125.369  1.00  0.00     0.214 A 
ATOM      3  C   UNL     1      13.849  38.640 125.108  1.00  0.00     0.181 A 
ATOM      4  O   UNL     1      13.955  39.840 125.662  1.00  0.00    -0.452 OA
ATOM      5  C   UNL     1      11.704  38.359 126.198  1.00  0.00     0.239 A 
ATOM      6  C   UNL     1      13.042  40.354 126.474  1.00  0.00     0.146 A 
ATOM      7  O   UNL     1      10.636  37.716 126.352  1.00  0.00    -0.285 OA
ATOM      8  C   UNL     1      11.877  39.623 126.814  1.00  0.00     0.111 A 
ATOM      9  C   UNL     1      13.249  41.641 126.979  1.00  0.00     0.094 A 
ATOM     10  C   UNL     1      10.951  40.211 127.728  1.00  0.00     0.134 A 
ATOM     11  C   UNL     1      12.306  42.229 127.823  1.00  0.00     0.123 A 
ATOM     12  C   UNL     1      11.166  41.517 128.187  1.00  0.00     0.093 A 
BRANCH   3  13
ATOM     13  C   UNL     1      14.949  38.183 124.228  1.00  0.00     0.029 A 
ATOM     14  C   UNL     1      15.038  38.676 122.918  1.00  0.00     0.062 A 
ATOM     15  C   UNL     1      16.064  38.257 122.065  1.00  0.00     0.162 A 
ATOM     16  C   UNL     1      15.881  37.228 124.662  1.00  0.00     0.062 A 
ATOM     17  C   UNL     1      17.012  37.322 122.514  1.00  0.00     0.200 A 
ATOM     18  C   UNL     1      16.916  36.805 123.818  1.00  0.00     0.162 A 
BRANCH  15  19
ATOM     19  O   UNL     1      16.125  38.779 120.773  1.00  0.00    -0.504 OA
ATOM     20  H   UNL     1      15.833  38.247 119.962  1.00  0.00     0.293 HD
ENDBRANCH  15  19
BRANCH  17  21
ATOM     21  O   UNL     1      18.038  36.914 121.661  1.00  0.00    -0.502 OA
ATOM     22  H   UNL     1      17.861  36.370 120.825  1.00  0.00     0.293 HD
ENDBRANCH  17  21
BRANCH  18  23
ATOM     23  O   UNL     1      17.847  35.872 124.270  1.00  0.00    -0.504 OA
ATOM     24  H   UNL     1      17.662  35.282 125.073  1.00  0.00     0.293 HD
ENDBRANCH  18  23
ENDBRANCH   3  13
BRANCH  10  25
ATOM     25  O   UNL     1       9.831  39.549 128.239  1.00  0.00    -0.507 OA
ATOM     26  H   UNL     1       9.120  39.105 127.677  1.00  0.00     0.293 HD
ENDBRANCH  10  25
BRANCH  11  27
ATOM     27  O   UNL     1      12.501  43.519 128.316  1.00  0.00    -0.508 OA
ATOM     28  H   UNL     1      13.055  43.691 129.147  1.00  0.00     0.293 HD
ENDBRANCH  11  27
ENDBRANCH   1   2
BRANCH   1  29
ATOM     29  C   UNL     1      11.913  36.091 123.695  1.00  0.00     0.339 C 
ATOM     30  C   UNL     1      11.152  34.806 124.069  1.00  0.00     0.214 C 
ATOM     31  O   UNL     1      12.717  35.891 122.538  1.00  0.00    -0.332 OA
ATOM     32  C   UNL     1      12.144  33.639 124.253  1.00  0.00     0.180 C 
ATOM     33  C   UNL     1      13.717  34.906 122.758  1.00  0.00     0.179 C 
ATOM     34  C   UNL     1      13.074  33.525 123.032  1.00  0.00     0.177 C 
BRANCH  30  35
ATOM     35  O   UNL     1      10.429  35.023 125.253  1.00  0.00    -0.384 OA
ATOM     36  H   UNL     1      10.972  35.637 125.815  1.00  0.00     0.211 HD
ENDBRANCH  30  35
BRANCH  32  37
ATOM     37  O   UNL     1      11.474  32.426 124.495  1.00  0.00    -0.387 OA
ATOM     38  H   UNL     1      11.890  31.725 123.929  1.00  0.00     0.211 HD
ENDBRANCH  32  37
BRANCH  33  39
ATOM     39  C   UNL     1      14.643  34.874 121.532  1.00  0.00     0.191 C 
BRANCH  39  40
ATOM     40  O   UNL     1      14.890  33.557 121.119  1.00  0.00    -0.394 OA
ATOM     41  H   UNL     1      15.844  33.517 120.848  1.00  0.00     0.210 HD
ENDBRANCH  39  40
ENDBRANCH  33  39
BRANCH  34  42
ATOM     42  O   UNL     1      12.341  33.099 121.909  1.00  0.00    -0.387 OA
ATOM     43  H   UNL     1      12.207  32.120 122.001  1.00  0.00     0.211 HD
ENDBRANCH  34  42
ENDBRANCH   1  29
TORSDOF 13
ENDMDL
MODEL 5
REMARK VINA RESULT:    -5.750      1.395      2.083
REMARK INTER + INTRA:         -10.396
REMARK INTER:                  -9.158
REMARK INTRA:                  -1.238
REMARK UNBOUND:                -1.789
REMARK SMILES O=c1c(O[C@H]2O[C@H](CO)[C@H](O)[C@H](O)[C@H]2O)c(-c2cc(O)c(O)c(O)c2)oc2cc(O)cc(O)c12
REMARK SMILES IDX 4 1 3 2 16 3 26 4 2 5 27 6 1 7 34 8 28 9 32 10 29 11 31 12
REMARK SMILES IDX 17 13 18 14 19 15 25 16 21 17 23 18 20 19 22 21 24 23 33 25
REMARK SMILES IDX 30 27 5 29 14 30 6 31 12 32 7 33 10 34 15 35 13 37 8 39 9 40
REMARK SMILES IDX 11 42
REMARK H PARENT 20 20 22 22 24 24 33 26 30 28 15 36 13 38 9 41 11 43
REMARK Flexibility Score: inf
ROOT
ATOM      1  O   UNL     1      13.781  36.032 123.590  1.00  0.00    -0.454 OA
ENDROOT
BRANCH   1   2
ATOM      2  C   UNL     1      13.846  37.324 124.149  1.00  0.00     0.214 A 
ATOM      3  C   UNL     1      14.731  38.249 123.565  1.00  0.00     0.181 A 
ATOM      4  O   UNL     1      14.875  39.459 124.091  1.00  0.00    -0.452 OA
ATOM      5  C   UNL     1      13.095  37.734 125.275  1.00  0.00     0.239 A 
ATOM      6  C   UNL     1      14.221  39.872 125.166  1.00  0.00     0.146 A 
ATOM      7  O   UNL     1      12.211  36.975 125.745  1.00  0.00    -0.285 OA
ATOM      8  C   UNL     1      13.315  39.015 125.839  1.00  0.00     0.111 A 
ATOM      9  C   UNL     1      14.434  41.178 125.615  1.00  0.00     0.094 A 
ATOM     10  C   UNL     1      12.672  39.501 127.018  1.00  0.00     0.134 A 
ATOM     11  C   UNL     1      13.753  41.662 126.733  1.00  0.00     0.123 A 
ATOM     12  C   UNL     1      12.876  40.826 127.422  1.00  0.00     0.093 A 
BRANCH   3  13
ATOM     13  C   UNL     1      15.535  37.913 122.367  1.00  0.00     0.029 A 
ATOM     14  C   UNL     1      15.347  38.640 121.182  1.00  0.00     0.062 A 
ATOM     15  C   UNL     1      16.088  38.340 120.035  1.00  0.00     0.162 A 
ATOM     16  C   UNL     1      16.451  36.850 122.378  1.00  0.00     0.062 A 
ATOM     17  C   UNL     1      17.025  37.292 120.059  1.00  0.00     0.200 A 
ATOM     18  C   UNL     1      17.203  36.545 121.237  1.00  0.00     0.162 A 
BRANCH  15  19
ATOM     19  O   UNL     1      15.880  39.091 118.879  1.00  0.00    -0.504 OA
ATOM     20  H   UNL     1      16.179  38.770 117.966  1.00  0.00     0.293 HD
ENDBRANCH  15  19
BRANCH  17  21
ATOM     21  O   UNL     1      17.767  37.003 118.914  1.00  0.00    -0.502 OA
ATOM     22  H   UNL     1      17.585  37.452 118.024  1.00  0.00     0.293 HD
ENDBRANCH  17  21
BRANCH  18  23
ATOM     23  O   UNL     1      18.124  35.499 121.267  1.00  0.00    -0.504 OA
ATOM     24  H   UNL     1      18.059  34.714 120.630  1.00  0.00     0.293 HD
ENDBRANCH  18  23
ENDBRANCH   3  13
BRANCH  10  25
ATOM     25  O   UNL     1      11.857  38.719 127.841  1.00  0.00    -0.507 OA
ATOM     26  H   UNL     1      11.990  38.600 128.835  1.00  0.00     0.293 HD
ENDBRANCH  10  25
BRANCH  11  27
ATOM     27  O   UNL     1      13.951  42.969 127.174  1.00  0.00    -0.508 OA
ATOM     28  H   UNL     1      14.501  43.172 128.002  1.00  0.00     0.293 HD
ENDBRANCH  11  27
ENDBRANCH   1   2
BRANCH   1  29
ATOM     29  C   UNL     1      12.620  35.341 123.116  1.00  0.00     0.339 C 
ATOM     30  C   UNL     1      12.940  33.851 122.899  1.00  0.00     0.214 C 
ATOM     31  O   UNL     1      12.108  35.932 121.928  1.00  0.00    -0.332 OA
ATOM     32  C   UNL     1      13.911  33.687 121.711  1.00  0.00     0.180 C 
ATOM     33  C   UNL     1      13.058  35.897 120.872  1.00  0.00     0.179 C 
ATOM     34  C   UNL     1      13.381  34.436 120.475  1.00  0.00     0.177 C 
BRANCH  30  35
ATOM     35  O   UNL     1      13.510  33.323 124.070  1.00  0.00    -0.384 OA
ATOM     36  H   UNL     1      14.184  32.651 123.786  1.00  0.00     0.211 HD
ENDBRANCH  30  35
BRANCH  32  37
ATOM     37  O   UNL     1      14.145  32.330 121.420  1.00  0.00    -0.387 OA
ATOM     38  H   UNL     1      15.120  32.163 121.497  1.00  0.00     0.211 HD
ENDBRANCH  32  37
BRANCH  33  39
ATOM     39  C   UNL     1      12.497  36.702 119.689  1.00  0.00     0.191 C 
BRANCH  39  40
ATOM     40  O   UNL     1      11.200  36.282 119.361  1.00  0.00    -0.394 OA
ATOM     41  H   UNL     1      11.159  35.309 119.552  1.00  0.00     0.210 HD
ENDBRANCH  39  40
ENDBRANCH  33  39
BRANCH  34  42
ATOM     42  O   UNL     1      12.225  33.798 119.988  1.00  0.00    -0.387 OA
ATOM     43  H   UNL     1      12.525  33.024 119.443  1.00  0.00     0.211 HD
ENDBRANCH  34  42
ENDBRANCH   1  29
TORSDOF 13
ENDMDL
MODEL 6
REMARK VINA RESULT:    -5.586      2.136      6.462
REMARK INTER + INTRA:         -10.150
REMARK INTER:                  -8.126
REMARK INTRA:                  -2.024
REMARK UNBOUND:                -1.789
REMARK SMILES O=c1c(O[C@H]2O[C@H](CO)[C@H](O)[C@H](O)[C@H]2O)c(-c2cc(O)c(O)c(O)c2)oc2cc(O)cc(O)c12
REMARK SMILES IDX 4 1 3 2 16 3 26 4 2 5 27 6 1 7 34 8 28 9 32 10 29 11 31 12
REMARK SMILES IDX 17 13 18 14 19 15 25 16 21 17 23 18 20 19 22 21 24 23 33 25
REMARK SMILES IDX 30 27 5 29 14 30 6 31 12 32 7 33 10 34 15 35 13 37 8 39 9 40
REMARK SMILES IDX 11 42
REMARK H PARENT 20 20 22 22 24 24 33 26 30 28 15 36 13 38 9 41 11 43
REMARK Flexibility Score: inf
ROOT
ATOM      1  O   UNL     1      13.427  36.261 123.697  1.00  0.00    -0.454 OA
ENDROOT
BRANCH   1   2
ATOM      2  C   UNL     1      14.515  36.884 123.052  1.00  0.00     0.214 A 
ATOM      3  C   UNL     1      14.616  38.285 123.139  1.00  0.00     0.181 A 
ATOM      4  O   UNL     1      15.586  38.925 122.499  1.00  0.00    -0.452 OA
ATOM      5  C   UNL     1      15.492  36.186 122.304  1.00  0.00     0.239 A 
ATOM      6  C   UNL     1      16.500  38.316 121.758  1.00  0.00     0.146 A 
ATOM      7  O   UNL     1      15.500  34.930 122.307  1.00  0.00    -0.285 OA
ATOM      8  C   UNL     1      16.482  36.909 121.592  1.00  0.00     0.111 A 
ATOM      9  C   UNL     1      17.491  39.092 121.150  1.00  0.00     0.094 A 
ATOM     10  C   UNL     1      17.466  36.313 120.746  1.00  0.00     0.134 A 
ATOM     11  C   UNL     1      18.484  38.492 120.376  1.00  0.00     0.123 A 
ATOM     12  C   UNL     1      18.469  37.112 120.182  1.00  0.00     0.093 A 
BRANCH   3  13
ATOM     13  C   UNL     1      13.653  39.091 123.924  1.00  0.00     0.029 A 
ATOM     14  C   UNL     1      12.428  39.459 123.349  1.00  0.00     0.062 A 
ATOM     15  C   UNL     1      11.504  40.225 124.067  1.00  0.00     0.162 A 
ATOM     16  C   UNL     1      13.960  39.534 125.220  1.00  0.00     0.062 A 
ATOM     17  C   UNL     1      11.804  40.642 125.375  1.00  0.00     0.200 A 
ATOM     18  C   UNL     1      13.039  40.296 125.950  1.00  0.00     0.162 A 
BRANCH  15  19
ATOM     19  O   UNL     1      10.292  40.562 123.464  1.00  0.00    -0.504 OA
ATOM     20  H   UNL     1       9.601  41.139 123.928  1.00  0.00     0.293 HD
ENDBRANCH  15  19
BRANCH  17  21
ATOM     21  O   UNL     1      10.873  41.399 126.088  1.00  0.00    -0.502 OA
ATOM     22  H   UNL     1      10.810  41.365 127.098  1.00  0.00     0.293 HD
ENDBRANCH  17  21
BRANCH  18  23
ATOM     23  O   UNL     1      13.348  40.713 127.244  1.00  0.00    -0.504 OA
ATOM     24  H   UNL     1      13.395  41.695 127.488  1.00  0.00     0.293 HD
ENDBRANCH  18  23
ENDBRANCH   3  13
BRANCH  10  25
ATOM     25  O   UNL     1      17.483  34.959 120.401  1.00  0.00    -0.507 OA
ATOM     26  H   UNL     1      17.775  34.213 121.016  1.00  0.00     0.293 HD
ENDBRANCH  10  25
BRANCH  11  27
ATOM     27  O   UNL     1      19.483  39.261 119.782  1.00  0.00    -0.508 OA
ATOM     28  H   UNL     1      20.447  38.948 119.755  1.00  0.00     0.293 HD
ENDBRANCH  11  27
ENDBRANCH   1   2
BRANCH   1  29
ATOM     29  C   UNL     1      13.389  35.718 125.021  1.00  0.00     0.339 C 
ATOM     30  C   UNL     1      13.042  34.220 124.971  1.00  0.00     0.214 C 
ATOM     31  O   UNL     1      12.477  36.428 125.851  1.00  0.00    -0.332 OA
ATOM     32  C   UNL     1      11.580  34.031 124.512  1.00  0.00     0.180 C 
ATOM     33  C   UNL     1      11.150  36.361 125.349  1.00  0.00     0.179 C 
ATOM     34  C   UNL     1      10.633  34.902 125.357  1.00  0.00     0.177 C 
BRANCH  30  35
ATOM     35  O   UNL     1      13.918  33.569 124.087  1.00  0.00    -0.384 OA
ATOM     36  H   UNL     1      14.458  32.936 124.630  1.00  0.00     0.211 HD
ENDBRANCH  30  35
BRANCH  32  37
ATOM     37  O   UNL     1      11.197  32.678 124.553  1.00  0.00    -0.387 OA
ATOM     38  H   UNL     1      11.984  32.143 124.832  1.00  0.00     0.211 HD
ENDBRANCH  32  37
BRANCH  33  39
ATOM     39  C   UNL     1      10.264  37.288 126.197  1.00  0.00     0.191 C 
BRANCH  39  40
ATOM     40  O   UNL     1       8.946  36.811 126.257  1.00  0.00    -0.394 OA
ATOM     41  H   UNL     1       8.397  37.420 125.697  1.00  0.00     0.210 HD
ENDBRANCH  39  40
ENDBRANCH  33  39
BRANCH  34  42
ATOM     42  O   UNL     1      10.581  34.412 126.675  1.00  0.00    -0.387 OA
ATOM     43  H   UNL     1      11.195  34.970 127.220  1.00  0.00     0.211 HD
ENDBRANCH  34  42
ENDBRANCH   1  29
TORSDOF 13
ENDMDL
MODEL 7
REMARK VINA RESULT:    -5.451      2.242      7.083
REMARK INTER + INTRA:          -9.948
REMARK INTER:                  -8.388
REMARK INTRA:                  -1.560
REMARK UNBOUND:                -1.789
REMARK SMILES O=c1c(O[C@H]2O[C@H](CO)[C@H](O)[C@H](O)[C@H]2O)c(-c2cc(O)c(O)c(O)c2)oc2cc(O)cc(O)c12
REMARK SMILES IDX 4 1 3 2 16 3 26 4 2 5 27 6 1 7 34 8 28 9 32 10 29 11 31 12
REMARK SMILES IDX 17 13 18 14 19 15 25 16 21 17 23 18 20 19 22 21 24 23 33 25
REMARK SMILES IDX 30 27 5 29 14 30 6 31 12 32 7 33 10 34 15 35 13 37 8 39 9 40
REMARK SMILES IDX 11 42
REMARK H PARENT 20 20 22 22 24 24 33 26 30 28 15 36 13 38 9 41 11 43
REMARK Flexibility Score: inf
ROOT
ATOM      1  O   UNL     1      14.988  37.707 121.844  1.00  0.00    -0.454 OA
ENDROOT
BRANCH   1   2
ATOM      2  C   UNL     1      13.871  36.863 121.676  1.00  0.00     0.214 A 
ATOM      3  C   UNL     1      12.793  37.014 122.568  1.00  0.00     0.181 A 
ATOM      4  O   UNL     1      11.745  36.205 122.491  1.00  0.00    -0.452 OA
ATOM      5  C   UNL     1      13.784  35.860 120.683  1.00  0.00     0.239 A 
ATOM      6  C   UNL     1      11.638  35.229 121.602  1.00  0.00     0.146 A 
ATOM      7  O   UNL     1      14.673  35.779 119.799  1.00  0.00    -0.285 OA
ATOM      8  C   UNL     1      12.672  34.982 120.666  1.00  0.00     0.111 A 
ATOM      9  C   UNL     1      10.474  34.455 121.599  1.00  0.00     0.094 A 
ATOM     10  C   UNL     1      12.520  33.888 119.760  1.00  0.00     0.134 A 
ATOM     11  C   UNL     1      10.310  33.428 120.668  1.00  0.00     0.123 A 
ATOM     12  C   UNL     1      11.327  33.155 119.755  1.00  0.00     0.093 A 
BRANCH   3  13
ATOM     13  C   UNL     1      12.789  38.057 123.620  1.00  0.00     0.029 A 
ATOM     14  C   UNL     1      13.318  37.766 124.885  1.00  0.00     0.062 A 
ATOM     15  C   UNL     1      13.322  38.731 125.897  1.00  0.00     0.162 A 
ATOM     16  C   UNL     1      12.222  39.321 123.391  1.00  0.00     0.062 A 
ATOM     17  C   UNL     1      12.779  40.004 125.654  1.00  0.00     0.200 A 
ATOM     18  C   UNL     1      12.226  40.297 124.395  1.00  0.00     0.162 A 
BRANCH  15  19
ATOM     19  O   UNL     1      13.867  38.407 127.139  1.00  0.00    -0.504 OA
ATOM     20  H   UNL     1      14.131  39.115 127.814  1.00  0.00     0.293 HD
ENDBRANCH  15  19
BRANCH  17  21
ATOM     21  O   UNL     1      12.793  40.965 126.666  1.00  0.00    -0.502 OA
ATOM     22  H   UNL     1      13.623  41.162 127.213  1.00  0.00     0.293 HD
ENDBRANCH  17  21
BRANCH  18  23
ATOM     23  O   UNL     1      11.678  41.555 124.148  1.00  0.00    -0.504 OA
ATOM     24  H   UNL     1      12.151  42.234 123.563  1.00  0.00     0.293 HD
ENDBRANCH  18  23
ENDBRANCH   3  13
BRANCH  10  25
ATOM     25  O   UNL     1      13.515  33.462 118.876  1.00  0.00    -0.507 OA
ATOM     26  H   UNL     1      13.705  32.498 118.646  1.00  0.00     0.293 HD
ENDBRANCH  10  25
BRANCH  11  27
ATOM     27  O   UNL     1       9.144  32.664 120.651  1.00  0.00    -0.508 OA
ATOM     28  H   UNL     1       8.984  31.926 121.327  1.00  0.00     0.293 HD
ENDBRANCH  11  27
ENDBRANCH   1   2
BRANCH   1  29
ATOM     29  C   UNL     1      16.208  37.416 122.536  1.00  0.00     0.339 C 
ATOM     30  C   UNL     1      16.926  38.723 122.917  1.00  0.00     0.214 C 
ATOM     31  O   UNL     1      17.056  36.570 121.769  1.00  0.00    -0.332 OA
ATOM     32  C   UNL     1      17.446  39.429 121.647  1.00  0.00     0.180 C 
ATOM     33  C   UNL     1      17.424  37.175 120.537  1.00  0.00     0.179 C 
ATOM     34  C   UNL     1      18.263  38.452 120.783  1.00  0.00     0.177 C 
BRANCH  30  35
ATOM     35  O   UNL     1      16.035  39.559 123.610  1.00  0.00    -0.384 OA
ATOM     36  H   UNL     1      15.521  38.980 124.232  1.00  0.00     0.211 HD
ENDBRANCH  30  35
BRANCH  32  37
ATOM     37  O   UNL     1      18.197  40.575 121.964  1.00  0.00    -0.387 OA
ATOM     38  H   UNL     1      17.680  41.111 122.621  1.00  0.00     0.211 HD
ENDBRANCH  32  37
BRANCH  33  39
ATOM     39  C   UNL     1      18.189  36.138 119.699  1.00  0.00     0.191 C 
BRANCH  39  40
ATOM     40  O   UNL     1      19.195  35.520 120.455  1.00  0.00    -0.394 OA
ATOM     41  H   UNL     1      20.027  35.568 119.917  1.00  0.00     0.210 HD
ENDBRANCH  39  40
ENDBRANCH  33  39
BRANCH  34  42
ATOM     42  O   UNL     1      19.465  38.125 121.437  1.00  0.00    -0.387 OA
ATOM     43  H   UNL     1      19.594  38.790 122.162  1.00  0.00     0.211 HD
ENDBRANCH  34  42
ENDBRANCH   1  29
TORSDOF 13
ENDMDL
MODEL 8
REMARK VINA RESULT:    -5.439      2.012      7.532
REMARK INTER + INTRA:          -9.931
REMARK INTER:                  -8.059
REMARK INTRA:                  -1.872
REMARK UNBOUND:                -1.789
REMARK SMILES O=c1c(O[C@H]2O[C@H](CO)[C@H](O)[C@H](O)[C@H]2O)c(-c2cc(O)c(O)c(O)c2)oc2cc(O)cc(O)c12
REMARK SMILES IDX 4 1 3 2 16 3 26 4 2 5 27 6 1 7 34 8 28 9 32 10 29 11 31 12
REMARK SMILES IDX 17 13 18 14 19 15 25 16 21 17 23 18 20 19 22 21 24 23 33 25
REMARK SMILES IDX 30 27 5 29 14 30 6 31 12 32 7 33 10 34 15 35 13 37 8 39 9 40
REMARK SMILES IDX 11 42
REMARK H PARENT 20 20 22 22 24 24 33 26 30 28 15 36 13 38 9 41 11 43
REMARK Flexibility Score: inf
ROOT
ATOM      1  O   UNL     1      14.291  38.404 124.168  1.00  0.00    -0.454 OA
ENDROOT
BRANCH   1   2
ATOM      2  C   UNL     1      15.017  37.682 123.199  1.00  0.00     0.214 A 
ATOM      3  C   UNL     1      14.664  36.337 122.981  1.00  0.00     0.181 A 
ATOM      4  O   UNL     1      15.355  35.596 122.125  1.00  0.00    -0.452 OA
ATOM      5  C   UNL     1      16.091  38.222 122.455  1.00  0.00     0.239 A 
ATOM      6  C   UNL     1      16.391  36.050 121.434  1.00  0.00     0.146 A 
ATOM      7  O   UNL     1      16.352  39.449 122.537  1.00  0.00    -0.285 OA
ATOM      8  C   UNL     1      16.838  37.386 121.588  1.00  0.00     0.111 A 
ATOM      9  C   UNL     1      17.027  35.184 120.541  1.00  0.00     0.094 A 
ATOM     10  C   UNL     1      17.986  37.806 120.850  1.00  0.00     0.134 A 
ATOM     11  C   UNL     1      18.111  35.624 119.780  1.00  0.00     0.123 A 
ATOM     12  C   UNL     1      18.579  36.927 119.934  1.00  0.00     0.093 A 
BRANCH   3  13
ATOM     13  C   UNL     1      13.535  35.700 123.696  1.00  0.00     0.029 A 
ATOM     14  C   UNL     1      13.639  35.451 125.072  1.00  0.00     0.062 A 
ATOM     15  C   UNL     1      12.589  34.846 125.770  1.00  0.00     0.162 A 
ATOM     16  C   UNL     1      12.376  35.295 123.015  1.00  0.00     0.062 A 
ATOM     17  C   UNL     1      11.419  34.468 125.089  1.00  0.00     0.200 A 
ATOM     18  C   UNL     1      11.316  34.693 123.705  1.00  0.00     0.162 A 
BRANCH  15  19
ATOM     19  O   UNL     1      12.726  34.625 127.140  1.00  0.00    -0.504 OA
ATOM     20  H   UNL     1      12.408  35.296 127.830  1.00  0.00     0.293 HD
ENDBRANCH  15  19
BRANCH  17  21
ATOM     21  O   UNL     1      10.372  33.872 125.793  1.00  0.00    -0.502 OA
ATOM     22  H   UNL     1      10.528  33.137 126.473  1.00  0.00     0.293 HD
ENDBRANCH  17  21
BRANCH  18  23
ATOM     23  O   UNL     1      10.163  34.315 123.020  1.00  0.00    -0.504 OA
ATOM     24  H   UNL     1       9.339  34.905 123.001  1.00  0.00     0.293 HD
ENDBRANCH  18  23
ENDBRANCH   3  13
BRANCH  10  25
ATOM     25  O   UNL     1      18.601  39.051 121.004  1.00  0.00    -0.507 OA
ATOM     26  H   UNL     1      19.493  39.200 121.452  1.00  0.00     0.293 HD
ENDBRANCH  10  25
BRANCH  11  27
ATOM     27  O   UNL     1      18.737  34.769 118.875  1.00  0.00    -0.508 OA
ATOM     28  H   UNL     1      18.227  34.334 118.114  1.00  0.00     0.293 HD
ENDBRANCH  11  27
ENDBRANCH   1   2
BRANCH   1  29
ATOM     29  C   UNL     1      13.350  39.461 123.949  1.00  0.00     0.339 C 
ATOM     30  C   UNL     1      13.634  40.631 124.909  1.00  0.00     0.214 C 
ATOM     31  O   UNL     1      12.010  39.004 124.082  1.00  0.00    -0.332 OA
ATOM     32  C   UNL     1      13.308  40.216 126.359  1.00  0.00     0.180 C 
ATOM     33  C   UNL     1      11.754  38.499 125.384  1.00  0.00     0.179 C 
ATOM     34  C   UNL     1      11.891  39.619 126.443  1.00  0.00     0.177 C 
BRANCH  30  35
ATOM     35  O   UNL     1      14.984  41.005 124.800  1.00  0.00    -0.384 OA
ATOM     36  H   UNL     1      15.096  41.838 125.328  1.00  0.00     0.211 HD
ENDBRANCH  30  35
BRANCH  32  37
ATOM     37  O   UNL     1      13.459  41.294 127.250  1.00  0.00    -0.387 OA
ATOM     38  H   UNL     1      14.030  41.977 126.814  1.00  0.00     0.211 HD
ENDBRANCH  32  37
BRANCH  33  39
ATOM     39  C   UNL     1      10.351  37.871 125.393  1.00  0.00     0.191 C 
BRANCH  39  40
ATOM     40  O   UNL     1       9.822  37.834 126.692  1.00  0.00    -0.394 OA
ATOM     41  H   UNL     1      10.257  38.569 127.197  1.00  0.00     0.210 HD
ENDBRANCH  39  40
ENDBRANCH  33  39
BRANCH  34  42
ATOM     42  O   UNL     1      10.934  40.625 126.215  1.00  0.00    -0.387 OA
ATOM     43  H   UNL     1      10.096  40.339 126.662  1.00  0.00     0.211 HD
ENDBRANCH  34  42
ENDBRANCH   1  29
TORSDOF 13
ENDMDL
MODEL 9
REMARK VINA RESULT:    -5.382      1.741      3.339
REMARK INTER + INTRA:          -9.844
REMARK INTER:                  -8.420
REMARK INTRA:                  -1.425
REMARK UNBOUND:                -1.789
REMARK SMILES O=c1c(O[C@H]2O[C@H](CO)[C@H](O)[C@H](O)[C@H]2O)c(-c2cc(O)c(O)c(O)c2)oc2cc(O)cc(O)c12
REMARK SMILES IDX 4 1 3 2 16 3 26 4 2 5 27 6 1 7 34 8 28 9 32 10 29 11 31 12
REMARK SMILES IDX 17 13 18 14 19 15 25 16 21 17 23 18 20 19 22 21 24 23 33 25
REMARK SMILES IDX 30 27 5 29 14 30 6 31 12 32 7 33 10 34 15 35 13 37 8 39 9 40
REMARK SMILES IDX 11 42
REMARK H PARENT 20 20 22 22 24 24 33 26 30 28 15 36 13 38 9 41 11 43
REMARK Flexibility Score: inf
ROOT
ATOM      1  O   UNL     1      12.700  37.134 124.124  1.00  0.00    -0.454 OA
ENDROOT
BRANCH   1   2
ATOM      2  C   UNL     1      12.935  38.407 124.683  1.00  0.00     0.214 A 
ATOM      3  C   UNL     1      14.191  39.000 124.460  1.00  0.00     0.181 A 
ATOM      4  O   UNL     1      14.485  40.169 125.015  1.00  0.00    -0.452 OA
ATOM      5  C   UNL     1      11.994  39.106 125.474  1.00  0.00     0.239 A 
ATOM      6  C   UNL     1      13.648  40.841 125.792  1.00  0.00     0.146 A 
ATOM      7  O   UNL     1      10.825  38.661 125.592  1.00  0.00    -0.285 OA
ATOM      8  C   UNL     1      12.363  40.327 126.092  1.00  0.00     0.111 A 
ATOM      9  C   UNL     1      14.058  42.077 126.301  1.00  0.00     0.094 A 
ATOM     10  C   UNL     1      11.521  41.075 126.971  1.00  0.00     0.134 A 
ATOM     11  C   UNL     1      13.204  42.827 127.109  1.00  0.00     0.123 A 
ATOM     12  C   UNL     1      11.944  42.327 127.434  1.00  0.00     0.093 A 
BRANCH   3  13
ATOM     13  C   UNL     1      15.225  38.351 123.622  1.00  0.00     0.029 A 
ATOM     14  C   UNL     1      15.336  38.699 122.268  1.00  0.00     0.062 A 
ATOM     15  C   UNL     1      16.301  38.097 121.453  1.00  0.00     0.162 A 
ATOM     16  C   UNL     1      16.068  37.357 124.143  1.00  0.00     0.062 A 
ATOM     17  C   UNL     1      17.161  37.123 121.987  1.00  0.00     0.200 A 
ATOM     18  C   UNL     1      17.041  36.752 123.337  1.00  0.00     0.162 A 
BRANCH  15  19
ATOM     19  O   UNL     1      16.388  38.478 120.114  1.00  0.00    -0.504 OA
ATOM     20  H   UNL     1      16.987  37.997 119.454  1.00  0.00     0.293 HD
ENDBRANCH  15  19
BRANCH  17  21
ATOM     21  O   UNL     1      18.126  36.532 121.170  1.00  0.00    -0.502 OA
ATOM     22  H   UNL     1      18.967  36.110 121.545  1.00  0.00     0.293 HD
ENDBRANCH  17  21
BRANCH  18  23
ATOM     23  O   UNL     1      17.886  35.781 123.873  1.00  0.00    -0.504 OA
ATOM     24  H   UNL     1      18.757  35.528 123.422  1.00  0.00     0.293 HD
ENDBRANCH  18  23
ENDBRANCH   3  13
BRANCH  10  25
ATOM     25  O   UNL     1      10.287  40.622 127.443  1.00  0.00    -0.507 OA
ATOM     26  H   UNL     1      10.039  39.651 127.563  1.00  0.00     0.293 HD
ENDBRANCH  10  25
BRANCH  11  27
ATOM     27  O   UNL     1      13.602  44.067 127.605  1.00  0.00    -0.508 OA
ATOM     28  H   UNL     1      14.439  44.530 127.267  1.00  0.00     0.293 HD
ENDBRANCH  11  27
ENDBRANCH   1   2
BRANCH   1  29
ATOM     29  C   UNL     1      13.074  35.860 124.661  1.00  0.00     0.339 C 
ATOM     30  C   UNL     1      13.175  34.818 123.533  1.00  0.00     0.214 C 
ATOM     31  O   UNL     1      12.169  35.433 125.673  1.00  0.00    -0.332 OA
ATOM     32  C   UNL     1      11.772  34.519 122.963  1.00  0.00     0.180 C 
ATOM     33  C   UNL     1      10.849  35.288 125.170  1.00  0.00     0.179 C 
ATOM     34  C   UNL     1      10.791  34.173 124.098  1.00  0.00     0.177 C 
BRANCH  30  35
ATOM     35  O   UNL     1      14.018  35.307 122.523  1.00  0.00    -0.384 OA
ATOM     36  H   UNL     1      14.950  35.101 122.799  1.00  0.00     0.211 HD
ENDBRANCH  30  35
BRANCH  32  37
ATOM     37  O   UNL     1      11.814  33.495 121.999  1.00  0.00    -0.387 OA
ATOM     38  H   UNL     1      10.915  33.423 121.586  1.00  0.00     0.211 HD
ENDBRANCH  32  37
BRANCH  33  39
ATOM     39  C   UNL     1       9.910  34.997 126.351  1.00  0.00     0.191 C 
BRANCH  39  40
ATOM     40  O   UNL     1       9.248  36.160 126.769  1.00  0.00    -0.394 OA
ATOM     41  H   UNL     1       8.533  35.872 127.395  1.00  0.00     0.210 HD
ENDBRANCH  39  40
ENDBRANCH  33  39
BRANCH  34  42
ATOM     42  O   UNL     1      11.135  32.933 124.666  1.00  0.00    -0.387 OA
ATOM     43  H   UNL     1      11.167  33.060 125.650  1.00  0.00     0.211 HD
ENDBRANCH  34  42
ENDBRANCH   1  29
TORSDOF 13
ENDMDL
