MODEL 1
REMARK VINA RESULT:    -4.401      0.000      0.000
REMARK INTER + INTRA:          -4.401
REMARK INTER:                  -4.401
REMARK INTRA:                   0.000
REMARK UNBOUND:                 0.000
REMARK SMILES CC(C)=C1CC[C@@H](C)CC1=O
REMARK SMILES IDX 8 1 7 2 6 3 5 4 4 5 2 6 1 7 3 8 10 9 11 10 9 11
REMARK H PARENT
REMARK Flexibility Score: inf
ROOT
ATOM      1  C   UNL     1       1.670   6.710  63.308  1.00  0.00     0.008 C 
ATOM      2  C   UNL     1       0.388   6.089  63.871  1.00  0.00    -0.006 C 
ATOM      3  C   UNL     1      -0.222   5.098  62.866  1.00  0.00     0.008 C 
ATOM      4  C   UNL     1      -1.449   4.391  63.454  1.00  0.00     0.039 C 
ATOM      5  C   UNL     1      -2.477   5.368  64.009  1.00  0.00    -0.006 C 
ATOM      6  C   UNL     1      -3.813   5.084  63.981  1.00  0.00    -0.070 C 
ATOM      7  C   UNL     1      -4.326   3.781  63.412  1.00  0.00     0.039 C 
ATOM      8  C   UNL     1      -4.846   6.070  64.477  1.00  0.00     0.039 C 
ATOM      9  C   UNL     1      -1.930   6.583  64.683  1.00  0.00     0.159 C 
ATOM     10  O   UNL     1      -2.532   7.123  65.648  1.00  0.00    -0.295 OA
ATOM     11  C   UNL     1      -0.634   7.182  64.216  1.00  0.00     0.084 C 
ENDROOT
TORSDOF 0
ENDMDL
MODEL 2
REMARK VINA RESULT:    -4.361      2.013      2.338
REMARK INTER + INTRA:          -4.361
REMARK INTER:                  -4.361
REMARK INTRA:                   0.000
REMARK UNBOUND:                 0.000
REMARK SMILES CC(C)=C1CC[C@@H](C)CC1=O
REMARK SMILES IDX 8 1 7 2 6 3 5 4 4 5 2 6 1 7 3 8 10 9 11 10 9 11
REMARK H PARENT
REMARK Flexibility Score: inf
ROOT
ATOM      1  C   UNL     1       2.641   5.866  63.888  1.00  0.00     0.008 C 
ATOM      2  C   UNL     1       1.388   4.984  63.927  1.00  0.00    -0.006 C 
ATOM      3  C   UNL     1       0.272   5.588  63.059  1.00  0.00     0.008 C 
ATOM      4  C   UNL     1      -0.953   4.666  63.005  1.00  0.00     0.039 C 
ATOM      5  C   UNL     1      -1.443   4.262  64.389  1.00  0.00    -0.006 C 
ATOM      6  C   UNL     1      -2.766   4.029  64.634  1.00  0.00    -0.070 C 
ATOM      7  C   UNL     1      -3.798   4.145  63.536  1.00  0.00     0.039 C 
ATOM      8  C   UNL     1      -3.270   3.682  66.016  1.00  0.00     0.039 C 
ATOM      9  C   UNL     1      -0.384   4.027  65.416  1.00  0.00     0.159 C 
ATOM     10  O   UNL     1      -0.535   3.171  66.328  1.00  0.00    -0.295 OA
ATOM     11  C   UNL     1       0.895   4.812  65.371  1.00  0.00     0.084 C 
ENDROOT
TORSDOF 0
ENDMDL
MODEL 3
REMARK VINA RESULT:    -4.319      2.129      3.096
REMARK INTER + INTRA:          -4.319
REMARK INTER:                  -4.319
REMARK INTRA:                   0.000
REMARK UNBOUND:                 0.000
REMARK SMILES CC(C)=C1CC[C@@H](C)CC1=O
REMARK SMILES IDX 8 1 7 2 6 3 5 4 4 5 2 6 1 7 3 8 10 9 11 10 9 11
REMARK H PARENT
REMARK Flexibility Score: inf
ROOT
ATOM      1  C   UNL     1       3.951   6.498  61.565  1.00  0.00     0.008 C 
ATOM      2  C   UNL     1       2.845   5.714  62.281  1.00  0.00    -0.006 C 
ATOM      3  C   UNL     1       1.560   5.697  61.439  1.00  0.00     0.008 C 
ATOM      4  C   UNL     1       0.475   4.832  62.093  1.00  0.00     0.039 C 
ATOM      5  C   UNL     1       0.218   5.216  63.544  1.00  0.00    -0.006 C 
ATOM      6  C   UNL     1      -1.022   5.085  64.103  1.00  0.00    -0.070 C 
ATOM      7  C   UNL     1      -2.185   4.537  63.310  1.00  0.00     0.039 C 
ATOM      8  C   UNL     1      -1.302   5.515  65.525  1.00  0.00     0.039 C 
ATOM      9  C   UNL     1       1.415   5.626  64.336  1.00  0.00     0.159 C 
ATOM     10  O   UNL     1       1.495   5.392  65.571  1.00  0.00    -0.295 OA
ATOM     11  C   UNL     1       2.560   6.326  63.661  1.00  0.00     0.084 C 
ENDROOT
TORSDOF 0
ENDMDL
MODEL 4
REMARK VINA RESULT:    -4.259      2.037      4.614
REMARK INTER + INTRA:          -4.259
REMARK INTER:                  -4.259
REMARK INTRA:                   0.000
REMARK UNBOUND:                 0.000
REMARK SMILES CC(C)=C1CC[C@@H](C)CC1=O
REMARK SMILES IDX 8 1 7 2 6 3 5 4 4 5 2 6 1 7 3 8 10 9 11 10 9 11
REMARK H PARENT
REMARK Flexibility Score: inf
ROOT
ATOM      1  C   UNL     1      -4.927   2.876  65.507  1.00  0.00     0.008 C 
ATOM      2  C   UNL     1      -3.696   3.750  65.245  1.00  0.00    -0.006 C 
ATOM      3  C   UNL     1      -3.413   3.850  63.737  1.00  0.00     0.008 C 
ATOM      4  C   UNL     1      -2.246   4.803  63.451  1.00  0.00     0.039 C 
ATOM      5  C   UNL     1      -1.000   4.461  64.258  1.00  0.00    -0.006 C 
ATOM      6  C   UNL     1       0.252   4.693  63.763  1.00  0.00    -0.070 C 
ATOM      7  C   UNL     1       0.453   5.313  62.401  1.00  0.00     0.039 C 
ATOM      8  C   UNL     1       1.495   4.306  64.532  1.00  0.00     0.039 C 
ATOM      9  C   UNL     1      -1.235   3.975  65.651  1.00  0.00     0.159 C 
ATOM     10  O   UNL     1      -0.416   4.221  66.576  1.00  0.00    -0.295 OA
ATOM     11  C   UNL     1      -2.469   3.182  65.973  1.00  0.00     0.084 C 
ENDROOT
TORSDOF 0
ENDMDL
MODEL 5
REMARK VINA RESULT:    -4.243      2.385      3.082
REMARK INTER + INTRA:          -4.243
REMARK INTER:                  -4.243
REMARK INTRA:                   0.000
REMARK UNBOUND:                 0.000
REMARK SMILES CC(C)=C1CC[C@@H](C)CC1=O
REMARK SMILES IDX 8 1 7 2 6 3 5 4 4 5 2 6 1 7 3 8 10 9 11 10 9 11
REMARK H PARENT
REMARK Flexibility Score: inf
ROOT
ATOM      1  C   UNL     1       1.581   5.361  61.656  1.00  0.00     0.008 C 
ATOM      2  C   UNL     1       0.774   5.303  62.957  1.00  0.00    -0.006 C 
ATOM      3  C   UNL     1       1.485   4.424  63.998  1.00  0.00     0.008 C 
ATOM      4  C   UNL     1       0.743   4.437  65.340  1.00  0.00     0.039 C 
ATOM      5  C   UNL     1      -0.734   4.093  65.195  1.00  0.00    -0.006 C 
ATOM      6  C   UNL     1      -1.411   3.440  66.186  1.00  0.00    -0.070 C 
ATOM      7  C   UNL     1      -0.727   3.046  67.474  1.00  0.00     0.039 C 
ATOM      8  C   UNL     1      -2.861   3.043  66.029  1.00  0.00     0.039 C 
ATOM      9  C   UNL     1      -1.411   4.613  63.970  1.00  0.00     0.159 C 
ATOM     10  O   UNL     1      -2.627   4.938  63.982  1.00  0.00    -0.295 OA
ATOM     11  C   UNL     1      -0.638   4.762  62.691  1.00  0.00     0.084 C 
ENDROOT
TORSDOF 0
ENDMDL
MODEL 6
REMARK VINA RESULT:    -4.239      3.325      4.712
REMARK INTER + INTRA:          -4.239
REMARK INTER:                  -4.239
REMARK INTRA:                   0.000
REMARK UNBOUND:                 0.000
REMARK SMILES CC(C)=C1CC[C@@H](C)CC1=O
REMARK SMILES IDX 8 1 7 2 6 3 5 4 4 5 2 6 1 7 3 8 10 9 11 10 9 11
REMARK H PARENT
REMARK Flexibility Score: inf
ROOT
ATOM      1  C   UNL     1       4.168   3.218  62.239  1.00  0.00     0.008 C 
ATOM      2  C   UNL     1       2.986   4.176  62.050  1.00  0.00    -0.006 C 
ATOM      3  C   UNL     1       3.469   5.539  61.529  1.00  0.00     0.008 C 
ATOM      4  C   UNL     1       2.290   6.475  61.238  1.00  0.00     0.039 C 
ATOM      5  C   UNL     1       1.341   6.605  62.422  1.00  0.00    -0.006 C 
ATOM      6  C   UNL     1       0.656   7.764  62.658  1.00  0.00    -0.070 C 
ATOM      7  C   UNL     1       0.799   8.958  61.745  1.00  0.00     0.039 C 
ATOM      8  C   UNL     1      -0.245   7.923  63.861  1.00  0.00     0.039 C 
ATOM      9  C   UNL     1       1.121   5.366  63.225  1.00  0.00     0.159 C 
ATOM     10  O   UNL     1       0.017   5.137  63.787  1.00  0.00    -0.295 OA
ATOM     11  C   UNL     1       2.226   4.359  63.372  1.00  0.00     0.084 C 
ENDROOT
TORSDOF 0
ENDMDL
MODEL 7
REMARK VINA RESULT:    -4.122      2.443      4.578
REMARK INTER + INTRA:          -4.122
REMARK INTER:                  -4.122
REMARK INTRA:                   0.000
REMARK UNBOUND:                 0.000
REMARK SMILES CC(C)=C1CC[C@@H](C)CC1=O
REMARK SMILES IDX 8 1 7 2 6 3 5 4 4 5 2 6 1 7 3 8 10 9 11 10 9 11
REMARK H PARENT
REMARK Flexibility Score: inf
ROOT
ATOM      1  C   UNL     1      -2.369   3.925  66.967  1.00  0.00     0.008 C 
ATOM      2  C   UNL     1      -1.518   4.673  65.935  1.00  0.00    -0.006 C 
ATOM      3  C   UNL     1      -1.772   4.123  64.521  1.00  0.00     0.008 C 
ATOM      4  C   UNL     1      -1.006   4.927  63.464  1.00  0.00     0.039 C 
ATOM      5  C   UNL     1       0.478   5.050  63.785  1.00  0.00    -0.006 C 
ATOM      6  C   UNL     1       1.415   5.121  62.794  1.00  0.00    -0.070 C 
ATOM      7  C   UNL     1       1.018   5.096  61.337  1.00  0.00     0.039 C 
ATOM      8  C   UNL     1       2.894   5.186  63.101  1.00  0.00     0.039 C 
ATOM      9  C   UNL     1       0.825   5.206  65.229  1.00  0.00     0.159 C 
ATOM     10  O   UNL     1       1.825   5.881  65.593  1.00  0.00    -0.295 OA
ATOM     11  C   UNL     1      -0.027   4.557  66.282  1.00  0.00     0.084 C 
ENDROOT
TORSDOF 0
ENDMDL
MODEL 8
REMARK VINA RESULT:    -4.049      3.388      4.236
REMARK INTER + INTRA:          -4.049
REMARK INTER:                  -4.049
REMARK INTRA:                   0.000
REMARK UNBOUND:                 0.000
REMARK SMILES CC(C)=C1CC[C@@H](C)CC1=O
REMARK SMILES IDX 8 1 7 2 6 3 5 4 4 5 2 6 1 7 3 8 10 9 11 10 9 11
REMARK H PARENT
REMARK Flexibility Score: inf
ROOT
ATOM      1  C   UNL     1      -0.668   4.080  69.713  1.00  0.00     0.008 C 
ATOM      2  C   UNL     1      -0.797   3.719  68.230  1.00  0.00    -0.006 C 
ATOM      3  C   UNL     1       0.115   4.612  67.373  1.00  0.00     0.008 C 
ATOM      4  C   UNL     1       0.076   4.197  65.897  1.00  0.00     0.039 C 
ATOM      5  C   UNL     1      -1.344   4.115  65.350  1.00  0.00    -0.006 C 
ATOM      6  C   UNL     1      -1.617   4.398  64.042  1.00  0.00    -0.070 C 
ATOM      7  C   UNL     1      -0.521   4.789  63.079  1.00  0.00     0.039 C 
ATOM      8  C   UNL     1      -3.029   4.375  63.502  1.00  0.00     0.039 C 
ATOM      9  C   UNL     1      -2.380   3.598  66.293  1.00  0.00     0.159 C 
ATOM     10  O   UNL     1      -3.368   2.935  65.879  1.00  0.00    -0.295 OA
ATOM     11  C   UNL     1      -2.254   3.859  67.766  1.00  0.00     0.084 C 
ENDROOT
TORSDOF 0
ENDMDL
