MODEL 1
REMARK VINA RESULT:    -6.692      0.000      0.000
REMARK INTER + INTRA:          -8.544
REMARK INTER:                  -8.257
REMARK INTRA:                  -0.287
REMARK UNBOUND:                -0.287
REMARK SMILES Oc1cc(O)c2cc(O)c(-c3cc(O)c(O)c(O)c3)[o+]c2c1
REMARK SMILES IDX 10 1 20 2 21 3 22 4 2 5 3 6 4 7 6 8 7 9 8 10 11 11 12 12
REMARK SMILES IDX 13 13 19 14 15 15 17 16 14 17 16 19 18 21 9 23 1 25 5 27
REMARK H PARENT 14 18 16 20 18 22 9 24 1 26 5 28
REMARK Flexibility Score: inf
ROOT
ATOM      1  C   UNL     1      16.566 -13.469   3.212  1.00  0.00     0.402 A 
ATOM      2  O   UNL     1      16.864 -14.402   4.113  1.00  0.00    -0.202 OA
ATOM      3  C   UNL     1      16.836 -14.188   5.424  1.00  0.00     0.368 A 
ATOM      4  C   UNL     1      17.163 -15.233   6.291  1.00  0.00     0.162 A 
ATOM      5  C   UNL     1      17.139 -15.038   7.672  1.00  0.00     0.128 A 
ATOM      6  C   UNL     1      16.783 -13.787   8.193  1.00  0.00     0.093 A 
ATOM      7  C   UNL     1      16.450 -12.724   7.344  1.00  0.00     0.136 A 
ATOM      8  C   UNL     1      16.476 -12.919   5.939  1.00  0.00     0.125 A 
ATOM      9  C   UNL     1      16.171 -11.908   5.013  1.00  0.00     0.078 A 
ATOM     10  C   UNL     1      16.224 -12.173   3.642  1.00  0.00     0.223 A 
ENDROOT
BRANCH   1  11
ATOM     11  C   UNL     1      16.625 -13.835   1.779  1.00  0.00     0.091 A 
ATOM     12  C   UNL     1      17.681 -13.358   0.988  1.00  0.00     0.068 A 
ATOM     13  C   UNL     1      17.773 -13.704  -0.367  1.00  0.00     0.162 A 
ATOM     14  C   UNL     1      15.676 -14.696   1.202  1.00  0.00     0.068 A 
ATOM     15  C   UNL     1      16.807 -14.549  -0.940  1.00  0.00     0.200 A 
ATOM     16  C   UNL     1      15.760 -15.049  -0.148  1.00  0.00     0.162 A 
BRANCH  13  17
ATOM     17  O   UNL     1      18.819 -13.211  -1.145  1.00  0.00    -0.504 OA
ATOM     18  H   UNL     1      19.142 -13.701  -1.972  1.00  0.00     0.293 HD
ENDBRANCH  13  17
BRANCH  15  19
ATOM     19  O   UNL     1      16.881 -14.902  -2.288  1.00  0.00    -0.502 OA
ATOM     20  H   UNL     1      17.512 -15.620  -2.625  1.00  0.00     0.293 HD
ENDBRANCH  15  19
BRANCH  16  21
ATOM     21  O   UNL     1      14.796 -15.902  -0.684  1.00  0.00    -0.504 OA
ATOM     22  H   UNL     1      13.810 -15.801  -0.475  1.00  0.00     0.293 HD
ENDBRANCH  16  21
ENDBRANCH   1  11
BRANCH  10  23
ATOM     23  O   UNL     1      15.969 -11.156   2.721  1.00  0.00    -0.500 OA
ATOM     24  H   UNL     1      15.282 -10.434   2.902  1.00  0.00     0.294 HD
ENDBRANCH  10  23
BRANCH   5  25
ATOM     25  O   UNL     1      17.468 -16.092   8.521  1.00  0.00    -0.507 OA
ATOM     26  H   UNL     1      17.227 -17.049   8.295  1.00  0.00     0.293 HD
ENDBRANCH   5  25
BRANCH   7  27
ATOM     27  O   UNL     1      16.102 -11.509   7.942  1.00  0.00    -0.507 OA
ATOM     28  H   UNL     1      15.640 -11.424   8.835  1.00  0.00     0.293 HD
ENDBRANCH   7  27
TORSDOF 7
ENDMDL
MODEL 2
REMARK VINA RESULT:    -6.549      0.344      1.826
REMARK INTER + INTRA:          -8.368
REMARK INTER:                  -8.118
REMARK INTRA:                  -0.250
REMARK UNBOUND:                -0.287
REMARK SMILES Oc1cc(O)c2cc(O)c(-c3cc(O)c(O)c(O)c3)[o+]c2c1
REMARK SMILES IDX 10 1 20 2 21 3 22 4 2 5 3 6 4 7 6 8 7 9 8 10 11 11 12 12
REMARK SMILES IDX 13 13 19 14 15 15 17 16 14 17 16 19 18 21 9 23 1 25 5 27
REMARK H PARENT 14 18 16 20 18 22 9 24 1 26 5 28
REMARK Flexibility Score: inf
ROOT
ATOM      1  C   UNL     1      16.642 -13.451   2.914  1.00  0.00     0.402 A 
ATOM      2  O   UNL     1      16.871 -14.352   3.865  1.00  0.00    -0.202 OA
ATOM      3  C   UNL     1      16.822 -14.073   5.163  1.00  0.00     0.368 A 
ATOM      4  C   UNL     1      17.075 -15.089   6.087  1.00  0.00     0.162 A 
ATOM      5  C   UNL     1      17.028 -14.826   7.456  1.00  0.00     0.128 A 
ATOM      6  C   UNL     1      16.723 -13.535   7.908  1.00  0.00     0.093 A 
ATOM      7  C   UNL     1      16.464 -12.500   7.001  1.00  0.00     0.136 A 
ATOM      8  C   UNL     1      16.515 -12.764   5.608  1.00  0.00     0.125 A 
ATOM      9  C   UNL     1      16.283 -11.786   4.628  1.00  0.00     0.078 A 
ATOM     10  C   UNL     1      16.356 -12.120   3.272  1.00  0.00     0.223 A 
ENDROOT
BRANCH   1  11
ATOM     11  C   UNL     1      16.716 -13.888   1.501  1.00  0.00     0.091 A 
ATOM     12  C   UNL     1      15.726 -14.739   0.989  1.00  0.00     0.068 A 
ATOM     13  C   UNL     1      15.761 -15.153  -0.349  1.00  0.00     0.162 A 
ATOM     14  C   UNL     1      17.729 -13.425   0.644  1.00  0.00     0.068 A 
ATOM     15  C   UNL     1      16.789 -14.701  -1.195  1.00  0.00     0.200 A 
ATOM     16  C   UNL     1      17.772 -13.830  -0.694  1.00  0.00     0.162 A 
BRANCH  13  17
ATOM     17  O   UNL     1      14.779 -16.010  -0.843  1.00  0.00    -0.504 OA
ATOM     18  H   UNL     1      14.987 -16.973  -1.082  1.00  0.00     0.293 HD
ENDBRANCH  13  17
BRANCH  15  19
ATOM     19  O   UNL     1      16.842 -15.105  -2.530  1.00  0.00    -0.502 OA
ATOM     20  H   UNL     1      16.038 -15.492  -3.009  1.00  0.00     0.293 HD
ENDBRANCH  15  19
BRANCH  16  21
ATOM     21  O   UNL     1      18.796 -13.353  -1.512  1.00  0.00    -0.504 OA
ATOM     22  H   UNL     1      19.564 -13.940  -1.811  1.00  0.00     0.293 HD
ENDBRANCH  16  21
ENDBRANCH   1  11
BRANCH  10  23
ATOM     23  O   UNL     1      16.175 -11.137   2.298  1.00  0.00    -0.500 OA
ATOM     24  H   UNL     1      15.765 -10.238   2.519  1.00  0.00     0.294 HD
ENDBRANCH  10  23
BRANCH   5  25
ATOM     25  O   UNL     1      17.283 -15.852   8.363  1.00  0.00    -0.507 OA
ATOM     26  H   UNL     1      17.442 -16.804   8.055  1.00  0.00     0.293 HD
ENDBRANCH   5  25
BRANCH   7  27
ATOM     27  O   UNL     1      16.165 -11.241   7.531  1.00  0.00    -0.507 OA
ATOM     28  H   UNL     1      15.888 -11.076   8.487  1.00  0.00     0.293 HD
ENDBRANCH   7  27
TORSDOF 7
ENDMDL
MODEL 3
REMARK VINA RESULT:    -6.068      1.405      2.681
REMARK INTER + INTRA:          -7.774
REMARK INTER:                  -8.025
REMARK INTRA:                   0.252
REMARK UNBOUND:                -0.287
REMARK SMILES Oc1cc(O)c2cc(O)c(-c3cc(O)c(O)c(O)c3)[o+]c2c1
REMARK SMILES IDX 10 1 20 2 21 3 22 4 2 5 3 6 4 7 6 8 7 9 8 10 11 11 12 12
REMARK SMILES IDX 13 13 19 14 15 15 17 16 14 17 16 19 18 21 9 23 1 25 5 27
REMARK H PARENT 14 18 16 20 18 22 9 24 1 26 5 28
REMARK Flexibility Score: inf
ROOT
ATOM      1  C   UNL     1      16.612 -13.542   2.833  1.00  0.00     0.402 A 
ATOM      2  O   UNL     1      17.106 -12.370   3.220  1.00  0.00    -0.202 OA
ATOM      3  C   UNL     1      17.103 -11.957   4.483  1.00  0.00     0.368 A 
ATOM      4  C   UNL     1      17.648 -10.708   4.792  1.00  0.00     0.162 A 
ATOM      5  C   UNL     1      17.661 -10.250   6.109  1.00  0.00     0.128 A 
ATOM      6  C   UNL     1      17.126 -11.047   7.129  1.00  0.00     0.093 A 
ATOM      7  C   UNL     1      16.575 -12.302   6.845  1.00  0.00     0.136 A 
ATOM      8  C   UNL     1      16.557 -12.770   5.506  1.00  0.00     0.125 A 
ATOM      9  C   UNL     1      16.014 -14.008   5.127  1.00  0.00     0.078 A 
ATOM     10  C   UNL     1      16.028 -14.398   3.785  1.00  0.00     0.223 A 
ENDROOT
BRANCH   1  11
ATOM     11  C   UNL     1      16.684 -13.893   1.396  1.00  0.00     0.091 A 
ATOM     12  C   UNL     1      17.722 -13.373   0.609  1.00  0.00     0.068 A 
ATOM     13  C   UNL     1      17.825 -13.703  -0.749  1.00  0.00     0.162 A 
ATOM     14  C   UNL     1      15.765 -14.782   0.812  1.00  0.00     0.068 A 
ATOM     15  C   UNL     1      16.889 -14.577  -1.329  1.00  0.00     0.200 A 
ATOM     16  C   UNL     1      15.860 -15.120  -0.541  1.00  0.00     0.162 A 
BRANCH  13  17
ATOM     17  O   UNL     1      18.853 -13.168  -1.523  1.00  0.00    -0.504 OA
ATOM     18  H   UNL     1      18.691 -12.843  -2.470  1.00  0.00     0.293 HD
ENDBRANCH  13  17
BRANCH  15  19
ATOM     19  O   UNL     1      16.975 -14.915  -2.680  1.00  0.00    -0.502 OA
ATOM     20  H   UNL     1      16.200 -15.333  -3.183  1.00  0.00     0.293 HD
ENDBRANCH  15  19
BRANCH  16  21
ATOM     21  O   UNL     1      14.926 -16.001  -1.085  1.00  0.00    -0.504 OA
ATOM     22  H   UNL     1      14.142 -15.681  -1.639  1.00  0.00     0.293 HD
ENDBRANCH  16  21
ENDBRANCH   1  11
BRANCH  10  23
ATOM     23  O   UNL     1      15.444 -15.607   3.401  1.00  0.00    -0.500 OA
ATOM     24  H   UNL     1      14.676 -15.641   2.741  1.00  0.00     0.294 HD
ENDBRANCH  10  23
BRANCH   5  25
ATOM     25  O   UNL     1      18.209  -9.002   6.397  1.00  0.00    -0.507 OA
ATOM     26  H   UNL     1      18.131  -8.590   7.320  1.00  0.00     0.293 HD
ENDBRANCH   5  25
BRANCH   7  27
ATOM     27  O   UNL     1      16.065 -13.038   7.919  1.00  0.00    -0.507 OA
ATOM     28  H   UNL     1      15.623 -12.631   8.731  1.00  0.00     0.293 HD
ENDBRANCH   7  27
TORSDOF 7
ENDMDL
MODEL 4
REMARK VINA RESULT:    -6.014      1.691      7.114
REMARK INTER + INTRA:          -7.708
REMARK INTER:                  -7.331
REMARK INTRA:                  -0.377
REMARK UNBOUND:                -0.287
REMARK SMILES Oc1cc(O)c2cc(O)c(-c3cc(O)c(O)c(O)c3)[o+]c2c1
REMARK SMILES IDX 10 1 20 2 21 3 22 4 2 5 3 6 4 7 6 8 7 9 8 10 11 11 12 12
REMARK SMILES IDX 13 13 19 14 15 15 17 16 14 17 16 19 18 21 9 23 1 25 5 27
REMARK H PARENT 14 18 16 20 18 22 9 24 1 26 5 28
REMARK Flexibility Score: inf
ROOT
ATOM      1  C   UNL     1      16.898 -12.285   3.151  1.00  0.00     0.402 A 
ATOM      2  O   UNL     1      16.158 -13.204   2.536  1.00  0.00    -0.202 OA
ATOM      3  C   UNL     1      16.443 -13.685   1.331  1.00  0.00     0.368 A 
ATOM      4  C   UNL     1      15.606 -14.651   0.769  1.00  0.00     0.162 A 
ATOM      5  C   UNL     1      15.882 -15.177  -0.493  1.00  0.00     0.128 A 
ATOM      6  C   UNL     1      17.006 -14.734  -1.202  1.00  0.00     0.093 A 
ATOM      7  C   UNL     1      17.861 -13.766  -0.659  1.00  0.00     0.136 A 
ATOM      8  C   UNL     1      17.581 -13.228   0.623  1.00  0.00     0.125 A 
ATOM      9  C   UNL     1      18.374 -12.246   1.239  1.00  0.00     0.078 A 
ATOM     10  C   UNL     1      18.032 -11.760   2.503  1.00  0.00     0.223 A 
ENDROOT
BRANCH   1  11
ATOM     11  C   UNL     1      16.481 -11.836   4.499  1.00  0.00     0.091 A 
ATOM     12  C   UNL     1      15.446 -10.898   4.624  1.00  0.00     0.068 A 
ATOM     13  C   UNL     1      15.018 -10.470   5.888  1.00  0.00     0.162 A 
ATOM     14  C   UNL     1      17.062 -12.371   5.661  1.00  0.00     0.068 A 
ATOM     15  C   UNL     1      15.618 -10.995   7.046  1.00  0.00     0.200 A 
ATOM     16  C   UNL     1      16.640 -11.953   6.927  1.00  0.00     0.162 A 
BRANCH  13  17
ATOM     17  O   UNL     1      13.998  -9.526   5.999  1.00  0.00    -0.504 OA
ATOM     18  H   UNL     1      13.109  -9.753   6.430  1.00  0.00     0.293 HD
ENDBRANCH  13  17
BRANCH  15  19
ATOM     19  O   UNL     1      15.207 -10.579   8.312  1.00  0.00    -0.502 OA
ATOM     20  H   UNL     1      15.421  -9.657   8.674  1.00  0.00     0.293 HD
ENDBRANCH  15  19
BRANCH  16  21
ATOM     21  O   UNL     1      17.245 -12.504   8.057  1.00  0.00    -0.504 OA
ATOM     22  H   UNL     1      17.071 -13.456   8.351  1.00  0.00     0.293 HD
ENDBRANCH  16  21
ENDBRANCH   1  11
BRANCH  10  23
ATOM     23  O   UNL     1      18.791 -10.748   3.094  1.00  0.00    -0.500 OA
ATOM     24  H   UNL     1      19.368 -10.922   3.908  1.00  0.00     0.294 HD
ENDBRANCH  10  23
BRANCH   5  25
ATOM     25  O   UNL     1      15.036 -16.140  -1.038  1.00  0.00    -0.507 OA
ATOM     26  H   UNL     1      14.034 -15.995  -1.094  1.00  0.00     0.293 HD
ENDBRANCH   5  25
BRANCH   7  27
ATOM     27  O   UNL     1      18.964 -13.379  -1.428  1.00  0.00    -0.507 OA
ATOM     28  H   UNL     1      19.318 -12.435  -1.482  1.00  0.00     0.293 HD
ENDBRANCH   7  27
TORSDOF 7
ENDMDL
MODEL 5
REMARK VINA RESULT:    -5.803      1.668      7.306
REMARK INTER + INTRA:          -7.447
REMARK INTER:                  -7.069
REMARK INTRA:                  -0.378
REMARK UNBOUND:                -0.287
REMARK SMILES Oc1cc(O)c2cc(O)c(-c3cc(O)c(O)c(O)c3)[o+]c2c1
REMARK SMILES IDX 10 1 20 2 21 3 22 4 2 5 3 6 4 7 6 8 7 9 8 10 11 11 12 12
REMARK SMILES IDX 13 13 19 14 15 15 17 16 14 17 16 19 18 21 9 23 1 25 5 27
REMARK H PARENT 14 18 16 20 18 22 9 24 1 26 5 28
REMARK Flexibility Score: inf
ROOT
ATOM      1  C   UNL     1      16.376 -12.864   3.472  1.00  0.00     0.402 A 
ATOM      2  O   UNL     1      17.260 -12.440   2.574  1.00  0.00    -0.202 OA
ATOM      3  C   UNL     1      17.382 -12.971   1.362  1.00  0.00     0.368 A 
ATOM      4  C   UNL     1      18.340 -12.454   0.486  1.00  0.00     0.162 A 
ATOM      5  C   UNL     1      18.488 -12.989  -0.793  1.00  0.00     0.128 A 
ATOM      6  C   UNL     1      17.671 -14.050  -1.204  1.00  0.00     0.093 A 
ATOM      7  C   UNL     1      16.704 -14.585  -0.345  1.00  0.00     0.136 A 
ATOM      8  C   UNL     1      16.552 -14.045   0.958  1.00  0.00     0.125 A 
ATOM      9  C   UNL     1      15.619 -14.526   1.891  1.00  0.00     0.078 A 
ATOM     10  C   UNL     1      15.532 -13.946   3.159  1.00  0.00     0.223 A 
ENDROOT
BRANCH   1  11
ATOM     11  C   UNL     1      16.331 -12.183   4.786  1.00  0.00     0.091 A 
ATOM     12  C   UNL     1      15.410 -11.146   4.995  1.00  0.00     0.068 A 
ATOM     13  C   UNL     1      15.332 -10.497   6.235  1.00  0.00     0.162 A 
ATOM     14  C   UNL     1      17.153 -12.591   5.851  1.00  0.00     0.068 A 
ATOM     15  C   UNL     1      16.173 -10.897   7.288  1.00  0.00     0.200 A 
ATOM     16  C   UNL     1      17.081 -11.952   7.093  1.00  0.00     0.162 A 
BRANCH  13  17
ATOM     17  O   UNL     1      14.424  -9.458   6.424  1.00  0.00    -0.504 OA
ATOM     18  H   UNL     1      14.108  -8.881   5.652  1.00  0.00     0.293 HD
ENDBRANCH  13  17
BRANCH  15  19
ATOM     19  O   UNL     1      16.111 -10.261   8.529  1.00  0.00    -0.502 OA
ATOM     20  H   UNL     1      16.915 -10.190   9.140  1.00  0.00     0.293 HD
ENDBRANCH  15  19
BRANCH  16  21
ATOM     21  O   UNL     1      17.917 -12.382   8.123  1.00  0.00    -0.504 OA
ATOM     22  H   UNL     1      17.575 -12.932   8.901  1.00  0.00     0.293 HD
ENDBRANCH  16  21
ENDBRANCH   1  11
BRANCH  10  23
ATOM     23  O   UNL     1      14.639 -14.456   4.103  1.00  0.00    -0.500 OA
ATOM     24  H   UNL     1      14.057 -13.850   4.668  1.00  0.00     0.294 HD
ENDBRANCH  10  23
BRANCH   5  25
ATOM     25  O   UNL     1      19.448 -12.460  -1.653  1.00  0.00    -0.507 OA
ATOM     26  H   UNL     1      20.230 -13.016  -1.981  1.00  0.00     0.293 HD
ENDBRANCH   5  25
BRANCH   7  27
ATOM     27  O   UNL     1      15.926 -15.642  -0.830  1.00  0.00    -0.507 OA
ATOM     28  H   UNL     1      14.918 -15.630  -0.884  1.00  0.00     0.293 HD
ENDBRANCH   7  27
TORSDOF 7
ENDMDL
MODEL 6
REMARK VINA RESULT:    -5.672      5.321      8.667
REMARK INTER + INTRA:          -7.285
REMARK INTER:                  -7.327
REMARK INTRA:                   0.042
REMARK UNBOUND:                -0.287
REMARK SMILES Oc1cc(O)c2cc(O)c(-c3cc(O)c(O)c(O)c3)[o+]c2c1
REMARK SMILES IDX 10 1 20 2 21 3 22 4 2 5 3 6 4 7 6 8 7 9 8 10 11 11 12 12
REMARK SMILES IDX 13 13 19 14 15 15 17 16 14 17 16 19 18 21 9 23 1 25 5 27
REMARK H PARENT 14 18 16 20 18 22 9 24 1 26 5 28
REMARK Flexibility Score: inf
ROOT
ATOM      1  C   UNL     1      20.526 -16.816   7.618  1.00  0.00     0.402 A 
ATOM      2  O   UNL     1      21.740 -16.358   7.911  1.00  0.00    -0.202 OA
ATOM      3  C   UNL     1      22.844 -17.089   7.795  1.00  0.00     0.368 A 
ATOM      4  C   UNL     1      24.075 -16.517   8.125  1.00  0.00     0.162 A 
ATOM      5  C   UNL     1      25.251 -17.259   8.010  1.00  0.00     0.128 A 
ATOM      6  C   UNL     1      25.197 -18.585   7.561  1.00  0.00     0.093 A 
ATOM      7  C   UNL     1      23.976 -19.180   7.224  1.00  0.00     0.136 A 
ATOM      8  C   UNL     1      22.778 -18.429   7.342  1.00  0.00     0.125 A 
ATOM      9  C   UNL     1      21.508 -18.947   7.040  1.00  0.00     0.078 A 
ATOM     10  C   UNL     1      20.371 -18.147   7.186  1.00  0.00     0.223 A 
ENDROOT
BRANCH   1  11
ATOM     11  C   UNL     1      19.374 -15.901   7.779  1.00  0.00     0.091 A 
ATOM     12  C   UNL     1      19.360 -14.989   8.846  1.00  0.00     0.068 A 
ATOM     13  C   UNL     1      18.292 -14.098   9.011  1.00  0.00     0.162 A 
ATOM     14  C   UNL     1      18.316 -15.884   6.854  1.00  0.00     0.068 A 
ATOM     15  C   UNL     1      17.228 -14.102   8.092  1.00  0.00     0.200 A 
ATOM     16  C   UNL     1      17.247 -14.997   7.008  1.00  0.00     0.162 A 
BRANCH  13  17
ATOM     17  O   UNL     1      18.283 -13.207  10.083  1.00  0.00    -0.504 OA
ATOM     18  H   UNL     1      18.085 -12.221   9.953  1.00  0.00     0.293 HD
ENDBRANCH  13  17
BRANCH  15  19
ATOM     19  O   UNL     1      16.154 -13.224   8.242  1.00  0.00    -0.502 OA
ATOM     20  H   UNL     1      15.242 -13.533   8.556  1.00  0.00     0.293 HD
ENDBRANCH  15  19
BRANCH  16  21
ATOM     21  O   UNL     1      16.213 -15.015   6.072  1.00  0.00    -0.504 OA
ATOM     22  H   UNL     1      15.620 -14.211   5.908  1.00  0.00     0.293 HD
ENDBRANCH  16  21
ENDBRANCH   1  11
BRANCH  10  23
ATOM     23  O   UNL     1      19.105 -18.677   6.934  1.00  0.00    -0.500 OA
ATOM     24  H   UNL     1      18.475 -18.255   6.262  1.00  0.00     0.294 HD
ENDBRANCH  10  23
BRANCH   5  25
ATOM     25  O   UNL     1      26.470 -16.672   8.343  1.00  0.00    -0.507 OA
ATOM     26  H   UNL     1      26.524 -15.717   8.676  1.00  0.00     0.293 HD
ENDBRANCH   5  25
BRANCH   7  27
ATOM     27  O   UNL     1      24.007 -20.506   6.781  1.00  0.00    -0.507 OA
ATOM     28  H   UNL     1      23.333 -21.210   7.043  1.00  0.00     0.293 HD
ENDBRANCH   7  27
TORSDOF 7
ENDMDL
MODEL 7
REMARK VINA RESULT:    -5.671      5.242      8.725
REMARK INTER + INTRA:          -7.284
REMARK INTER:                  -7.426
REMARK INTRA:                   0.142
REMARK UNBOUND:                -0.287
REMARK SMILES Oc1cc(O)c2cc(O)c(-c3cc(O)c(O)c(O)c3)[o+]c2c1
REMARK SMILES IDX 10 1 20 2 21 3 22 4 2 5 3 6 4 7 6 8 7 9 8 10 11 11 12 12
REMARK SMILES IDX 13 13 19 14 15 15 17 16 14 17 16 19 18 21 9 23 1 25 5 27
REMARK H PARENT 14 18 16 20 18 22 9 24 1 26 5 28
REMARK Flexibility Score: inf
ROOT
ATOM      1  C   UNL     1      20.464 -16.683   7.666  1.00  0.00     0.402 A 
ATOM      2  O   UNL     1      21.694 -16.264   7.954  1.00  0.00    -0.202 OA
ATOM      3  C   UNL     1      22.774 -17.027   7.827  1.00  0.00     0.368 A 
ATOM      4  C   UNL     1      24.024 -16.496   8.153  1.00  0.00     0.162 A 
ATOM      5  C   UNL     1      25.175 -17.272   8.026  1.00  0.00     0.128 A 
ATOM      6  C   UNL     1      25.079 -18.592   7.568  1.00  0.00     0.093 A 
ATOM      7  C   UNL     1      23.838 -19.148   7.234  1.00  0.00     0.136 A 
ATOM      8  C   UNL     1      22.664 -18.361   7.365  1.00  0.00     0.125 A 
ATOM      9  C   UNL     1      21.378 -18.838   7.067  1.00  0.00     0.078 A 
ATOM     10  C   UNL     1      20.267 -18.005   7.226  1.00  0.00     0.223 A 
ENDROOT
BRANCH   1  11
ATOM     11  C   UNL     1      19.342 -15.733   7.840  1.00  0.00     0.091 A 
ATOM     12  C   UNL     1      18.264 -15.766   6.942  1.00  0.00     0.068 A 
ATOM     13  C   UNL     1      17.180 -14.892   7.095  1.00  0.00     0.162 A 
ATOM     14  C   UNL     1      19.303 -14.835   8.920  1.00  0.00     0.068 A 
ATOM     15  C   UNL     1      17.159 -13.982   8.166  1.00  0.00     0.200 A 
ATOM     16  C   UNL     1      18.224 -13.961   9.083  1.00  0.00     0.162 A 
BRANCH  13  17
ATOM     17  O   UNL     1      16.123 -14.925   6.187  1.00  0.00    -0.504 OA
ATOM     18  H   UNL     1      15.219 -14.523   6.410  1.00  0.00     0.293 HD
ENDBRANCH  13  17
BRANCH  15  19
ATOM     19  O   UNL     1      16.088 -13.103   8.332  1.00  0.00    -0.502 OA
ATOM     20  H   UNL     1      15.329 -13.292   8.975  1.00  0.00     0.293 HD
ENDBRANCH  15  19
BRANCH  16  21
ATOM     21  O   UNL     1      18.225 -13.080  10.164  1.00  0.00    -0.504 OA
ATOM     22  H   UNL     1      19.035 -12.958  10.759  1.00  0.00     0.293 HD
ENDBRANCH  16  21
ENDBRANCH   1  11
BRANCH  10  23
ATOM     23  O   UNL     1      18.983 -18.494   6.977  1.00  0.00    -0.500 OA
ATOM     24  H   UNL     1      18.643 -19.343   7.413  1.00  0.00     0.294 HD
ENDBRANCH  10  23
BRANCH   5  25
ATOM     25  O   UNL     1      26.414 -16.725   8.355  1.00  0.00    -0.507 OA
ATOM     26  H   UNL     1      27.177 -16.703   7.690  1.00  0.00     0.293 HD
ENDBRANCH   5  25
BRANCH   7  27
ATOM     27  O   UNL     1      23.826 -20.471   6.782  1.00  0.00    -0.507 OA
ATOM     28  H   UNL     1      23.276 -20.802   6.003  1.00  0.00     0.293 HD
ENDBRANCH   7  27
TORSDOF 7
ENDMDL
MODEL 8
REMARK VINA RESULT:    -5.650      2.490      7.269
REMARK INTER + INTRA:          -7.259
REMARK INTER:                  -6.952
REMARK INTRA:                  -0.306
REMARK UNBOUND:                -0.287
REMARK SMILES Oc1cc(O)c2cc(O)c(-c3cc(O)c(O)c(O)c3)[o+]c2c1
REMARK SMILES IDX 10 1 20 2 21 3 22 4 2 5 3 6 4 7 6 8 7 9 8 10 11 11 12 12
REMARK SMILES IDX 13 13 19 14 15 15 17 16 14 17 16 19 18 21 9 23 1 25 5 27
REMARK H PARENT 14 18 16 20 18 22 9 24 1 26 5 28
REMARK Flexibility Score: inf
ROOT
ATOM      1  C   UNL     1      16.131 -12.361   2.799  1.00  0.00     0.402 A 
ATOM      2  O   UNL     1      16.814 -11.429   2.141  1.00  0.00    -0.202 OA
ATOM      3  C   UNL     1      17.521 -11.678   1.045  1.00  0.00     0.368 A 
ATOM      4  C   UNL     1      18.204 -10.631   0.422  1.00  0.00     0.162 A 
ATOM      5  C   UNL     1      18.952 -10.863  -0.732  1.00  0.00     0.128 A 
ATOM      6  C   UNL     1      19.019 -12.154  -1.271  1.00  0.00     0.093 A 
ATOM      7  C   UNL     1      18.344 -13.220  -0.666  1.00  0.00     0.136 A 
ATOM      8  C   UNL     1      17.584 -12.988   0.510  1.00  0.00     0.125 A 
ATOM      9  C   UNL     1      16.886 -13.998   1.190  1.00  0.00     0.078 A 
ATOM     10  C   UNL     1      16.163 -13.694   2.347  1.00  0.00     0.223 A 
ENDROOT
BRANCH   1  11
ATOM     11  C   UNL     1      15.371 -11.955   4.003  1.00  0.00     0.091 A 
ATOM     12  C   UNL     1      16.065 -11.526   5.144  1.00  0.00     0.068 A 
ATOM     13  C   UNL     1      15.372 -11.118   6.291  1.00  0.00     0.162 A 
ATOM     14  C   UNL     1      13.966 -11.937   4.012  1.00  0.00     0.068 A 
ATOM     15  C   UNL     1      13.966 -11.122   6.298  1.00  0.00     0.200 A 
ATOM     16  C   UNL     1      13.265 -11.529   5.151  1.00  0.00     0.162 A 
BRANCH  13  17
ATOM     17  O   UNL     1      16.074 -10.707   7.424  1.00  0.00    -0.504 OA
ATOM     18  H   UNL     1      16.582  -9.830   7.444  1.00  0.00     0.293 HD
ENDBRANCH  13  17
BRANCH  15  19
ATOM     19  O   UNL     1      13.259 -10.721   7.433  1.00  0.00    -0.502 OA
ATOM     20  H   UNL     1      12.674 -11.359   7.958  1.00  0.00     0.293 HD
ENDBRANCH  15  19
BRANCH  16  21
ATOM     21  O   UNL     1      11.870 -11.530   5.122  1.00  0.00    -0.504 OA
ATOM     22  H   UNL     1      11.322 -12.232   5.602  1.00  0.00     0.293 HD
ENDBRANCH  16  21
ENDBRANCH   1  11
BRANCH  10  23
ATOM     23  O   UNL     1      15.510 -14.707   3.052  1.00  0.00    -0.500 OA
ATOM     24  H   UNL     1      15.685 -15.686   2.861  1.00  0.00     0.294 HD
ENDBRANCH  10  23
BRANCH   5  25
ATOM     25  O   UNL     1      19.626  -9.805  -1.338  1.00  0.00    -0.507 OA
ATOM     26  H   UNL     1      20.141  -9.123  -0.795  1.00  0.00     0.293 HD
ENDBRANCH   5  25
BRANCH   7  27
ATOM     27  O   UNL     1      18.458 -14.478  -1.267  1.00  0.00    -0.507 OA
ATOM     28  H   UNL     1      17.713 -15.157  -1.314  1.00  0.00     0.293 HD
ENDBRANCH   7  27
TORSDOF 7
ENDMDL
MODEL 9
REMARK VINA RESULT:    -5.514      2.469      7.464
REMARK INTER + INTRA:          -7.091
REMARK INTER:                  -6.736
REMARK INTRA:                  -0.354
REMARK UNBOUND:                -0.287
REMARK SMILES Oc1cc(O)c2cc(O)c(-c3cc(O)c(O)c(O)c3)[o+]c2c1
REMARK SMILES IDX 10 1 20 2 21 3 22 4 2 5 3 6 4 7 6 8 7 9 8 10 11 11 12 12
REMARK SMILES IDX 13 13 19 14 15 15 17 16 14 17 16 19 18 21 9 23 1 25 5 27
REMARK H PARENT 14 18 16 20 18 22 9 24 1 26 5 28
REMARK Flexibility Score: inf
ROOT
ATOM      1  C   UNL     1      15.595 -12.242   3.397  1.00  0.00     0.402 A 
ATOM      2  O   UNL     1      16.190 -11.393   2.563  1.00  0.00    -0.202 OA
ATOM      3  C   UNL     1      16.904 -11.781   1.512  1.00  0.00     0.368 A 
ATOM      4  C   UNL     1      17.489 -10.812   0.693  1.00  0.00     0.162 A 
ATOM      5  C   UNL     1      18.242 -11.190  -0.419  1.00  0.00     0.128 A 
ATOM      6  C   UNL     1      18.413 -12.548  -0.717  1.00  0.00     0.093 A 
ATOM      7  C   UNL     1      17.836 -13.537   0.089  1.00  0.00     0.136 A 
ATOM      8  C   UNL     1      17.072 -13.157   1.222  1.00  0.00     0.125 A 
ATOM      9  C   UNL     1      16.470 -14.079   2.093  1.00  0.00     0.078 A 
ATOM     10  C   UNL     1      15.735 -13.628   3.193  1.00  0.00     0.223 A 
ENDROOT
BRANCH   1  11
ATOM     11  C   UNL     1      14.817 -11.686   4.527  1.00  0.00     0.091 A 
ATOM     12  C   UNL     1      13.418 -11.632   4.442  1.00  0.00     0.068 A 
ATOM     13  C   UNL     1      12.656 -11.128   5.504  1.00  0.00     0.162 A 
ATOM     14  C   UNL     1      15.446 -11.261   5.710  1.00  0.00     0.068 A 
ATOM     15  C   UNL     1      13.294 -10.686   6.676  1.00  0.00     0.200 A 
ATOM     16  C   UNL     1      14.694 -10.759   6.777  1.00  0.00     0.162 A 
BRANCH  13  17
ATOM     17  O   UNL     1      11.267 -11.066   5.401  1.00  0.00    -0.504 OA
ATOM     18  H   UNL     1      10.664 -11.475   6.105  1.00  0.00     0.293 HD
ENDBRANCH  13  17
BRANCH  15  19
ATOM     19  O   UNL     1      12.551 -10.179   7.743  1.00  0.00    -0.502 OA
ATOM     20  H   UNL     1      11.541 -10.109   7.713  1.00  0.00     0.293 HD
ENDBRANCH  15  19
BRANCH  16  21
ATOM     21  O   UNL     1      15.355 -10.342   7.932  1.00  0.00    -0.504 OA
ATOM     22  H   UNL     1      16.313 -10.604   8.129  1.00  0.00     0.293 HD
ENDBRANCH  16  21
ENDBRANCH   1  11
BRANCH  10  23
ATOM     23  O   UNL     1      15.178 -14.545   4.087  1.00  0.00    -0.500 OA
ATOM     24  H   UNL     1      14.266 -14.955   3.928  1.00  0.00     0.294 HD
ENDBRANCH  10  23
BRANCH   5  25
ATOM     25  O   UNL     1      18.817 -10.210  -1.225  1.00  0.00    -0.507 OA
ATOM     26  H   UNL     1      19.149  -9.334  -0.839  1.00  0.00     0.293 HD
ENDBRANCH   5  25
BRANCH   7  27
ATOM     27  O   UNL     1      18.051 -14.870  -0.277  1.00  0.00    -0.507 OA
ATOM     28  H   UNL     1      18.961 -15.291  -0.388  1.00  0.00     0.293 HD
ENDBRANCH   7  27
TORSDOF 7
ENDMDL
