MODEL 1
REMARK VINA RESULT:    -3.490      0.000      0.000
REMARK INTER + INTRA:          -4.048
REMARK INTER:                  -4.000
REMARK INTRA:                  -0.047
REMARK UNBOUND:                -0.047
REMARK SMILES CC(C)[C@@H]([NH3+])C(=O)[O-]
REMARK SMILES IDX 4 1 5 2 6 6 7 7 8 8 2 9 1 10 3 11
REMARK H PARENT 5 3 5 4 5 5
REMARK Flexibility Score: inf
ROOT
ATOM      1  C   UNL     1    -476.674 294.648  -0.483  1.00  0.00     0.230 C 
ENDROOT
BRANCH   1   2
ATOM      2  N   UNL     1    -476.145 295.810   0.249  1.00  0.00    -0.350 N 
ATOM      3  H   UNL     1    -475.209 296.068  -0.139  1.00  0.00     0.345 HD
ATOM      4  H   UNL     1    -476.774 296.635   0.128  1.00  0.00     0.345 HD
ATOM      5  H   UNL     1    -476.036 295.604   1.268  1.00  0.00     0.345 HD
ENDBRANCH   1   2
BRANCH   1   6
ATOM      6  C   UNL     1    -476.953 293.500   0.456  1.00  0.00     0.099 C 
ATOM      7  O   UNL     1    -478.125 293.067   0.619  1.00  0.00    -0.544 OA
ATOM      8  O   UNL     1    -475.898 292.878   1.113  1.00  0.00    -0.544 OA
ENDBRANCH   1   6
BRANCH   1   9
ATOM      9  C   UNL     1    -477.933 294.986  -1.338  1.00  0.00     0.047 C 
ATOM     10  C   UNL     1    -477.939 294.226  -2.673  1.00  0.00     0.014 C 
ATOM     11  C   UNL     1    -478.125 296.491  -1.584  1.00  0.00     0.014 C 
ENDBRANCH   1   9
TORSDOF 3
ENDMDL
MODEL 2
REMARK VINA RESULT:    -3.474     10.571     11.118
REMARK INTER + INTRA:          -4.029
REMARK INTER:                  -4.082
REMARK INTRA:                   0.054
REMARK UNBOUND:                -0.047
REMARK SMILES CC(C)[C@@H]([NH3+])C(=O)[O-]
REMARK SMILES IDX 4 1 5 2 6 6 7 7 8 8 2 9 1 10 3 11
REMARK H PARENT 5 3 5 4 5 5
REMARK Flexibility Score: inf
ROOT
ATOM      1  C   UNL     1    -475.339 284.052  -0.581  1.00  0.00     0.230 C 
ENDROOT
BRANCH   1   2
ATOM      2  N   UNL     1    -474.825 284.006   0.799  1.00  0.00    -0.350 N 
ATOM      3  H   UNL     1    -474.846 283.018   1.143  1.00  0.00     0.345 HD
ATOM      4  H   UNL     1    -473.834 284.330   0.830  1.00  0.00     0.345 HD
ATOM      5  H   UNL     1    -475.404 284.593   1.442  1.00  0.00     0.345 HD
ENDBRANCH   1   2
BRANCH   1   6
ATOM      6  C   UNL     1    -474.702 282.980  -1.430  1.00  0.00     0.099 C 
ATOM      7  O   UNL     1    -474.805 283.001  -2.685  1.00  0.00    -0.544 OA
ATOM      8  O   UNL     1    -473.950 281.980  -0.824  1.00  0.00    -0.544 OA
ENDBRANCH   1   6
BRANCH   1   9
ATOM      9  C   UNL     1    -476.894 283.971  -0.657  1.00  0.00     0.047 C 
ATOM     10  C   UNL     1    -477.450 284.759  -1.853  1.00  0.00     0.014 C 
ATOM     11  C   UNL     1    -477.597 284.408   0.638  1.00  0.00     0.014 C 
ENDBRANCH   1   9
TORSDOF 3
ENDMDL
MODEL 3
REMARK VINA RESULT:    -3.410     10.837     11.282
REMARK INTER + INTRA:          -3.956
REMARK INTER:                  -3.957
REMARK INTRA:                   0.002
REMARK UNBOUND:                -0.047
REMARK SMILES CC(C)[C@@H]([NH3+])C(=O)[O-]
REMARK SMILES IDX 4 1 5 2 6 6 7 7 8 8 2 9 1 10 3 11
REMARK H PARENT 5 3 5 4 5 5
REMARK Flexibility Score: inf
ROOT
ATOM      1  C   UNL     1    -475.159 283.959  -0.980  1.00  0.00     0.230 C 
ENDROOT
BRANCH   1   2
ATOM      2  N   UNL     1    -474.813 284.162   0.437  1.00  0.00    -0.350 N 
ATOM      3  H   UNL     1    -474.529 283.248   0.859  1.00  0.00     0.345 HD
ATOM      4  H   UNL     1    -474.004 284.815   0.525  1.00  0.00     0.345 HD
ATOM      5  H   UNL     1    -475.624 284.540   0.978  1.00  0.00     0.345 HD
ENDBRANCH   1   2
BRANCH   1   6
ATOM      6  C   UNL     1    -474.442 282.756  -1.543  1.00  0.00     0.099 C 
ATOM      7  O   UNL     1    -473.936 281.889  -0.782  1.00  0.00    -0.544 OA
ATOM      8  O   UNL     1    -474.381 282.575  -2.920  1.00  0.00    -0.544 OA
ENDBRANCH   1   6
BRANCH   1   9
ATOM      9  C   UNL     1    -476.695 283.856  -1.225  1.00  0.00     0.047 C 
ATOM     10  C   UNL     1    -477.110 284.529  -2.543  1.00  0.00     0.014 C 
ATOM     11  C   UNL     1    -477.542 284.399  -0.064  1.00  0.00     0.014 C 
ENDBRANCH   1   9
TORSDOF 3
ENDMDL
MODEL 4
REMARK VINA RESULT:    -3.311      2.322      3.148
REMARK INTER + INTRA:          -3.842
REMARK INTER:                  -4.106
REMARK INTRA:                   0.264
REMARK UNBOUND:                -0.047
REMARK SMILES CC(C)[C@@H]([NH3+])C(=O)[O-]
REMARK SMILES IDX 4 1 5 2 6 6 7 7 8 8 2 9 1 10 3 11
REMARK H PARENT 5 3 5 4 5 5
REMARK Flexibility Score: inf
ROOT
ATOM      1  C   UNL     1    -476.850 295.147  -0.067  1.00  0.00     0.230 C 
ENDROOT
BRANCH   1   2
ATOM      2  N   UNL     1    -475.385 295.118   0.072  1.00  0.00    -0.350 N 
ATOM      3  H   UNL     1    -475.129 294.588   0.937  1.00  0.00     0.345 HD
ATOM      4  H   UNL     1    -474.951 294.625  -0.739  1.00  0.00     0.345 HD
ATOM      5  H   UNL     1    -474.988 296.082   0.145  1.00  0.00     0.345 HD
ENDBRANCH   1   2
BRANCH   1   6
ATOM      6  C   UNL     1    -477.252 295.587  -1.454  1.00  0.00     0.099 C 
ATOM      7  O   UNL     1    -478.124 296.481  -1.622  1.00  0.00    -0.544 OA
ATOM      8  O   UNL     1    -476.619 295.035  -2.561  1.00  0.00    -0.544 OA
ENDBRANCH   1   6
BRANCH   1   9
ATOM      9  C   UNL     1    -477.526 293.792   0.303  1.00  0.00     0.047 C 
ATOM     10  C   UNL     1    -476.569 292.867   1.070  1.00  0.00     0.014 C 
ATOM     11  C   UNL     1    -478.125 293.052  -0.903  1.00  0.00     0.014 C 
ENDBRANCH   1   9
TORSDOF 3
ENDMDL
MODEL 5
REMARK VINA RESULT:    -2.998     10.004     10.989
REMARK INTER + INTRA:          -3.484
REMARK INTER:                  -3.574
REMARK INTRA:                   0.090
REMARK UNBOUND:                -0.047
REMARK SMILES CC(C)[C@@H]([NH3+])C(=O)[O-]
REMARK SMILES IDX 4 1 5 2 6 6 7 7 8 8 2 9 1 10 3 11
REMARK H PARENT 5 3 5 4 5 5
REMARK Flexibility Score: inf
ROOT
ATOM      1  C   UNL     1    -475.554 284.182  -0.747  1.00  0.00     0.230 C 
ENDROOT
BRANCH   1   2
ATOM      2  N   UNL     1    -474.365 283.366  -0.447  1.00  0.00    -0.350 N 
ATOM      3  H   UNL     1    -474.317 282.565  -1.118  1.00  0.00     0.345 HD
ATOM      4  H   UNL     1    -473.495 283.931  -0.567  1.00  0.00     0.345 HD
ATOM      5  H   UNL     1    -474.400 282.983   0.525  1.00  0.00     0.345 HD
ENDBRANCH   1   2
BRANCH   1   6
ATOM      6  C   UNL     1    -476.163 283.784  -2.068  1.00  0.00     0.099 C 
ATOM      7  O   UNL     1    -475.715 282.802  -2.718  1.00  0.00    -0.544 OA
ATOM      8  O   UNL     1    -477.265 284.478  -2.554  1.00  0.00    -0.544 OA
ENDBRANCH   1   6
BRANCH   1   9
ATOM      9  C   UNL     1    -476.620 284.148   0.390  1.00  0.00     0.047 C 
ATOM     10  C   UNL     1    -477.375 285.481   0.506  1.00  0.00     0.014 C 
ATOM     11  C   UNL     1    -476.049 283.742   1.758  1.00  0.00     0.014 C 
ENDBRANCH   1   9
TORSDOF 3
ENDMDL
MODEL 6
REMARK VINA RESULT:    -2.970      9.973     10.464
REMARK INTER + INTRA:          -3.451
REMARK INTER:                  -3.452
REMARK INTRA:                   0.001
REMARK UNBOUND:                -0.047
REMARK SMILES CC(C)[C@@H]([NH3+])C(=O)[O-]
REMARK SMILES IDX 4 1 5 2 6 6 7 7 8 8 2 9 1 10 3 11
REMARK H PARENT 5 3 5 4 5 5
REMARK Flexibility Score: inf
ROOT
ATOM      1  C   UNL     1    -476.124 283.853  -0.156  1.00  0.00     0.230 C 
ENDROOT
BRANCH   1   2
ATOM      2  N   UNL     1    -474.812 284.079   0.475  1.00  0.00    -0.350 N 
ATOM      3  H   UNL     1    -474.463 283.180   0.879  1.00  0.00     0.345 HD
ATOM      4  H   UNL     1    -474.116 284.397  -0.235  1.00  0.00     0.345 HD
ATOM      5  H   UNL     1    -474.873 284.786   1.242  1.00  0.00     0.345 HD
ENDBRANCH   1   2
BRANCH   1   6
ATOM      6  C   UNL     1    -477.223 284.526   0.629  1.00  0.00     0.099 C 
ATOM      7  O   UNL     1    -477.362 285.778   0.605  1.00  0.00    -0.544 OA
ATOM      8  O   UNL     1    -478.125 283.753   1.350  1.00  0.00    -0.544 OA
ENDBRANCH   1   6
BRANCH   1   9
ATOM      9  C   UNL     1    -476.164 284.286  -1.653  1.00  0.00     0.047 C 
ATOM     10  C   UNL     1    -477.567 284.121  -2.258  1.00  0.00     0.014 C 
ATOM     11  C   UNL     1    -475.122 283.572  -2.529  1.00  0.00     0.014 C 
ENDBRANCH   1   9
TORSDOF 3
ENDMDL
MODEL 7
REMARK VINA RESULT:    -2.881      4.211      4.964
REMARK INTER + INTRA:          -3.349
REMARK INTER:                  -3.301
REMARK INTRA:                  -0.048
REMARK UNBOUND:                -0.047
REMARK SMILES CC(C)[C@@H]([NH3+])C(=O)[O-]
REMARK SMILES IDX 4 1 5 2 6 6 7 7 8 8 2 9 1 10 3 11
REMARK H PARENT 5 3 5 4 5 5
REMARK Flexibility Score: inf
ROOT
ATOM      1  C   UNL     1    -477.034 296.220  -3.506  1.00  0.00     0.230 C 
ENDROOT
BRANCH   1   2
ATOM      2  N   UNL     1    -475.873 295.386  -3.861  1.00  0.00    -0.350 N 
ATOM      3  H   UNL     1    -475.434 295.013  -2.987  1.00  0.00     0.345 HD
ATOM      4  H   UNL     1    -476.173 294.569  -4.437  1.00  0.00     0.345 HD
ATOM      5  H   UNL     1    -475.153 295.935  -4.384  1.00  0.00     0.345 HD
ENDBRANCH   1   2
BRANCH   1   6
ATOM      6  C   UNL     1    -477.703 296.767  -4.742  1.00  0.00     0.099 C 
ATOM      7  O   UNL     1    -478.055 297.975  -4.807  1.00  0.00    -0.544 OA
ATOM      8  O   UNL     1    -477.892 295.941  -5.844  1.00  0.00    -0.544 OA
ENDBRANCH   1   6
BRANCH   1   9
ATOM      9  C   UNL     1    -478.062 295.479  -2.598  1.00  0.00     0.047 C 
ATOM     10  C   UNL     1    -477.816 295.760  -1.108  1.00  0.00     0.014 C 
ATOM     11  C   UNL     1    -478.125 293.964  -2.848  1.00  0.00     0.014 C 
ENDBRANCH   1   9
TORSDOF 3
ENDMDL
MODEL 8
REMARK VINA RESULT:    -2.817      5.291      5.878
REMARK INTER + INTRA:          -3.277
REMARK INTER:                  -3.225
REMARK INTRA:                  -0.051
REMARK UNBOUND:                -0.047
REMARK SMILES CC(C)[C@@H]([NH3+])C(=O)[O-]
REMARK SMILES IDX 4 1 5 2 6 6 7 7 8 8 2 9 1 10 3 11
REMARK H PARENT 5 3 5 4 5 5
REMARK Flexibility Score: inf
ROOT
ATOM      1  C   UNL     1    -476.519 295.378  -4.814  1.00  0.00     0.230 C 
ENDROOT
BRANCH   1   2
ATOM      2  N   UNL     1    -475.830 295.339  -3.513  1.00  0.00    -0.350 N 
ATOM      3  H   UNL     1    -475.044 294.650  -3.557  1.00  0.00     0.345 HD
ATOM      4  H   UNL     1    -475.418 296.272  -3.291  1.00  0.00     0.345 HD
ATOM      5  H   UNL     1    -476.479 295.054  -2.745  1.00  0.00     0.345 HD
ENDBRANCH   1   2
BRANCH   1   6
ATOM      6  C   UNL     1    -476.506 296.772  -5.391  1.00  0.00     0.099 C 
ATOM      7  O   UNL     1    -477.468 297.194  -6.087  1.00  0.00    -0.544 OA
ATOM      8  O   UNL     1    -475.442 297.621  -5.112  1.00  0.00    -0.544 OA
ENDBRANCH   1   6
BRANCH   1   9
ATOM      9  C   UNL     1    -475.949 294.348  -5.837  1.00  0.00     0.047 C 
ATOM     10  C   UNL     1    -476.595 292.963  -5.674  1.00  0.00     0.014 C 
ATOM     11  C   UNL     1    -474.417 294.225  -5.800  1.00  0.00     0.014 C 
ENDBRANCH   1   9
TORSDOF 3
ENDMDL
MODEL 9
REMARK VINA RESULT:    -2.749      4.872      5.231
REMARK INTER + INTRA:          -3.199
REMARK INTER:                  -3.150
REMARK INTRA:                  -0.049
REMARK UNBOUND:                -0.047
REMARK SMILES CC(C)[C@@H]([NH3+])C(=O)[O-]
REMARK SMILES IDX 4 1 5 2 6 6 7 7 8 8 2 9 1 10 3 11
REMARK H PARENT 5 3 5 4 5 5
REMARK Flexibility Score: inf
ROOT
ATOM      1  C   UNL     1    -475.878 295.821  -4.495  1.00  0.00     0.230 C 
ENDROOT
BRANCH   1   2
ATOM      2  N   UNL     1    -476.233 295.332  -3.152  1.00  0.00    -0.350 N 
ATOM      3  H   UNL     1    -476.326 294.290  -3.176  1.00  0.00     0.345 HD
ATOM      4  H   UNL     1    -475.479 295.565  -2.468  1.00  0.00     0.345 HD
ATOM      5  H   UNL     1    -477.138 295.738  -2.823  1.00  0.00     0.345 HD
ENDBRANCH   1   2
BRANCH   1   6
ATOM      6  C   UNL     1    -475.958 294.710  -5.512  1.00  0.00     0.099 C 
ATOM      7  O   UNL     1    -477.032 294.468  -6.125  1.00  0.00    -0.544 OA
ATOM      8  O   UNL     1    -474.819 293.973  -5.815  1.00  0.00    -0.544 OA
ENDBRANCH   1   6
BRANCH   1   9
ATOM      9  C   UNL     1    -476.731 297.047  -4.943  1.00  0.00     0.047 C 
ATOM     10  C   UNL     1    -475.911 298.346  -4.941  1.00  0.00     0.014 C 
ATOM     11  C   UNL     1    -478.019 297.234  -4.124  1.00  0.00     0.014 C 
ENDBRANCH   1   9
TORSDOF 3
ENDMDL
