MODEL 1
REMARK VINA RESULT:    -4.623      0.000      0.000
REMARK INTER + INTRA:          -7.355
REMARK INTER:                  -6.786
REMARK INTRA:                  -0.570
REMARK UNBOUND:                -0.570
REMARK SMILES O=C([O-])CCCCCCCC(=O)[O-]
REMARK SMILES IDX 7 1 6 2 5 3 4 4 2 5 1 6 3 7 8 8 9 9 10 10 11 11 12 12 13 13
REMARK H PARENT
REMARK Flexibility Score: inf
ROOT
ATOM      1  C   UNL     1       8.355  19.577  30.489  1.00  0.00     0.000 C 
ENDROOT
BRANCH   1   2
ATOM      2  C   UNL     1       8.092  20.595  29.369  1.00  0.00     0.000 C 
BRANCH   2   3
ATOM      3  C   UNL     1       8.015  22.040  29.885  1.00  0.00     0.006 C 
BRANCH   3   4
ATOM      4  C   UNL     1       7.875  22.069  31.411  1.00  0.00     0.053 C 
BRANCH   4   5
ATOM      5  C   UNL     1       8.888  22.990  32.013  1.00  0.00     0.041 C 
ATOM      6  O   UNL     1       8.677  23.514  33.140  1.00  0.00    -0.550 OA
ATOM      7  O   UNL     1      10.042  23.311  31.310  1.00  0.00    -0.550 OA
ENDBRANCH   4   5
ENDBRANCH   3   4
ENDBRANCH   2   3
ENDBRANCH   1   2
BRANCH   1   8
ATOM      8  C   UNL     1       9.309  18.450  30.051  1.00  0.00     0.000 C 
BRANCH   8   9
ATOM      9  C   UNL     1       9.893  17.669  31.242  1.00  0.00     0.006 C 
BRANCH   9  10
ATOM     10  C   UNL     1       9.673  18.337  32.609  1.00  0.00     0.053 C 
BRANCH  10  11
ATOM     11  C   UNL     1      10.893  19.066  33.082  1.00  0.00     0.041 C 
ATOM     12  O   UNL     1      11.627  18.561  33.971  1.00  0.00    -0.550 OA
ATOM     13  O   UNL     1      11.200  20.317  32.564  1.00  0.00    -0.550 OA
ENDBRANCH  10  11
ENDBRANCH   9  10
ENDBRANCH   8   9
ENDBRANCH   1   8
TORSDOF 8
ENDMDL
MODEL 2
REMARK VINA RESULT:    -4.563      0.187      4.225
REMARK INTER + INTRA:          -7.267
REMARK INTER:                  -6.705
REMARK INTRA:                  -0.562
REMARK UNBOUND:                -0.570
REMARK SMILES O=C([O-])CCCCCCCC(=O)[O-]
REMARK SMILES IDX 7 1 6 2 5 3 4 4 2 5 1 6 3 7 8 8 9 9 10 10 11 11 12 12 13 13
REMARK H PARENT
REMARK Flexibility Score: inf
ROOT
ATOM      1  C   UNL     1       8.432  19.447  30.506  1.00  0.00     0.000 C 
ENDROOT
BRANCH   1   2
ATOM      2  C   UNL     1       9.344  18.278  30.105  1.00  0.00     0.000 C 
BRANCH   2   3
ATOM      3  C   UNL     1      10.062  17.645  31.308  1.00  0.00     0.006 C 
BRANCH   3   4
ATOM      4  C   UNL     1       9.761  18.420  32.595  1.00  0.00     0.053 C 
BRANCH   4   5
ATOM      5  C   UNL     1      10.989  19.122  33.084  1.00  0.00     0.041 C 
ATOM      6  O   UNL     1      11.664  18.632  34.027  1.00  0.00    -0.550 OA
ATOM      7  O   UNL     1      11.360  20.340  32.531  1.00  0.00    -0.550 OA
ENDBRANCH   4   5
ENDBRANCH   3   4
ENDBRANCH   2   3
ENDBRANCH   1   2
BRANCH   1   8
ATOM      8  C   UNL     1       8.190  20.431  29.347  1.00  0.00     0.000 C 
BRANCH   8   9
ATOM      9  C   UNL     1       8.119  21.896  29.816  1.00  0.00     0.006 C 
BRANCH   9  10
ATOM     10  C   UNL     1       7.875  22.069  31.323  1.00  0.00     0.053 C 
BRANCH  10  11
ATOM     11  C   UNL     1       8.933  22.908  31.971  1.00  0.00     0.041 C 
ATOM     12  O   UNL     1       9.899  23.345  31.293  1.00  0.00    -0.550 OA
ATOM     13  O   UNL     1       8.869  23.179  33.332  1.00  0.00    -0.550 OA
ENDBRANCH  10  11
ENDBRANCH   9  10
ENDBRANCH   8   9
ENDBRANCH   1   8
TORSDOF 8
ENDMDL
MODEL 3
REMARK VINA RESULT:    -4.560      1.185      1.612
REMARK INTER + INTRA:          -7.262
REMARK INTER:                  -6.725
REMARK INTRA:                  -0.537
REMARK UNBOUND:                -0.570
REMARK SMILES O=C([O-])CCCCCCCC(=O)[O-]
REMARK SMILES IDX 7 1 6 2 5 3 4 4 2 5 1 6 3 7 8 8 9 9 10 10 11 11 12 12 13 13
REMARK H PARENT
REMARK Flexibility Score: inf
ROOT
ATOM      1  C   UNL     1       8.148  20.352  29.386  1.00  0.00     0.000 C 
ENDROOT
BRANCH   1   2
ATOM      2  C   UNL     1       7.905  21.837  29.697  1.00  0.00     0.000 C 
BRANCH   2   3
ATOM      3  C   UNL     1       7.884  22.133  31.205  1.00  0.00     0.006 C 
BRANCH   3   4
ATOM      4  C   UNL     1       9.040  23.059  31.597  1.00  0.00     0.053 C 
BRANCH   4   5
ATOM      5  C   UNL     1       9.938  22.386  32.587  1.00  0.00     0.041 C 
ATOM      6  O   UNL     1       9.456  21.869  33.629  1.00  0.00    -0.550 OA
ATOM      7  O   UNL     1      11.311  22.373  32.382  1.00  0.00    -0.550 OA
ENDBRANCH   4   5
ENDBRANCH   3   4
ENDBRANCH   2   3
ENDBRANCH   1   2
BRANCH   1   8
ATOM      8  C   UNL     1       8.545  19.545  30.636  1.00  0.00     0.000 C 
BRANCH   8   9
ATOM      9  C   UNL     1       9.603  18.467  30.336  1.00  0.00     0.006 C 
BRANCH   9  10
ATOM     10  C   UNL     1       9.782  17.426  31.452  1.00  0.00     0.053 C 
BRANCH  10  11
ATOM     11  C   UNL     1       9.945  18.065  32.796  1.00  0.00     0.041 C 
ATOM     12  O   UNL     1       9.085  17.876  33.697  1.00  0.00    -0.550 OA
ATOM     13  O   UNL     1      11.029  18.897  33.044  1.00  0.00    -0.550 OA
ENDBRANCH  10  11
ENDBRANCH   9  10
ENDBRANCH   8   9
ENDBRANCH   1   8
TORSDOF 8
ENDMDL
MODEL 4
REMARK VINA RESULT:    -4.419      2.325      3.195
REMARK INTER + INTRA:          -7.055
REMARK INTER:                  -6.616
REMARK INTRA:                  -0.439
REMARK UNBOUND:                -0.570
REMARK SMILES O=C([O-])CCCCCCCC(=O)[O-]
REMARK SMILES IDX 7 1 6 2 5 3 4 4 2 5 1 6 3 7 8 8 9 9 10 10 11 11 12 12 13 13
REMARK H PARENT
REMARK Flexibility Score: inf
ROOT
ATOM      1  C   UNL     1      10.146  18.503  32.003  1.00  0.00     0.000 C 
ENDROOT
BRANCH   1   2
ATOM      2  C   UNL     1       9.450  18.180  30.672  1.00  0.00     0.000 C 
BRANCH   2   3
ATOM      3  C   UNL     1       8.708  19.389  30.081  1.00  0.00     0.006 C 
BRANCH   3   4
ATOM      4  C   UNL     1       8.430  20.441  31.160  1.00  0.00     0.053 C 
BRANCH   4   5
ATOM      5  C   UNL     1       8.065  21.750  30.535  1.00  0.00     0.041 C 
ATOM      6  O   UNL     1       7.972  21.849  29.283  1.00  0.00    -0.550 OA
ATOM      7  O   UNL     1       7.875  22.872  31.331  1.00  0.00    -0.550 OA
ENDBRANCH   4   5
ENDBRANCH   3   4
ENDBRANCH   2   3
ENDBRANCH   1   2
BRANCH   1   8
ATOM      8  C   UNL     1       9.740  17.538  33.131  1.00  0.00     0.000 C 
BRANCH   8   9
ATOM      9  C   UNL     1       8.520  18.036  33.929  1.00  0.00     0.006 C 
BRANCH   9  10
ATOM     10  C   UNL     1       8.298  17.312  35.267  1.00  0.00     0.053 C 
BRANCH  10  11
ATOM     11  C   UNL     1       9.428  17.540  36.223  1.00  0.00     0.041 C 
ATOM     12  O   UNL     1      10.061  16.562  36.701  1.00  0.00    -0.550 OA
ATOM     13  O   UNL     1       9.759  18.831  36.614  1.00  0.00    -0.550 OA
ENDBRANCH  10  11
ENDBRANCH   9  10
ENDBRANCH   8   9
ENDBRANCH   1   8
TORSDOF 8
ENDMDL
MODEL 5
REMARK VINA RESULT:    -4.328      1.972      4.663
REMARK INTER + INTRA:          -6.921
REMARK INTER:                  -6.463
REMARK INTRA:                  -0.459
REMARK UNBOUND:                -0.570
REMARK SMILES O=C([O-])CCCCCCCC(=O)[O-]
REMARK SMILES IDX 7 1 6 2 5 3 4 4 2 5 1 6 3 7 8 8 9 9 10 10 11 11 12 12 13 13
REMARK H PARENT
REMARK Flexibility Score: inf
ROOT
ATOM      1  C   UNL     1       9.173  18.500  30.463  1.00  0.00     0.000 C 
ENDROOT
BRANCH   1   2
ATOM      2  C   UNL     1      10.031  18.696  31.723  1.00  0.00     0.000 C 
BRANCH   2   3
ATOM      3  C   UNL     1       9.627  17.755  32.868  1.00  0.00     0.006 C 
BRANCH   3   4
ATOM      4  C   UNL     1       8.347  18.245  33.554  1.00  0.00     0.053 C 
BRANCH   4   5
ATOM      5  C   UNL     1       8.364  17.896  35.008  1.00  0.00     0.041 C 
ATOM      6  O   UNL     1       8.789  18.727  35.854  1.00  0.00    -0.550 OA
ATOM      7  O   UNL     1       7.958  16.636  35.426  1.00  0.00    -0.550 OA
ENDBRANCH   4   5
ENDBRANCH   3   4
ENDBRANCH   2   3
ENDBRANCH   1   2
BRANCH   1   8
ATOM      8  C   UNL     1       8.592  19.823  29.933  1.00  0.00     0.000 C 
BRANCH   8   9
ATOM      9  C   UNL     1       8.255  20.818  31.060  1.00  0.00     0.006 C 
BRANCH   9  10
ATOM     10  C   UNL     1       8.580  22.283  30.730  1.00  0.00     0.053 C 
BRANCH  10  11
ATOM     11  C   UNL     1       9.671  22.827  31.600  1.00  0.00     0.041 C 
ATOM     12  O   UNL     1      10.391  22.045  32.275  1.00  0.00    -0.550 OA
ATOM     13  O   UNL     1       9.870  24.198  31.691  1.00  0.00    -0.550 OA
ENDBRANCH  10  11
ENDBRANCH   9  10
ENDBRANCH   8   9
ENDBRANCH   1   8
TORSDOF 8
ENDMDL
MODEL 6
REMARK VINA RESULT:    -4.294      8.462     10.287
REMARK INTER + INTRA:          -6.871
REMARK INTER:                  -6.447
REMARK INTRA:                  -0.424
REMARK UNBOUND:                -0.570
REMARK SMILES O=C([O-])CCCCCCCC(=O)[O-]
REMARK SMILES IDX 7 1 6 2 5 3 4 4 2 5 1 6 3 7 8 8 9 9 10 10 11 11 12 12 13 13
REMARK H PARENT
REMARK Flexibility Score: inf
ROOT
ATOM      1  C   UNL     1      15.205  19.583  37.514  1.00  0.00     0.000 C 
ENDROOT
BRANCH   1   2
ATOM      2  C   UNL     1      15.976  18.757  36.473  1.00  0.00     0.000 C 
BRANCH   2   3
ATOM      3  C   UNL     1      15.228  17.481  36.055  1.00  0.00     0.006 C 
BRANCH   3   4
ATOM      4  C   UNL     1      15.838  16.245  36.724  1.00  0.00     0.053 C 
BRANCH   4   5
ATOM      5  C   UNL     1      14.801  15.510  37.512  1.00  0.00     0.041 C 
ATOM      6  O   UNL     1      14.682  14.261  37.393  1.00  0.00    -0.550 OA
ATOM      7  O   UNL     1      13.932  16.208  38.341  1.00  0.00    -0.550 OA
ENDBRANCH   4   5
ENDBRANCH   3   4
ENDBRANCH   2   3
ENDBRANCH   1   2
BRANCH   1   8
ATOM      8  C   UNL     1      15.525  19.159  38.959  1.00  0.00     0.000 C 
BRANCH   8   9
ATOM      9  C   UNL     1      14.840  20.055  40.008  1.00  0.00     0.006 C 
BRANCH   9  10
ATOM     10  C   UNL     1      15.709  21.219  40.512  1.00  0.00     0.053 C 
BRANCH  10  11
ATOM     11  C   UNL     1      15.336  22.518  39.867  1.00  0.00     0.041 C 
ATOM     12  O   UNL     1      16.191  23.165  39.205  1.00  0.00    -0.550 OA
ATOM     13  O   UNL     1      14.055  23.031  40.024  1.00  0.00    -0.550 OA
ENDBRANCH  10  11
ENDBRANCH   9  10
ENDBRANCH   8   9
ENDBRANCH   1   8
TORSDOF 8
ENDMDL
MODEL 7
REMARK VINA RESULT:    -4.287      0.913      4.567
REMARK INTER + INTRA:          -6.861
REMARK INTER:                  -6.366
REMARK INTRA:                  -0.496
REMARK UNBOUND:                -0.570
REMARK SMILES O=C([O-])CCCCCCCC(=O)[O-]
REMARK SMILES IDX 7 1 6 2 5 3 4 4 2 5 1 6 3 7 8 8 9 9 10 10 11 11 12 12 13 13
REMARK H PARENT
REMARK Flexibility Score: inf
ROOT
ATOM      1  C   UNL     1       8.251  19.846  30.790  1.00  0.00     0.000 C 
ENDROOT
BRANCH   1   2
ATOM      2  C   UNL     1       9.109  18.809  30.049  1.00  0.00     0.000 C 
BRANCH   2   3
ATOM      3  C   UNL     1       9.754  17.786  30.997  1.00  0.00     0.006 C 
BRANCH   3   4
ATOM      4  C   UNL     1       9.358  18.061  32.451  1.00  0.00     0.053 C 
BRANCH   4   5
ATOM      5  C   UNL     1      10.572  18.332  33.283  1.00  0.00     0.041 C 
ATOM      6  O   UNL     1      11.267  19.361  33.073  1.00  0.00    -0.550 OA
ATOM      7  O   UNL     1      10.964  17.423  34.257  1.00  0.00    -0.550 OA
ENDBRANCH   4   5
ENDBRANCH   3   4
ENDBRANCH   2   3
ENDBRANCH   1   2
BRANCH   1   8
ATOM      8  C   UNL     1       8.088  21.154  29.995  1.00  0.00     0.000 C 
BRANCH   8   9
ATOM      9  C   UNL     1       8.037  22.399  30.902  1.00  0.00     0.006 C 
BRANCH   9  10
ATOM     10  C   UNL     1       8.695  22.209  32.278  1.00  0.00     0.053 C 
BRANCH  10  11
ATOM     11  C   UNL     1       8.981  23.516  32.949  1.00  0.00     0.041 C 
ATOM     12  O   UNL     1       8.585  23.724  34.126  1.00  0.00    -0.550 OA
ATOM     13  O   UNL     1       9.656  24.518  32.264  1.00  0.00    -0.550 OA
ENDBRANCH  10  11
ENDBRANCH   9  10
ENDBRANCH   8   9
ENDBRANCH   1   8
TORSDOF 8
ENDMDL
MODEL 8
REMARK VINA RESULT:    -4.265      1.595      1.754
REMARK INTER + INTRA:          -6.829
REMARK INTER:                  -6.316
REMARK INTRA:                  -0.512
REMARK UNBOUND:                -0.570
REMARK SMILES O=C([O-])CCCCCCCC(=O)[O-]
REMARK SMILES IDX 7 1 6 2 5 3 4 4 2 5 1 6 3 7 8 8 9 9 10 10 11 11 12 12 13 13
REMARK H PARENT
REMARK Flexibility Score: inf
ROOT
ATOM      1  C   UNL     1       8.254  19.608  30.798  1.00  0.00     0.000 C 
ENDROOT
BRANCH   1   2
ATOM      2  C   UNL     1       8.139  20.464  29.528  1.00  0.00     0.000 C 
BRANCH   2   3
ATOM      3  C   UNL     1       8.181  21.972  29.822  1.00  0.00     0.006 C 
BRANCH   3   4
ATOM      4  C   UNL     1       8.030  22.241  31.323  1.00  0.00     0.053 C 
BRANCH   4   5
ATOM      5  C   UNL     1       9.266  22.885  31.867  1.00  0.00     0.041 C 
ATOM      6  O   UNL     1       9.285  24.123  32.098  1.00  0.00    -0.550 OA
ATOM      7  O   UNL     1      10.411  22.128  32.074  1.00  0.00    -0.550 OA
ENDBRANCH   4   5
ENDBRANCH   3   4
ENDBRANCH   2   3
ENDBRANCH   1   2
BRANCH   1   8
ATOM      8  C   UNL     1       9.508  18.715  30.796  1.00  0.00     0.000 C 
BRANCH   8   9
ATOM      9  C   UNL     1      10.179  18.629  32.180  1.00  0.00     0.006 C 
BRANCH   9  10
ATOM     10  C   UNL     1       9.832  17.360  32.975  1.00  0.00     0.053 C 
BRANCH  10  11
ATOM     11  C   UNL     1       9.003  17.664  34.185  1.00  0.00     0.041 C 
ATOM     12  O   UNL     1       9.068  16.921  35.200  1.00  0.00    -0.550 OA
ATOM     13  O   UNL     1       8.135  18.748  34.179  1.00  0.00    -0.550 OA
ENDBRANCH  10  11
ENDBRANCH   9  10
ENDBRANCH   8   9
ENDBRANCH   1   8
TORSDOF 8
ENDMDL
MODEL 9
REMARK VINA RESULT:    -4.223      2.218      5.055
REMARK INTER + INTRA:          -6.768
REMARK INTER:                  -6.382
REMARK INTRA:                  -0.386
REMARK UNBOUND:                -0.570
REMARK SMILES O=C([O-])CCCCCCCC(=O)[O-]
REMARK SMILES IDX 7 1 6 2 5 3 4 4 2 5 1 6 3 7 8 8 9 9 10 10 11 11 12 12 13 13
REMARK H PARENT
REMARK Flexibility Score: inf
ROOT
ATOM      1  C   UNL     1      10.135  18.638  31.903  1.00  0.00     0.000 C 
ENDROOT
BRANCH   1   2
ATOM      2  C   UNL     1       9.583  17.670  32.960  1.00  0.00     0.000 C 
BRANCH   2   3
ATOM      3  C   UNL     1       8.469  18.294  33.815  1.00  0.00     0.006 C 
BRANCH   3   4
ATOM      4  C   UNL     1       8.372  17.602  35.178  1.00  0.00     0.053 C 
BRANCH   4   5
ATOM      5  C   UNL     1       9.403  18.143  36.117  1.00  0.00     0.041 C 
ATOM      6  O   UNL     1       9.496  19.385  36.307  1.00  0.00    -0.550 OA
ATOM      7  O   UNL     1      10.294  17.282  36.744  1.00  0.00    -0.550 OA
ENDBRANCH   4   5
ENDBRANCH   3   4
ENDBRANCH   2   3
ENDBRANCH   1   2
BRANCH   1   8
ATOM      8  C   UNL     1       9.495  18.428  30.519  1.00  0.00     0.000 C 
BRANCH   8   9
ATOM      9  C   UNL     1       8.605  19.609  30.089  1.00  0.00     0.006 C 
BRANCH   9  10
ATOM     10  C   UNL     1       8.382  20.666  31.182  1.00  0.00     0.053 C 
BRANCH  10  11
ATOM     11  C   UNL     1       8.092  22.018  30.607  1.00  0.00     0.041 C 
ATOM     12  O   UNL     1       7.998  23.021  31.362  1.00  0.00    -0.550 OA
ATOM     13  O   UNL     1       7.892  22.164  29.240  1.00  0.00    -0.550 OA
ENDBRANCH  10  11
ENDBRANCH   9  10
ENDBRANCH   8   9
ENDBRANCH   1   8
TORSDOF 8
ENDMDL
