MODEL 1
REMARK VINA RESULT:    23.040      0.000      0.000
REMARK INTER + INTRA:          33.216
REMARK INTER:                  32.469
REMARK INTRA:                   0.748
REMARK UNBOUND:                 0.748
REMARK SMILES CC1=CCC(=C(C)C)C(=O)CC(C)=CCC1
REMARK SMILES IDX 12 1 14 2 13 3 15 4 16 5 2 6 1 7 3 8 11 10 9 11 10 12 5 13
REMARK SMILES IDX 6 14 7 15 8 16 4 17
REMARK H PARENT
REMARK Flexibility Score: 60.00
ROOT
ATOM      1  C   UNL     1      12.106  76.958   4.629  1.00  0.00    -0.070 C 
ATOM      2  C   UNL     1      11.074  76.737   5.475  1.00  0.00    -0.027 C 
ATOM      3  C   UNL     1      13.015  78.127   4.908  1.00  0.00     0.039 C 
ENDROOT
BRANCH   2   4
ATOM      4  C   UNL     1       9.989  75.711   5.266  1.00  0.00     0.032 C 
BRANCH   4   5
ATOM      5  C   UNL     1       8.670  76.412   4.922  1.00  0.00     0.034 C 
BRANCH   5   6
ATOM      6  C   UNL     1       8.879  77.684   4.126  1.00  0.00    -0.077 C 
ATOM      7  C   UNL     1       8.806  79.008   4.846  1.00  0.00     0.039 C 
ATOM      8  C   UNL     1       9.204  77.700   2.809  1.00  0.00    -0.023 CG0
ATOM      9  G   UNL     1       9.280  76.515   1.863  1.00  0.00     0.000 G0
ENDBRANCH   5   6
ENDBRANCH   4   5
ENDBRANCH   2   4
BRANCH   1  10
ATOM     10  C   UNL     1      12.404  76.079   3.430  1.00  0.00     0.111 C 
BRANCH  10  11
ATOM     11  C   UNL     1      11.855  76.666   2.151  1.00  0.00     0.163 C 
ATOM     12  O   UNL     1      12.447  77.676   1.683  1.00  0.00    -0.294 OA
BRANCH  11  13
ATOM     13  C   UNL     1      10.678  76.102   1.412  1.00  0.00    -0.002 C 
ATOM     14  C   UNL     1      10.851  75.128   0.466  1.00  0.00    -0.069 C 
ATOM     15  C   UNL     1      12.222  74.788  -0.074  1.00  0.00     0.039 C 
ATOM     16  C   UNL     1       9.685  74.373  -0.130  1.00  0.00     0.039 C 
BRANCH  13  17
ATOM     17  C   UNL     1       9.283  76.513   1.875  1.00  0.00     0.066 CG0
ATOM     18  G   UNL     1       9.204  77.705   2.811  1.00  0.00     0.000 G0
ENDBRANCH  13  17
ENDBRANCH  11  13
ENDBRANCH  10  11
ENDBRANCH   1  10
TORSDOF 0
ENDMDL
MODEL 2
REMARK VINA RESULT:    24.480      1.637      3.158
REMARK INTER + INTRA:          35.246
REMARK INTER:                  34.403
REMARK INTRA:                   0.843
REMARK UNBOUND:                 0.748
REMARK SMILES CC1=CCC(=C(C)C)C(=O)CC(C)=CCC1
REMARK SMILES IDX 12 1 14 2 13 3 15 4 16 5 2 6 1 7 3 8 11 10 9 11 10 12 5 13
REMARK SMILES IDX 6 14 7 15 8 16 4 17
REMARK H PARENT
REMARK Flexibility Score: 60.00
ROOT
ATOM      1  C   UNL     1       9.182  75.995   4.655  1.00  0.00    -0.070 C 
ATOM      2  C   UNL     1       9.789  75.506   5.760  1.00  0.00    -0.027 C 
ATOM      3  C   UNL     1       8.271  75.079   3.880  1.00  0.00     0.039 C 
ENDROOT
BRANCH   2   4
ATOM      4  C   UNL     1      10.838  76.232   6.564  1.00  0.00     0.032 C 
BRANCH   4   5
ATOM      5  C   UNL     1      12.159  76.264   5.787  1.00  0.00     0.034 C 
BRANCH   5   6
ATOM      6  C   UNL     1      12.429  77.617   5.160  1.00  0.00    -0.077 C 
ATOM      7  C   UNL     1      12.668  78.799   6.066  1.00  0.00     0.039 C 
ATOM      8  C   UNL     1      12.543  77.814   3.822  1.00  0.00    -0.023 CG0
ATOM      9  G   UNL     1      12.293  76.804   2.717  1.00  0.00     0.000 G0
ENDBRANCH   5   6
ENDBRANCH   4   5
ENDBRANCH   2   4
BRANCH   1  10
ATOM     10  C   UNL     1       9.355  77.422   4.171  1.00  0.00     0.111 C 
BRANCH  10  11
ATOM     11  C   UNL     1       9.820  77.477   2.736  1.00  0.00     0.163 C 
ATOM     12  O   UNL     1       9.258  78.317   1.982  1.00  0.00    -0.294 OA
BRANCH  11  13
ATOM     13  C   UNL     1      10.914  76.613   2.180  1.00  0.00    -0.002 C 
ATOM     14  C   UNL     1      10.676  75.790   1.112  1.00  0.00    -0.069 C 
ATOM     15  C   UNL     1       9.270  75.500   0.637  1.00  0.00     0.039 C 
ATOM     16  C   UNL     1      11.794  75.084   0.379  1.00  0.00     0.039 C 
BRANCH  13  17
ATOM     17  C   UNL     1      12.327  76.817   2.718  1.00  0.00     0.066 CG0
ATOM     18  G   UNL     1      12.486  77.838   3.830  1.00  0.00     0.000 G0
ENDBRANCH  13  17
ENDBRANCH  11  13
ENDBRANCH  10  11
ENDBRANCH   1  10
TORSDOF 0
ENDMDL
MODEL 3
REMARK VINA RESULT:    25.199      1.646      4.548
REMARK INTER + INTRA:          36.258
REMARK INTER:                  34.506
REMARK INTRA:                   1.753
REMARK UNBOUND:                 0.748
REMARK SMILES CC1=CCC(=C(C)C)C(=O)CC(C)=CCC1
REMARK SMILES IDX 12 1 14 2 13 3 15 4 16 5 2 6 1 7 3 8 11 10 9 11 10 12 5 13
REMARK SMILES IDX 6 14 7 15 8 16 4 17
REMARK H PARENT
REMARK Flexibility Score: 60.00
ROOT
ATOM      1  C   UNL     1       9.212  76.853   3.935  1.00  0.00    -0.070 C 
ATOM      2  C   UNL     1       8.820  76.465   2.699  1.00  0.00    -0.027 C 
ATOM      3  C   UNL     1       8.808  78.226   4.409  1.00  0.00     0.039 C 
ENDROOT
BRANCH   2   4
ATOM      4  C   UNL     1       9.256  75.195   2.014  1.00  0.00     0.032 C 
BRANCH   4   5
ATOM      5  C   UNL     1      10.030  75.533   0.735  1.00  0.00     0.034 C 
BRANCH   5   6
ATOM      6  C   UNL     1      11.532  75.447   0.927  1.00  0.00    -0.077 C 
ATOM      7  C   UNL     1      12.301  74.405   0.154  1.00  0.00     0.039 C 
ATOM      8  C   UNL     1      12.239  76.305   1.704  1.00  0.00    -0.023 CG0
ATOM      9  G   UNL     1      11.692  77.389   2.615  1.00  0.00     0.000 G0
ENDBRANCH   5   6
ENDBRANCH   4   5
ENDBRANCH   2   4
BRANCH   1  10
ATOM     10  C   UNL     1      10.015  75.971   4.871  1.00  0.00     0.111 C 
BRANCH  10  11
ATOM     11  C   UNL     1      11.466  76.385   4.927  1.00  0.00     0.163 C 
ATOM     12  O   UNL     1      12.205  75.774   5.746  1.00  0.00    -0.294 OA
BRANCH  11  13
ATOM     13  C   UNL     1      12.064  77.450   4.056  1.00  0.00    -0.002 C 
ATOM     14  C   UNL     1      13.023  78.294   4.549  1.00  0.00    -0.069 C 
ATOM     15  C   UNL     1      13.311  78.382   6.030  1.00  0.00     0.039 C 
ATOM     16  C   UNL     1      13.814  79.220   3.651  1.00  0.00     0.039 C 
BRANCH  13  17
ATOM     17  C   UNL     1      11.706  77.443   2.573  1.00  0.00     0.066 CG0
ATOM     18  G   UNL     1      12.242  76.283   1.754  1.00  0.00     0.000 G0
ENDBRANCH  13  17
ENDBRANCH  11  13
ENDBRANCH  10  11
ENDBRANCH   1  10
TORSDOF 0
ENDMDL
MODEL 4
REMARK VINA RESULT:    25.804      1.151      1.460
REMARK INTER + INTRA:          37.112
REMARK INTER:                  34.934
REMARK INTRA:                   2.178
REMARK UNBOUND:                 0.748
REMARK SMILES CC1=CCC(=C(C)C)C(=O)CC(C)=CCC1
REMARK SMILES IDX 12 1 14 2 13 3 15 4 16 5 2 6 1 7 3 8 11 10 9 11 10 12 5 13
REMARK SMILES IDX 6 14 7 15 8 16 4 17
REMARK H PARENT
REMARK Flexibility Score: 60.00
ROOT
ATOM      1  C   UNL     1      12.235  77.013   3.182  1.00  0.00    -0.070 C 
ATOM      2  C   UNL     1      11.854  77.349   4.436  1.00  0.00    -0.027 C 
ATOM      3  C   UNL     1      12.656  78.118   2.247  1.00  0.00     0.039 C 
ENDROOT
BRANCH   2   4
ATOM      4  C   UNL     1      11.268  76.396   5.446  1.00  0.00     0.032 C 
BRANCH   4   5
ATOM      5  C   UNL     1       9.755  76.274   5.230  1.00  0.00     0.034 C 
BRANCH   5   6
ATOM      6  C   UNL     1       9.248  77.204   4.146  1.00  0.00    -0.077 C 
ATOM      7  C   UNL     1       8.969  78.643   4.500  1.00  0.00     0.039 C 
ATOM      8  C   UNL     1       9.100  76.834   2.849  1.00  0.00    -0.023 CG0
ATOM      9  G   UNL     1       9.261  75.444   2.262  1.00  0.00     0.000 G0
ENDBRANCH   5   6
ENDBRANCH   4   5
ENDBRANCH   2   4
BRANCH   1  10
ATOM     10  C   UNL     1      12.280  75.584   2.679  1.00  0.00     0.111 C 
BRANCH  10  11
ATOM     11  C   UNL     1      11.657  75.449   1.310  1.00  0.00     0.163 C 
ATOM     12  O   UNL     1      12.439  75.465   0.321  1.00  0.00    -0.294 OA
BRANCH  11  13
ATOM     13  C   UNL     1      10.186  75.277   1.076  1.00  0.00    -0.002 C 
ATOM     14  C   UNL     1       9.721  74.830  -0.132  1.00  0.00    -0.069 C 
ATOM     15  C   UNL     1      10.617  74.767  -1.348  1.00  0.00     0.039 C 
ATOM     16  C   UNL     1       8.279  74.422  -0.335  1.00  0.00     0.039 C 
BRANCH  13  17
ATOM     17  C   UNL     1       9.250  75.437   2.270  1.00  0.00     0.066 CG0
ATOM     18  G   UNL     1       9.099  76.841   2.827  1.00  0.00     0.000 G0
ENDBRANCH  13  17
ENDBRANCH  11  13
ENDBRANCH  10  11
ENDBRANCH   1  10
TORSDOF 0
ENDMDL
