MODEL 1
REMARK VINA RESULT:    -8.007      0.000      0.000
REMARK INTER + INTRA:          -8.636
REMARK INTER:                  -9.178
REMARK INTRA:                   0.541
REMARK UNBOUND:                 0.541
REMARK SMILES C=C(C)[C@H]1CC[C@@]2(C(=O)[O-])CC[C@@]3(C)[C@@H](CC[C@H]4[C@@]5(C)CC[C@H](O)C(C)(C)[C@H]5CC[C@]43C)[C@H]12
REMARK SMILES IDX 7 1 6 2 33 3 11 4 5 5 15 6 4 7 12 8 16 9 13 10 17 11 31 12
REMARK SMILES IDX 14 13 18 14 30 15 32 16 19 17 29 18 21 19 20 20 28 21 22 22
REMARK SMILES IDX 25 23 23 24 26 25 27 26 8 27 9 28 10 29 2 30 3 31 1 32 24 33
REMARK H PARENT 24 34
REMARK Flexibility Score: inf
ROOT
ATOM      1  C   UNL     1       8.766  22.734  77.841  1.00  0.00     0.014 C 
ATOM      2  C   UNL     1      10.123  22.299  78.397  1.00  0.00     0.014 C 
ATOM      3  C   UNL     1       8.090  23.304  79.098  1.00  0.00     0.012 C 
ATOM      4  C   UNL     1       7.870  21.590  77.322  1.00  0.00     0.014 C 
ATOM      5  C   UNL     1      10.512  23.419  79.377  1.00  0.00     0.009 C 
ATOM      6  C   UNL     1       6.712  23.940  78.749  1.00  0.00     0.000 C 
ATOM      7  C   UNL     1       9.197  24.124  79.797  1.00  0.00     0.018 C 
ATOM      8  C   UNL     1       6.469  22.139  76.942  1.00  0.00     0.008 C 
ATOM      9  C   UNL     1       6.068  24.632  79.940  1.00  0.00     0.005 C 
ATOM     10  C   UNL     1       5.710  22.892  78.113  1.00  0.00    -0.024 C 
ATOM     11  C   UNL     1       4.852  25.416  79.476  1.00  0.00     0.005 C 
ATOM     12  C   UNL     1       4.352  23.648  77.609  1.00  0.00    -0.024 C 
ATOM     13  C   UNL     1       5.315  21.789  79.166  1.00  0.00     0.012 C 
ATOM     14  C   UNL     1       3.748  24.589  78.757  1.00  0.00     0.002 C 
ATOM     15  C   UNL     1       4.608  24.550  76.360  1.00  0.00     0.008 C 
ATOM     16  C   UNL     1       3.322  22.533  77.203  1.00  0.00     0.012 C 
ATOM     17  C   UNL     1       2.497  25.516  78.328  1.00  0.00    -0.026 C 
ATOM     18  C   UNL     1       3.388  25.352  75.860  1.00  0.00     0.005 C 
ATOM     19  C   UNL     1       2.110  26.539  79.464  1.00  0.00     0.010 C 
ATOM     20  C   UNL     1       1.228  24.596  78.234  1.00  0.00     0.012 C 
ATOM     21  C   UNL     1       2.677  26.242  76.916  1.00  0.00     0.003 C 
ATOM     22  C   UNL     1       2.758  27.924  79.372  1.00  0.00     0.033 C 
ATOM     23  C   UNL     1       3.074  27.789  76.839  1.00  0.00    -0.006 C 
ATOM     24  C   UNL     1       2.453  28.583  78.027  1.00  0.00     0.120 C 
ATOM     25  C   UNL     1       2.498  28.406  75.523  1.00  0.00     0.014 C 
ATOM     26  C   UNL     1       4.603  28.070  76.781  1.00  0.00     0.014 C 
ENDROOT
BRANCH   1  27
ATOM     27  C   UNL     1       9.030  23.742  76.713  1.00  0.00     0.048 C 
ATOM     28  O   UNL     1       8.903  24.977  76.936  1.00  0.00    -0.550 OA
ATOM     29  O   UNL     1       9.303  23.332  75.414  1.00  0.00    -0.550 OA
ENDBRANCH   1  27
BRANCH   7  30
ATOM     30  C   UNL     1       9.058  24.186  81.318  1.00  0.00    -0.077 C 
ATOM     31  C   UNL     1       8.070  25.113  81.985  1.00  0.00     0.039 C 
ATOM     32  C   UNL     1       9.785  23.365  82.093  1.00  0.00     0.008 C 
ENDBRANCH   7  30
BRANCH  24  33
ATOM     33  O   UNL     1       1.059  28.702  77.868  1.00  0.00    -0.393 OA
ATOM     34  H   UNL     1       0.903  29.331  77.116  1.00  0.00     0.210 HD
ENDBRANCH  24  33
TORSDOF 3
ENDMDL
MODEL 2
REMARK VINA RESULT:    -7.761      1.594      7.388
REMARK INTER + INTRA:          -8.354
REMARK INTER:                  -7.948
REMARK INTRA:                  -0.406
REMARK UNBOUND:                 0.541
REMARK SMILES C=C(C)[C@H]1CC[C@@]2(C(=O)[O-])CC[C@@]3(C)[C@@H](CC[C@H]4[C@@]5(C)CC[C@H](O)C(C)(C)[C@H]5CC[C@]43C)[C@H]12
REMARK SMILES IDX 7 1 6 2 33 3 11 4 5 5 15 6 4 7 12 8 16 9 13 10 17 11 31 12
REMARK SMILES IDX 14 13 18 14 30 15 32 16 19 17 29 18 21 19 20 20 28 21 22 22
REMARK SMILES IDX 25 23 23 24 26 25 27 26 8 27 9 28 10 29 2 30 3 31 1 32 24 33
REMARK H PARENT 24 34
REMARK Flexibility Score: inf
ROOT
ATOM      1  C   UNL     1       2.324  28.043  77.495  1.00  0.00     0.014 C 
ATOM      2  C   UNL     1       1.367  28.968  76.741  1.00  0.00     0.014 C 
ATOM      3  C   UNL     1       2.471  26.880  76.501  1.00  0.00     0.012 C 
ATOM      4  C   UNL     1       1.770  27.452  78.808  1.00  0.00     0.014 C 
ATOM      5  C   UNL     1       1.838  28.896  75.279  1.00  0.00     0.009 C 
ATOM      6  C   UNL     1       3.522  25.848  77.004  1.00  0.00     0.000 C 
ATOM      7  C   UNL     1       2.613  27.564  75.122  1.00  0.00     0.018 C 
ATOM      8  C   UNL     1       2.765  26.410  79.386  1.00  0.00     0.008 C 
ATOM      9  C   UNL     1       3.795  24.748  75.988  1.00  0.00     0.005 C 
ATOM     10  C   UNL     1       3.128  25.221  78.403  1.00  0.00    -0.024 C 
ATOM     11  C   UNL     1       4.982  23.918  76.445  1.00  0.00     0.005 C 
ATOM     12  C   UNL     1       4.344  24.282  78.960  1.00  0.00    -0.024 C 
ATOM     13  C   UNL     1       1.828  24.341  78.272  1.00  0.00     0.012 C 
ATOM     14  C   UNL     1       4.842  23.247  77.841  1.00  0.00     0.002 C 
ATOM     15  C   UNL     1       5.586  25.123  79.396  1.00  0.00     0.008 C 
ATOM     16  C   UNL     1       3.803  23.520  80.223  1.00  0.00     0.012 C 
ATOM     17  C   UNL     1       6.148  22.374  78.215  1.00  0.00    -0.026 C 
ATOM     18  C   UNL     1       6.805  24.306  79.873  1.00  0.00     0.005 C 
ATOM     19  C   UNL     1       6.667  21.540  76.981  1.00  0.00     0.010 C 
ATOM     20  C   UNL     1       5.708  21.263  79.233  1.00  0.00     0.012 C 
ATOM     21  C   UNL     1       7.324  23.217  78.893  1.00  0.00     0.003 C 
ATOM     22  C   UNL     1       7.748  22.206  76.125  1.00  0.00     0.033 C 
ATOM     23  C   UNL     1       8.605  23.660  78.045  1.00  0.00    -0.006 C 
ATOM     24  C   UNL     1       8.961  22.587  76.974  1.00  0.00     0.120 C 
ATOM     25  C   UNL     1       9.838  23.786  78.997  1.00  0.00     0.014 C 
ATOM     26  C   UNL     1       8.483  25.049  77.354  1.00  0.00     0.014 C 
ENDROOT
BRANCH   1  27
ATOM     27  C   UNL     1       3.606  28.839  77.781  1.00  0.00     0.048 C 
ATOM     28  O   UNL     1       3.552  29.873  78.501  1.00  0.00    -0.550 OA
ATOM     29  O   UNL     1       4.817  28.517  77.181  1.00  0.00    -0.550 OA
ENDBRANCH   1  27
BRANCH   7  30
ATOM     30  C   UNL     1       2.069  26.734  73.959  1.00  0.00    -0.077 C 
ATOM     31  C   UNL     1       0.659  26.194  73.963  1.00  0.00     0.039 C 
ATOM     32  C   UNL     1       2.831  26.518  72.875  1.00  0.00     0.008 C 
ENDBRANCH   7  30
BRANCH  24  33
ATOM     33  O   UNL     1       9.487  21.432  77.586  1.00  0.00    -0.393 OA
ATOM     34  H   UNL     1       9.223  21.463  78.543  1.00  0.00     0.210 HD
ENDBRANCH  24  33
TORSDOF 3
ENDMDL
MODEL 3
REMARK VINA RESULT:    -5.623      1.557      2.370
REMARK INTER + INTRA:          -5.903
REMARK INTER:                  -6.326
REMARK INTRA:                   0.422
REMARK UNBOUND:                 0.541
REMARK SMILES C=C(C)[C@H]1CC[C@@]2(C(=O)[O-])CC[C@@]3(C)[C@@H](CC[C@H]4[C@@]5(C)CC[C@H](O)C(C)(C)[C@H]5CC[C@]43C)[C@H]12
REMARK SMILES IDX 7 1 6 2 33 3 11 4 5 5 15 6 4 7 12 8 16 9 13 10 17 11 31 12
REMARK SMILES IDX 14 13 18 14 30 15 32 16 19 17 29 18 21 19 20 20 28 21 22 22
REMARK SMILES IDX 25 23 23 24 26 25 27 26 8 27 9 28 10 29 2 30 3 31 1 32 24 33
REMARK H PARENT 24 34
REMARK Flexibility Score: inf
ROOT
ATOM      1  C   UNL     1       6.521  21.869  77.881  1.00  0.00     0.014 C 
ATOM      2  C   UNL     1       7.819  21.067  77.994  1.00  0.00     0.014 C 
ATOM      3  C   UNL     1       6.886  23.150  78.647  1.00  0.00     0.012 C 
ATOM      4  C   UNL     1       5.299  21.248  78.589  1.00  0.00     0.014 C 
ATOM      5  C   UNL     1       8.931  22.113  77.812  1.00  0.00     0.009 C 
ATOM      6  C   UNL     1       5.738  24.198  78.557  1.00  0.00     0.000 C 
ATOM      7  C   UNL     1       8.318  23.488  78.178  1.00  0.00     0.018 C 
ATOM      8  C   UNL     1       4.098  22.229  78.542  1.00  0.00     0.008 C 
ATOM      9  C   UNL     1       6.110  25.530  79.191  1.00  0.00     0.005 C 
ATOM     10  C   UNL     1       4.381  23.657  79.169  1.00  0.00    -0.024 C 
ATOM     11  C   UNL     1       5.043  26.562  78.868  1.00  0.00     0.005 C 
ATOM     12  C   UNL     1       3.175  24.725  78.892  1.00  0.00    -0.024 C 
ATOM     13  C   UNL     1       4.518  23.440  80.723  1.00  0.00     0.012 C 
ATOM     14  C   UNL     1       3.599  26.209  79.326  1.00  0.00     0.002 C 
ATOM     15  C   UNL     1       2.773  24.783  77.384  1.00  0.00     0.008 C 
ATOM     16  C   UNL     1       1.926  24.240  79.713  1.00  0.00     0.012 C 
ATOM     17  C   UNL     1       2.554  27.382  78.953  1.00  0.00    -0.026 C 
ATOM     18  C   UNL     1       1.685  25.816  77.028  1.00  0.00     0.005 C 
ATOM     19  C   UNL     1       3.151  28.812  79.242  1.00  0.00     0.010 C 
ATOM     20  C   UNL     1       1.351  27.291  79.958  1.00  0.00     0.012 C 
ATOM     21  C   UNL     1       1.960  27.279  77.473  1.00  0.00     0.003 C 
ATOM     22  C   UNL     1       3.853  29.499  78.066  1.00  0.00     0.033 C 
ATOM     23  C   UNL     1       2.509  28.224  76.306  1.00  0.00    -0.006 C 
ATOM     24  C   UNL     1       2.916  29.619  76.864  1.00  0.00     0.120 C 
ATOM     25  C   UNL     1       1.375  28.462  75.256  1.00  0.00     0.014 C 
ATOM     26  C   UNL     1       3.696  27.634  75.491  1.00  0.00     0.014 C 
ENDROOT
BRANCH   1  27
ATOM     27  C   UNL     1       6.219  22.051  76.385  1.00  0.00     0.048 C 
ATOM     28  O   UNL     1       6.651  21.207  75.554  1.00  0.00    -0.550 OA
ATOM     29  O   UNL     1       5.574  23.182  75.902  1.00  0.00    -0.550 OA
ENDBRANCH   1  27
BRANCH   7  30
ATOM     30  C   UNL     1       9.161  24.214  79.227  1.00  0.00    -0.077 C 
ATOM     31  C   UNL     1       8.589  24.604  80.569  1.00  0.00     0.039 C 
ATOM     32  C   UNL     1      10.457  24.470  78.988  1.00  0.00     0.008 C 
ENDBRANCH   7  30
BRANCH  24  33
ATOM     33  O   UNL     1       1.775  30.358  77.231  1.00  0.00    -0.393 OA
ATOM     34  H   UNL     1       1.154  30.342  76.456  1.00  0.00     0.210 HD
ENDBRANCH  24  33
TORSDOF 3
ENDMDL
MODEL 4
REMARK VINA RESULT:    -5.569      1.566      2.140
REMARK INTER + INTRA:          -5.841
REMARK INTER:                  -6.638
REMARK INTRA:                   0.797
REMARK UNBOUND:                 0.541
REMARK SMILES C=C(C)[C@H]1CC[C@@]2(C(=O)[O-])CC[C@@]3(C)[C@@H](CC[C@H]4[C@@]5(C)CC[C@H](O)C(C)(C)[C@H]5CC[C@]43C)[C@H]12
REMARK SMILES IDX 7 1 6 2 33 3 11 4 5 5 15 6 4 7 12 8 16 9 13 10 17 11 31 12
REMARK SMILES IDX 14 13 18 14 30 15 32 16 19 17 29 18 21 19 20 20 28 21 22 22
REMARK SMILES IDX 25 23 23 24 26 25 27 26 8 27 9 28 10 29 2 30 3 31 1 32 24 33
REMARK H PARENT 24 34
REMARK Flexibility Score: inf
ROOT
ATOM      1  C   UNL     1       8.098  23.163  78.693  1.00  0.00     0.014 C 
ATOM      2  C   UNL     1       9.122  23.079  79.827  1.00  0.00     0.014 C 
ATOM      3  C   UNL     1       6.892  23.783  79.416  1.00  0.00     0.012 C 
ATOM      4  C   UNL     1       7.636  21.806  78.122  1.00  0.00     0.014 C 
ATOM      5  C   UNL     1       8.933  24.390  80.610  1.00  0.00     0.009 C 
ATOM      6  C   UNL     1       5.740  24.090  78.414  1.00  0.00     0.000 C 
ATOM      7  C   UNL     1       7.500  24.893  80.303  1.00  0.00     0.018 C 
ATOM      8  C   UNL     1       6.486  22.019  77.102  1.00  0.00     0.008 C 
ATOM      9  C   UNL     1       4.578  24.825  79.065  1.00  0.00     0.005 C 
ATOM     10  C   UNL     1       5.224  22.788  77.675  1.00  0.00    -0.024 C 
ATOM     11  C   UNL     1       3.606  25.288  77.994  1.00  0.00     0.005 C 
ATOM     12  C   UNL     1       4.144  23.191  76.518  1.00  0.00    -0.024 C 
ATOM     13  C   UNL     1       4.531  21.807  78.695  1.00  0.00     0.012 C 
ATOM     14  C   UNL     1       3.010  24.169  77.092  1.00  0.00     0.002 C 
ATOM     15  C   UNL     1       4.816  23.922  75.312  1.00  0.00     0.008 C 
ATOM     16  C   UNL     1       3.509  21.855  75.987  1.00  0.00     0.012 C 
ATOM     17  C   UNL     1       1.976  24.769  76.007  1.00  0.00    -0.026 C 
ATOM     18  C   UNL     1       3.853  24.396  74.204  1.00  0.00     0.005 C 
ATOM     19  C   UNL     1       1.034  25.865  76.639  1.00  0.00     0.010 C 
ATOM     20  C   UNL     1       0.974  23.625  75.615  1.00  0.00     0.012 C 
ATOM     21  C   UNL     1       2.668  25.289  74.664  1.00  0.00     0.003 C 
ATOM     22  C   UNL     1       1.511  27.315  76.515  1.00  0.00     0.033 C 
ATOM     23  C   UNL     1       2.896  26.853  74.417  1.00  0.00    -0.006 C 
ATOM     24  C   UNL     1       1.747  27.690  75.052  1.00  0.00     0.120 C 
ATOM     25  C   UNL     1       2.881  27.141  72.881  1.00  0.00     0.014 C 
ATOM     26  C   UNL     1       4.264  27.401  74.917  1.00  0.00     0.014 C 
ENDROOT
BRANCH   1  27
ATOM     27  C   UNL     1       8.715  24.017  77.575  1.00  0.00     0.048 C 
ATOM     28  O   UNL     1       8.336  25.209  77.419  1.00  0.00    -0.550 OA
ATOM     29  O   UNL     1       9.606  23.482  76.653  1.00  0.00    -0.550 OA
ENDBRANCH   1  27
BRANCH   7  30
ATOM     30  C   UNL     1       6.716  25.162  81.587  1.00  0.00    -0.077 C 
ATOM     31  C   UNL     1       5.286  24.704  81.751  1.00  0.00     0.039 C 
ATOM     32  C   UNL     1       7.313  25.769  82.624  1.00  0.00     0.008 C 
ENDBRANCH   7  30
BRANCH  24  33
ATOM     33  O   UNL     1       0.552  27.521  74.326  1.00  0.00    -0.393 OA
ATOM     34  H   UNL     1      -0.008  28.324  74.494  1.00  0.00     0.210 HD
ENDBRANCH  24  33
TORSDOF 3
ENDMDL
MODEL 5
REMARK VINA RESULT:    -5.549      2.552      7.418
REMARK INTER + INTRA:          -5.818
REMARK INTER:                  -6.476
REMARK INTRA:                   0.658
REMARK UNBOUND:                 0.541
REMARK SMILES C=C(C)[C@H]1CC[C@@]2(C(=O)[O-])CC[C@@]3(C)[C@@H](CC[C@H]4[C@@]5(C)CC[C@H](O)C(C)(C)[C@H]5CC[C@]43C)[C@H]12
REMARK SMILES IDX 7 1 6 2 33 3 11 4 5 5 15 6 4 7 12 8 16 9 13 10 17 11 31 12
REMARK SMILES IDX 14 13 18 14 30 15 32 16 19 17 29 18 21 19 20 20 28 21 22 22
REMARK SMILES IDX 25 23 23 24 26 25 27 26 8 27 9 28 10 29 2 30 3 31 1 32 24 33
REMARK H PARENT 24 34
REMARK Flexibility Score: inf
ROOT
ATOM      1  C   UNL     1       1.329  26.254  74.708  1.00  0.00     0.014 C 
ATOM      2  C   UNL     1       0.267  26.183  73.609  1.00  0.00     0.014 C 
ATOM      3  C   UNL     1       1.387  24.790  75.171  1.00  0.00     0.012 C 
ATOM      4  C   UNL     1       0.949  27.105  75.937  1.00  0.00     0.014 C 
ATOM      5  C   UNL     1       0.564  24.865  72.875  1.00  0.00     0.009 C 
ATOM      6  C   UNL     1       2.516  24.584  76.223  1.00  0.00     0.000 C 
ATOM      7  C   UNL     1       1.349  23.967  73.864  1.00  0.00     0.018 C 
ATOM      8  C   UNL     1       2.031  26.963  77.041  1.00  0.00     0.008 C 
ATOM      9  C   UNL     1       2.695  23.124  76.612  1.00  0.00     0.005 C 
ATOM     10  C   UNL     1       2.306  25.475  77.515  1.00  0.00    -0.024 C 
ATOM     11  C   UNL     1       3.948  22.972  77.457  1.00  0.00     0.005 C 
ATOM     12  C   UNL     1       3.602  25.350  78.501  1.00  0.00    -0.024 C 
ATOM     13  C   UNL     1       1.022  25.018  78.305  1.00  0.00     0.012 C 
ATOM     14  C   UNL     1       3.990  23.817  78.763  1.00  0.00     0.002 C 
ATOM     15  C   UNL     1       4.865  26.051  77.908  1.00  0.00     0.008 C 
ATOM     16  C   UNL     1       3.233  26.069  79.849  1.00  0.00     0.012 C 
ATOM     17  C   UNL     1       5.353  23.562  79.591  1.00  0.00    -0.026 C 
ATOM     18  C   UNL     1       6.152  25.922  78.749  1.00  0.00     0.005 C 
ATOM     19  C   UNL     1       5.744  22.035  79.620  1.00  0.00     0.010 C 
ATOM     20  C   UNL     1       5.064  23.882  81.101  1.00  0.00     0.012 C 
ATOM     21  C   UNL     1       6.579  24.476  79.127  1.00  0.00     0.003 C 
ATOM     22  C   UNL     1       6.700  21.563  78.520  1.00  0.00     0.033 C 
ATOM     23  C   UNL     1       7.740  23.877  78.204  1.00  0.00    -0.006 C 
ATOM     24  C   UNL     1       7.994  22.377  78.534  1.00  0.00     0.120 C 
ATOM     25  C   UNL     1       9.073  24.643  78.487  1.00  0.00     0.014 C 
ATOM     26  C   UNL     1       7.503  24.030  76.674  1.00  0.00     0.014 C 
ENDROOT
BRANCH   1  27
ATOM     27  C   UNL     1       2.616  26.802  74.072  1.00  0.00     0.048 C 
ATOM     28  O   UNL     1       2.610  27.940  73.530  1.00  0.00    -0.550 OA
ATOM     29  O   UNL     1       3.770  26.034  73.977  1.00  0.00    -0.550 OA
ENDBRANCH   1  27
BRANCH   7  30
ATOM     30  C   UNL     1       0.693  22.594  74.014  1.00  0.00    -0.077 C 
ATOM     31  C   UNL     1      -0.557  22.227  73.249  1.00  0.00     0.039 C 
ATOM     32  C   UNL     1       1.258  21.662  74.796  1.00  0.00     0.008 C 
ENDBRANCH   7  30
BRANCH  24  33
ATOM     33  O   UNL     1       8.617  22.245  79.791  1.00  0.00    -0.393 OA
ATOM     34  H   UNL     1       9.076  21.364  79.798  1.00  0.00     0.210 HD
ENDBRANCH  24  33
TORSDOF 3
ENDMDL
MODEL 6
REMARK VINA RESULT:    -5.127      2.217      6.934
REMARK INTER + INTRA:          -5.335
REMARK INTER:                  -4.979
REMARK INTRA:                  -0.356
REMARK UNBOUND:                 0.541
REMARK SMILES C=C(C)[C@H]1CC[C@@]2(C(=O)[O-])CC[C@@]3(C)[C@@H](CC[C@H]4[C@@]5(C)CC[C@H](O)C(C)(C)[C@H]5CC[C@]43C)[C@H]12
REMARK SMILES IDX 7 1 6 2 33 3 11 4 5 5 15 6 4 7 12 8 16 9 13 10 17 11 31 12
REMARK SMILES IDX 14 13 18 14 30 15 32 16 19 17 29 18 21 19 20 20 28 21 22 22
REMARK SMILES IDX 25 23 23 24 26 25 27 26 8 27 9 28 10 29 2 30 3 31 1 32 24 33
REMARK H PARENT 24 34
REMARK Flexibility Score: inf
ROOT
ATOM      1  C   UNL     1       2.703  25.979  79.881  1.00  0.00     0.014 C 
ATOM      2  C   UNL     1       1.969  27.246  80.325  1.00  0.00     0.014 C 
ATOM      3  C   UNL     1       3.095  26.343  78.441  1.00  0.00     0.012 C 
ATOM      4  C   UNL     1       1.834  24.707  79.807  1.00  0.00     0.014 C 
ATOM      5  C   UNL     1       2.795  28.396  79.726  1.00  0.00     0.009 C 
ATOM      6  C   UNL     1       3.984  25.232  77.809  1.00  0.00     0.000 C 
ATOM      7  C   UNL     1       3.583  27.807  78.530  1.00  0.00     0.018 C 
ATOM      8  C   UNL     1       2.649  23.538  79.191  1.00  0.00     0.008 C 
ATOM      9  C   UNL     1       4.505  25.612  76.430  1.00  0.00     0.005 C 
ATOM     10  C   UNL     1       3.248  23.832  77.753  1.00  0.00    -0.024 C 
ATOM     11  C   UNL     1       5.537  24.593  75.978  1.00  0.00     0.005 C 
ATOM     12  C   UNL     1       4.282  22.674  77.245  1.00  0.00    -0.024 C 
ATOM     13  C   UNL     1       2.022  23.886  76.764  1.00  0.00     0.012 C 
ATOM     14  C   UNL     1       5.046  23.119  75.907  1.00  0.00     0.002 C 
ATOM     15  C   UNL     1       5.374  22.347  78.313  1.00  0.00     0.008 C 
ATOM     16  C   UNL     1       3.437  21.372  76.997  1.00  0.00     0.012 C 
ATOM     17  C   UNL     1       6.214  22.128  75.396  1.00  0.00    -0.026 C 
ATOM     18  C   UNL     1       6.431  21.309  77.885  1.00  0.00     0.005 C 
ATOM     19  C   UNL     1       7.028  22.752  74.198  1.00  0.00     0.010 C 
ATOM     20  C   UNL     1       5.529  20.875  74.743  1.00  0.00     0.012 C 
ATOM     21  C   UNL     1       7.180  21.604  76.556  1.00  0.00     0.003 C 
ATOM     22  C   UNL     1       8.292  23.531  74.576  1.00  0.00     0.033 C 
ATOM     23  C   UNL     1       8.635  22.238  76.754  1.00  0.00    -0.006 C 
ATOM     24  C   UNL     1       9.250  22.658  75.387  1.00  0.00     0.120 C 
ATOM     25  C   UNL     1       9.586  21.164  77.376  1.00  0.00     0.014 C 
ATOM     26  C   UNL     1       8.694  23.446  77.733  1.00  0.00     0.014 C 
ENDROOT
BRANCH   1  27
ATOM     27  C   UNL     1       3.871  25.757  80.853  1.00  0.00     0.048 C 
ATOM     28  O   UNL     1       3.657  25.750  82.096  1.00  0.00    -0.550 OA
ATOM     29  O   UNL     1       5.185  25.671  80.411  1.00  0.00    -0.550 OA
ENDBRANCH   1  27
BRANCH   7  30
ATOM     30  C   UNL     1       3.352  28.617  77.254  1.00  0.00    -0.077 C 
ATOM     31  C   UNL     1       1.964  28.849  76.705  1.00  0.00     0.039 C 
ATOM     32  C   UNL     1       4.390  29.191  76.626  1.00  0.00     0.008 C 
ENDBRANCH   7  30
BRANCH  24  33
ATOM     33  O   UNL     1       9.602  21.522  74.632  1.00  0.00    -0.393 OA
ATOM     34  H   UNL     1       9.970  21.848  73.769  1.00  0.00     0.210 HD
ENDBRANCH  24  33
TORSDOF 3
ENDMDL
