MODEL 1
REMARK VINA RESULT:    -4.842      0.000      0.000
REMARK INTER + INTRA:          -5.619
REMARK INTER:                  -5.408
REMARK INTRA:                  -0.210
REMARK UNBOUND:                -0.210
REMARK SMILES O=C([O-])c1ccccc1C(=O)[O-]
REMARK SMILES IDX 4 1 9 2 5 3 8 4 6 5 7 6 2 7 1 8 3 9 10 10 11 11 12 12
REMARK H PARENT
REMARK Flexibility Score: inf
ROOT
ATOM      1  C   UNL     1     -12.588 -28.633  -4.658  1.00  0.00     0.006 A 
ATOM      2  C   UNL     1     -12.951 -28.593  -6.034  1.00  0.00     0.006 A 
ATOM      3  C   UNL     1     -11.328 -28.140  -4.271  1.00  0.00     0.010 A 
ATOM      4  C   UNL     1     -12.070 -28.002  -6.958  1.00  0.00     0.010 A 
ATOM      5  C   UNL     1     -10.461 -27.578  -5.207  1.00  0.00     0.001 A 
ATOM      6  C   UNL     1     -10.835 -27.500  -6.547  1.00  0.00     0.001 A 
ENDROOT
BRANCH   1   7
ATOM      7  C   UNL     1     -13.504 -29.108  -3.596  1.00  0.00     0.072 C 
ATOM      8  O   UNL     1     -13.333 -30.232  -3.054  1.00  0.00    -0.545 OA
ATOM      9  O   UNL     1     -14.606 -28.343  -3.233  1.00  0.00    -0.545 OA
ENDBRANCH   1   7
BRANCH   2  10
ATOM     10  C   UNL     1     -14.193 -29.213  -6.551  1.00  0.00     0.072 C 
ATOM     11  O   UNL     1     -14.223 -30.445  -6.818  1.00  0.00    -0.545 OA
ATOM     12  O   UNL     1     -15.357 -28.466  -6.686  1.00  0.00    -0.545 OA
ENDBRANCH   2  10
TORSDOF 2
ENDMDL
MODEL 2
REMARK VINA RESULT:    -4.819      0.117      2.867
REMARK INTER + INTRA:          -5.593
REMARK INTER:                  -5.397
REMARK INTRA:                  -0.196
REMARK UNBOUND:                -0.210
REMARK SMILES O=C([O-])c1ccccc1C(=O)[O-]
REMARK SMILES IDX 4 1 9 2 5 3 8 4 6 5 7 6 2 7 1 8 3 9 10 10 11 11 12 12
REMARK H PARENT
REMARK Flexibility Score: inf
ROOT
ATOM      1  C   UNL     1     -13.001 -28.592  -6.036  1.00  0.00     0.006 A 
ATOM      2  C   UNL     1     -12.577 -28.615  -4.678  1.00  0.00     0.006 A 
ATOM      3  C   UNL     1     -12.150 -28.032  -7.007  1.00  0.00     0.010 A 
ATOM      4  C   UNL     1     -11.293 -28.139  -4.353  1.00  0.00     0.010 A 
ATOM      5  C   UNL     1     -10.890 -27.545  -6.659  1.00  0.00     0.001 A 
ATOM      6  C   UNL     1     -10.458 -27.608  -5.336  1.00  0.00     0.001 A 
ENDROOT
BRANCH   1   7
ATOM      7  C   UNL     1     -14.274 -29.195  -6.494  1.00  0.00     0.072 C 
ATOM      8  O   UNL     1     -14.318 -30.394  -6.877  1.00  0.00    -0.545 OA
ATOM      9  O   UNL     1     -15.424 -28.419  -6.570  1.00  0.00    -0.545 OA
ENDBRANCH   1   7
BRANCH   2  10
ATOM     10  C   UNL     1     -13.459 -29.056  -3.573  1.00  0.00     0.072 C 
ATOM     11  O   UNL     1     -13.198 -30.112  -2.936  1.00  0.00    -0.545 OA
ATOM     12  O   UNL     1     -14.545 -28.283  -3.179  1.00  0.00    -0.545 OA
ENDBRANCH   2  10
TORSDOF 2
ENDMDL
MODEL 3
REMARK VINA RESULT:    -4.246      2.287      4.301
REMARK INTER + INTRA:          -4.953
REMARK INTER:                  -4.760
REMARK INTRA:                  -0.193
REMARK UNBOUND:                -0.210
REMARK SMILES O=C([O-])c1ccccc1C(=O)[O-]
REMARK SMILES IDX 4 1 9 2 5 3 8 4 6 5 7 6 2 7 1 8 3 9 10 10 11 11 12 12
REMARK H PARENT
REMARK Flexibility Score: inf
ROOT
ATOM      1  C   UNL     1     -12.654 -28.781  -5.903  1.00  0.00     0.006 A 
ATOM      2  C   UNL     1     -12.645 -28.977  -4.494  1.00  0.00     0.006 A 
ATOM      3  C   UNL     1     -13.887 -28.615  -6.561  1.00  0.00     0.010 A 
ATOM      4  C   UNL     1     -13.862 -28.932  -3.788  1.00  0.00     0.010 A 
ATOM      5  C   UNL     1     -15.083 -28.595  -5.845  1.00  0.00     0.001 A 
ATOM      6  C   UNL     1     -15.070 -28.743  -4.459  1.00  0.00     0.001 A 
ENDROOT
BRANCH   1   7
ATOM      7  C   UNL     1     -11.417 -28.675  -6.710  1.00  0.00     0.072 C 
ATOM      8  O   UNL     1     -10.994 -29.659  -7.373  1.00  0.00    -0.545 OA
ATOM      9  O   UNL     1     -10.670 -27.503  -6.690  1.00  0.00    -0.545 OA
ENDBRANCH   1   7
BRANCH   2  10
ATOM     10  C   UNL     1     -11.412 -29.298  -3.739  1.00  0.00     0.072 C 
ATOM     11  O   UNL     1     -10.645 -28.374  -3.355  1.00  0.00    -0.545 OA
ATOM     12  O   UNL     1     -11.116 -30.609  -3.387  1.00  0.00    -0.545 OA
ENDBRANCH   2  10
TORSDOF 2
ENDMDL
MODEL 4
REMARK VINA RESULT:    -4.235      2.288      3.289
REMARK INTER + INTRA:          -4.940
REMARK INTER:                  -4.753
REMARK INTRA:                  -0.187
REMARK UNBOUND:                -0.210
REMARK SMILES O=C([O-])c1ccccc1C(=O)[O-]
REMARK SMILES IDX 4 1 9 2 5 3 8 4 6 5 7 6 2 7 1 8 3 9 10 10 11 11 12 12
REMARK H PARENT
REMARK Flexibility Score: inf
ROOT
ATOM      1  C   UNL     1     -12.666 -29.000  -4.492  1.00  0.00     0.006 A 
ATOM      2  C   UNL     1     -12.640 -28.812  -5.902  1.00  0.00     0.006 A 
ATOM      3  C   UNL     1     -13.903 -28.979  -3.822  1.00  0.00     0.010 A 
ATOM      4  C   UNL     1     -13.857 -28.677  -6.597  1.00  0.00     0.010 A 
ATOM      5  C   UNL     1     -15.096 -28.822  -4.529  1.00  0.00     0.001 A 
ATOM      6  C   UNL     1     -15.073 -28.682  -5.915  1.00  0.00     0.001 A 
ENDROOT
BRANCH   1   7
ATOM      7  C   UNL     1     -11.451 -29.287  -3.694  1.00  0.00     0.072 C 
ATOM      8  O   UNL     1     -10.685 -28.356  -3.329  1.00  0.00    -0.545 OA
ATOM      9  O   UNL     1     -11.106 -30.600  -3.398  1.00  0.00    -0.545 OA
ENDBRANCH   1   7
BRANCH   2  10
ATOM     10  C   UNL     1     -11.379 -28.681  -6.668  1.00  0.00     0.072 C 
ATOM     11  O   UNL     1     -10.967 -29.636  -7.380  1.00  0.00    -0.545 OA
ATOM     12  O   UNL     1     -10.669 -27.486  -6.667  1.00  0.00    -0.545 OA
ENDBRANCH   2  10
TORSDOF 2
ENDMDL
MODEL 5
REMARK VINA RESULT:    -4.221      1.854      3.404
REMARK INTER + INTRA:          -4.925
REMARK INTER:                  -4.717
REMARK INTRA:                  -0.208
REMARK UNBOUND:                -0.210
REMARK SMILES O=C([O-])c1ccccc1C(=O)[O-]
REMARK SMILES IDX 4 1 9 2 5 3 8 4 6 5 7 6 2 7 1 8 3 9 10 10 11 11 12 12
REMARK H PARENT
REMARK Flexibility Score: inf
ROOT
ATOM      1  C   UNL     1     -13.702 -29.067  -5.292  1.00  0.00     0.006 A 
ATOM      2  C   UNL     1     -12.328 -28.714  -5.406  1.00  0.00     0.006 A 
ATOM      3  C   UNL     1     -14.195 -29.495  -4.045  1.00  0.00     0.010 A 
ATOM      4  C   UNL     1     -11.517 -28.738  -4.257  1.00  0.00     0.010 A 
ATOM      5  C   UNL     1     -13.367 -29.533  -2.923  1.00  0.00     0.001 A 
ATOM      6  C   UNL     1     -12.033 -29.145  -3.026  1.00  0.00     0.001 A 
ENDROOT
BRANCH   1   7
ATOM      7  C   UNL     1     -14.663 -28.941  -6.411  1.00  0.00     0.072 C 
ATOM      8  O   UNL     1     -15.371 -27.907  -6.539  1.00  0.00    -0.545 OA
ATOM      9  O   UNL     1     -14.842 -29.996  -7.298  1.00  0.00    -0.545 OA
ENDBRANCH   1   7
BRANCH   2  10
ATOM     10  C   UNL     1     -11.692 -28.387  -6.703  1.00  0.00     0.072 C 
ATOM     11  O   UNL     1     -11.381 -29.308  -7.507  1.00  0.00    -0.545 OA
ATOM     12  O   UNL     1     -11.491 -27.066  -7.082  1.00  0.00    -0.545 OA
ENDBRANCH   2  10
TORSDOF 2
ENDMDL
MODEL 6
REMARK VINA RESULT:    -4.114      2.334      4.305
REMARK INTER + INTRA:          -4.805
REMARK INTER:                  -4.573
REMARK INTRA:                  -0.232
REMARK UNBOUND:                -0.210
REMARK SMILES O=C([O-])c1ccccc1C(=O)[O-]
REMARK SMILES IDX 4 1 9 2 5 3 8 4 6 5 7 6 2 7 1 8 3 9 10 10 11 11 12 12
REMARK H PARENT
REMARK Flexibility Score: inf
ROOT
ATOM      1  C   UNL     1     -15.024 -29.302  -6.407  1.00  0.00     0.006 A 
ATOM      2  C   UNL     1     -15.280 -30.684  -6.625  1.00  0.00     0.006 A 
ATOM      3  C   UNL     1     -15.877 -28.349  -6.993  1.00  0.00     0.010 A 
ATOM      4  C   UNL     1     -16.416 -31.062  -7.365  1.00  0.00     0.010 A 
ATOM      5  C   UNL     1     -16.985 -28.745  -7.741  1.00  0.00     0.001 A 
ATOM      6  C   UNL     1     -17.260 -30.099  -7.918  1.00  0.00     0.001 A 
ENDROOT
BRANCH   1   7
ATOM      7  C   UNL     1     -13.935 -28.812  -5.530  1.00  0.00     0.072 C 
ATOM      8  O   UNL     1     -12.813 -28.498  -6.010  1.00  0.00    -0.545 OA
ATOM      9  O   UNL     1     -14.120 -28.759  -4.153  1.00  0.00    -0.545 OA
ENDBRANCH   1   7
BRANCH   2  10
ATOM     10  C   UNL     1     -14.360 -31.750  -6.165  1.00  0.00     0.072 C 
ATOM     11  O   UNL     1     -13.421 -32.142  -6.909  1.00  0.00    -0.545 OA
ATOM     12  O   UNL     1     -14.477 -32.286  -4.888  1.00  0.00    -0.545 OA
ENDBRANCH   2  10
TORSDOF 2
ENDMDL
MODEL 7
REMARK VINA RESULT:    -4.108      2.326      4.532
REMARK INTER + INTRA:          -4.799
REMARK INTER:                  -4.582
REMARK INTRA:                  -0.217
REMARK UNBOUND:                -0.210
REMARK SMILES O=C([O-])c1ccccc1C(=O)[O-]
REMARK SMILES IDX 4 1 9 2 5 3 8 4 6 5 7 6 2 7 1 8 3 9 10 10 11 11 12 12
REMARK H PARENT
REMARK Flexibility Score: inf
ROOT
ATOM      1  C   UNL     1     -15.243 -30.679  -6.645  1.00  0.00     0.006 A 
ATOM      2  C   UNL     1     -14.993 -29.297  -6.413  1.00  0.00     0.006 A 
ATOM      3  C   UNL     1     -16.382 -31.052  -7.382  1.00  0.00     0.010 A 
ATOM      4  C   UNL     1     -15.853 -28.340  -6.983  1.00  0.00     0.010 A 
ATOM      5  C   UNL     1     -17.233 -30.087  -7.920  1.00  0.00     0.001 A 
ATOM      6  C   UNL     1     -16.964 -28.734  -7.730  1.00  0.00     0.001 A 
ENDROOT
BRANCH   1   7
ATOM      7  C   UNL     1     -14.321 -31.750  -6.203  1.00  0.00     0.072 C 
ATOM      8  O   UNL     1     -13.459 -32.223  -6.990  1.00  0.00    -0.545 OA
ATOM      9  O   UNL     1     -14.443 -32.294  -4.930  1.00  0.00    -0.545 OA
ENDBRANCH   1   7
BRANCH   2  10
ATOM     10  C   UNL     1     -13.901 -28.819  -5.533  1.00  0.00     0.072 C 
ATOM     11  O   UNL     1     -12.798 -28.462  -6.029  1.00  0.00    -0.545 OA
ATOM     12  O   UNL     1     -14.096 -28.694  -4.163  1.00  0.00    -0.545 OA
ENDBRANCH   2  10
TORSDOF 2
ENDMDL
MODEL 8
REMARK VINA RESULT:    -4.094     10.747     11.984
REMARK INTER + INTRA:          -4.783
REMARK INTER:                  -4.574
REMARK INTRA:                  -0.209
REMARK UNBOUND:                -0.210
REMARK SMILES O=C([O-])c1ccccc1C(=O)[O-]
REMARK SMILES IDX 4 1 9 2 5 3 8 4 6 5 7 6 2 7 1 8 3 9 10 10 11 11 12 12
REMARK H PARENT
REMARK Flexibility Score: inf
ROOT
ATOM      1  C   UNL     1      -4.464 -20.136  -5.981  1.00  0.00     0.006 A 
ATOM      2  C   UNL     1      -4.217 -21.434  -6.510  1.00  0.00     0.006 A 
ATOM      3  C   UNL     1      -3.791 -19.737  -4.811  1.00  0.00     0.010 A 
ATOM      4  C   UNL     1      -3.260 -22.257  -5.888  1.00  0.00     0.010 A 
ATOM      5  C   UNL     1      -2.862 -20.578  -4.198  1.00  0.00     0.001 A 
ATOM      6  C   UNL     1      -2.589 -21.831  -4.742  1.00  0.00     0.001 A 
ENDROOT
BRANCH   1   7
ATOM      7  C   UNL     1      -5.348 -19.150  -6.643  1.00  0.00     0.072 C 
ATOM      8  O   UNL     1      -6.527 -18.969  -6.239  1.00  0.00    -0.545 OA
ATOM      9  O   UNL     1      -4.905 -18.460  -7.766  1.00  0.00    -0.545 OA
ENDBRANCH   1   7
BRANCH   2  10
ATOM     10  C   UNL     1      -4.979 -21.989  -7.653  1.00  0.00     0.072 C 
ATOM     11  O   UNL     1      -6.155 -22.412  -7.486  1.00  0.00    -0.545 OA
ATOM     12  O   UNL     1      -4.438 -21.992  -8.933  1.00  0.00    -0.545 OA
ENDBRANCH   2  10
TORSDOF 2
ENDMDL
MODEL 9
REMARK VINA RESULT:    -4.088     10.741     12.085
REMARK INTER + INTRA:          -4.777
REMARK INTER:                  -4.567
REMARK INTRA:                  -0.210
REMARK UNBOUND:                -0.210
REMARK SMILES O=C([O-])c1ccccc1C(=O)[O-]
REMARK SMILES IDX 4 1 9 2 5 3 8 4 6 5 7 6 2 7 1 8 3 9 10 10 11 11 12 12
REMARK H PARENT
REMARK Flexibility Score: inf
ROOT
ATOM      1  C   UNL     1      -4.239 -21.430  -6.555  1.00  0.00     0.006 A 
ATOM      2  C   UNL     1      -4.500 -20.140  -6.014  1.00  0.00     0.006 A 
ATOM      3  C   UNL     1      -3.283 -22.252  -5.930  1.00  0.00     0.010 A 
ATOM      4  C   UNL     1      -3.844 -19.747  -4.832  1.00  0.00     0.010 A 
ATOM      5  C   UNL     1      -2.629 -21.833  -4.771  1.00  0.00     0.001 A 
ATOM      6  C   UNL     1      -2.917 -20.588  -4.217  1.00  0.00     0.001 A 
ENDROOT
BRANCH   1   7
ATOM      7  C   UNL     1      -4.979 -21.983  -7.713  1.00  0.00     0.072 C 
ATOM      8  O   UNL     1      -6.120 -22.495  -7.563  1.00  0.00    -0.545 OA
ATOM      9  O   UNL     1      -4.388 -22.005  -8.971  1.00  0.00    -0.545 OA
ENDBRANCH   1   7
BRANCH   2  10
ATOM     10  C   UNL     1      -5.383 -19.156  -6.682  1.00  0.00     0.072 C 
ATOM     11  O   UNL     1      -6.552 -18.958  -6.252  1.00  0.00    -0.545 OA
ATOM     12  O   UNL     1      -4.919 -18.393  -7.747  1.00  0.00    -0.545 OA
ENDBRANCH   2  10
TORSDOF 2
ENDMDL
