MODEL 1
REMARK VINA RESULT:    -5.913      0.000      0.000
REMARK INTER + INTRA:         -18.272
REMARK INTER:                 -15.591
REMARK INTRA:                  -2.681
REMARK UNBOUND:                -2.681
REMARK SMILES CCCCCCCCCCCCCCCCCCCCCCCCCCCCCC(=O)[O-]
REMARK SMILES IDX 16 1 17 2 18 3 19 4 20 5 21 6 22 7 23 8 24 9 25 10 26 11
REMARK SMILES IDX 27 12 28 13 29 14 30 15 31 16 32 17 15 18 14 19 13 20 12 21
REMARK SMILES IDX 11 22 10 23 9 24 8 25 7 26 6 27 5 28 4 29 3 30 2 31 1 32
REMARK H PARENT
REMARK Flexibility Score: inf
ROOT
ATOM      1  C   UNL     1      26.864  18.157   8.432  1.00  0.00     0.000 C 
ENDROOT
BRANCH   1   2
ATOM      2  C   UNL     1      26.270  19.283   7.568  1.00  0.00     0.000 C 
BRANCH   2   3
ATOM      3  C   UNL     1      25.454  18.741   6.378  1.00  0.00     0.000 C 
BRANCH   3   4
ATOM      4  C   UNL     1      23.988  18.432   6.751  1.00  0.00     0.000 C 
BRANCH   4   5
ATOM      5  C   UNL     1      22.998  19.573   6.449  1.00  0.00     0.000 C 
BRANCH   5   6
ATOM      6  C   UNL     1      22.249  19.462   5.112  1.00  0.00     0.000 C 
BRANCH   6   7
ATOM      7  C   UNL     1      22.449  20.689   4.209  1.00  0.00     0.000 C 
BRANCH   7   8
ATOM      8  C   UNL     1      23.147  21.825   4.970  1.00  0.00     0.000 C 
BRANCH   8   9
ATOM      9  C   UNL     1      24.318  22.436   4.172  1.00  0.00     0.000 C 
BRANCH   9  10
ATOM     10  C   UNL     1      25.708  22.008   4.678  1.00  0.00     0.000 C 
BRANCH  10  11
ATOM     11  C   UNL     1      26.268  22.944   5.759  1.00  0.00     0.000 C 
BRANCH  11  12
ATOM     12  C   UNL     1      26.580  24.331   5.177  1.00  0.00     0.000 C 
BRANCH  12  13
ATOM     13  C   UNL     1      26.142  25.478   6.104  1.00  0.00     0.006 C 
BRANCH  13  14
ATOM     14  C   UNL     1      24.688  25.336   6.577  1.00  0.00     0.053 C 
BRANCH  14  15
ATOM     15  C   UNL     1      24.291  26.490   7.447  1.00  0.00     0.041 C 
ATOM     16  O   UNL     1      23.470  27.348   7.025  1.00  0.00    -0.550 OA
ATOM     17  O   UNL     1      24.806  26.605   8.734  1.00  0.00    -0.550 OA
ENDBRANCH  14  15
ENDBRANCH  13  14
ENDBRANCH  12  13
ENDBRANCH  11  12
ENDBRANCH  10  11
ENDBRANCH   9  10
ENDBRANCH   8   9
ENDBRANCH   7   8
ENDBRANCH   6   7
ENDBRANCH   5   6
ENDBRANCH   4   5
ENDBRANCH   3   4
ENDBRANCH   2   3
ENDBRANCH   1   2
BRANCH   1  18
ATOM     18  C   UNL     1      28.057  17.471   7.743  1.00  0.00     0.000 C 
BRANCH  18  19
ATOM     19  C   UNL     1      27.814  15.979   7.471  1.00  0.00     0.000 C 
BRANCH  19  20
ATOM     20  C   UNL     1      26.606  15.419   8.243  1.00  0.00     0.000 C 
BRANCH  20  21
ATOM     21  C   UNL     1      26.205  14.017   7.756  1.00  0.00     0.000 C 
BRANCH  21  22
ATOM     22  C   UNL     1      24.919  13.520   8.443  1.00  0.00     0.000 C 
BRANCH  22  23
ATOM     23  C   UNL     1      25.141  13.110   9.906  1.00  0.00     0.000 C 
BRANCH  23  24
ATOM     24  C   UNL     1      23.827  12.991  10.698  1.00  0.00    -0.000 C 
BRANCH  24  25
ATOM     25  C   UNL     1      22.656  12.461   9.843  1.00  0.00    -0.000 C 
BRANCH  25  26
ATOM     26  C   UNL     1      21.453  11.951  10.660  1.00  0.00    -0.000 C 
BRANCH  26  27
ATOM     27  C   UNL     1      21.430  10.437  10.932  1.00  0.00    -0.000 C 
BRANCH  27  28
ATOM     28  C   UNL     1      20.690  10.073  12.232  1.00  0.00    -0.000 C 
BRANCH  28  29
ATOM     29  C   UNL     1      21.451   9.031  13.069  1.00  0.00    -0.000 C 
BRANCH  29  30
ATOM     30  C   UNL     1      22.937   8.937  12.685  1.00  0.00    -0.000 C 
BRANCH  30  31
ATOM     31  C   UNL     1      23.796   9.992  13.401  1.00  0.00    -0.003 C 
ATOM     32  C   UNL     1      24.985   9.383  14.144  1.00  0.00     0.004 C 
ENDBRANCH  30  31
ENDBRANCH  29  30
ENDBRANCH  28  29
ENDBRANCH  27  28
ENDBRANCH  26  27
ENDBRANCH  25  26
ENDBRANCH  24  25
ENDBRANCH  23  24
ENDBRANCH  22  23
ENDBRANCH  21  22
ENDBRANCH  20  21
ENDBRANCH  19  20
ENDBRANCH  18  19
ENDBRANCH   1  18
TORSDOF 28
ENDMDL
MODEL 2
REMARK VINA RESULT:    -5.811      2.391      4.264
REMARK INTER + INTRA:         -18.005
REMARK INTER:                 -14.872
REMARK INTRA:                  -3.133
REMARK UNBOUND:                -2.681
REMARK SMILES CCCCCCCCCCCCCCCCCCCCCCCCCCCCCC(=O)[O-]
REMARK SMILES IDX 16 1 17 2 18 3 19 4 20 5 21 6 22 7 23 8 24 9 25 10 26 11
REMARK SMILES IDX 27 12 28 13 29 14 30 15 31 16 32 17 15 18 14 19 13 20 12 21
REMARK SMILES IDX 11 22 10 23 9 24 8 25 7 26 6 27 5 28 4 29 3 30 2 31 1 32
REMARK H PARENT
REMARK Flexibility Score: inf
ROOT
ATOM      1  C   UNL     1      27.177  14.335   7.062  1.00  0.00     0.000 C 
ENDROOT
BRANCH   1   2
ATOM      2  C   UNL     1      28.036  15.221   7.981  1.00  0.00     0.000 C 
BRANCH   2   3
ATOM      3  C   UNL     1      27.988  16.708   7.575  1.00  0.00     0.000 C 
BRANCH   3   4
ATOM      4  C   UNL     1      26.785  17.456   8.188  1.00  0.00     0.000 C 
BRANCH   4   5
ATOM      5  C   UNL     1      26.261  18.627   7.336  1.00  0.00     0.000 C 
BRANCH   5   6
ATOM      6  C   UNL     1      26.983  18.844   5.997  1.00  0.00     0.000 C 
BRANCH   6   7
ATOM      7  C   UNL     1      26.984  20.314   5.548  1.00  0.00     0.000 C 
BRANCH   7   8
ATOM      8  C   UNL     1      26.613  21.246   6.711  1.00  0.00     0.000 C 
BRANCH   8   9
ATOM      9  C   UNL     1      26.044  22.595   6.225  1.00  0.00     0.000 C 
BRANCH   9  10
ATOM     10  C   UNL     1      26.268  22.861   4.725  1.00  0.00     0.000 C 
BRANCH  10  11
ATOM     11  C   UNL     1      24.960  22.921   3.923  1.00  0.00     0.000 C 
BRANCH  11  12
ATOM     12  C   UNL     1      23.782  22.387   4.750  1.00  0.00     0.000 C 
BRANCH  12  13
ATOM     13  C   UNL     1      23.276  21.022   4.255  1.00  0.00     0.006 C 
BRANCH  13  14
ATOM     14  C   UNL     1      23.239  19.964   5.366  1.00  0.00     0.053 C 
BRANCH  14  15
ATOM     15  C   UNL     1      21.836  19.736   5.844  1.00  0.00     0.041 C 
ATOM     16  O   UNL     1      21.018  19.099   5.127  1.00  0.00    -0.550 OA
ATOM     17  O   UNL     1      21.438  20.205   7.092  1.00  0.00    -0.550 OA
ENDBRANCH  14  15
ENDBRANCH  13  14
ENDBRANCH  12  13
ENDBRANCH  11  12
ENDBRANCH  10  11
ENDBRANCH   9  10
ENDBRANCH   8   9
ENDBRANCH   7   8
ENDBRANCH   6   7
ENDBRANCH   5   6
ENDBRANCH   4   5
ENDBRANCH   3   4
ENDBRANCH   2   3
ENDBRANCH   1   2
BRANCH   1  18
ATOM     18  C   UNL     1      25.872  13.891   7.745  1.00  0.00     0.000 C 
BRANCH  18  19
ATOM     19  C   UNL     1      26.074  13.476   9.209  1.00  0.00     0.000 C 
BRANCH  19  20
ATOM     20  C   UNL     1      24.750  13.165   9.930  1.00  0.00     0.000 C 
BRANCH  20  21
ATOM     21  C   UNL     1      23.526  13.460   9.049  1.00  0.00     0.000 C 
BRANCH  21  22
ATOM     22  C   UNL     1      22.526  12.289   9.047  1.00  0.00     0.000 C 
BRANCH  22  23
ATOM     23  C   UNL     1      21.918  12.018  10.431  1.00  0.00     0.000 C 
BRANCH  23  24
ATOM     24  C   UNL     1      21.490  10.551  10.618  1.00  0.00    -0.000 C 
BRANCH  24  25
ATOM     25  C   UNL     1      20.696  10.318  11.921  1.00  0.00    -0.000 C 
BRANCH  25  26
ATOM     26  C   UNL     1      21.458   9.521  12.996  1.00  0.00    -0.000 C 
BRANCH  26  27
ATOM     27  C   UNL     1      22.901   9.128  12.632  1.00  0.00    -0.000 C 
BRANCH  27  28
ATOM     28  C   UNL     1      23.948   9.778  13.554  1.00  0.00    -0.000 C 
BRANCH  28  29
ATOM     29  C   UNL     1      24.371  11.175  13.070  1.00  0.00    -0.000 C 
BRANCH  29  30
ATOM     30  C   UNL     1      25.898  11.362  13.068  1.00  0.00    -0.000 C 
BRANCH  30  31
ATOM     31  C   UNL     1      26.600  10.461  14.098  1.00  0.00    -0.003 C 
ATOM     32  C   UNL     1      27.999  10.957  14.462  1.00  0.00     0.004 C 
ENDBRANCH  30  31
ENDBRANCH  29  30
ENDBRANCH  28  29
ENDBRANCH  27  28
ENDBRANCH  26  27
ENDBRANCH  25  26
ENDBRANCH  24  25
ENDBRANCH  23  24
ENDBRANCH  22  23
ENDBRANCH  21  22
ENDBRANCH  20  21
ENDBRANCH  19  20
ENDBRANCH  18  19
ENDBRANCH   1  18
TORSDOF 28
ENDMDL
MODEL 3
REMARK VINA RESULT:    -5.785      1.089      2.539
REMARK INTER + INTRA:         -17.935
REMARK INTER:                 -15.216
REMARK INTRA:                  -2.719
REMARK UNBOUND:                -2.681
REMARK SMILES CCCCCCCCCCCCCCCCCCCCCCCCCCCCCC(=O)[O-]
REMARK SMILES IDX 16 1 17 2 18 3 19 4 20 5 21 6 22 7 23 8 24 9 25 10 26 11
REMARK SMILES IDX 27 12 28 13 29 14 30 15 31 16 32 17 15 18 14 19 13 20 12 21
REMARK SMILES IDX 11 22 10 23 9 24 8 25 7 26 6 27 5 28 4 29 3 30 2 31 1 32
REMARK H PARENT
REMARK Flexibility Score: inf
ROOT
ATOM      1  C   UNL     1      26.960  16.603   8.163  1.00  0.00     0.000 C 
ENDROOT
BRANCH   1   2
ATOM      2  C   UNL     1      27.783  17.880   7.915  1.00  0.00     0.000 C 
BRANCH   2   3
ATOM      3  C   UNL     1      26.908  19.149   7.907  1.00  0.00     0.000 C 
BRANCH   3   4
ATOM      4  C   UNL     1      26.941  19.888   6.552  1.00  0.00     0.000 C 
BRANCH   4   5
ATOM      5  C   UNL     1      25.862  19.433   5.551  1.00  0.00     0.000 C 
BRANCH   5   6
ATOM      6  C   UNL     1      24.526  18.998   6.173  1.00  0.00     0.000 C 
BRANCH   6   7
ATOM      7  C   UNL     1      23.317  19.732   5.572  1.00  0.00     0.000 C 
BRANCH   7   8
ATOM      8  C   UNL     1      23.500  21.255   5.655  1.00  0.00     0.000 C 
BRANCH   8   9
ATOM      9  C   UNL     1      23.552  21.917   4.262  1.00  0.00     0.000 C 
BRANCH   9  10
ATOM     10  C   UNL     1      24.455  23.163   4.198  1.00  0.00     0.000 C 
BRANCH  10  11
ATOM     11  C   UNL     1      25.772  22.992   4.968  1.00  0.00     0.000 C 
BRANCH  11  12
ATOM     12  C   UNL     1      26.259  24.335   5.531  1.00  0.00     0.000 C 
BRANCH  12  13
ATOM     13  C   UNL     1      25.162  25.091   6.299  1.00  0.00     0.006 C 
BRANCH  13  14
ATOM     14  C   UNL     1      25.701  26.320   7.046  1.00  0.00     0.053 C 
BRANCH  14  15
ATOM     15  C   UNL     1      25.324  26.274   8.496  1.00  0.00     0.041 C 
ATOM     16  O   UNL     1      24.489  25.423   8.907  1.00  0.00    -0.550 OA
ATOM     17  O   UNL     1      25.912  27.152   9.400  1.00  0.00    -0.550 OA
ENDBRANCH  14  15
ENDBRANCH  13  14
ENDBRANCH  12  13
ENDBRANCH  11  12
ENDBRANCH  10  11
ENDBRANCH   9  10
ENDBRANCH   8   9
ENDBRANCH   7   8
ENDBRANCH   6   7
ENDBRANCH   5   6
ENDBRANCH   4   5
ENDBRANCH   3   4
ENDBRANCH   2   3
ENDBRANCH   1   2
BRANCH   1  18
ATOM     18  C   UNL     1      27.476  15.415   7.331  1.00  0.00     0.000 C 
BRANCH  18  19
ATOM     19  C   UNL     1      26.999  14.057   7.867  1.00  0.00     0.000 C 
BRANCH  19  20
ATOM     20  C   UNL     1      25.475  13.872   7.754  1.00  0.00     0.000 C 
BRANCH  20  21
ATOM     21  C   UNL     1      24.838  13.476   9.095  1.00  0.00     0.000 C 
BRANCH  21  22
ATOM     22  C   UNL     1      25.900  13.080  10.138  1.00  0.00     0.000 C 
BRANCH  22  23
ATOM     23  C   UNL     1      25.296  12.434  11.393  1.00  0.00     0.000 C 
BRANCH  23  24
ATOM     24  C   UNL     1      26.363  11.835  12.327  1.00  0.00    -0.000 C 
BRANCH  24  25
ATOM     25  C   UNL     1      25.767  10.889  13.392  1.00  0.00    -0.000 C 
BRANCH  25  26
ATOM     26  C   UNL     1      24.248  10.664  13.262  1.00  0.00    -0.000 C 
BRANCH  26  27
ATOM     27  C   UNL     1      23.745   9.273  13.688  1.00  0.00    -0.000 C 
BRANCH  27  28
ATOM     28  C   UNL     1      22.729   8.675  12.699  1.00  0.00    -0.000 C 
BRANCH  28  29
ATOM     29  C   UNL     1      21.275   8.995  13.084  1.00  0.00    -0.000 C 
BRANCH  29  30
ATOM     30  C   UNL     1      20.673  10.124  12.230  1.00  0.00    -0.000 C 
BRANCH  30  31
ATOM     31  C   UNL     1      21.389  10.283  10.880  1.00  0.00    -0.003 C 
ATOM     32  C   UNL     1      21.816  11.724  10.602  1.00  0.00     0.004 C 
ENDBRANCH  30  31
ENDBRANCH  29  30
ENDBRANCH  28  29
ENDBRANCH  27  28
ENDBRANCH  26  27
ENDBRANCH  25  26
ENDBRANCH  24  25
ENDBRANCH  23  24
ENDBRANCH  22  23
ENDBRANCH  21  22
ENDBRANCH  20  21
ENDBRANCH  19  20
ENDBRANCH  18  19
ENDBRANCH   1  18
TORSDOF 28
ENDMDL
MODEL 4
REMARK VINA RESULT:    -5.754      2.309      3.975
REMARK INTER + INTRA:         -17.854
REMARK INTER:                 -14.700
REMARK INTRA:                  -3.154
REMARK UNBOUND:                -2.681
REMARK SMILES CCCCCCCCCCCCCCCCCCCCCCCCCCCCCC(=O)[O-]
REMARK SMILES IDX 16 1 17 2 18 3 19 4 20 5 21 6 22 7 23 8 24 9 25 10 26 11
REMARK SMILES IDX 27 12 28 13 29 14 30 15 31 16 32 17 15 18 14 19 13 20 12 21
REMARK SMILES IDX 11 22 10 23 9 24 8 25 7 26 6 27 5 28 4 29 3 30 2 31 1 32
REMARK H PARENT
REMARK Flexibility Score: inf
ROOT
ATOM      1  C   UNL     1      26.073  18.796   6.639  1.00  0.00     0.000 C 
ENDROOT
BRANCH   1   2
ATOM      2  C   UNL     1      26.846  19.990   7.226  1.00  0.00     0.000 C 
BRANCH   2   3
ATOM      3  C   UNL     1      27.585  20.801   6.143  1.00  0.00     0.000 C 
BRANCH   3   4
ATOM      4  C   UNL     1      27.227  20.349   4.711  1.00  0.00     0.000 C 
BRANCH   4   5
ATOM      5  C   UNL     1      27.319  21.462   3.650  1.00  0.00     0.000 C 
BRANCH   5   6
ATOM      6  C   UNL     1      28.001  22.760   4.112  1.00  0.00     0.000 C 
BRANCH   6   7
ATOM      7  C   UNL     1      27.567  23.988   3.297  1.00  0.00     0.000 C 
BRANCH   7   8
ATOM      8  C   UNL     1      26.470  24.776   4.028  1.00  0.00     0.000 C 
BRANCH   8   9
ATOM      9  C   UNL     1      26.661  24.764   5.560  1.00  0.00     0.000 C 
BRANCH   9  10
ATOM     10  C   UNL     1      25.599  23.940   6.313  1.00  0.00     0.000 C 
BRANCH  10  11
ATOM     11  C   UNL     1      24.445  23.478   5.411  1.00  0.00     0.000 C 
BRANCH  11  12
ATOM     12  C   UNL     1      24.030  22.038   5.745  1.00  0.00     0.000 C 
BRANCH  12  13
ATOM     13  C   UNL     1      23.421  21.300   4.541  1.00  0.00     0.006 C 
BRANCH  13  14
ATOM     14  C   UNL     1      22.871  19.915   4.911  1.00  0.00     0.053 C 
BRANCH  14  15
ATOM     15  C   UNL     1      22.269  19.925   6.283  1.00  0.00     0.041 C 
ATOM     16  O   UNL     1      21.256  20.636   6.526  1.00  0.00    -0.550 OA
ATOM     17  O   UNL     1      22.807  19.129   7.290  1.00  0.00    -0.550 OA
ENDBRANCH  14  15
ENDBRANCH  13  14
ENDBRANCH  12  13
ENDBRANCH  11  12
ENDBRANCH  10  11
ENDBRANCH   9  10
ENDBRANCH   8   9
ENDBRANCH   7   8
ENDBRANCH   6   7
ENDBRANCH   5   6
ENDBRANCH   4   5
ENDBRANCH   3   4
ENDBRANCH   2   3
ENDBRANCH   1   2
BRANCH   1  18
ATOM     18  C   UNL     1      25.903  17.660   7.662  1.00  0.00     0.000 C 
BRANCH  18  19
ATOM     19  C   UNL     1      27.242  17.112   8.177  1.00  0.00     0.000 C 
BRANCH  19  20
ATOM     20  C   UNL     1      27.448  15.624   7.842  1.00  0.00     0.000 C 
BRANCH  20  21
ATOM     21  C   UNL     1      26.782  14.700   8.875  1.00  0.00     0.000 C 
BRANCH  21  22
ATOM     22  C   UNL     1      25.586  13.939   8.274  1.00  0.00     0.000 C 
BRANCH  22  23
ATOM     23  C   UNL     1      24.776  13.167   9.326  1.00  0.00     0.000 C 
BRANCH  23  24
ATOM     24  C   UNL     1      23.286  13.046   8.961  1.00  0.00    -0.000 C 
BRANCH  24  25
ATOM     25  C   UNL     1      22.360  13.084  10.195  1.00  0.00    -0.000 C 
BRANCH  25  26
ATOM     26  C   UNL     1      21.651  11.750  10.499  1.00  0.00    -0.000 C 
BRANCH  26  27
ATOM     27  C   UNL     1      22.242  10.934  11.662  1.00  0.00    -0.000 C 
BRANCH  27  28
ATOM     28  C   UNL     1      22.038   9.418  11.494  1.00  0.00    -0.000 C 
BRANCH  28  29
ATOM     29  C   UNL     1      21.961   8.683  12.843  1.00  0.00    -0.000 C 
BRANCH  29  30
ATOM     30  C   UNL     1      20.631   7.933  13.032  1.00  0.00    -0.000 C 
BRANCH  30  31
ATOM     31  C   UNL     1      19.759   8.555  14.135  1.00  0.00    -0.003 C 
ATOM     32  C   UNL     1      18.995   9.790  13.660  1.00  0.00     0.004 C 
ENDBRANCH  30  31
ENDBRANCH  29  30
ENDBRANCH  28  29
ENDBRANCH  27  28
ENDBRANCH  26  27
ENDBRANCH  25  26
ENDBRANCH  24  25
ENDBRANCH  23  24
ENDBRANCH  22  23
ENDBRANCH  21  22
ENDBRANCH  20  21
ENDBRANCH  19  20
ENDBRANCH  18  19
ENDBRANCH   1  18
TORSDOF 28
ENDMDL
MODEL 5
REMARK VINA RESULT:    -5.753      1.453      4.102
REMARK INTER + INTRA:         -17.851
REMARK INTER:                 -15.395
REMARK INTRA:                  -2.456
REMARK UNBOUND:                -2.681
REMARK SMILES CCCCCCCCCCCCCCCCCCCCCCCCCCCCCC(=O)[O-]
REMARK SMILES IDX 16 1 17 2 18 3 19 4 20 5 21 6 22 7 23 8 24 9 25 10 26 11
REMARK SMILES IDX 27 12 28 13 29 14 30 15 31 16 32 17 15 18 14 19 13 20 12 21
REMARK SMILES IDX 11 22 10 23 9 24 8 25 7 26 6 27 5 28 4 29 3 30 2 31 1 32
REMARK H PARENT
REMARK Flexibility Score: inf
ROOT
ATOM      1  C   UNL     1      22.343  19.877   6.574  1.00  0.00     0.000 C 
ENDROOT
BRANCH   1   2
ATOM      2  C   UNL     1      22.443  21.245   5.876  1.00  0.00     0.000 C 
BRANCH   2   3
ATOM      3  C   UNL     1      22.948  21.128   4.424  1.00  0.00     0.000 C 
BRANCH   3   4
ATOM      4  C   UNL     1      24.246  21.926   4.177  1.00  0.00     0.000 C 
BRANCH   4   5
ATOM      5  C   UNL     1      25.472  21.059   3.833  1.00  0.00     0.000 C 
BRANCH   5   6
ATOM      6  C   UNL     1      26.766  21.834   3.536  1.00  0.00     0.000 C 
BRANCH   6   7
ATOM      7  C   UNL     1      26.556  23.356   3.492  1.00  0.00     0.000 C 
BRANCH   7   8
ATOM      8  C   UNL     1      27.476  24.068   4.495  1.00  0.00     0.000 C 
BRANCH   8   9
ATOM      9  C   UNL     1      26.690  24.939   5.497  1.00  0.00     0.000 C 
BRANCH   9  10
ATOM     10  C   UNL     1      25.177  24.999   5.217  1.00  0.00     0.000 C 
BRANCH  10  11
ATOM     11  C   UNL     1      24.324  24.861   6.486  1.00  0.00     0.000 C 
BRANCH  11  12
ATOM     12  C   UNL     1      23.890  26.238   7.010  1.00  0.00     0.000 C 
BRANCH  12  13
ATOM     13  C   UNL     1      25.022  26.982   7.738  1.00  0.00     0.006 C 
BRANCH  13  14
ATOM     14  C   UNL     1      25.440  26.294   9.045  1.00  0.00     0.053 C 
BRANCH  14  15
ATOM     15  C   UNL     1      24.240  25.852   9.826  1.00  0.00     0.041 C 
ATOM     16  O   UNL     1      24.027  24.624  10.022  1.00  0.00    -0.550 OA
ATOM     17  O   UNL     1      23.369  26.795  10.363  1.00  0.00    -0.550 OA
ENDBRANCH  14  15
ENDBRANCH  13  14
ENDBRANCH  12  13
ENDBRANCH  11  12
ENDBRANCH  10  11
ENDBRANCH   9  10
ENDBRANCH   8   9
ENDBRANCH   7   8
ENDBRANCH   6   7
ENDBRANCH   5   6
ENDBRANCH   4   5
ENDBRANCH   3   4
ENDBRANCH   2   3
ENDBRANCH   1   2
BRANCH   1  18
ATOM     18  C   UNL     1      23.307  18.846   5.961  1.00  0.00     0.000 C 
BRANCH  18  19
ATOM     19  C   UNL     1      24.231  18.198   7.003  1.00  0.00     0.000 C 
BRANCH  19  20
ATOM     20  C   UNL     1      25.645  18.805   7.009  1.00  0.00     0.000 C 
BRANCH  20  21
ATOM     21  C   UNL     1      26.505  18.260   8.160  1.00  0.00     0.000 C 
BRANCH  21  22
ATOM     22  C   UNL     1      27.799  17.604   7.646  1.00  0.00     0.000 C 
BRANCH  22  23
ATOM     23  C   UNL     1      27.723  16.070   7.614  1.00  0.00     0.000 C 
BRANCH  23  24
ATOM     24  C   UNL     1      26.674  15.505   8.589  1.00  0.00    -0.000 C 
BRANCH  24  25
ATOM     25  C   UNL     1      25.600  14.648   7.885  1.00  0.00    -0.000 C 
BRANCH  25  26
ATOM     26  C   UNL     1      24.808  13.722   8.829  1.00  0.00    -0.000 C 
BRANCH  26  27
ATOM     27  C   UNL     1      23.276  13.847   8.748  1.00  0.00    -0.000 C 
BRANCH  27  28
ATOM     28  C   UNL     1      22.554  12.505   8.961  1.00  0.00    -0.000 C 
BRANCH  28  29
ATOM     29  C   UNL     1      22.466  12.114  10.446  1.00  0.00    -0.000 C 
BRANCH  29  30
ATOM     30  C   UNL     1      21.376  11.063  10.716  1.00  0.00    -0.000 C 
BRANCH  30  31
ATOM     31  C   UNL     1      21.629  10.276  12.012  1.00  0.00    -0.003 C 
ATOM     32  C   UNL     1      20.339   9.922  12.752  1.00  0.00     0.004 C 
ENDBRANCH  30  31
ENDBRANCH  29  30
ENDBRANCH  28  29
ENDBRANCH  27  28
ENDBRANCH  26  27
ENDBRANCH  25  26
ENDBRANCH  24  25
ENDBRANCH  23  24
ENDBRANCH  22  23
ENDBRANCH  21  22
ENDBRANCH  20  21
ENDBRANCH  19  20
ENDBRANCH  18  19
ENDBRANCH   1  18
TORSDOF 28
ENDMDL
MODEL 6
REMARK VINA RESULT:    -5.753      1.177      3.289
REMARK INTER + INTRA:         -17.851
REMARK INTER:                 -14.923
REMARK INTRA:                  -2.928
REMARK UNBOUND:                -2.681
REMARK SMILES CCCCCCCCCCCCCCCCCCCCCCCCCCCCCC(=O)[O-]
REMARK SMILES IDX 16 1 17 2 18 3 19 4 20 5 21 6 22 7 23 8 24 9 25 10 26 11
REMARK SMILES IDX 27 12 28 13 29 14 30 15 31 16 32 17 15 18 14 19 13 20 12 21
REMARK SMILES IDX 11 22 10 23 9 24 8 25 7 26 6 27 5 28 4 29 3 30 2 31 1 32
REMARK H PARENT
REMARK Flexibility Score: inf
ROOT
ATOM      1  C   UNL     1      25.968  15.332   7.745  1.00  0.00     0.000 C 
ENDROOT
BRANCH   1   2
ATOM      2  C   UNL     1      27.241  16.147   8.029  1.00  0.00     0.000 C 
BRANCH   2   3
ATOM      3  C   UNL     1      26.929  17.599   8.443  1.00  0.00     0.000 C 
BRANCH   3   4
ATOM      4  C   UNL     1      27.247  18.619   7.328  1.00  0.00     0.000 C 
BRANCH   4   5
ATOM      5  C   UNL     1      26.007  19.284   6.699  1.00  0.00     0.000 C 
BRANCH   5   6
ATOM      6  C   UNL     1      24.653  18.808   7.249  1.00  0.00     0.000 C 
BRANCH   6   7
ATOM      7  C   UNL     1      23.588  18.640   6.155  1.00  0.00     0.000 C 
BRANCH   7   8
ATOM      8  C   UNL     1      22.510  19.729   6.263  1.00  0.00     0.000 C 
BRANCH   8   9
ATOM      9  C   UNL     1      22.701  20.851   5.220  1.00  0.00     0.000 C 
BRANCH   9  10
ATOM     10  C   UNL     1      23.266  22.157   5.807  1.00  0.00     0.000 C 
BRANCH  10  11
ATOM     11  C   UNL     1      24.641  22.530   5.234  1.00  0.00     0.000 C 
BRANCH  11  12
ATOM     12  C   UNL     1      25.394  23.476   6.180  1.00  0.00     0.000 C 
BRANCH  12  13
ATOM     13  C   UNL     1      25.673  24.851   5.551  1.00  0.00     0.006 C 
BRANCH  13  14
ATOM     14  C   UNL     1      25.980  25.931   6.598  1.00  0.00     0.053 C 
BRANCH  14  15
ATOM     15  C   UNL     1      24.730  26.373   7.297  1.00  0.00     0.041 C 
ATOM     16  O   UNL     1      24.757  26.655   8.526  1.00  0.00    -0.550 OA
ATOM     17  O   UNL     1      23.540  26.500   6.588  1.00  0.00    -0.550 OA
ENDBRANCH  14  15
ENDBRANCH  13  14
ENDBRANCH  12  13
ENDBRANCH  11  12
ENDBRANCH  10  11
ENDBRANCH   9  10
ENDBRANCH   8   9
ENDBRANCH   7   8
ENDBRANCH   6   7
ENDBRANCH   5   6
ENDBRANCH   4   5
ENDBRANCH   3   4
ENDBRANCH   2   3
ENDBRANCH   1   2
BRANCH   1  18
ATOM     18  C   UNL     1      26.087  13.883   8.248  1.00  0.00     0.000 C 
BRANCH  18  19
ATOM     19  C   UNL     1      26.464  13.794   9.734  1.00  0.00     0.000 C 
BRANCH  19  20
ATOM     20  C   UNL     1      27.564  12.753  10.010  1.00  0.00     0.000 C 
BRANCH  20  21
ATOM     21  C   UNL     1      27.394  12.080  11.382  1.00  0.00     0.000 C 
BRANCH  21  22
ATOM     22  C   UNL     1      25.930  12.117  11.859  1.00  0.00     0.000 C 
BRANCH  22  23
ATOM     23  C   UNL     1      25.688  11.271  13.118  1.00  0.00     0.000 C 
BRANCH  23  24
ATOM     24  C   UNL     1      24.195  11.006  13.381  1.00  0.00    -0.000 C 
BRANCH  24  25
ATOM     25  C   UNL     1      23.875   9.509  13.578  1.00  0.00    -0.000 C 
BRANCH  25  26
ATOM     26  C   UNL     1      22.781   8.964  12.641  1.00  0.00    -0.000 C 
BRANCH  26  27
ATOM     27  C   UNL     1      21.335   9.305  13.042  1.00  0.00    -0.000 C 
BRANCH  27  28
ATOM     28  C   UNL     1      20.628  10.213  12.020  1.00  0.00    -0.000 C 
BRANCH  28  29
ATOM     29  C   UNL     1      21.525  10.554  10.818  1.00  0.00    -0.000 C 
BRANCH  29  30
ATOM     30  C   UNL     1      21.840  12.057  10.724  1.00  0.00    -0.000 C 
BRANCH  30  31
ATOM     31  C   UNL     1      22.757  12.390   9.537  1.00  0.00    -0.003 C 
ATOM     32  C   UNL     1      22.597  13.831   9.051  1.00  0.00     0.004 C 
ENDBRANCH  30  31
ENDBRANCH  29  30
ENDBRANCH  28  29
ENDBRANCH  27  28
ENDBRANCH  26  27
ENDBRANCH  25  26
ENDBRANCH  24  25
ENDBRANCH  23  24
ENDBRANCH  22  23
ENDBRANCH  21  22
ENDBRANCH  20  21
ENDBRANCH  19  20
ENDBRANCH  18  19
ENDBRANCH   1  18
TORSDOF 28
ENDMDL
MODEL 7
REMARK VINA RESULT:    -5.749      1.020      2.381
REMARK INTER + INTRA:         -17.841
REMARK INTER:                 -14.781
REMARK INTRA:                  -3.060
REMARK UNBOUND:                -2.681
REMARK SMILES CCCCCCCCCCCCCCCCCCCCCCCCCCCCCC(=O)[O-]
REMARK SMILES IDX 16 1 17 2 18 3 19 4 20 5 21 6 22 7 23 8 24 9 25 10 26 11
REMARK SMILES IDX 27 12 28 13 29 14 30 15 31 16 32 17 15 18 14 19 13 20 12 21
REMARK SMILES IDX 11 22 10 23 9 24 8 25 7 26 6 27 5 28 4 29 3 30 2 31 1 32
REMARK H PARENT
REMARK Flexibility Score: inf
ROOT
ATOM      1  C   UNL     1      24.198  17.958   7.120  1.00  0.00     0.000 C 
ENDROOT
BRANCH   1   2
ATOM      2  C   UNL     1      23.262  19.157   6.886  1.00  0.00     0.000 C 
BRANCH   2   3
ATOM      3  C   UNL     1      22.470  19.034   5.569  1.00  0.00     0.000 C 
BRANCH   3   4
ATOM      4  C   UNL     1      22.002  20.401   5.023  1.00  0.00     0.000 C 
BRANCH   4   5
ATOM      5  C   UNL     1      22.899  21.588   5.424  1.00  0.00     0.000 C 
BRANCH   5   6
ATOM      6  C   UNL     1      23.741  22.191   4.289  1.00  0.00     0.000 C 
BRANCH   6   7
ATOM      7  C   UNL     1      25.046  21.419   4.035  1.00  0.00     0.000 C 
BRANCH   7   8
ATOM      8  C   UNL     1      25.902  21.350   5.309  1.00  0.00     0.000 C 
BRANCH   8   9
ATOM      9  C   UNL     1      27.199  22.178   5.190  1.00  0.00     0.000 C 
BRANCH   9  10
ATOM     10  C   UNL     1      27.304  22.987   3.884  1.00  0.00     0.000 C 
BRANCH  10  11
ATOM     11  C   UNL     1      27.321  24.505   4.117  1.00  0.00     0.000 C 
BRANCH  11  12
ATOM     12  C   UNL     1      26.764  24.855   5.505  1.00  0.00     0.000 C 
BRANCH  12  13
ATOM     13  C   UNL     1      25.273  25.227   5.472  1.00  0.00     0.006 C 
BRANCH  13  14
ATOM     14  C   UNL     1      24.552  24.904   6.788  1.00  0.00     0.053 C 
BRANCH  14  15
ATOM     15  C   UNL     1      24.583  26.079   7.719  1.00  0.00     0.041 C 
ATOM     16  O   UNL     1      24.151  27.200   7.339  1.00  0.00    -0.550 OA
ATOM     17  O   UNL     1      25.063  25.930   9.017  1.00  0.00    -0.550 OA
ENDBRANCH  14  15
ENDBRANCH  13  14
ENDBRANCH  12  13
ENDBRANCH  11  12
ENDBRANCH  10  11
ENDBRANCH   9  10
ENDBRANCH   8   9
ENDBRANCH   7   8
ENDBRANCH   6   7
ENDBRANCH   5   6
ENDBRANCH   4   5
ENDBRANCH   3   4
ENDBRANCH   2   3
ENDBRANCH   1   2
BRANCH   1  18
ATOM     18  C   UNL     1      25.660  18.398   7.307  1.00  0.00     0.000 C 
BRANCH  18  19
ATOM     19  C   UNL     1      26.467  17.434   8.189  1.00  0.00     0.000 C 
BRANCH  19  20
ATOM     20  C   UNL     1      27.714  16.876   7.480  1.00  0.00     0.000 C 
BRANCH  20  21
ATOM     21  C   UNL     1      27.966  15.400   7.826  1.00  0.00     0.000 C 
BRANCH  21  22
ATOM     22  C   UNL     1      26.872  14.834   8.749  1.00  0.00     0.000 C 
BRANCH  22  23
ATOM     23  C   UNL     1      25.997  13.774   8.064  1.00  0.00     0.000 C 
BRANCH  23  24
ATOM     24  C   UNL     1      24.813  13.323   8.938  1.00  0.00    -0.000 C 
BRANCH  24  25
ATOM     25  C   UNL     1      23.492  14.035   8.573  1.00  0.00    -0.000 C 
BRANCH  25  26
ATOM     26  C   UNL     1      22.374  13.874   9.620  1.00  0.00    -0.000 C 
BRANCH  26  27
ATOM     27  C   UNL     1      22.515  12.664  10.561  1.00  0.00    -0.000 C 
BRANCH  27  28
ATOM     28  C   UNL     1      21.756  11.423  10.057  1.00  0.00    -0.000 C 
BRANCH  28  29
ATOM     29  C   UNL     1      21.421  10.439  11.191  1.00  0.00    -0.000 C 
BRANCH  29  30
ATOM     30  C   UNL     1      22.527  10.370  12.258  1.00  0.00    -0.000 C 
BRANCH  30  31
ATOM     31  C   UNL     1      22.190   9.382  13.388  1.00  0.00    -0.003 C 
ATOM     32  C   UNL     1      20.763   8.843  13.296  1.00  0.00     0.004 C 
ENDBRANCH  30  31
ENDBRANCH  29  30
ENDBRANCH  28  29
ENDBRANCH  27  28
ENDBRANCH  26  27
ENDBRANCH  25  26
ENDBRANCH  24  25
ENDBRANCH  23  24
ENDBRANCH  22  23
ENDBRANCH  21  22
ENDBRANCH  20  21
ENDBRANCH  19  20
ENDBRANCH  18  19
ENDBRANCH   1  18
TORSDOF 28
ENDMDL
MODEL 8
REMARK VINA RESULT:    -5.730      4.927     13.037
REMARK INTER + INTRA:         -17.790
REMARK INTER:                 -15.058
REMARK INTRA:                  -2.732
REMARK UNBOUND:                -2.681
REMARK SMILES CCCCCCCCCCCCCCCCCCCCCCCCCCCCCC(=O)[O-]
REMARK SMILES IDX 16 1 17 2 18 3 19 4 20 5 21 6 22 7 23 8 24 9 25 10 26 11
REMARK SMILES IDX 27 12 28 13 29 14 30 15 31 16 32 17 15 18 14 19 13 20 12 21
REMARK SMILES IDX 11 22 10 23 9 24 8 25 7 26 6 27 5 28 4 29 3 30 2 31 1 32
REMARK H PARENT
REMARK Flexibility Score: inf
ROOT
ATOM      1  C   UNL     1      25.504  18.554   6.993  1.00  0.00     0.000 C 
ENDROOT
BRANCH   1   2
ATOM      2  C   UNL     1      26.250  17.926   8.183  1.00  0.00     0.000 C 
BRANCH   2   3
ATOM      3  C   UNL     1      27.584  17.278   7.764  1.00  0.00     0.000 C 
BRANCH   3   4
ATOM      4  C   UNL     1      27.555  15.737   7.855  1.00  0.00     0.000 C 
BRANCH   4   5
ATOM      5  C   UNL     1      26.142  15.130   7.937  1.00  0.00     0.000 C 
BRANCH   5   6
ATOM      6  C   UNL     1      26.023  13.845   8.773  1.00  0.00     0.000 C 
BRANCH   6   7
ATOM      7  C   UNL     1      27.001  13.809   9.958  1.00  0.00     0.000 C 
BRANCH   7   8
ATOM      8  C   UNL     1      26.836  12.515  10.769  1.00  0.00     0.000 C 
BRANCH   8   9
ATOM      9  C   UNL     1      25.428  12.385  11.388  1.00  0.00     0.000 C 
BRANCH   9  10
ATOM     10  C   UNL     1      25.381  11.500  12.647  1.00  0.00     0.000 C 
BRANCH  10  11
ATOM     11  C   UNL     1      23.950  11.206  13.122  1.00  0.00     0.000 C 
BRANCH  11  12
ATOM     12  C   UNL     1      23.393   9.947  12.443  1.00  0.00     0.000 C 
BRANCH  12  13
ATOM     13  C   UNL     1      22.211   9.330  13.210  1.00  0.00     0.006 C 
BRANCH  13  14
ATOM     14  C   UNL     1      20.850   9.840  12.714  1.00  0.00     0.053 C 
BRANCH  14  15
ATOM     15  C   UNL     1      19.737   9.320  13.572  1.00  0.00     0.041 C 
ATOM     16  O   UNL     1      18.737  10.046  13.821  1.00  0.00    -0.550 OA
ATOM     17  O   UNL     1      19.789   8.024  14.077  1.00  0.00    -0.550 OA
ENDBRANCH  14  15
ENDBRANCH  13  14
ENDBRANCH  12  13
ENDBRANCH  11  12
ENDBRANCH  10  11
ENDBRANCH   9  10
ENDBRANCH   8   9
ENDBRANCH   7   8
ENDBRANCH   6   7
ENDBRANCH   5   6
ENDBRANCH   4   5
ENDBRANCH   3   4
ENDBRANCH   2   3
ENDBRANCH   1   2
BRANCH   1  18
ATOM     18  C   UNL     1      23.997  18.244   7.029  1.00  0.00     0.000 C 
BRANCH  18  19
ATOM     19  C   UNL     1      23.218  18.927   5.896  1.00  0.00     0.000 C 
BRANCH  19  20
ATOM     20  C   UNL     1      22.216  19.978   6.409  1.00  0.00     0.000 C 
BRANCH  20  21
ATOM     21  C   UNL     1      22.517  21.382   5.861  1.00  0.00     0.000 C 
BRANCH  21  22
ATOM     22  C   UNL     1      23.011  21.334   4.404  1.00  0.00     0.000 C 
BRANCH  22  23
ATOM     23  C   UNL     1      24.066  22.405   4.092  1.00  0.00     0.000 C 
BRANCH  23  24
ATOM     24  C   UNL     1      25.466  21.810   3.852  1.00  0.00    -0.000 C 
BRANCH  24  25
ATOM     25  C   UNL     1      26.179  21.405   5.161  1.00  0.00    -0.000 C 
BRANCH  25  26
ATOM     26  C   UNL     1      27.322  22.349   5.580  1.00  0.00    -0.000 C 
BRANCH  26  27
ATOM     27  C   UNL     1      27.781  23.352   4.506  1.00  0.00    -0.000 C 
BRANCH  27  28
ATOM     28  C   UNL     1      26.920  24.627   4.470  1.00  0.00    -0.000 C 
BRANCH  28  29
ATOM     29  C   UNL     1      26.513  25.101   5.875  1.00  0.00    -0.000 C 
BRANCH  29  30
ATOM     30  C   UNL     1      25.177  25.864   5.876  1.00  0.00    -0.000 C 
BRANCH  30  31
ATOM     31  C   UNL     1      24.046  25.064   6.542  1.00  0.00    -0.003 C 
ATOM     32  C   UNL     1      24.563  23.987   7.495  1.00  0.00     0.004 C 
ENDBRANCH  30  31
ENDBRANCH  29  30
ENDBRANCH  28  29
ENDBRANCH  27  28
ENDBRANCH  26  27
ENDBRANCH  25  26
ENDBRANCH  24  25
ENDBRANCH  23  24
ENDBRANCH  22  23
ENDBRANCH  21  22
ENDBRANCH  20  21
ENDBRANCH  19  20
ENDBRANCH  18  19
ENDBRANCH   1  18
TORSDOF 28
ENDMDL
MODEL 9
REMARK VINA RESULT:    -5.622      1.176      2.258
REMARK INTER + INTRA:         -17.506
REMARK INTER:                 -14.829
REMARK INTRA:                  -2.678
REMARK UNBOUND:                -2.681
REMARK SMILES CCCCCCCCCCCCCCCCCCCCCCCCCCCCCC(=O)[O-]
REMARK SMILES IDX 16 1 17 2 18 3 19 4 20 5 21 6 22 7 23 8 24 9 25 10 26 11
REMARK SMILES IDX 27 12 28 13 29 14 30 15 31 16 32 17 15 18 14 19 13 20 12 21
REMARK SMILES IDX 11 22 10 23 9 24 8 25 7 26 6 27 5 28 4 29 3 30 2 31 1 32
REMARK H PARENT
REMARK Flexibility Score: inf
ROOT
ATOM      1  C   UNL     1      27.385  16.232   7.824  1.00  0.00     0.000 C 
ENDROOT
BRANCH   1   2
ATOM      2  C   UNL     1      27.887  17.434   7.004  1.00  0.00     0.000 C 
BRANCH   2   3
ATOM      3  C   UNL     1      26.806  18.519   6.831  1.00  0.00     0.000 C 
BRANCH   3   4
ATOM      4  C   UNL     1      25.599  18.315   7.771  1.00  0.00     0.000 C 
BRANCH   4   5
ATOM      5  C   UNL     1      24.265  18.050   7.048  1.00  0.00     0.000 C 
BRANCH   5   6
ATOM      6  C   UNL     1      23.924  19.028   5.912  1.00  0.00     0.000 C 
BRANCH   6   7
ATOM      7  C   UNL     1      22.512  19.622   6.036  1.00  0.00     0.000 C 
BRANCH   7   8
ATOM      8  C   UNL     1      22.531  21.140   5.808  1.00  0.00     0.000 C 
BRANCH   8   9
ATOM      9  C   UNL     1      23.090  21.519   4.420  1.00  0.00     0.000 C 
BRANCH   9  10
ATOM     10  C   UNL     1      24.242  22.540   4.471  1.00  0.00     0.000 C 
BRANCH  10  11
ATOM     11  C   UNL     1      25.376  22.120   5.417  1.00  0.00     0.000 C 
BRANCH  11  12
ATOM     12  C   UNL     1      25.451  23.053   6.634  1.00  0.00     0.000 C 
BRANCH  12  13
ATOM     13  C   UNL     1      24.641  24.346   6.444  1.00  0.00     0.006 C 
BRANCH  13  14
ATOM     14  C   UNL     1      25.502  25.611   6.583  1.00  0.00     0.053 C 
BRANCH  14  15
ATOM     15  C   UNL     1      24.872  26.587   7.530  1.00  0.00     0.041 C 
ATOM     16  O   UNL     1      23.759  27.112   7.252  1.00  0.00    -0.550 OA
ATOM     17  O   UNL     1      25.498  26.900   8.732  1.00  0.00    -0.550 OA
ENDBRANCH  14  15
ENDBRANCH  13  14
ENDBRANCH  12  13
ENDBRANCH  11  12
ENDBRANCH  10  11
ENDBRANCH   9  10
ENDBRANCH   8   9
ENDBRANCH   7   8
ENDBRANCH   6   7
ENDBRANCH   5   6
ENDBRANCH   4   5
ENDBRANCH   3   4
ENDBRANCH   2   3
ENDBRANCH   1   2
BRANCH   1  18
ATOM     18  C   UNL     1      27.601  14.900   7.086  1.00  0.00     0.000 C 
BRANCH  18  19
ATOM     19  C   UNL     1      26.532  13.850   7.421  1.00  0.00     0.000 C 
BRANCH  19  20
ATOM     20  C   UNL     1      25.558  14.316   8.517  1.00  0.00     0.000 C 
BRANCH  20  21
ATOM     21  C   UNL     1      24.286  13.455   8.568  1.00  0.00     0.000 C 
BRANCH  21  22
ATOM     22  C   UNL     1      23.883  13.115  10.015  1.00  0.00     0.000 C 
BRANCH  22  23
ATOM     23  C   UNL     1      22.397  12.751  10.154  1.00  0.00     0.000 C 
BRANCH  23  24
ATOM     24  C   UNL     1      22.136  11.242  10.006  1.00  0.00    -0.000 C 
BRANCH  24  25
ATOM     25  C   UNL     1      21.038  10.726  10.960  1.00  0.00    -0.000 C 
BRANCH  25  26
ATOM     26  C   UNL     1      21.556  10.267  12.337  1.00  0.00    -0.000 C 
BRANCH  26  27
ATOM     27  C   UNL     1      22.861   9.451  12.316  1.00  0.00    -0.000 C 
BRANCH  27  28
ATOM     28  C   UNL     1      23.882   9.928  13.364  1.00  0.00    -0.000 C 
BRANCH  28  29
ATOM     29  C   UNL     1      24.267  11.406  13.179  1.00  0.00    -0.000 C 
BRANCH  29  30
ATOM     30  C   UNL     1      25.742  11.586  12.782  1.00  0.00    -0.000 C 
BRANCH  30  31
ATOM     31  C   UNL     1      26.674  10.627  13.540  1.00  0.00    -0.003 C 
ATOM     32  C   UNL     1      27.702  11.359  14.403  1.00  0.00     0.004 C 
ENDBRANCH  30  31
ENDBRANCH  29  30
ENDBRANCH  28  29
ENDBRANCH  27  28
ENDBRANCH  26  27
ENDBRANCH  25  26
ENDBRANCH  24  25
ENDBRANCH  23  24
ENDBRANCH  22  23
ENDBRANCH  21  22
ENDBRANCH  20  21
ENDBRANCH  19  20
ENDBRANCH  18  19
ENDBRANCH   1  18
TORSDOF 28
ENDMDL
