MODEL 1
REMARK VINA RESULT:    -2.866      0.000      0.000
REMARK INTER + INTRA:          -4.459
REMARK INTER:                  -3.871
REMARK INTRA:                  -0.587
REMARK UNBOUND:                -0.587
REMARK SMILES CCCCCCCC(=O)[O-]
REMARK SMILES IDX 5 1 6 2 7 3 8 4 9 5 10 6 4 7 3 8 2 9 1 10
REMARK H PARENT
REMARK Flexibility Score: inf
ROOT
ATOM      1  C   UNL     1      13.676 -16.441  -2.433  1.00  0.00     0.000 C 
ENDROOT
BRANCH   1   2
ATOM      2  C   UNL     1      13.499 -15.530  -3.655  1.00  0.00     0.006 C 
BRANCH   2   3
ATOM      3  C   UNL     1      12.116 -14.873  -3.653  1.00  0.00     0.053 C 
BRANCH   3   4
ATOM      4  C   UNL     1      11.881 -14.151  -2.364  1.00  0.00     0.041 C 
ATOM      5  O   UNL     1      12.697 -13.277  -1.969  1.00  0.00    -0.550 OA
ATOM      6  O   UNL     1      10.735 -14.407  -1.621  1.00  0.00    -0.550 OA
ENDBRANCH   3   4
ENDBRANCH   2   3
ENDBRANCH   1   2
BRANCH   1   7
ATOM      7  C   UNL     1      12.950 -17.777  -2.633  1.00  0.00     0.000 C 
BRANCH   7   8
ATOM      8  C   UNL     1      12.050 -18.098  -1.432  1.00  0.00    -0.000 C 
BRANCH   8   9
ATOM      9  C   UNL     1      10.559 -17.873  -1.735  1.00  0.00    -0.003 C 
ATOM     10  C   UNL     1      10.230 -18.013  -3.221  1.00  0.00     0.004 C 
ENDBRANCH   8   9
ENDBRANCH   7   8
ENDBRANCH   1   7
TORSDOF 6
ENDMDL
MODEL 2
REMARK VINA RESULT:    -2.657     21.607     22.886
REMARK INTER + INTRA:          -4.176
REMARK INTER:                  -4.049
REMARK INTRA:                  -0.127
REMARK UNBOUND:                -0.587
REMARK SMILES CCCCCCCC(=O)[O-]
REMARK SMILES IDX 5 1 6 2 7 3 8 4 9 5 10 6 4 7 3 8 2 9 1 10
REMARK H PARENT
REMARK Flexibility Score: inf
ROOT
ATOM      1  C   UNL     1      -3.947 -13.144  13.873  1.00  0.00     0.000 C 
ENDROOT
BRANCH   1   2
ATOM      2  C   UNL     1      -4.226 -11.722  14.376  1.00  0.00     0.006 C 
BRANCH   2   3
ATOM      3  C   UNL     1      -2.938 -11.050  14.861  1.00  0.00     0.053 C 
BRANCH   3   4
ATOM      4  C   UNL     1      -2.839  -9.658  14.321  1.00  0.00     0.041 C 
ATOM      5  O   UNL     1      -2.055  -9.401  13.371  1.00  0.00    -0.550 OA
ATOM      6  O   UNL     1      -3.649  -8.653  14.836  1.00  0.00    -0.550 OA
ENDBRANCH   3   4
ENDBRANCH   2   3
ENDBRANCH   1   2
BRANCH   1   7
ATOM      7  C   UNL     1      -5.188 -13.742  13.198  1.00  0.00     0.000 C 
BRANCH   7   8
ATOM      8  C   UNL     1      -4.790 -14.656  12.029  1.00  0.00    -0.000 C 
BRANCH   8   9
ATOM      9  C   UNL     1      -5.801 -14.611  10.873  1.00  0.00    -0.003 C 
ATOM     10  C   UNL     1      -5.140 -14.752   9.502  1.00  0.00     0.004 C 
ENDBRANCH   8   9
ENDBRANCH   7   8
ENDBRANCH   1   7
TORSDOF 6
ENDMDL
MODEL 3
REMARK VINA RESULT:    -2.628      9.957     11.884
REMARK INTER + INTRA:          -4.137
REMARK INTER:                  -3.555
REMARK INTRA:                  -0.582
REMARK UNBOUND:                -0.587
REMARK SMILES CCCCCCCC(=O)[O-]
REMARK SMILES IDX 5 1 6 2 7 3 8 4 9 5 10 6 4 7 3 8 2 9 1 10
REMARK H PARENT
REMARK Flexibility Score: inf
ROOT
ATOM      1  C   UNL     1       1.579 -19.989   3.596  1.00  0.00     0.000 C 
ENDROOT
BRANCH   1   2
ATOM      2  C   UNL     1       1.581 -18.736   2.712  1.00  0.00     0.006 C 
BRANCH   2   3
ATOM      3  C   UNL     1       2.953 -18.056   2.727  1.00  0.00     0.053 C 
BRANCH   3   4
ATOM      4  C   UNL     1       3.972 -18.921   2.054  1.00  0.00     0.041 C 
ATOM      5  O   UNL     1       5.047 -19.207   2.643  1.00  0.00    -0.550 OA
ATOM      6  O   UNL     1       3.714 -19.450   0.796  1.00  0.00    -0.550 OA
ENDBRANCH   3   4
ENDBRANCH   2   3
ENDBRANCH   1   2
BRANCH   1   7
ATOM      7  C   UNL     1       1.621 -19.614   5.083  1.00  0.00     0.000 C 
BRANCH   7   8
ATOM      8  C   UNL     1       2.949 -20.046   5.720  1.00  0.00    -0.000 C 
BRANCH   8   9
ATOM      9  C   UNL     1       3.716 -18.867   6.342  1.00  0.00    -0.003 C 
ATOM     10  C   UNL     1       2.883 -17.588   6.407  1.00  0.00     0.004 C 
ENDBRANCH   8   9
ENDBRANCH   7   8
ENDBRANCH   1   7
TORSDOF 6
ENDMDL
MODEL 4
REMARK VINA RESULT:    -2.583      7.939      9.341
REMARK INTER + INTRA:          -4.076
REMARK INTER:                  -3.801
REMARK INTRA:                  -0.276
REMARK UNBOUND:                -0.587
REMARK SMILES CCCCCCCC(=O)[O-]
REMARK SMILES IDX 5 1 6 2 7 3 8 4 9 5 10 6 4 7 3 8 2 9 1 10
REMARK H PARENT
REMARK Flexibility Score: inf
ROOT
ATOM      1  C   UNL     1       8.940 -17.233   6.573  1.00  0.00     0.000 C 
ENDROOT
BRANCH   1   2
ATOM      2  C   UNL     1       8.948 -18.167   5.356  1.00  0.00     0.006 C 
BRANCH   2   3
ATOM      3  C   UNL     1       9.352 -17.411   4.087  1.00  0.00     0.053 C 
BRANCH   3   4
ATOM      4  C   UNL     1       8.858 -18.128   2.871  1.00  0.00     0.041 C 
ATOM      5  O   UNL     1       9.558 -18.159   1.826  1.00  0.00    -0.550 OA
ATOM      6  O   UNL     1       7.644 -18.803   2.907  1.00  0.00    -0.550 OA
ENDBRANCH   3   4
ENDBRANCH   2   3
ENDBRANCH   1   2
BRANCH   1   7
ATOM      7  C   UNL     1       9.228 -15.785   6.157  1.00  0.00     0.000 C 
BRANCH   7   8
ATOM      8  C   UNL     1       8.867 -14.808   7.286  1.00  0.00    -0.000 C 
BRANCH   8   9
ATOM      9  C   UNL     1       9.990 -14.667   8.326  1.00  0.00    -0.003 C 
ATOM     10  C   UNL     1      11.383 -14.666   7.697  1.00  0.00     0.004 C 
ENDBRANCH   8   9
ENDBRANCH   7   8
ENDBRANCH   1   7
TORSDOF 6
ENDMDL
MODEL 5
REMARK VINA RESULT:    -2.562     21.944     23.177
REMARK INTER + INTRA:          -4.048
REMARK INTER:                  -3.775
REMARK INTRA:                  -0.273
REMARK UNBOUND:                -0.587
REMARK SMILES CCCCCCCC(=O)[O-]
REMARK SMILES IDX 5 1 6 2 7 3 8 4 9 5 10 6 4 7 3 8 2 9 1 10
REMARK H PARENT
REMARK Flexibility Score: inf
ROOT
ATOM      1  C   UNL     1      -4.406 -13.016  15.184  1.00  0.00     0.000 C 
ENDROOT
BRANCH   1   2
ATOM      2  C   UNL     1      -3.590 -12.104  14.259  1.00  0.00     0.006 C 
BRANCH   2   3
ATOM      3  C   UNL     1      -2.866 -11.018  15.060  1.00  0.00     0.053 C 
BRANCH   3   4
ATOM      4  C   UNL     1      -2.994  -9.692  14.377  1.00  0.00     0.041 C 
ATOM      5  O   UNL     1      -3.896  -8.886  14.724  1.00  0.00    -0.550 OA
ATOM      6  O   UNL     1      -2.086  -9.327  13.392  1.00  0.00    -0.550 OA
ENDBRANCH   3   4
ENDBRANCH   2   3
ENDBRANCH   1   2
BRANCH   1   7
ATOM      7  C   UNL     1      -4.656 -14.381  14.531  1.00  0.00     0.000 C 
BRANCH   7   8
ATOM      8  C   UNL     1      -4.249 -14.363  13.050  1.00  0.00    -0.000 C 
BRANCH   8   9
ATOM      9  C   UNL     1      -3.898 -15.762  12.518  1.00  0.00    -0.003 C 
ATOM     10  C   UNL     1      -3.582 -16.758  13.633  1.00  0.00     0.004 C 
ENDBRANCH   8   9
ENDBRANCH   7   8
ENDBRANCH   1   7
TORSDOF 6
ENDMDL
MODEL 6
REMARK VINA RESULT:    -2.536     10.117     11.864
REMARK INTER + INTRA:          -4.013
REMARK INTER:                  -3.499
REMARK INTRA:                  -0.514
REMARK UNBOUND:                -0.587
REMARK SMILES CCCCCCCC(=O)[O-]
REMARK SMILES IDX 5 1 6 2 7 3 8 4 9 5 10 6 4 7 3 8 2 9 1 10
REMARK H PARENT
REMARK Flexibility Score: inf
ROOT
ATOM      1  C   UNL     1       2.799 -17.944   2.961  1.00  0.00     0.000 C 
ENDROOT
BRANCH   1   2
ATOM      2  C   UNL     1       3.975 -18.574   2.204  1.00  0.00     0.006 C 
BRANCH   2   3
ATOM      3  C   UNL     1       3.477 -19.458   1.056  1.00  0.00     0.053 C 
BRANCH   3   4
ATOM      4  C   UNL     1       3.544 -20.902   1.442  1.00  0.00     0.041 C 
ATOM      5  O   UNL     1       4.638 -21.414   1.795  1.00  0.00    -0.550 OA
ATOM      6  O   UNL     1       2.388 -21.672   1.458  1.00  0.00    -0.550 OA
ENDBRANCH   3   4
ENDBRANCH   2   3
ENDBRANCH   1   2
BRANCH   1   7
ATOM      7  C   UNL     1       2.514 -18.701   4.264  1.00  0.00     0.000 C 
BRANCH   7   8
ATOM      8  C   UNL     1       1.254 -19.568   4.132  1.00  0.00    -0.000 C 
BRANCH   8   9
ATOM      9  C   UNL     1       0.386 -19.168   2.927  1.00  0.00    -0.003 C 
ATOM     10  C   UNL     1      -0.922 -19.955   2.853  1.00  0.00     0.004 C 
ENDBRANCH   8   9
ENDBRANCH   7   8
ENDBRANCH   1   7
TORSDOF 6
ENDMDL
MODEL 7
REMARK VINA RESULT:    -2.524      9.249     10.849
REMARK INTER + INTRA:          -3.996
REMARK INTER:                  -3.437
REMARK INTRA:                  -0.559
REMARK UNBOUND:                -0.587
REMARK SMILES CCCCCCCC(=O)[O-]
REMARK SMILES IDX 5 1 6 2 7 3 8 4 9 5 10 6 4 7 3 8 2 9 1 10
REMARK H PARENT
REMARK Flexibility Score: inf
ROOT
ATOM      1  C   UNL     1       3.639 -19.123   5.365  1.00  0.00     0.000 C 
ENDROOT
BRANCH   1   2
ATOM      2  C   UNL     1       4.547 -20.355   5.264  1.00  0.00     0.006 C 
BRANCH   2   3
ATOM      3  C   UNL     1       6.013 -19.944   5.098  1.00  0.00     0.053 C 
BRANCH   3   4
ATOM      4  C   UNL     1       6.446 -20.112   3.676  1.00  0.00     0.041 C 
ATOM      5  O   UNL     1       6.049 -21.100   3.006  1.00  0.00    -0.550 OA
ATOM      6  O   UNL     1       7.249 -19.150   3.075  1.00  0.00    -0.550 OA
ENDBRANCH   3   4
ENDBRANCH   2   3
ENDBRANCH   1   2
BRANCH   1   7
ATOM      7  C   UNL     1       2.569 -19.137   4.266  1.00  0.00     0.000 C 
BRANCH   7   8
ATOM      8  C   UNL     1       2.757 -17.956   3.303  1.00  0.00    -0.000 C 
BRANCH   8   9
ATOM      9  C   UNL     1       3.777 -18.256   2.193  1.00  0.00    -0.003 C 
ATOM     10  C   UNL     1       3.376 -19.452   1.328  1.00  0.00     0.004 C 
ENDBRANCH   8   9
ENDBRANCH   7   8
ENDBRANCH   1   7
TORSDOF 6
ENDMDL
MODEL 8
REMARK VINA RESULT:    -2.524      7.255      8.532
REMARK INTER + INTRA:          -3.996
REMARK INTER:                  -3.553
REMARK INTRA:                  -0.443
REMARK UNBOUND:                -0.587
REMARK SMILES CCCCCCCC(=O)[O-]
REMARK SMILES IDX 5 1 6 2 7 3 8 4 9 5 10 6 4 7 3 8 2 9 1 10
REMARK H PARENT
REMARK Flexibility Score: inf
ROOT
ATOM      1  C   UNL     1      11.545 -16.556   4.746  1.00  0.00     0.000 C 
ENDROOT
BRANCH   1   2
ATOM      2  C   UNL     1      10.669 -17.802   4.560  1.00  0.00     0.006 C 
BRANCH   2   3
ATOM      3  C   UNL     1       9.276 -17.422   4.051  1.00  0.00     0.053 C 
BRANCH   3   4
ATOM      4  C   UNL     1       8.918 -18.236   2.847  1.00  0.00     0.041 C 
ATOM      5  O   UNL     1       7.840 -18.886   2.819  1.00  0.00    -0.550 OA
ATOM      6  O   UNL     1       9.753 -18.239   1.737  1.00  0.00    -0.550 OA
ENDBRANCH   3   4
ENDBRANCH   2   3
ENDBRANCH   1   2
BRANCH   1   7
ATOM      7  C   UNL     1      10.718 -15.376   5.273  1.00  0.00     0.000 C 
BRANCH   7   8
ATOM      8  C   UNL     1      11.039 -15.099   6.749  1.00  0.00    -0.000 C 
BRANCH   8   9
ATOM      9  C   UNL     1       9.774 -14.960   7.612  1.00  0.00    -0.003 C 
ATOM     10  C   UNL     1       8.499 -14.839   6.778  1.00  0.00     0.004 C 
ENDBRANCH   8   9
ENDBRANCH   7   8
ENDBRANCH   1   7
TORSDOF 6
ENDMDL
MODEL 9
REMARK VINA RESULT:    -2.497      9.433     10.485
REMARK INTER + INTRA:          -3.960
REMARK INTER:                  -3.674
REMARK INTRA:                  -0.286
REMARK UNBOUND:                -0.587
REMARK SMILES CCCCCCCC(=O)[O-]
REMARK SMILES IDX 5 1 6 2 7 3 8 4 9 5 10 6 4 7 3 8 2 9 1 10
REMARK H PARENT
REMARK Flexibility Score: inf
ROOT
ATOM      1  C   UNL     1       9.979 -14.664   7.887  1.00  0.00     0.000 C 
ENDROOT
BRANCH   1   2
ATOM      2  C   UNL     1       9.156 -15.047   6.650  1.00  0.00     0.006 C 
BRANCH   2   3
ATOM      3  C   UNL     1       9.700 -16.324   6.004  1.00  0.00     0.053 C 
BRANCH   3   4
ATOM      4  C   UNL     1      10.052 -16.076   4.571  1.00  0.00     0.041 C 
ATOM      5  O   UNL     1      10.516 -14.962   4.216  1.00  0.00    -0.550 OA
ATOM      6  O   UNL     1       9.912 -17.093   3.635  1.00  0.00    -0.550 OA
ENDBRANCH   3   4
ENDBRANCH   2   3
ENDBRANCH   1   2
BRANCH   1   7
ATOM      7  C   UNL     1      11.482 -14.814   7.616  1.00  0.00     0.000 C 
BRANCH   7   8
ATOM      8  C   UNL     1      12.309 -14.216   8.763  1.00  0.00    -0.000 C 
BRANCH   8   9
ATOM      9  C   UNL     1      11.433 -13.703   9.917  1.00  0.00    -0.003 C 
ATOM     10  C   UNL     1      11.982 -12.428  10.556  1.00  0.00     0.004 C 
ENDBRANCH   8   9
ENDBRANCH   7   8
ENDBRANCH   1   7
TORSDOF 6
ENDMDL
