MODEL 1
REMARK VINA RESULT:    -5.400      0.000      0.000
REMARK INTER + INTRA:         -12.801
REMARK INTER:                 -10.135
REMARK INTRA:                  -2.667
REMARK UNBOUND:                -2.667
REMARK SMILES CCCCCCCCC=CCCCCCCCC(=O)[O-]
REMARK SMILES IDX 10 1 9 2 11 3 12 4 13 5 14 6 15 7 16 8 17 9 18 10 19 11
REMARK SMILES IDX 20 12 8 13 7 14 6 15 5 16 4 17 3 18 2 19 1 20
REMARK H PARENT
REMARK Flexibility Score: inf
ROOT
ATOM      1  C   UNL     1       7.771  50.511  23.210  1.00  0.00    -0.031 C 
ATOM      2  C   UNL     1       8.404  49.550  23.911  1.00  0.00    -0.031 C 
ENDROOT
BRANCH   1   3
ATOM      3  C   UNL     1       8.371  51.318  22.083  1.00  0.00     0.027 C 
BRANCH   3   4
ATOM      4  C   UNL     1       8.234  50.597  20.736  1.00  0.00     0.004 C 
BRANCH   4   5
ATOM      5  C   UNL     1       9.594  50.207  20.141  1.00  0.00     0.000 C 
BRANCH   5   6
ATOM      6  C   UNL     1       9.797  48.686  20.179  1.00  0.00     0.000 C 
BRANCH   6   7
ATOM      7  C   UNL     1       8.471  47.916  20.273  1.00  0.00     0.000 C 
BRANCH   7   8
ATOM      8  C   UNL     1       8.474  46.626  19.434  1.00  0.00     0.006 C 
BRANCH   8   9
ATOM      9  C   UNL     1       8.847  46.890  17.970  1.00  0.00     0.053 C 
BRANCH   9  10
ATOM     10  C   UNL     1       7.632  46.983  17.098  1.00  0.00     0.041 C 
ATOM     11  O   UNL     1       7.409  46.103  16.225  1.00  0.00    -0.550 OA
ATOM     12  O   UNL     1       6.765  48.061  17.226  1.00  0.00    -0.550 OA
ENDBRANCH   9  10
ENDBRANCH   8   9
ENDBRANCH   7   8
ENDBRANCH   6   7
ENDBRANCH   5   6
ENDBRANCH   4   5
ENDBRANCH   3   4
ENDBRANCH   1   3
BRANCH   2  13
ATOM     13  C   UNL     1       9.847  49.141  23.737  1.00  0.00     0.027 C 
BRANCH  13  14
ATOM     14  C   UNL     1      10.144  47.799  24.418  1.00  0.00     0.004 C 
BRANCH  14  15
ATOM     15  C   UNL     1       8.923  47.241  25.162  1.00  0.00     0.000 C 
BRANCH  15  16
ATOM     16  C   UNL     1       8.613  45.805  24.712  1.00  0.00     0.000 C 
BRANCH  16  17
ATOM     17  C   UNL     1       8.407  45.687  23.191  1.00  0.00    -0.000 C 
BRANCH  17  18
ATOM     18  C   UNL     1       7.025  45.155  22.759  1.00  0.00    -0.000 C 
BRANCH  18  19
ATOM     19  C   UNL     1       5.824  45.926  23.335  1.00  0.00    -0.003 C 
ATOM     20  C   UNL     1       5.713  47.350  22.791  1.00  0.00     0.004 C 
ENDBRANCH  18  19
ENDBRANCH  17  18
ENDBRANCH  16  17
ENDBRANCH  15  16
ENDBRANCH  14  15
ENDBRANCH  13  14
ENDBRANCH   2  13
TORSDOF 15
ENDMDL
MODEL 2
REMARK VINA RESULT:    -5.350      2.020      4.177
REMARK INTER + INTRA:         -12.708
REMARK INTER:                 -10.362
REMARK INTRA:                  -2.347
REMARK UNBOUND:                -2.667
REMARK SMILES CCCCCCCCC=CCCCCCCCC(=O)[O-]
REMARK SMILES IDX 10 1 9 2 11 3 12 4 13 5 14 6 15 7 16 8 17 9 18 10 19 11
REMARK SMILES IDX 20 12 8 13 7 14 6 15 5 16 4 17 3 18 2 19 1 20
REMARK H PARENT
REMARK Flexibility Score: inf
ROOT
ATOM      1  C   UNL     1       5.690  48.199  26.222  1.00  0.00    -0.031 C 
ATOM      2  C   UNL     1       5.276  46.974  25.842  1.00  0.00    -0.031 C 
ENDROOT
BRANCH   1   3
ATOM      3  C   UNL     1       5.640  49.447  25.374  1.00  0.00     0.027 C 
BRANCH   3   4
ATOM      4  C   UNL     1       7.035  49.854  24.880  1.00  0.00     0.004 C 
BRANCH   4   5
ATOM      5  C   UNL     1       7.295  49.410  23.434  1.00  0.00     0.000 C 
BRANCH   5   6
ATOM      6  C   UNL     1       8.615  49.991  22.908  1.00  0.00     0.000 C 
BRANCH   6   7
ATOM      7  C   UNL     1       8.445  51.397  22.312  1.00  0.00     0.000 C 
BRANCH   7   8
ATOM      8  C   UNL     1       7.856  51.372  20.891  1.00  0.00     0.006 C 
BRANCH   8   9
ATOM      9  C   UNL     1       8.697  50.519  19.932  1.00  0.00     0.053 C 
BRANCH   9  10
ATOM     10  C   UNL     1       7.842  49.819  18.920  1.00  0.00     0.041 C 
ATOM     11  O   UNL     1       7.880  50.165  17.710  1.00  0.00    -0.550 OA
ATOM     12  O   UNL     1       6.978  48.808  19.320  1.00  0.00    -0.550 OA
ENDBRANCH   9  10
ENDBRANCH   8   9
ENDBRANCH   7   8
ENDBRANCH   6   7
ENDBRANCH   5   6
ENDBRANCH   4   5
ENDBRANCH   3   4
ENDBRANCH   1   3
BRANCH   2  13
ATOM     13  C   UNL     1       4.736  46.613  24.478  1.00  0.00     0.027 C 
BRANCH  13  14
ATOM     14  C   UNL     1       4.372  45.125  24.388  1.00  0.00     0.004 C 
BRANCH  14  15
ATOM     15  C   UNL     1       5.237  44.375  23.366  1.00  0.00     0.000 C 
BRANCH  15  16
ATOM     16  C   UNL     1       6.249  45.321  22.701  1.00  0.00     0.000 C 
BRANCH  16  17
ATOM     17  C   UNL     1       7.710  44.930  22.988  1.00  0.00    -0.000 C 
BRANCH  17  18
ATOM     18  C   UNL     1       8.582  46.055  23.581  1.00  0.00    -0.000 C 
BRANCH  18  19
ATOM     19  C   UNL     1       8.743  46.014  25.110  1.00  0.00    -0.003 C 
ATOM     20  C   UNL     1       9.552  47.191  25.656  1.00  0.00     0.004 C 
ENDBRANCH  18  19
ENDBRANCH  17  18
ENDBRANCH  16  17
ENDBRANCH  15  16
ENDBRANCH  14  15
ENDBRANCH  13  14
ENDBRANCH   2  13
TORSDOF 15
ENDMDL
MODEL 3
REMARK VINA RESULT:    -5.348      2.686      5.384
REMARK INTER + INTRA:         -12.704
REMARK INTER:                 -10.102
REMARK INTRA:                  -2.602
REMARK UNBOUND:                -2.667
REMARK SMILES CCCCCCCCC=CCCCCCCCC(=O)[O-]
REMARK SMILES IDX 10 1 9 2 11 3 12 4 13 5 14 6 15 7 16 8 17 9 18 10 19 11
REMARK SMILES IDX 20 12 8 13 7 14 6 15 5 16 4 17 3 18 2 19 1 20
REMARK H PARENT
REMARK Flexibility Score: inf
ROOT
ATOM      1  C   UNL     1       8.260  50.981  22.826  1.00  0.00    -0.031 C 
ATOM      2  C   UNL     1       8.442  51.232  21.515  1.00  0.00    -0.031 C 
ENDROOT
BRANCH   1   3
ATOM      3  C   UNL     1       7.328  49.942  23.402  1.00  0.00     0.027 C 
BRANCH   3   4
ATOM      4  C   UNL     1       7.082  50.168  24.899  1.00  0.00     0.004 C 
BRANCH   4   5
ATOM      5  C   UNL     1       7.656  49.037  25.764  1.00  0.00     0.000 C 
BRANCH   5   6
ATOM      6  C   UNL     1       6.573  48.428  26.665  1.00  0.00     0.000 C 
BRANCH   6   7
ATOM      7  C   UNL     1       5.734  47.363  25.941  1.00  0.00     0.000 C 
BRANCH   7   8
ATOM      8  C   UNL     1       6.593  46.396  25.108  1.00  0.00     0.006 C 
BRANCH   8   9
ATOM      9  C   UNL     1       6.168  46.368  23.634  1.00  0.00     0.053 C 
BRANCH   9  10
ATOM     10  C   UNL     1       6.323  45.002  23.040  1.00  0.00     0.041 C 
ATOM     11  O   UNL     1       5.339  44.217  22.989  1.00  0.00    -0.550 OA
ATOM     12  O   UNL     1       7.562  44.583  22.574  1.00  0.00    -0.550 OA
ENDBRANCH   9  10
ENDBRANCH   8   9
ENDBRANCH   7   8
ENDBRANCH   6   7
ENDBRANCH   5   6
ENDBRANCH   4   5
ENDBRANCH   3   4
ENDBRANCH   1   3
BRANCH   2  13
ATOM     13  C   UNL     1       7.705  50.561  20.381  1.00  0.00     0.027 C 
BRANCH  13  14
ATOM     14  C   UNL     1       8.662  50.111  19.269  1.00  0.00     0.004 C 
BRANCH  14  15
ATOM     15  C   UNL     1      10.125  50.089  19.734  1.00  0.00     0.000 C 
BRANCH  15  16
ATOM     16  C   UNL     1      10.735  48.690  19.565  1.00  0.00     0.000 C 
BRANCH  16  17
ATOM     17  C   UNL     1      11.064  48.016  20.910  1.00  0.00    -0.000 C 
BRANCH  17  18
ATOM     18  C   UNL     1       9.923  47.172  21.513  1.00  0.00    -0.000 C 
BRANCH  18  19
ATOM     19  C   UNL     1       9.787  47.265  23.043  1.00  0.00    -0.003 C 
ATOM     20  C   UNL     1      10.769  48.254  23.670  1.00  0.00     0.004 C 
ENDBRANCH  18  19
ENDBRANCH  17  18
ENDBRANCH  16  17
ENDBRANCH  15  16
ENDBRANCH  14  15
ENDBRANCH  13  14
ENDBRANCH   2  13
TORSDOF 15
ENDMDL
MODEL 4
REMARK VINA RESULT:    -5.276      1.646      3.627
REMARK INTER + INTRA:         -12.570
REMARK INTER:                  -9.880
REMARK INTRA:                  -2.690
REMARK UNBOUND:                -2.667
REMARK SMILES CCCCCCCCC=CCCCCCCCC(=O)[O-]
REMARK SMILES IDX 10 1 9 2 11 3 12 4 13 5 14 6 15 7 16 8 17 9 18 10 19 11
REMARK SMILES IDX 20 12 8 13 7 14 6 15 5 16 4 17 3 18 2 19 1 20
REMARK H PARENT
REMARK Flexibility Score: inf
ROOT
ATOM      1  C   UNL     1       9.278  46.419  21.268  1.00  0.00    -0.031 C 
ATOM      2  C   UNL     1       8.424  45.390  21.430  1.00  0.00    -0.031 C 
ENDROOT
BRANCH   1   3
ATOM      3  C   UNL     1       9.949  47.189  22.380  1.00  0.00     0.027 C 
BRANCH   3   4
ATOM      4  C   UNL     1      10.359  48.597  21.928  1.00  0.00     0.004 C 
BRANCH   4   5
ATOM      5  C   UNL     1      10.675  48.660  20.427  1.00  0.00     0.000 C 
BRANCH   5   6
ATOM      6  C   UNL     1      10.089  49.929  19.794  1.00  0.00     0.000 C 
BRANCH   6   7
ATOM      7  C   UNL     1       8.872  50.466  20.564  1.00  0.00     0.000 C 
BRANCH   7   8
ATOM      8  C   UNL     1       7.545  50.214  19.828  1.00  0.00     0.006 C 
BRANCH   8   9
ATOM      9  C   UNL     1       7.749  50.016  18.320  1.00  0.00     0.053 C 
BRANCH   9  10
ATOM     10  C   UNL     1       7.227  48.689  17.860  1.00  0.00     0.041 C 
ATOM     11  O   UNL     1       6.302  48.632  17.008  1.00  0.00    -0.550 OA
ATOM     12  O   UNL     1       7.739  47.516  18.400  1.00  0.00    -0.550 OA
ENDBRANCH   9  10
ENDBRANCH   8   9
ENDBRANCH   7   8
ENDBRANCH   6   7
ENDBRANCH   5   6
ENDBRANCH   4   5
ENDBRANCH   3   4
ENDBRANCH   1   3
BRANCH   2  13
ATOM     13  C   UNL     1       7.936  44.853  22.754  1.00  0.00     0.027 C 
BRANCH  13  14
ATOM     14  C   UNL     1       6.434  45.101  22.950  1.00  0.00     0.004 C 
BRANCH  14  15
ATOM     15  C   UNL     1       6.151  46.088  24.091  1.00  0.00     0.000 C 
BRANCH  15  16
ATOM     16  C   UNL     1       5.496  47.371  23.560  1.00  0.00     0.000 C 
BRANCH  16  17
ATOM     17  C   UNL     1       6.489  48.287  22.822  1.00  0.00    -0.000 C 
BRANCH  17  18
ATOM     18  C   UNL     1       6.962  49.517  23.622  1.00  0.00    -0.000 C 
BRANCH  18  19
ATOM     19  C   UNL     1       7.949  49.209  24.762  1.00  0.00    -0.003 C 
ATOM     20  C   UNL     1       7.338  49.404  26.149  1.00  0.00     0.004 C 
ENDBRANCH  18  19
ENDBRANCH  17  18
ENDBRANCH  16  17
ENDBRANCH  15  16
ENDBRANCH  14  15
ENDBRANCH  13  14
ENDBRANCH   2  13
TORSDOF 15
ENDMDL
MODEL 5
REMARK VINA RESULT:    -5.270      4.094      5.760
REMARK INTER + INTRA:         -12.559
REMARK INTER:                  -9.975
REMARK INTRA:                  -2.584
REMARK UNBOUND:                -2.667
REMARK SMILES CCCCCCCCC=CCCCCCCCC(=O)[O-]
REMARK SMILES IDX 10 1 9 2 11 3 12 4 13 5 14 6 15 7 16 8 17 9 18 10 19 11
REMARK SMILES IDX 20 12 8 13 7 14 6 15 5 16 4 17 3 18 2 19 1 20
REMARK H PARENT
REMARK Flexibility Score: inf
ROOT
ATOM      1  C   UNL     1       9.713  50.144  19.392  1.00  0.00    -0.031 C 
ATOM      2  C   UNL     1      10.624  49.172  19.595  1.00  0.00    -0.031 C 
ENDROOT
BRANCH   1   3
ATOM      3  C   UNL     1       8.380  50.260  20.091  1.00  0.00     0.027 C 
BRANCH   3   4
ATOM      4  C   UNL     1       8.376  51.400  21.118  1.00  0.00     0.004 C 
BRANCH   4   5
ATOM      5  C   UNL     1       8.694  50.908  22.537  1.00  0.00     0.000 C 
BRANCH   5   6
ATOM      6  C   UNL     1       7.550  50.047  23.092  1.00  0.00     0.000 C 
BRANCH   6   7
ATOM      7  C   UNL     1       7.454  50.109  24.624  1.00  0.00     0.000 C 
BRANCH   7   8
ATOM      8  C   UNL     1       6.186  49.428  25.166  1.00  0.00     0.006 C 
BRANCH   8   9
ATOM      9  C   UNL     1       6.466  48.607  26.432  1.00  0.00     0.053 C 
BRANCH   9  10
ATOM     10  C   UNL     1       6.872  49.481  27.579  1.00  0.00     0.041 C 
ATOM     11  O   UNL     1       7.931  49.240  28.217  1.00  0.00    -0.550 OA
ATOM     12  O   UNL     1       6.063  50.542  27.966  1.00  0.00    -0.550 OA
ENDBRANCH   9  10
ENDBRANCH   8   9
ENDBRANCH   7   8
ENDBRANCH   6   7
ENDBRANCH   5   6
ENDBRANCH   4   5
ENDBRANCH   3   4
ENDBRANCH   1   3
BRANCH   2  13
ATOM     13  C   UNL     1      10.455  47.988  20.517  1.00  0.00     0.027 C 
BRANCH  13  14
ATOM     14  C   UNL     1      11.563  47.932  21.578  1.00  0.00     0.004 C 
BRANCH  14  15
ATOM     15  C   UNL     1      11.001  47.868  23.004  1.00  0.00     0.000 C 
BRANCH  15  16
ATOM     16  C   UNL     1       9.617  47.203  23.022  1.00  0.00     0.000 C 
BRANCH  16  17
ATOM     17  C   UNL     1       9.187  46.755  24.431  1.00  0.00    -0.000 C 
BRANCH  17  18
ATOM     18  C   UNL     1       7.951  45.834  24.475  1.00  0.00    -0.000 C 
BRANCH  18  19
ATOM     19  C   UNL     1       6.867  46.154  23.431  1.00  0.00    -0.003 C 
ATOM     20  C   UNL     1       5.449  45.966  23.970  1.00  0.00     0.004 C 
ENDBRANCH  18  19
ENDBRANCH  17  18
ENDBRANCH  16  17
ENDBRANCH  15  16
ENDBRANCH  14  15
ENDBRANCH  13  14
ENDBRANCH   2  13
TORSDOF 15
ENDMDL
MODEL 6
REMARK VINA RESULT:    -5.261      3.820      5.310
REMARK INTER + INTRA:         -12.541
REMARK INTER:                 -10.119
REMARK INTRA:                  -2.422
REMARK UNBOUND:                -2.667
REMARK SMILES CCCCCCCCC=CCCCCCCCC(=O)[O-]
REMARK SMILES IDX 10 1 9 2 11 3 12 4 13 5 14 6 15 7 16 8 17 9 18 10 19 11
REMARK SMILES IDX 20 12 8 13 7 14 6 15 5 16 4 17 3 18 2 19 1 20
REMARK H PARENT
REMARK Flexibility Score: inf
ROOT
ATOM      1  C   UNL     1      10.064  47.915  20.746  1.00  0.00    -0.031 C 
ATOM      2  C   UNL     1      10.459  47.369  21.913  1.00  0.00    -0.031 C 
ENDROOT
BRANCH   1   3
ATOM      3  C   UNL     1       9.979  49.393  20.451  1.00  0.00     0.027 C 
BRANCH   3   4
ATOM      4  C   UNL     1       8.539  49.911  20.567  1.00  0.00     0.004 C 
BRANCH   4   5
ATOM      5  C   UNL     1       8.478  51.351  21.095  1.00  0.00     0.000 C 
BRANCH   5   6
ATOM      6  C   UNL     1       8.248  51.373  22.613  1.00  0.00     0.000 C 
BRANCH   6   7
ATOM      7  C   UNL     1       7.603  50.078  23.130  1.00  0.00     0.000 C 
BRANCH   7   8
ATOM      8  C   UNL     1       7.616  49.981  24.666  1.00  0.00     0.006 C 
BRANCH   8   9
ATOM      9  C   UNL     1       6.200  49.952  25.255  1.00  0.00     0.053 C 
BRANCH   9  10
ATOM     10  C   UNL     1       6.225  49.839  26.749  1.00  0.00     0.041 C 
ATOM     11  O   UNL     1       5.326  50.385  27.442  1.00  0.00    -0.550 OA
ATOM     12  O   UNL     1       7.261  49.159  27.377  1.00  0.00    -0.550 OA
ENDBRANCH   9  10
ENDBRANCH   8   9
ENDBRANCH   7   8
ENDBRANCH   6   7
ENDBRANCH   5   6
ENDBRANCH   4   5
ENDBRANCH   3   4
ENDBRANCH   1   3
BRANCH   2  13
ATOM     13  C   UNL     1      10.835  48.135  23.159  1.00  0.00     0.027 C 
BRANCH  13  14
ATOM     14  C   UNL     1      10.117  47.587  24.400  1.00  0.00     0.004 C 
BRANCH  14  15
ATOM     15  C   UNL     1       9.125  46.469  24.053  1.00  0.00     0.000 C 
BRANCH  15  16
ATOM     16  C   UNL     1       8.166  46.201  25.222  1.00  0.00     0.000 C 
BRANCH  16  17
ATOM     17  C   UNL     1       6.685  46.321  24.820  1.00  0.00    -0.000 C 
BRANCH  17  18
ATOM     18  C   UNL     1       6.397  46.110  23.320  1.00  0.00    -0.000 C 
BRANCH  18  19
ATOM     19  C   UNL     1       5.919  44.696  22.943  1.00  0.00    -0.003 C 
ATOM     20  C   UNL     1       4.662  44.271  23.703  1.00  0.00     0.004 C 
ENDBRANCH  18  19
ENDBRANCH  17  18
ENDBRANCH  16  17
ENDBRANCH  15  16
ENDBRANCH  14  15
ENDBRANCH  13  14
ENDBRANCH   2  13
TORSDOF 15
ENDMDL
MODEL 7
REMARK VINA RESULT:    -5.249      2.151      4.095
REMARK INTER + INTRA:         -12.519
REMARK INTER:                 -10.207
REMARK INTRA:                  -2.312
REMARK UNBOUND:                -2.667
REMARK SMILES CCCCCCCCC=CCCCCCCCC(=O)[O-]
REMARK SMILES IDX 10 1 9 2 11 3 12 4 13 5 14 6 15 7 16 8 17 9 18 10 19 11
REMARK SMILES IDX 20 12 8 13 7 14 6 15 5 16 4 17 3 18 2 19 1 20
REMARK H PARENT
REMARK Flexibility Score: inf
ROOT
ATOM      1  C   UNL     1       9.099  46.907  24.367  1.00  0.00    -0.031 C 
ATOM      2  C   UNL     1       8.436  45.737  24.272  1.00  0.00    -0.031 C 
ENDROOT
BRANCH   1   3
ATOM      3  C   UNL     1       9.486  47.795  23.210  1.00  0.00     0.027 C 
BRANCH   3   4
ATOM      4  C   UNL     1      11.010  47.884  23.049  1.00  0.00     0.004 C 
BRANCH   4   5
ATOM      5  C   UNL     1      11.457  47.673  21.595  1.00  0.00     0.000 C 
BRANCH   5   6
ATOM      6  C   UNL     1      10.296  47.917  20.621  1.00  0.00     0.000 C 
BRANCH   6   7
ATOM      7  C   UNL     1      10.708  48.776  19.415  1.00  0.00     0.000 C 
BRANCH   7   8
ATOM      8  C   UNL     1      10.176  50.217  19.504  1.00  0.00     0.006 C 
BRANCH   8   9
ATOM      9  C   UNL     1       9.136  50.381  20.619  1.00  0.00     0.053 C 
BRANCH   9  10
ATOM     10  C   UNL     1       7.763  50.610  20.064  1.00  0.00     0.041 C 
ATOM     11  O   UNL     1       7.202  51.729  20.202  1.00  0.00    -0.550 OA
ATOM     12  O   UNL     1       7.089  49.577  19.426  1.00  0.00    -0.550 OA
ENDBRANCH   9  10
ENDBRANCH   8   9
ENDBRANCH   7   8
ENDBRANCH   6   7
ENDBRANCH   5   6
ENDBRANCH   4   5
ENDBRANCH   3   4
ENDBRANCH   1   3
BRANCH   2  13
ATOM     13  C   UNL     1       8.008  45.072  22.986  1.00  0.00     0.027 C 
BRANCH  13  14
ATOM     14  C   UNL     1       6.587  45.485  22.579  1.00  0.00     0.004 C 
BRANCH  14  15
ATOM     15  C   UNL     1       5.512  44.681  23.322  1.00  0.00     0.000 C 
BRANCH  15  16
ATOM     16  C   UNL     1       4.706  45.583  24.268  1.00  0.00     0.000 C 
BRANCH  16  17
ATOM     17  C   UNL     1       4.818  47.076  23.910  1.00  0.00    -0.000 C 
BRANCH  17  18
ATOM     18  C   UNL     1       5.383  47.975  25.028  1.00  0.00    -0.000 C 
BRANCH  18  19
ATOM     19  C   UNL     1       6.209  49.178  24.538  1.00  0.00    -0.003 C 
ATOM     20  C   UNL     1       7.123  49.753  25.621  1.00  0.00     0.004 C 
ENDBRANCH  18  19
ENDBRANCH  17  18
ENDBRANCH  16  17
ENDBRANCH  15  16
ENDBRANCH  14  15
ENDBRANCH  13  14
ENDBRANCH   2  13
TORSDOF 15
ENDMDL
MODEL 8
REMARK VINA RESULT:    -5.235      3.427      4.634
REMARK INTER + INTRA:         -12.492
REMARK INTER:                  -9.628
REMARK INTRA:                  -2.864
REMARK UNBOUND:                -2.667
REMARK SMILES CCCCCCCCC=CCCCCCCCC(=O)[O-]
REMARK SMILES IDX 10 1 9 2 11 3 12 4 13 5 14 6 15 7 16 8 17 9 18 10 19 11
REMARK SMILES IDX 20 12 8 13 7 14 6 15 5 16 4 17 3 18 2 19 1 20
REMARK H PARENT
REMARK Flexibility Score: inf
ROOT
ATOM      1  C   UNL     1       8.236  49.623  24.117  1.00  0.00    -0.031 C 
ATOM      2  C   UNL     1       7.449  49.532  25.206  1.00  0.00    -0.031 C 
ENDROOT
BRANCH   1   3
ATOM      3  C   UNL     1       7.755  49.728  22.689  1.00  0.00     0.027 C 
BRANCH   3   4
ATOM      4  C   UNL     1       8.725  50.541  21.822  1.00  0.00     0.004 C 
BRANCH   4   5
ATOM      5  C   UNL     1       9.423  49.680  20.761  1.00  0.00     0.000 C 
BRANCH   5   6
ATOM      6  C   UNL     1       8.947  48.222  20.834  1.00  0.00     0.000 C 
BRANCH   6   7
ATOM      7  C   UNL     1      10.099  47.237  21.084  1.00  0.00     0.000 C 
BRANCH   7   8
ATOM      8  C   UNL     1      11.388  47.937  21.549  1.00  0.00     0.006 C 
BRANCH   8   9
ATOM      9  C   UNL     1      11.514  47.960  23.078  1.00  0.00     0.053 C 
BRANCH   9  10
ATOM     10  C   UNL     1      12.943  47.868  23.517  1.00  0.00     0.041 C 
ATOM     11  O   UNL     1      13.255  48.096  24.715  1.00  0.00    -0.550 OA
ATOM     12  O   UNL     1      13.936  47.564  22.593  1.00  0.00    -0.550 OA
ENDBRANCH   9  10
ENDBRANCH   8   9
ENDBRANCH   7   8
ENDBRANCH   6   7
ENDBRANCH   5   6
ENDBRANCH   4   5
ENDBRANCH   3   4
ENDBRANCH   1   3
BRANCH   2  13
ATOM     13  C   UNL     1       5.940  49.459  25.196  1.00  0.00     0.027 C 
BRANCH  13  14
ATOM     14  C   UNL     1       5.418  48.370  26.143  1.00  0.00     0.004 C 
BRANCH  14  15
ATOM     15  C   UNL     1       5.148  47.046  25.416  1.00  0.00     0.000 C 
BRANCH  15  16
ATOM     16  C   UNL     1       4.853  47.286  23.928  1.00  0.00     0.000 C 
BRANCH  16  17
ATOM     17  C   UNL     1       5.881  46.613  22.999  1.00  0.00    -0.000 C 
BRANCH  17  18
ATOM     18  C   UNL     1       6.686  45.465  23.640  1.00  0.00    -0.000 C 
BRANCH  18  19
ATOM     19  C   UNL     1       8.211  45.670  23.655  1.00  0.00    -0.003 C 
ATOM     20  C   UNL     1       8.752  46.012  25.043  1.00  0.00     0.004 C 
ENDBRANCH  18  19
ENDBRANCH  17  18
ENDBRANCH  16  17
ENDBRANCH  15  16
ENDBRANCH  14  15
ENDBRANCH  13  14
ENDBRANCH   2  13
TORSDOF 15
ENDMDL
MODEL 9
REMARK VINA RESULT:    -5.207      3.072      5.217
REMARK INTER + INTRA:         -12.440
REMARK INTER:                  -9.280
REMARK INTRA:                  -3.159
REMARK UNBOUND:                -2.667
REMARK SMILES CCCCCCCCC=CCCCCCCCC(=O)[O-]
REMARK SMILES IDX 10 1 9 2 11 3 12 4 13 5 14 6 15 7 16 8 17 9 18 10 19 11
REMARK SMILES IDX 20 12 8 13 7 14 6 15 5 16 4 17 3 18 2 19 1 20
REMARK H PARENT
REMARK Flexibility Score: inf
ROOT
ATOM      1  C   UNL     1       8.313  45.546  23.374  1.00  0.00    -0.031 C 
ATOM      2  C   UNL     1       7.124  45.308  22.786  1.00  0.00    -0.031 C 
ENDROOT
BRANCH   1   3
ATOM      3  C   UNL     1       8.537  45.752  24.852  1.00  0.00     0.027 C 
BRANCH   3   4
ATOM      4  C   UNL     1       9.171  47.118  25.144  1.00  0.00     0.004 C 
BRANCH   4   5
ATOM      5  C   UNL     1       8.119  48.208  25.396  1.00  0.00     0.000 C 
BRANCH   5   6
ATOM      6  C   UNL     1       8.348  49.417  24.479  1.00  0.00     0.000 C 
BRANCH   6   7
ATOM      7  C   UNL     1       7.380  49.445  23.286  1.00  0.00     0.000 C 
BRANCH   7   8
ATOM      8  C   UNL     1       8.014  48.897  21.995  1.00  0.00     0.006 C 
BRANCH   8   9
ATOM      9  C   UNL     1       9.477  49.330  21.841  1.00  0.00     0.053 C 
BRANCH   9  10
ATOM     10  C   UNL     1      10.386  48.152  21.661  1.00  0.00     0.041 C 
ATOM     11  O   UNL     1      10.213  47.357  20.700  1.00  0.00    -0.550 OA
ATOM     12  O   UNL     1      11.404  47.914  22.576  1.00  0.00    -0.550 OA
ENDBRANCH   9  10
ENDBRANCH   8   9
ENDBRANCH   7   8
ENDBRANCH   6   7
ENDBRANCH   5   6
ENDBRANCH   4   5
ENDBRANCH   3   4
ENDBRANCH   1   3
BRANCH   2  13
ATOM     13  C   UNL     1       5.789  45.260  23.490  1.00  0.00     0.027 C 
BRANCH  13  14
ATOM     14  C   UNL     1       5.174  46.658  23.637  1.00  0.00     0.004 C 
BRANCH  14  15
ATOM     15  C   UNL     1       4.376  46.810  24.940  1.00  0.00     0.000 C 
BRANCH  15  16
ATOM     16  C   UNL     1       5.104  46.136  26.112  1.00  0.00     0.000 C 
BRANCH  16  17
ATOM     17  C   UNL     1       4.708  46.724  27.479  1.00  0.00    -0.000 C 
BRANCH  17  18
ATOM     18  C   UNL     1       5.414  48.043  27.852  1.00  0.00    -0.000 C 
BRANCH  18  19
ATOM     19  C   UNL     1       4.586  49.315  27.605  1.00  0.00    -0.003 C 
ATOM     20  C   UNL     1       5.191  50.221  26.533  1.00  0.00     0.004 C 
ENDBRANCH  18  19
ENDBRANCH  17  18
ENDBRANCH  16  17
ENDBRANCH  15  16
ENDBRANCH  14  15
ENDBRANCH  13  14
ENDBRANCH   2  13
TORSDOF 15
ENDMDL
