MODEL 1
REMARK VINA RESULT:    -3.569      0.000      0.000
REMARK INTER + INTRA:          -5.025
REMARK INTER:                  -4.613
REMARK INTRA:                  -0.413
REMARK UNBOUND:                -0.413
REMARK SMILES C=CC(=O)CCCCC
REMARK SMILES IDX 6 1 7 2 8 3 9 4 5 5 3 6 4 7 2 8 1 9
REMARK H PARENT
REMARK Flexibility Score: inf
ROOT
ATOM      1  C   UNL     1      26.876  45.244 142.087  1.00  0.00     0.008 C 
ENDROOT
BRANCH   1   2
ATOM      2  C   UNL     1      27.914  44.213 142.545  1.00  0.00     0.000 C 
BRANCH   2   3
ATOM      3  C   UNL     1      27.977  44.138 144.075  1.00  0.00    -0.003 C 
ATOM      4  C   UNL     1      28.997  43.101 144.534  1.00  0.00     0.004 C 
ENDBRANCH   2   3
ENDBRANCH   1   2
BRANCH   1   5
ATOM      5  C   UNL     1      25.621  44.556 141.542  1.00  0.00     0.080 C 
BRANCH   5   6
ATOM      6  C   UNL     1      24.517  44.590 142.558  1.00  0.00     0.155 C 
ATOM      7  O   UNL     1      23.649  45.504 142.498  1.00  0.00    -0.295 OA
BRANCH   6   8
ATOM      8  C   UNL     1      24.479  43.589 143.642  1.00  0.00     0.039 C 
ATOM      9  C   UNL     1      24.668  42.290 143.422  1.00  0.00     0.012 C 
ENDBRANCH   6   8
ENDBRANCH   5   6
ENDBRANCH   1   5
TORSDOF 5
ENDMDL
MODEL 2
REMARK VINA RESULT:    -3.466      1.760      2.029
REMARK INTER + INTRA:          -4.892
REMARK INTER:                  -4.615
REMARK INTRA:                  -0.277
REMARK UNBOUND:                -0.413
REMARK SMILES C=CC(=O)CCCCC
REMARK SMILES IDX 6 1 7 2 8 3 9 4 5 5 3 6 4 7 2 8 1 9
REMARK H PARENT
REMARK Flexibility Score: inf
ROOT
ATOM      1  C   UNL     1      27.650  44.476 142.353  1.00  0.00     0.008 C 
ENDROOT
BRANCH   1   2
ATOM      2  C   UNL     1      27.319  44.083 143.798  1.00  0.00     0.000 C 
BRANCH   2   3
ATOM      3  C   UNL     1      28.596  43.942 144.635  1.00  0.00    -0.003 C 
ATOM      4  C   UNL     1      29.257  42.586 144.407  1.00  0.00     0.004 C 
ENDBRANCH   2   3
ENDBRANCH   1   2
BRANCH   1   5
ATOM      5  C   UNL     1      26.593  45.430 141.788  1.00  0.00     0.080 C 
BRANCH   5   6
ATOM      6  C   UNL     1      25.511  44.663 141.086  1.00  0.00     0.155 C 
ATOM      7  O   UNL     1      25.761  44.112 139.979  1.00  0.00    -0.295 OA
BRANCH   6   8
ATOM      8  C   UNL     1      24.156  44.596 141.668  1.00  0.00     0.039 C 
ATOM      9  C   UNL     1      23.812  45.278 142.759  1.00  0.00     0.012 C 
ENDBRANCH   6   8
ENDBRANCH   5   6
ENDBRANCH   1   5
TORSDOF 5
ENDMDL
MODEL 3
REMARK VINA RESULT:    -3.392     14.365     15.040
REMARK INTER + INTRA:          -4.796
REMARK INTER:                  -4.385
REMARK INTRA:                  -0.412
REMARK UNBOUND:                -0.413
REMARK SMILES C=CC(=O)CCCCC
REMARK SMILES IDX 6 1 7 2 8 3 9 4 5 5 3 6 4 7 2 8 1 9
REMARK H PARENT
REMARK Flexibility Score: inf
ROOT
ATOM      1  C   UNL     1      27.585  29.443 139.203  1.00  0.00     0.008 C 
ENDROOT
BRANCH   1   2
ATOM      2  C   UNL     1      28.202  30.646 138.480  1.00  0.00     0.000 C 
BRANCH   2   3
ATOM      3  C   UNL     1      27.820  30.650 136.996  1.00  0.00    -0.003 C 
ATOM      4  C   UNL     1      28.783  31.508 136.181  1.00  0.00     0.004 C 
ENDBRANCH   2   3
ENDBRANCH   1   2
BRANCH   1   5
ATOM      5  C   UNL     1      26.388  29.870 140.059  1.00  0.00     0.080 C 
BRANCH   5   6
ATOM      6  C   UNL     1      25.135  29.190 139.590  1.00  0.00     0.155 C 
ATOM      7  O   UNL     1      24.941  27.979 139.888  1.00  0.00    -0.295 OA
BRANCH   6   8
ATOM      8  C   UNL     1      24.167  29.921 138.750  1.00  0.00     0.039 C 
ATOM      9  C   UNL     1      24.356  31.184 138.376  1.00  0.00     0.012 C 
ENDBRANCH   6   8
ENDBRANCH   5   6
ENDBRANCH   1   5
TORSDOF 5
ENDMDL
MODEL 4
REMARK VINA RESULT:    -3.386     14.427     15.369
REMARK INTER + INTRA:          -4.788
REMARK INTER:                  -4.397
REMARK INTRA:                  -0.391
REMARK UNBOUND:                -0.413
REMARK SMILES C=CC(=O)CCCCC
REMARK SMILES IDX 6 1 7 2 8 3 9 4 5 5 3 6 4 7 2 8 1 9
REMARK H PARENT
REMARK Flexibility Score: inf
ROOT
ATOM      1  C   UNL     1      26.196  29.738 140.116  1.00  0.00     0.008 C 
ENDROOT
BRANCH   1   2
ATOM      2  C   UNL     1      25.072  28.721 139.889  1.00  0.00     0.000 C 
BRANCH   2   3
ATOM      3  C   UNL     1      24.083  29.222 138.830  1.00  0.00    -0.003 C 
ATOM      4  C   UNL     1      24.083  30.746 138.753  1.00  0.00     0.004 C 
ENDBRANCH   2   3
ENDBRANCH   1   2
BRANCH   1   5
ATOM      5  C   UNL     1      27.536  29.200 139.603  1.00  0.00     0.080 C 
BRANCH   5   6
ATOM      6  C   UNL     1      28.226  30.225 138.753  1.00  0.00     0.155 C 
ATOM      7  O   UNL     1      29.323  30.713 139.140  1.00  0.00    -0.295 OA
BRANCH   6   8
ATOM      8  C   UNL     1      27.598  30.690 137.500  1.00  0.00     0.039 C 
ATOM      9  C   UNL     1      28.255  30.729 136.343  1.00  0.00     0.012 C 
ENDBRANCH   6   8
ENDBRANCH   5   6
ENDBRANCH   1   5
TORSDOF 5
ENDMDL
MODEL 5
REMARK VINA RESULT:    -3.371      1.203      2.560
REMARK INTER + INTRA:          -4.769
REMARK INTER:                  -4.253
REMARK INTRA:                  -0.516
REMARK UNBOUND:                -0.413
REMARK SMILES C=CC(=O)CCCCC
REMARK SMILES IDX 6 1 7 2 8 3 9 4 5 5 3 6 4 7 2 8 1 9
REMARK H PARENT
REMARK Flexibility Score: inf
ROOT
ATOM      1  C   UNL     1      25.835  43.028 143.334  1.00  0.00     0.008 C 
ENDROOT
BRANCH   1   2
ATOM      2  C   UNL     1      26.995  43.972 143.673  1.00  0.00     0.000 C 
BRANCH   2   3
ATOM      3  C   UNL     1      27.757  44.382 142.407  1.00  0.00    -0.003 C 
ATOM      4  C   UNL     1      27.173  45.654 141.800  1.00  0.00     0.004 C 
ENDBRANCH   2   3
ENDBRANCH   1   2
BRANCH   1   5
ATOM      5  C   UNL     1      24.486  43.673 143.670  1.00  0.00     0.080 C 
BRANCH   5   6
ATOM      6  C   UNL     1      23.968  44.454 142.499  1.00  0.00     0.155 C 
ATOM      7  O   UNL     1      23.721  45.684 142.636  1.00  0.00    -0.295 OA
BRANCH   6   8
ATOM      8  C   UNL     1      23.708  43.775 141.214  1.00  0.00     0.039 C 
ATOM      9  C   UNL     1      24.129  44.263 140.050  1.00  0.00     0.012 C 
ENDBRANCH   6   8
ENDBRANCH   5   6
ENDBRANCH   1   5
TORSDOF 5
ENDMDL
MODEL 6
REMARK VINA RESULT:    -3.301     13.834     14.694
REMARK INTER + INTRA:          -4.679
REMARK INTER:                  -4.281
REMARK INTRA:                  -0.397
REMARK UNBOUND:                -0.413
REMARK SMILES C=CC(=O)CCCCC
REMARK SMILES IDX 6 1 7 2 8 3 9 4 5 5 3 6 4 7 2 8 1 9
REMARK H PARENT
REMARK Flexibility Score: inf
ROOT
ATOM      1  C   UNL     1      27.029  31.281 137.897  1.00  0.00     0.008 C 
ENDROOT
BRANCH   1   2
ATOM      2  C   UNL     1      27.853  30.644 136.773  1.00  0.00     0.000 C 
BRANCH   2   3
ATOM      3  C   UNL     1      28.911  31.620 136.245  1.00  0.00    -0.003 C 
ATOM      4  C   UNL     1      29.778  32.160 137.379  1.00  0.00     0.004 C 
ENDBRANCH   2   3
ENDBRANCH   1   2
BRANCH   1   5
ATOM      5  C   UNL     1      26.369  30.210 138.770  1.00  0.00     0.080 C 
BRANCH   5   6
ATOM      6  C   UNL     1      27.216  29.912 139.972  1.00  0.00     0.155 C 
ATOM      7  O   UNL     1      26.903  30.411 141.088  1.00  0.00    -0.295 OA
BRANCH   6   8
ATOM      8  C   UNL     1      28.429  29.083 139.834  1.00  0.00     0.039 C 
ATOM      9  C   UNL     1      29.631  29.504 140.222  1.00  0.00     0.012 C 
ENDBRANCH   6   8
ENDBRANCH   5   6
ENDBRANCH   1   5
TORSDOF 5
ENDMDL
MODEL 7
REMARK VINA RESULT:    -3.283     10.119     11.863
REMARK INTER + INTRA:          -4.655
REMARK INTER:                  -4.529
REMARK INTRA:                  -0.126
REMARK UNBOUND:                -0.413
REMARK SMILES C=CC(=O)CCCCC
REMARK SMILES IDX 6 1 7 2 8 3 9 4 5 5 3 6 4 7 2 8 1 9
REMARK H PARENT
REMARK Flexibility Score: inf
ROOT
ATOM      1  C   UNL     1      36.328  42.046 147.973  1.00  0.00     0.008 C 
ENDROOT
BRANCH   1   2
ATOM      2  C   UNL     1      34.953  42.590 148.376  1.00  0.00     0.000 C 
BRANCH   2   3
ATOM      3  C   UNL     1      33.911  41.467 148.429  1.00  0.00    -0.003 C 
ATOM      4  C   UNL     1      32.773  41.814 149.384  1.00  0.00     0.004 C 
ENDBRANCH   2   3
ENDBRANCH   1   2
BRANCH   1   5
ATOM      5  C   UNL     1      37.203  43.151 147.372  1.00  0.00     0.080 C 
BRANCH   5   6
ATOM      6  C   UNL     1      37.357  42.955 145.893  1.00  0.00     0.155 C 
ATOM      7  O   UNL     1      37.027  41.852 145.377  1.00  0.00    -0.295 OA
BRANCH   6   8
ATOM      8  C   UNL     1      37.934  44.030 145.061  1.00  0.00     0.039 C 
ATOM      9  C   UNL     1      39.125  43.921 144.478  1.00  0.00     0.012 C 
ENDBRANCH   6   8
ENDBRANCH   5   6
ENDBRANCH   1   5
TORSDOF 5
ENDMDL
MODEL 8
REMARK VINA RESULT:    -3.275      1.925      2.581
REMARK INTER + INTRA:          -4.644
REMARK INTER:                  -4.393
REMARK INTRA:                  -0.251
REMARK UNBOUND:                -0.413
REMARK SMILES C=CC(=O)CCCCC
REMARK SMILES IDX 6 1 7 2 8 3 9 4 5 5 3 6 4 7 2 8 1 9
REMARK H PARENT
REMARK Flexibility Score: inf
ROOT
ATOM      1  C   UNL     1      27.901  44.138 144.366  1.00  0.00     0.008 C 
ENDROOT
BRANCH   1   2
ATOM      2  C   UNL     1      29.161  43.296 144.130  1.00  0.00     0.000 C 
BRANCH   2   3
ATOM      3  C   UNL     1      29.367  43.022 142.636  1.00  0.00    -0.003 C 
ATOM      4  C   UNL     1      30.795  42.569 142.351  1.00  0.00     0.004 C 
ENDBRANCH   2   3
ENDBRANCH   1   2
BRANCH   1   5
ATOM      5  C   UNL     1      26.984  44.110 143.139  1.00  0.00     0.080 C 
BRANCH   5   6
ATOM      6  C   UNL     1      25.747  43.311 143.424  1.00  0.00     0.155 C 
ATOM      7  O   UNL     1      25.835  42.059 143.554  1.00  0.00    -0.295 OA
BRANCH   6   8
ATOM      8  C   UNL     1      24.435  43.983 143.503  1.00  0.00     0.039 C 
ATOM      9  C   UNL     1      24.008  44.830 142.569  1.00  0.00     0.012 C 
ENDBRANCH   6   8
ENDBRANCH   5   6
ENDBRANCH   1   5
TORSDOF 5
ENDMDL
MODEL 9
REMARK VINA RESULT:    -3.220     13.677     14.685
REMARK INTER + INTRA:          -4.574
REMARK INTER:                  -3.972
REMARK INTRA:                  -0.601
REMARK UNBOUND:                -0.413
REMARK SMILES C=CC(=O)CCCCC
REMARK SMILES IDX 6 1 7 2 8 3 9 4 5 5 3 6 4 7 2 8 1 9
REMARK H PARENT
REMARK Flexibility Score: inf
ROOT
ATOM      1  C   UNL     1      29.758  31.749 138.710  1.00  0.00     0.008 C 
ENDROOT
BRANCH   1   2
ATOM      2  C   UNL     1      28.755  32.720 138.077  1.00  0.00     0.000 C 
BRANCH   2   3
ATOM      3  C   UNL     1      27.779  31.981 137.155  1.00  0.00    -0.003 C 
ATOM      4  C   UNL     1      28.489  30.881 136.371  1.00  0.00     0.004 C 
ENDBRANCH   2   3
ENDBRANCH   1   2
BRANCH   1   5
ATOM      5  C   UNL     1      29.251  31.239 140.063  1.00  0.00     0.080 C 
BRANCH   5   6
ATOM      6  C   UNL     1      29.144  29.743 140.057  1.00  0.00     0.155 C 
ATOM      7  O   UNL     1      30.133  29.050 140.423  1.00  0.00    -0.295 OA
BRANCH   6   8
ATOM      8  C   UNL     1      27.907  29.092 139.581  1.00  0.00     0.039 C 
ATOM      9  C   UNL     1      26.703  29.629 139.759  1.00  0.00     0.012 C 
ENDBRANCH   6   8
ENDBRANCH   5   6
ENDBRANCH   1   5
TORSDOF 5
ENDMDL
