MODEL 1
REMARK VINA RESULT:    -5.712      0.000      0.000
REMARK INTER + INTRA:          -6.473
REMARK INTER:                  -6.045
REMARK INTRA:                  -0.428
REMARK UNBOUND:                -0.428
REMARK SMILES CC1=CC[C@@H]2[C@H]3[C@H](C(C)C)CC[C@]2(C)[C@@H]13
REMARK SMILES IDX 1 1 2 2 3 3 4 4 5 5 6 6 15 7 13 8 12 9 11 10 7 11 14 12 8 13
REMARK SMILES IDX 9 14 10 15
REMARK H PARENT
REMARK Flexibility Score: inf
ROOT
ATOM      1  C   UNL     1       5.923  -1.434  19.746  1.00  0.00     0.039 C 
ATOM      2  C   UNL     1       5.025  -2.539  19.278  1.00  0.00    -0.073 C 
ATOM      3  C   UNL     1       5.326  -3.842  19.520  1.00  0.00    -0.027 C 
ATOM      4  C   UNL     1       4.359  -4.928  19.038  1.00  0.00     0.031 C 
ATOM      5  C   UNL     1       3.151  -4.284  18.279  1.00  0.00     0.003 C 
ATOM      6  C   UNL     1       3.719  -3.231  17.299  1.00  0.00     0.004 C 
ATOM      7  C   UNL     1       3.736  -2.255  18.501  1.00  0.00     0.024 C 
ATOM      8  C   UNL     1       2.564  -3.093  19.072  1.00  0.00    -0.022 C 
ATOM      9  C   UNL     1       1.214  -2.678  18.418  1.00  0.00     0.008 C 
ATOM     10  C   UNL     1       1.388  -2.223  16.947  1.00  0.00     0.005 C 
ATOM     11  C   UNL     1       2.635  -2.846  16.240  1.00  0.00    -0.005 C 
ATOM     12  C   UNL     1       2.414  -3.231  20.608  1.00  0.00     0.012 C 
ENDROOT
BRANCH  11  13
ATOM     13  C   UNL     1       3.195  -1.905  15.124  1.00  0.00    -0.014 C 
ATOM     14  C   UNL     1       4.734  -1.940  15.077  1.00  0.00     0.007 C 
ATOM     15  C   UNL     1       2.743  -0.445  15.315  1.00  0.00     0.007 C 
ENDBRANCH  11  13
TORSDOF 1
ENDMDL
MODEL 2
REMARK VINA RESULT:    -5.427      1.915      5.340
REMARK INTER + INTRA:          -6.172
REMARK INTER:                  -5.866
REMARK INTRA:                  -0.306
REMARK UNBOUND:                -0.428
REMARK SMILES CC1=CC[C@@H]2[C@H]3[C@H](C(C)C)CC[C@]2(C)[C@@H]13
REMARK SMILES IDX 1 1 2 2 3 3 4 4 5 5 6 6 15 7 13 8 12 9 11 10 7 11 14 12 8 13
REMARK SMILES IDX 9 14 10 15
REMARK H PARENT
REMARK Flexibility Score: inf
ROOT
ATOM      1  C   UNL     1      -0.641   0.006  15.620  1.00  0.00     0.039 C 
ATOM      2  C   UNL     1       0.214  -1.094  15.067  1.00  0.00    -0.073 C 
ATOM      3  C   UNL     1      -0.252  -1.929  14.102  1.00  0.00    -0.027 C 
ATOM      4  C   UNL     1       0.674  -3.021  13.557  1.00  0.00     0.031 C 
ATOM      5  C   UNL     1       2.055  -2.981  14.292  1.00  0.00     0.003 C 
ATOM      6  C   UNL     1       1.777  -2.856  15.809  1.00  0.00     0.004 C 
ATOM      7  C   UNL     1       1.642  -1.333  15.566  1.00  0.00     0.024 C 
ATOM      8  C   UNL     1       2.606  -1.538  14.369  1.00  0.00    -0.022 C 
ATOM      9  C   UNL     1       4.085  -1.596  14.850  1.00  0.00     0.008 C 
ATOM     10  C   UNL     1       4.221  -2.225  16.259  1.00  0.00     0.005 C 
ATOM     11  C   UNL     1       3.064  -3.213  16.620  1.00  0.00    -0.005 C 
ATOM     12  C   UNL     1       2.465  -0.628  13.123  1.00  0.00     0.012 C 
ENDROOT
BRANCH  11  13
ATOM     13  C   UNL     1       2.808  -3.261  18.162  1.00  0.00    -0.014 C 
ATOM     14  C   UNL     1       3.645  -4.363  18.838  1.00  0.00     0.007 C 
ATOM     15  C   UNL     1       1.324  -3.500  18.497  1.00  0.00     0.007 C 
ENDBRANCH  11  13
TORSDOF 1
ENDMDL
MODEL 3
REMARK VINA RESULT:    -5.348      1.506      4.930
REMARK INTER + INTRA:          -6.088
REMARK INTER:                  -5.864
REMARK INTRA:                  -0.224
REMARK UNBOUND:                -0.428
REMARK SMILES CC1=CC[C@@H]2[C@H]3[C@H](C(C)C)CC[C@]2(C)[C@@H]13
REMARK SMILES IDX 1 1 2 2 3 3 4 4 5 5 6 6 15 7 13 8 12 9 11 10 7 11 14 12 8 13
REMARK SMILES IDX 9 14 10 15
REMARK H PARENT
REMARK Flexibility Score: inf
ROOT
ATOM      1  C   UNL     1       1.961  -3.741  13.069  1.00  0.00     0.039 C 
ATOM      2  C   UNL     1       2.176  -2.603  14.021  1.00  0.00    -0.073 C 
ATOM      3  C   UNL     1       2.807  -1.466  13.626  1.00  0.00    -0.027 C 
ATOM      4  C   UNL     1       2.978  -0.326  14.636  1.00  0.00     0.031 C 
ATOM      5  C   UNL     1       2.386  -0.735  16.025  1.00  0.00     0.003 C 
ATOM      6  C   UNL     1       2.884  -2.164  16.346  1.00  0.00     0.004 C 
ATOM      7  C   UNL     1       1.707  -2.670  15.477  1.00  0.00     0.024 C 
ATOM      8  C   UNL     1       0.980  -1.359  15.872  1.00  0.00    -0.022 C 
ATOM      9  C   UNL     1       0.335  -1.484  17.283  1.00  0.00     0.008 C 
ATOM     10  C   UNL     1       1.155  -2.401  18.225  1.00  0.00     0.005 C 
ATOM     11  C   UNL     1       2.675  -2.475  17.863  1.00  0.00    -0.005 C 
ATOM     12  C   UNL     1      -0.009  -0.713  14.868  1.00  0.00     0.012 C 
ENDROOT
BRANCH  11  13
ATOM     13  C   UNL     1       3.302  -3.843  18.287  1.00  0.00    -0.014 C 
ATOM     14  C   UNL     1       2.501  -4.501  19.427  1.00  0.00     0.007 C 
ATOM     15  C   UNL     1       4.766  -3.696  18.739  1.00  0.00     0.007 C 
ENDBRANCH  11  13
TORSDOF 1
ENDMDL
MODEL 4
REMARK VINA RESULT:    -5.230      1.732      4.352
REMARK INTER + INTRA:          -5.963
REMARK INTER:                  -5.529
REMARK INTRA:                  -0.435
REMARK UNBOUND:                -0.428
REMARK SMILES CC1=CC[C@@H]2[C@H]3[C@H](C(C)C)CC[C@]2(C)[C@@H]13
REMARK SMILES IDX 1 1 2 2 3 3 4 4 5 5 6 6 15 7 13 8 12 9 11 10 7 11 14 12 8 13
REMARK SMILES IDX 9 14 10 15
REMARK H PARENT
REMARK Flexibility Score: inf
ROOT
ATOM      1  C   UNL     1       0.592  -2.884  22.212  1.00  0.00     0.039 C 
ATOM      2  C   UNL     1       0.924  -3.487  20.881  1.00  0.00    -0.073 C 
ATOM      3  C   UNL     1       0.135  -4.442  20.324  1.00  0.00    -0.027 C 
ATOM      4  C   UNL     1       0.512  -5.006  18.950  1.00  0.00     0.031 C 
ATOM      5  C   UNL     1       1.839  -4.353  18.438  1.00  0.00     0.003 C 
ATOM      6  C   UNL     1       2.850  -4.365  19.608  1.00  0.00     0.004 C 
ATOM      7  C   UNL     1       2.167  -3.063  20.092  1.00  0.00     0.024 C 
ATOM      8  C   UNL     1       1.806  -2.816  18.604  1.00  0.00    -0.022 C 
ATOM      9  C   UNL     1       3.013  -2.207  17.833  1.00  0.00     0.008 C 
ATOM     10  C   UNL     1       4.373  -2.709  18.378  1.00  0.00     0.005 C 
ATOM     11  C   UNL     1       4.295  -4.110  19.068  1.00  0.00    -0.005 C 
ATOM     12  C   UNL     1       0.495  -2.065  18.262  1.00  0.00     0.012 C 
ENDROOT
BRANCH  11  13
ATOM     13  C   UNL     1       5.386  -4.267  20.177  1.00  0.00    -0.014 C 
ATOM     14  C   UNL     1       4.920  -5.220  21.294  1.00  0.00     0.007 C 
ATOM     15  C   UNL     1       5.767  -2.917  20.813  1.00  0.00     0.007 C 
ENDBRANCH  11  13
TORSDOF 1
ENDMDL
MODEL 5
REMARK VINA RESULT:    -5.190      1.335      3.383
REMARK INTER + INTRA:          -5.921
REMARK INTER:                  -5.614
REMARK INTRA:                  -0.308
REMARK UNBOUND:                -0.428
REMARK SMILES CC1=CC[C@@H]2[C@H]3[C@H](C(C)C)CC[C@]2(C)[C@@H]13
REMARK SMILES IDX 1 1 2 2 3 3 4 4 5 5 6 6 15 7 13 8 12 9 11 10 7 11 14 12 8 13
REMARK SMILES IDX 9 14 10 15
REMARK H PARENT
REMARK Flexibility Score: inf
ROOT
ATOM      1  C   UNL     1       4.961  -5.379  20.089  1.00  0.00     0.039 C 
ATOM      2  C   UNL     1       5.100  -3.957  19.636  1.00  0.00    -0.073 C 
ATOM      3  C   UNL     1       5.631  -3.008  20.450  1.00  0.00    -0.027 C 
ATOM      4  C   UNL     1       5.770  -1.575  19.925  1.00  0.00     0.031 C 
ATOM      5  C   UNL     1       5.203  -1.470  18.470  1.00  0.00     0.003 C 
ATOM      6  C   UNL     1       3.839  -2.199  18.444  1.00  0.00     0.004 C 
ATOM      7  C   UNL     1       4.645  -3.506  18.245  1.00  0.00     0.024 C 
ATOM      8  C   UNL     1       5.730  -2.620  17.581  1.00  0.00    -0.022 C 
ATOM      9  C   UNL     1       5.365  -2.310  16.100  1.00  0.00     0.008 C 
ATOM     10  C   UNL     1       3.835  -2.210  15.880  1.00  0.00     0.005 C 
ATOM     11  C   UNL     1       3.042  -1.795  17.162  1.00  0.00    -0.005 C 
ATOM     12  C   UNL     1       7.219  -3.029  17.709  1.00  0.00     0.012 C 
ENDROOT
BRANCH  11  13
ATOM     13  C   UNL     1       1.589  -2.373  17.152  1.00  0.00    -0.014 C 
ATOM     14  C   UNL     1       0.611  -1.426  16.431  1.00  0.00     0.007 C 
ATOM     15  C   UNL     1       1.058  -2.634  18.574  1.00  0.00     0.007 C 
ENDBRANCH  11  13
TORSDOF 1
ENDMDL
MODEL 6
REMARK VINA RESULT:    -5.079      3.377      5.721
REMARK INTER + INTRA:          -5.803
REMARK INTER:                  -5.581
REMARK INTRA:                  -0.223
REMARK UNBOUND:                -0.428
REMARK SMILES CC1=CC[C@@H]2[C@H]3[C@H](C(C)C)CC[C@]2(C)[C@@H]13
REMARK SMILES IDX 1 1 2 2 3 3 4 4 5 5 6 6 15 7 13 8 12 9 11 10 7 11 14 12 8 13
REMARK SMILES IDX 9 14 10 15
REMARK H PARENT
REMARK Flexibility Score: inf
ROOT
ATOM      1  C   UNL     1       1.816  -3.542  17.156  1.00  0.00     0.039 C 
ATOM      2  C   UNL     1       1.236  -2.504  16.244  1.00  0.00    -0.073 C 
ATOM      3  C   UNL     1       0.523  -1.457  16.734  1.00  0.00    -0.027 C 
ATOM      4  C   UNL     1      -0.028  -0.413  15.757  1.00  0.00     0.031 C 
ATOM      5  C   UNL     1       0.333  -0.802  14.284  1.00  0.00     0.003 C 
ATOM      6  C   UNL     1       0.017  -2.305  14.105  1.00  0.00     0.004 C 
ATOM      7  C   UNL     1       1.410  -2.578  14.724  1.00  0.00     0.024 C 
ATOM      8  C   UNL     1       1.823  -1.195  14.159  1.00  0.00    -0.022 C 
ATOM      9  C   UNL     1       2.185  -1.297  12.648  1.00  0.00     0.008 C 
ATOM     10  C   UNL     1       1.351  -2.378  11.916  1.00  0.00     0.005 C 
ATOM     11  C   UNL     1      -0.034  -2.663  12.584  1.00  0.00    -0.005 C 
ATOM     12  C   UNL     1       2.875  -0.352  14.923  1.00  0.00     0.012 C 
ENDROOT
BRANCH  11  13
ATOM     13  C   UNL     1      -0.505  -4.132  12.329  1.00  0.00    -0.014 C 
ATOM     14  C   UNL     1      -0.277  -4.550  10.864  1.00  0.00     0.007 C 
ATOM     15  C   UNL     1      -1.993  -4.332  12.669  1.00  0.00     0.007 C 
ENDBRANCH  11  13
TORSDOF 1
ENDMDL
MODEL 7
REMARK VINA RESULT:    -5.001      4.442      6.473
REMARK INTER + INTRA:          -5.722
REMARK INTER:                  -5.441
REMARK INTRA:                  -0.281
REMARK UNBOUND:                -0.428
REMARK SMILES CC1=CC[C@@H]2[C@H]3[C@H](C(C)C)CC[C@]2(C)[C@@H]13
REMARK SMILES IDX 1 1 2 2 3 3 4 4 5 5 6 6 15 7 13 8 12 9 11 10 7 11 14 12 8 13
REMARK SMILES IDX 9 14 10 15
REMARK H PARENT
REMARK Flexibility Score: inf
ROOT
ATOM      1  C   UNL     1       3.216  -1.248  11.814  1.00  0.00     0.039 C 
ATOM      2  C   UNL     1       2.366  -1.943  12.835  1.00  0.00    -0.073 C 
ATOM      3  C   UNL     1       2.847  -2.234  14.071  1.00  0.00    -0.027 C 
ATOM      4  C   UNL     1       1.925  -2.924  15.082  1.00  0.00     0.031 C 
ATOM      5  C   UNL     1       0.528  -3.211  14.437  1.00  0.00     0.003 C 
ATOM      6  C   UNL     1       0.773  -3.819  13.036  1.00  0.00     0.004 C 
ATOM      7  C   UNL     1       0.925  -2.364  12.531  1.00  0.00     0.024 C 
ATOM      8  C   UNL     1      -0.013  -1.964  13.699  1.00  0.00    -0.022 C 
ATOM      9  C   UNL     1      -1.503  -2.216  13.326  1.00  0.00     0.008 C 
ATOM     10  C   UNL     1      -1.676  -3.432  12.382  1.00  0.00     0.005 C 
ATOM     11  C   UNL     1      -0.536  -4.494  12.511  1.00  0.00    -0.005 C 
ATOM     12  C   UNL     1       0.163  -0.577  14.367  1.00  0.00     0.012 C 
ENDROOT
BRANCH  11  13
ATOM     13  C   UNL     1      -0.315  -5.267  11.169  1.00  0.00    -0.014 C 
ATOM     14  C   UNL     1      -0.794  -4.443   9.959  1.00  0.00     0.007 C 
ATOM     15  C   UNL     1      -1.040  -6.625  11.156  1.00  0.00     0.007 C 
ENDBRANCH  11  13
TORSDOF 1
ENDMDL
MODEL 8
REMARK VINA RESULT:    -4.974      1.784      2.500
REMARK INTER + INTRA:          -5.693
REMARK INTER:                  -5.442
REMARK INTRA:                  -0.251
REMARK UNBOUND:                -0.428
REMARK SMILES CC1=CC[C@@H]2[C@H]3[C@H](C(C)C)CC[C@]2(C)[C@@H]13
REMARK SMILES IDX 1 1 2 2 3 3 4 4 5 5 6 6 15 7 13 8 12 9 11 10 7 11 14 12 8 13
REMARK SMILES IDX 9 14 10 15
REMARK H PARENT
REMARK Flexibility Score: inf
ROOT
ATOM      1  C   UNL     1       4.151  -3.392  21.260  1.00  0.00     0.039 C 
ATOM      2  C   UNL     1       2.856  -3.833  20.647  1.00  0.00    -0.073 C 
ATOM      3  C   UNL     1       2.268  -5.002  21.012  1.00  0.00    -0.027 C 
ATOM      4  C   UNL     1       0.932  -5.390  20.369  1.00  0.00     0.031 C 
ATOM      5  C   UNL     1       0.496  -4.311  19.323  1.00  0.00     0.003 C 
ATOM      6  C   UNL     1       1.730  -3.974  18.454  1.00  0.00     0.004 C 
ATOM      7  C   UNL     1       2.143  -2.996  19.581  1.00  0.00     0.024 C 
ATOM      8  C   UNL     1       0.630  -2.884  19.903  1.00  0.00    -0.022 C 
ATOM      9  C   UNL     1      -0.072  -1.887  18.937  1.00  0.00     0.008 C 
ATOM     10  C   UNL     1       0.571  -1.883  17.527  1.00  0.00     0.005 C 
ATOM     11  C   UNL     1       1.281  -3.225  17.157  1.00  0.00    -0.005 C 
ATOM     12  C   UNL     1       0.188  -2.638  21.368  1.00  0.00     0.012 C 
ENDROOT
BRANCH  11  13
ATOM     13  C   UNL     1       2.463  -2.996  16.158  1.00  0.00    -0.014 C 
ATOM     14  C   UNL     1       3.194  -1.671  16.446  1.00  0.00     0.007 C 
ATOM     15  C   UNL     1       1.991  -2.986  14.692  1.00  0.00     0.007 C 
ENDBRANCH  11  13
TORSDOF 1
ENDMDL
MODEL 9
REMARK VINA RESULT:    -4.964      1.945      4.062
REMARK INTER + INTRA:          -5.682
REMARK INTER:                  -5.404
REMARK INTRA:                  -0.279
REMARK UNBOUND:                -0.428
REMARK SMILES CC1=CC[C@@H]2[C@H]3[C@H](C(C)C)CC[C@]2(C)[C@@H]13
REMARK SMILES IDX 1 1 2 2 3 3 4 4 5 5 6 6 15 7 13 8 12 9 11 10 7 11 14 12 8 13
REMARK SMILES IDX 9 14 10 15
REMARK H PARENT
REMARK Flexibility Score: inf
ROOT
ATOM      1  C   UNL     1      -0.255  -6.097  20.121  1.00  0.00     0.039 C 
ATOM      2  C   UNL     1       0.789  -5.145  20.621  1.00  0.00    -0.073 C 
ATOM      3  C   UNL     1       0.555  -4.344  21.693  1.00  0.00    -0.027 C 
ATOM      4  C   UNL     1       1.668  -3.407  22.174  1.00  0.00     0.031 C 
ATOM      5  C   UNL     1       2.927  -3.539  21.253  1.00  0.00     0.003 C 
ATOM      6  C   UNL     1       2.441  -3.510  19.785  1.00  0.00     0.004 C 
ATOM      7  C   UNL     1       2.158  -5.024  19.946  1.00  0.00     0.024 C 
ATOM      8  C   UNL     1       3.288  -5.022  21.008  1.00  0.00    -0.022 C 
ATOM      9  C   UNL     1       4.688  -5.088  20.332  1.00  0.00     0.008 C 
ATOM     10  C   UNL     1       4.713  -4.366  18.961  1.00  0.00     0.005 C 
ATOM     11  C   UNL     1       3.646  -3.232  18.829  1.00  0.00    -0.005 C 
ATOM     12  C   UNL     1       3.203  -6.009  22.200  1.00  0.00     0.012 C 
ENDROOT
BRANCH  11  13
ATOM     13  C   UNL     1       3.198  -3.032  17.344  1.00  0.00    -0.014 C 
ATOM     14  C   UNL     1       4.280  -2.306  16.522  1.00  0.00     0.007 C 
ATOM     15  C   UNL     1       1.884  -2.236  17.235  1.00  0.00     0.007 C 
ENDBRANCH  11  13
TORSDOF 1
ENDMDL
