MODEL 1
REMARK VINA RESULT:    -5.642      0.000      0.000
REMARK INTER + INTRA:         -10.421
REMARK INTER:                  -8.611
REMARK INTRA:                  -1.810
REMARK UNBOUND:                -1.810
REMARK SMILES CC(=O)CCC=C(C)CCC=C(C)CCC=C(C)C
REMARK SMILES IDX 10 1 11 2 12 3 13 4 14 5 15 6 16 7 18 8 17 9 19 10 9 11 7 12
REMARK SMILES IDX 6 13 8 14 5 15 4 16 2 17 3 18 1 19
REMARK H PARENT
REMARK Flexibility Score: inf
ROOT
ATOM      1  C   UNL     1      50.332  23.880  17.834  1.00  0.00     0.032 C 
ENDROOT
BRANCH   1   2
ATOM      2  C   UNL     1      49.768  22.637  18.480  1.00  0.00    -0.028 C 
ATOM      3  C   UNL     1      50.488  21.536  18.796  1.00  0.00    -0.077 C 
ATOM      4  C   UNL     1      51.957  21.418  18.467  1.00  0.00     0.039 C 
BRANCH   3   5
ATOM      5  C   UNL     1      49.800  20.397  19.517  1.00  0.00     0.034 C 
BRANCH   5   6
ATOM      6  C   UNL     1      49.164  20.882  20.825  1.00  0.00     0.032 C 
BRANCH   6   7
ATOM      7  C   UNL     1      47.679  21.087  20.654  1.00  0.00    -0.028 C 
ATOM      8  C   UNL     1      47.081  19.237  22.235  1.00  0.00     0.039 C 
ATOM      9  C   UNL     1      46.733  20.333  21.258  1.00  0.00    -0.080 C 
ATOM     10  C   UNL     1      45.274  20.610  20.997  1.00  0.00     0.039 C 
ENDBRANCH   6   7
ENDBRANCH   5   6
ENDBRANCH   3   5
ENDBRANCH   1   2
BRANCH   1  11
ATOM     11  C   UNL     1      50.126  25.115  18.722  1.00  0.00     0.034 C 
BRANCH  11  12
ATOM     12  C   UNL     1      50.639  24.898  20.135  1.00  0.00    -0.077 C 
ATOM     13  C   UNL     1      49.817  24.774  21.202  1.00  0.00    -0.028 C 
ATOM     14  C   UNL     1      52.127  24.836  20.368  1.00  0.00     0.039 C 
BRANCH  13  15
ATOM     15  C   UNL     1      48.309  24.793  21.110  1.00  0.00     0.035 C 
BRANCH  15  16
ATOM     16  C   UNL     1      47.703  26.036  21.776  1.00  0.00     0.079 C 
BRANCH  16  17
ATOM     17  C   UNL     1      46.951  26.889  20.788  1.00  0.00     0.130 C 
ATOM     18  O   UNL     1      45.735  26.975  20.865  1.00  0.00    -0.300 OA
ATOM     19  C   UNL     1      47.670  27.616  19.691  1.00  0.00     0.087 C 
ENDBRANCH  16  17
ENDBRANCH  15  16
ENDBRANCH  13  15
ENDBRANCH  11  12
ENDBRANCH   1  11
TORSDOF 9
ENDMDL
MODEL 2
REMARK VINA RESULT:    -5.585      2.118      5.644
REMARK INTER + INTRA:         -10.333
REMARK INTER:                  -8.957
REMARK INTRA:                  -1.376
REMARK UNBOUND:                -1.810
REMARK SMILES CC(=O)CCC=C(C)CCC=C(C)CCC=C(C)C
REMARK SMILES IDX 10 1 11 2 12 3 13 4 14 5 15 6 16 7 18 8 17 9 19 10 9 11 7 12
REMARK SMILES IDX 6 13 8 14 5 15 4 16 2 17 3 18 1 19
REMARK H PARENT
REMARK Flexibility Score: inf
ROOT
ATOM      1  C   UNL     1      48.973  21.757  19.147  1.00  0.00     0.032 C 
ENDROOT
BRANCH   1   2
ATOM      2  C   UNL     1      49.806  22.983  18.860  1.00  0.00    -0.028 C 
ATOM      3  C   UNL     1      51.104  22.963  18.476  1.00  0.00    -0.077 C 
ATOM      4  C   UNL     1      51.882  21.674  18.355  1.00  0.00     0.039 C 
BRANCH   3   5
ATOM      5  C   UNL     1      51.787  24.271  18.143  1.00  0.00     0.034 C 
BRANCH   5   6
ATOM      6  C   UNL     1      51.065  25.450  18.807  1.00  0.00     0.032 C 
BRANCH   6   7
ATOM      7  C   UNL     1      51.928  26.071  19.878  1.00  0.00    -0.028 C 
ATOM      8  C   UNL     1      50.494  25.222  21.748  1.00  0.00     0.039 C 
ATOM      9  C   UNL     1      51.664  26.002  21.202  1.00  0.00    -0.080 C 
ATOM     10  C   UNL     1      52.583  26.681  22.186  1.00  0.00     0.039 C 
ENDBRANCH   6   7
ENDBRANCH   5   6
ENDBRANCH   3   5
ENDBRANCH   1   2
BRANCH   1  11
ATOM     11  C   UNL     1      49.147  21.289  20.598  1.00  0.00     0.034 C 
BRANCH  11  12
ATOM     12  C   UNL     1      48.978  19.786  20.741  1.00  0.00    -0.077 C 
ATOM     13  C   UNL     1      47.875  19.221  21.281  1.00  0.00    -0.028 C 
ATOM     14  C   UNL     1      50.093  18.882  20.281  1.00  0.00     0.039 C 
BRANCH  13  15
ATOM     15  C   UNL     1      46.675  20.006  21.760  1.00  0.00     0.035 C 
BRANCH  15  16
ATOM     16  C   UNL     1      45.733  20.382  20.608  1.00  0.00     0.079 C 
BRANCH  16  17
ATOM     17  C   UNL     1      44.717  21.411  21.032  1.00  0.00     0.130 C 
ATOM     18  O   UNL     1      44.697  22.504  20.486  1.00  0.00    -0.300 OA
ATOM     19  C   UNL     1      43.743  21.126  22.136  1.00  0.00     0.087 C 
ENDBRANCH  16  17
ENDBRANCH  15  16
ENDBRANCH  13  15
ENDBRANCH  11  12
ENDBRANCH   1  11
TORSDOF 9
ENDMDL
MODEL 3
REMARK VINA RESULT:    -5.507      3.916      7.223
REMARK INTER + INTRA:         -10.215
REMARK INTER:                  -9.189
REMARK INTRA:                  -1.026
REMARK UNBOUND:                -1.810
REMARK SMILES CC(=O)CCC=C(C)CCC=C(C)CCC=C(C)C
REMARK SMILES IDX 10 1 11 2 12 3 13 4 14 5 15 6 16 7 18 8 17 9 19 10 9 11 7 12
REMARK SMILES IDX 6 13 8 14 5 15 4 16 2 17 3 18 1 19
REMARK H PARENT
REMARK Flexibility Score: inf
ROOT
ATOM      1  C   UNL     1      44.867  20.853  21.801  1.00  0.00     0.032 C 
ENDROOT
BRANCH   1   2
ATOM      2  C   UNL     1      46.147  20.433  21.119  1.00  0.00    -0.028 C 
ATOM      3  C   UNL     1      47.029  19.534  21.616  1.00  0.00    -0.077 C 
ATOM      4  C   UNL     1      46.839  18.892  22.970  1.00  0.00     0.039 C 
BRANCH   3   5
ATOM      5  C   UNL     1      48.229  19.150  20.779  1.00  0.00     0.034 C 
BRANCH   5   6
ATOM      6  C   UNL     1      49.375  20.151  20.975  1.00  0.00     0.032 C 
BRANCH   6   7
ATOM      7  C   UNL     1      49.664  20.890  19.691  1.00  0.00    -0.028 C 
ATOM      8  C   UNL     1      49.142  23.133  20.678  1.00  0.00     0.039 C 
ATOM      9  C   UNL     1      49.532  22.227  19.536  1.00  0.00    -0.080 C 
ATOM     10  C   UNL     1      49.825  22.859  18.199  1.00  0.00     0.039 C 
ENDBRANCH   6   7
ENDBRANCH   5   6
ENDBRANCH   3   5
ENDBRANCH   1   2
BRANCH   1  11
ATOM     11  C   UNL     1      43.752  21.121  20.781  1.00  0.00     0.034 C 
BRANCH  11  12
ATOM     12  C   UNL     1      43.029  22.429  21.051  1.00  0.00    -0.077 C 
ATOM     13  C   UNL     1      41.831  22.488  21.675  1.00  0.00    -0.028 C 
ATOM     14  C   UNL     1      43.659  23.718  20.589  1.00  0.00     0.039 C 
BRANCH  13  15
ATOM     15  C   UNL     1      41.100  21.279  22.211  1.00  0.00     0.035 C 
BRANCH  15  16
ATOM     16  C   UNL     1      39.926  21.668  23.120  1.00  0.00     0.079 C 
BRANCH  16  17
ATOM     17  C   UNL     1      38.597  21.396  22.464  1.00  0.00     0.130 C 
ATOM     18  O   UNL     1      37.659  22.154  22.658  1.00  0.00    -0.300 OA
ATOM     19  C   UNL     1      38.398  20.191  21.595  1.00  0.00     0.087 C 
ENDBRANCH  16  17
ENDBRANCH  15  16
ENDBRANCH  13  15
ENDBRANCH  11  12
ENDBRANCH   1  11
TORSDOF 9
ENDMDL
MODEL 4
REMARK VINA RESULT:    -5.459      2.436      6.328
REMARK INTER + INTRA:         -10.141
REMARK INTER:                  -8.396
REMARK INTRA:                  -1.744
REMARK UNBOUND:                -1.810
REMARK SMILES CC(=O)CCC=C(C)CCC=C(C)CCC=C(C)C
REMARK SMILES IDX 10 1 11 2 12 3 13 4 14 5 15 6 16 7 18 8 17 9 19 10 9 11 7 12
REMARK SMILES IDX 6 13 8 14 5 15 4 16 2 17 3 18 1 19
REMARK H PARENT
REMARK Flexibility Score: inf
ROOT
ATOM      1  C   UNL     1      50.121  23.711  21.463  1.00  0.00     0.032 C 
ENDROOT
BRANCH   1   2
ATOM      2  C   UNL     1      51.256  24.460  20.808  1.00  0.00    -0.028 C 
ATOM      3  C   UNL     1      51.591  25.744  21.074  1.00  0.00    -0.077 C 
ATOM      4  C   UNL     1      50.796  26.594  22.036  1.00  0.00     0.039 C 
BRANCH   3   5
ATOM      5  C   UNL     1      52.808  26.336  20.398  1.00  0.00     0.034 C 
BRANCH   5   6
ATOM      6  C   UNL     1      52.405  27.446  19.419  1.00  0.00     0.032 C 
BRANCH   6   7
ATOM      7  C   UNL     1      52.140  26.877  18.046  1.00  0.00    -0.028 C 
ATOM      8  C   UNL     1      49.653  27.088  18.265  1.00  0.00     0.039 C 
ATOM      9  C   UNL     1      50.906  26.682  17.529  1.00  0.00    -0.080 C 
ATOM     10  C   UNL     1      50.756  26.083  16.153  1.00  0.00     0.039 C 
ENDBRANCH   6   7
ENDBRANCH   5   6
ENDBRANCH   3   5
ENDBRANCH   1   2
BRANCH   1  11
ATOM     11  C   UNL     1      49.058  23.297  20.436  1.00  0.00     0.034 C 
BRANCH  11  12
ATOM     12  C   UNL     1      49.618  22.373  19.369  1.00  0.00    -0.077 C 
ATOM     13  C   UNL     1      49.772  21.044  19.559  1.00  0.00    -0.028 C 
ATOM     14  C   UNL     1      50.041  22.960  18.047  1.00  0.00     0.039 C 
BRANCH  13  15
ATOM     15  C   UNL     1      49.368  20.321  20.824  1.00  0.00     0.035 C 
BRANCH  15  16
ATOM     16  C   UNL     1      48.217  19.334  20.585  1.00  0.00     0.079 C 
BRANCH  16  17
ATOM     17  C   UNL     1      46.914  19.851  21.137  1.00  0.00     0.130 C 
ATOM     18  O   UNL     1      46.609  19.612  22.295  1.00  0.00    -0.300 OA
ATOM     19  C   UNL     1      45.969  20.635  20.276  1.00  0.00     0.087 C 
ENDBRANCH  16  17
ENDBRANCH  15  16
ENDBRANCH  13  15
ENDBRANCH  11  12
ENDBRANCH   1  11
TORSDOF 9
ENDMDL
MODEL 5
REMARK VINA RESULT:    -5.397      2.500      6.390
REMARK INTER + INTRA:         -10.046
REMARK INTER:                  -8.516
REMARK INTRA:                  -1.531
REMARK UNBOUND:                -1.810
REMARK SMILES CC(=O)CCC=C(C)CCC=C(C)CCC=C(C)C
REMARK SMILES IDX 10 1 11 2 12 3 13 4 14 5 15 6 16 7 18 8 17 9 19 10 9 11 7 12
REMARK SMILES IDX 6 13 8 14 5 15 4 16 2 17 3 18 1 19
REMARK H PARENT
REMARK Flexibility Score: inf
ROOT
ATOM      1  C   UNL     1      50.473  23.678  21.406  1.00  0.00     0.032 C 
ENDROOT
BRANCH   1   2
ATOM      2  C   UNL     1      50.349  25.111  21.865  1.00  0.00    -0.028 C 
ATOM      3  C   UNL     1      51.258  26.083  21.618  1.00  0.00    -0.077 C 
ATOM      4  C   UNL     1      52.551  25.803  20.890  1.00  0.00     0.039 C 
BRANCH   3   5
ATOM      5  C   UNL     1      50.957  27.495  22.071  1.00  0.00     0.034 C 
BRANCH   5   6
ATOM      6  C   UNL     1      50.893  28.452  20.875  1.00  0.00     0.032 C 
BRANCH   6   7
ATOM      7  C   UNL     1      49.475  28.592  20.378  1.00  0.00    -0.028 C 
ATOM      8  C   UNL     1      49.848  27.083  18.412  1.00  0.00     0.039 C 
ATOM      9  C   UNL     1      49.002  28.007  19.254  1.00  0.00    -0.080 C 
ATOM     10  C   UNL     1      47.571  28.234  18.836  1.00  0.00     0.039 C 
ENDBRANCH   6   7
ENDBRANCH   5   6
ENDBRANCH   3   5
ENDBRANCH   1   2
BRANCH   1  11
ATOM     11  C   UNL     1      49.210  23.217  20.665  1.00  0.00     0.034 C 
BRANCH  11  12
ATOM     12  C   UNL     1      49.531  22.293  19.503  1.00  0.00    -0.077 C 
ATOM     13  C   UNL     1      49.611  20.951  19.635  1.00  0.00    -0.028 C 
ATOM     14  C   UNL     1      49.793  22.895  18.146  1.00  0.00     0.039 C 
BRANCH  13  15
ATOM     15  C   UNL     1      49.349  20.215  20.929  1.00  0.00     0.035 C 
BRANCH  15  16
ATOM     16  C   UNL     1      48.153  19.258  20.819  1.00  0.00     0.079 C 
BRANCH  16  17
ATOM     17  C   UNL     1      47.046  19.637  21.768  1.00  0.00     0.130 C 
ATOM     18  O   UNL     1      46.976  19.101  22.863  1.00  0.00    -0.300 OA
ATOM     19  C   UNL     1      46.007  20.645  21.378  1.00  0.00     0.087 C 
ENDBRANCH  16  17
ENDBRANCH  15  16
ENDBRANCH  13  15
ENDBRANCH  11  12
ENDBRANCH   1  11
TORSDOF 9
ENDMDL
MODEL 6
REMARK VINA RESULT:    -5.392      2.316      5.594
REMARK INTER + INTRA:         -10.039
REMARK INTER:                  -8.598
REMARK INTRA:                  -1.441
REMARK UNBOUND:                -1.810
REMARK SMILES CC(=O)CCC=C(C)CCC=C(C)CCC=C(C)C
REMARK SMILES IDX 10 1 11 2 12 3 13 4 14 5 15 6 16 7 18 8 17 9 19 10 9 11 7 12
REMARK SMILES IDX 6 13 8 14 5 15 4 16 2 17 3 18 1 19
REMARK H PARENT
REMARK Flexibility Score: inf
ROOT
ATOM      1  C   UNL     1      50.717  23.663  17.561  1.00  0.00     0.032 C 
ENDROOT
BRANCH   1   2
ATOM      2  C   UNL     1      51.650  24.523  18.380  1.00  0.00    -0.028 C 
ATOM      3  C   UNL     1      51.545  25.865  18.516  1.00  0.00    -0.077 C 
ATOM      4  C   UNL     1      50.489  26.663  17.789  1.00  0.00     0.039 C 
BRANCH   3   5
ATOM      5  C   UNL     1      52.506  26.582  19.440  1.00  0.00     0.034 C 
BRANCH   5   6
ATOM      6  C   UNL     1      52.374  26.062  20.876  1.00  0.00     0.032 C 
BRANCH   6   7
ATOM      7  C   UNL     1      51.055  26.481  21.478  1.00  0.00    -0.028 C 
ATOM      8  C   UNL     1      50.221  24.127  21.681  1.00  0.00     0.039 C 
ATOM      9  C   UNL     1      50.066  25.622  21.814  1.00  0.00    -0.080 C 
ATOM     10  C   UNL     1      48.776  26.151  22.386  1.00  0.00     0.039 C 
ENDBRANCH   6   7
ENDBRANCH   5   6
ENDBRANCH   3   5
ENDBRANCH   1   2
BRANCH   1  11
ATOM     11  C   UNL     1      49.833  22.786  18.456  1.00  0.00     0.034 C 
BRANCH  11  12
ATOM     12  C   UNL     1      50.528  21.499  18.865  1.00  0.00    -0.077 C 
ATOM     13  C   UNL     1      49.986  20.619  19.737  1.00  0.00    -0.028 C 
ATOM     14  C   UNL     1      51.889  21.193  18.294  1.00  0.00     0.039 C 
BRANCH  13  15
ATOM     15  C   UNL     1      48.622  20.788  20.366  1.00  0.00     0.035 C 
BRANCH  15  16
ATOM     16  C   UNL     1      48.051  19.458  20.877  1.00  0.00     0.079 C 
BRANCH  16  17
ATOM     17  C   UNL     1      46.937  19.672  21.868  1.00  0.00     0.130 C 
ATOM     18  O   UNL     1      46.989  19.135  22.964  1.00  0.00    -0.300 OA
ATOM     19  C   UNL     1      45.747  20.515  21.521  1.00  0.00     0.087 C 
ENDBRANCH  16  17
ENDBRANCH  15  16
ENDBRANCH  13  15
ENDBRANCH  11  12
ENDBRANCH   1  11
TORSDOF 9
ENDMDL
MODEL 7
REMARK VINA RESULT:    -5.361      2.551      3.322
REMARK INTER + INTRA:          -9.992
REMARK INTER:                  -8.461
REMARK INTRA:                  -1.531
REMARK UNBOUND:                -1.810
REMARK SMILES CC(=O)CCC=C(C)CCC=C(C)CCC=C(C)C
REMARK SMILES IDX 10 1 11 2 12 3 13 4 14 5 15 6 16 7 18 8 17 9 19 10 9 11 7 12
REMARK SMILES IDX 6 13 8 14 5 15 4 16 2 17 3 18 1 19
REMARK H PARENT
REMARK Flexibility Score: inf
ROOT
ATOM      1  C   UNL     1      50.121  23.615  17.734  1.00  0.00     0.032 C 
ENDROOT
BRANCH   1   2
ATOM      2  C   UNL     1      50.070  22.420  18.656  1.00  0.00    -0.028 C 
ATOM      3  C   UNL     1      49.556  22.429  19.908  1.00  0.00    -0.077 C 
ATOM      4  C   UNL     1      49.024  23.691  20.544  1.00  0.00     0.039 C 
BRANCH   3   5
ATOM      5  C   UNL     1      49.499  21.131  20.683  1.00  0.00     0.034 C 
BRANCH   5   6
ATOM      6  C   UNL     1      48.571  20.123  19.995  1.00  0.00     0.032 C 
BRANCH   6   7
ATOM      7  C   UNL     1      47.149  20.631  19.978  1.00  0.00    -0.028 C 
ATOM      8  C   UNL     1      46.594  19.616  22.201  1.00  0.00     0.039 C 
ATOM      9  C   UNL     1      46.242  20.381  20.949  1.00  0.00    -0.080 C 
ATOM     10  C   UNL     1      44.839  20.918  20.819  1.00  0.00     0.039 C 
ENDBRANCH   6   7
ENDBRANCH   5   6
ENDBRANCH   3   5
ENDBRANCH   1   2
BRANCH   1  11
ATOM     11  C   UNL     1      51.521  24.243  17.709  1.00  0.00     0.034 C 
BRANCH  11  12
ATOM     12  C   UNL     1      51.490  25.727  18.030  1.00  0.00    -0.077 C 
ATOM     13  C   UNL     1      51.784  26.217  19.255  1.00  0.00    -0.028 C 
ATOM     14  C   UNL     1      51.097  26.699  16.947  1.00  0.00     0.039 C 
BRANCH  13  15
ATOM     15  C   UNL     1      52.215  25.360  20.424  1.00  0.00     0.035 C 
BRANCH  15  16
ATOM     16  C   UNL     1      51.581  25.820  21.744  1.00  0.00     0.079 C 
BRANCH  16  17
ATOM     17  C   UNL     1      52.261  27.049  22.292  1.00  0.00     0.130 C 
ATOM     18  O   UNL     1      53.454  27.016  22.551  1.00  0.00    -0.300 OA
ATOM     19  C   UNL     1      51.488  28.307  22.552  1.00  0.00     0.087 C 
ENDBRANCH  16  17
ENDBRANCH  15  16
ENDBRANCH  13  15
ENDBRANCH  11  12
ENDBRANCH   1  11
TORSDOF 9
ENDMDL
MODEL 8
REMARK VINA RESULT:    -5.350      2.203      3.420
REMARK INTER + INTRA:          -9.975
REMARK INTER:                  -8.199
REMARK INTRA:                  -1.775
REMARK UNBOUND:                -1.810
REMARK SMILES CC(=O)CCC=C(C)CCC=C(C)CCC=C(C)C
REMARK SMILES IDX 10 1 11 2 12 3 13 4 14 5 15 6 16 7 18 8 17 9 19 10 9 11 7 12
REMARK SMILES IDX 6 13 8 14 5 15 4 16 2 17 3 18 1 19
REMARK H PARENT
REMARK Flexibility Score: inf
ROOT
ATOM      1  C   UNL     1      50.720  24.379  20.927  1.00  0.00     0.032 C 
ENDROOT
BRANCH   1   2
ATOM      2  C   UNL     1      50.137  22.997  20.749  1.00  0.00    -0.028 C 
ATOM      3  C   UNL     1      49.838  22.432  19.556  1.00  0.00    -0.077 C 
ATOM      4  C   UNL     1      50.008  23.176  18.254  1.00  0.00     0.039 C 
BRANCH   3   5
ATOM      5  C   UNL     1      49.336  21.005  19.530  1.00  0.00     0.034 C 
BRANCH   5   6
ATOM      6  C   UNL     1      48.712  20.620  20.877  1.00  0.00     0.032 C 
BRANCH   6   7
ATOM      7  C   UNL     1      47.243  20.965  20.905  1.00  0.00    -0.028 C 
ATOM      8  C   UNL     1      46.706  19.231  22.631  1.00  0.00     0.039 C 
ATOM      9  C   UNL     1      46.326  20.326  21.665  1.00  0.00    -0.080 C 
ATOM     10  C   UNL     1      44.877  20.737  21.596  1.00  0.00     0.039 C 
ENDBRANCH   6   7
ENDBRANCH   5   6
ENDBRANCH   3   5
ENDBRANCH   1   2
BRANCH   1  11
ATOM     11  C   UNL     1      49.759  25.297  21.694  1.00  0.00     0.034 C 
BRANCH  11  12
ATOM     12  C   UNL     1      48.557  25.698  20.857  1.00  0.00    -0.077 C 
ATOM     13  C   UNL     1      48.627  26.616  19.867  1.00  0.00    -0.028 C 
ATOM     14  C   UNL     1      47.221  25.064  21.151  1.00  0.00     0.039 C 
BRANCH  13  15
ATOM     15  C   UNL     1      49.904  27.310  19.451  1.00  0.00     0.035 C 
BRANCH  15  16
ATOM     16  C   UNL     1      50.418  26.812  18.094  1.00  0.00     0.079 C 
BRANCH  16  17
ATOM     17  C   UNL     1      51.897  26.522  18.129  1.00  0.00     0.130 C 
ATOM     18  O   UNL     1      52.402  25.845  17.247  1.00  0.00    -0.300 OA
ATOM     19  C   UNL     1      52.756  27.029  19.247  1.00  0.00     0.087 C 
ENDBRANCH  16  17
ENDBRANCH  15  16
ENDBRANCH  13  15
ENDBRANCH  11  12
ENDBRANCH   1  11
TORSDOF 9
ENDMDL
MODEL 9
REMARK VINA RESULT:    -5.308      2.899      6.653
REMARK INTER + INTRA:          -9.911
REMARK INTER:                  -8.241
REMARK INTRA:                  -1.670
REMARK UNBOUND:                -1.810
REMARK SMILES CC(=O)CCC=C(C)CCC=C(C)CCC=C(C)C
REMARK SMILES IDX 10 1 11 2 12 3 13 4 14 5 15 6 16 7 18 8 17 9 19 10 9 11 7 12
REMARK SMILES IDX 6 13 8 14 5 15 4 16 2 17 3 18 1 19
REMARK H PARENT
REMARK Flexibility Score: inf
ROOT
ATOM      1  C   UNL     1      49.639  24.316  20.521  1.00  0.00     0.032 C 
ENDROOT
BRANCH   1   2
ATOM      2  C   UNL     1      50.907  24.801  21.182  1.00  0.00    -0.028 C 
ATOM      3  C   UNL     1      51.829  25.599  20.595  1.00  0.00    -0.077 C 
ATOM      4  C   UNL     1      51.702  26.044  19.158  1.00  0.00     0.039 C 
BRANCH   3   5
ATOM      5  C   UNL     1      53.011  26.071  21.413  1.00  0.00     0.034 C 
BRANCH   5   6
ATOM      6  C   UNL     1      52.547  26.885  22.627  1.00  0.00     0.032 C 
BRANCH   6   7
ATOM      7  C   UNL     1      52.235  28.307  22.231  1.00  0.00    -0.028 C 
ATOM      8  C   UNL     1      49.774  28.042  22.616  1.00  0.00     0.039 C 
ATOM      9  C   UNL     1      50.989  28.829  22.191  1.00  0.00    -0.080 C 
ATOM     10  C   UNL     1      50.788  30.259  21.755  1.00  0.00     0.039 C 
ENDBRANCH   6   7
ENDBRANCH   5   6
ENDBRANCH   3   5
ENDBRANCH   1   2
BRANCH   1  11
ATOM     11  C   UNL     1      49.392  22.829  20.806  1.00  0.00     0.034 C 
BRANCH  11  12
ATOM     12  C   UNL     1      49.715  21.953  19.608  1.00  0.00    -0.077 C 
ATOM     13  C   UNL     1      49.802  20.607  19.686  1.00  0.00    -0.028 C 
ATOM     14  C   UNL     1      49.971  22.610  18.275  1.00  0.00     0.039 C 
BRANCH  13  15
ATOM     15  C   UNL     1      49.547  19.819  20.950  1.00  0.00     0.035 C 
BRANCH  15  16
ATOM     16  C   UNL     1      48.243  19.012  20.877  1.00  0.00     0.079 C 
BRANCH  16  17
ATOM     17  C   UNL     1      47.172  19.598  21.760  1.00  0.00     0.130 C 
ATOM     18  O   UNL     1      47.063  19.216  22.915  1.00  0.00    -0.300 OA
ATOM     19  C   UNL     1      46.218  20.628  21.235  1.00  0.00     0.087 C 
ENDBRANCH  16  17
ENDBRANCH  15  16
ENDBRANCH  13  15
ENDBRANCH  11  12
ENDBRANCH   1  11
TORSDOF 9
ENDMDL
