MODEL 1
REMARK VINA RESULT:     2.532      0.000      0.000
REMARK INTER + INTRA:           2.885
REMARK INTER:                   2.902
REMARK INTRA:                  -0.017
REMARK UNBOUND:                -0.017
REMARK SMILES CC(C)[C@H]([NH3+])C(=O)[O-]
REMARK SMILES IDX 4 1 5 2 6 6 7 7 8 8 2 9 1 10 3 11
REMARK H PARENT 5 3 5 4 5 5
REMARK Flexibility Score: inf
ROOT
ATOM      1  C   UNL     1      -2.261  -5.323 -11.354  1.00  0.00     0.230 C 
ENDROOT
BRANCH   1   2
ATOM      2  N   UNL     1      -2.198  -5.261  -9.887  1.00  0.00    -0.350 N 
ATOM      3  H   UNL     1      -1.870  -6.172  -9.490  1.00  0.00     0.345 HD
ATOM      4  H   UNL     1      -3.143  -5.041  -9.494  1.00  0.00     0.345 HD
ATOM      5  H   UNL     1      -1.555  -4.495  -9.584  1.00  0.00     0.345 HD
ENDBRANCH   1   2
BRANCH   1   6
ATOM      6  C   UNL     1      -1.640  -6.616 -11.824  1.00  0.00     0.099 C 
ATOM      7  O   UNL     1      -1.260  -6.739 -13.018  1.00  0.00    -0.544 OA
ATOM      8  O   UNL     1      -1.480  -7.678 -10.941  1.00  0.00    -0.544 OA
ENDBRANCH   1   6
BRANCH   1   9
ATOM      9  C   UNL     1      -1.556  -4.101 -12.017  1.00  0.00     0.047 C 
ATOM     10  C   UNL     1      -1.259  -2.988 -10.997  1.00  0.00     0.014 C 
ATOM     11  C   UNL     1      -2.406  -3.520 -13.161  1.00  0.00     0.014 C 
ENDBRANCH   1   9
TORSDOF 3
ENDMDL
MODEL 2
REMARK VINA RESULT:     2.600      0.093      1.148
REMARK INTER + INTRA:           2.963
REMARK INTER:                   2.961
REMARK INTRA:                   0.002
REMARK UNBOUND:                -0.017
REMARK SMILES CC(C)[C@H]([NH3+])C(=O)[O-]
REMARK SMILES IDX 4 1 5 2 6 6 7 7 8 8 2 9 1 10 3 11
REMARK H PARENT 5 3 5 4 5 5
REMARK Flexibility Score: inf
ROOT
ATOM      1  C   UNL     1      -2.228  -5.301 -11.281  1.00  0.00     0.230 C 
ENDROOT
BRANCH   1   2
ATOM      2  N   UNL     1      -2.089  -5.253  -9.818  1.00  0.00    -0.350 N 
ATOM      3  H   UNL     1      -1.931  -4.272  -9.492  1.00  0.00     0.345 HD
ATOM      4  H   UNL     1      -1.283  -5.847  -9.513  1.00  0.00     0.345 HD
ATOM      5  H   UNL     1      -2.945  -5.641  -9.361  1.00  0.00     0.345 HD
ENDBRANCH   1   2
BRANCH   1   6
ATOM      6  C   UNL     1      -1.646  -6.595 -11.795  1.00  0.00     0.099 C 
ATOM      7  O   UNL     1      -1.563  -7.597 -11.036  1.00  0.00    -0.544 OA
ATOM      8  O   UNL     1      -1.200  -6.690 -13.108  1.00  0.00    -0.544 OA
ENDBRANCH   1   6
BRANCH   1   9
ATOM      9  C   UNL     1      -1.546  -4.079 -11.968  1.00  0.00     0.047 C 
ATOM     10  C   UNL     1      -1.269  -2.941 -10.970  1.00  0.00     0.014 C 
ATOM     11  C   UNL     1      -2.407  -3.536 -13.123  1.00  0.00     0.014 C 
ENDBRANCH   1   9
TORSDOF 3
ENDMDL
MODEL 3
REMARK VINA RESULT:     2.964      6.587      7.380
REMARK INTER + INTRA:           3.380
REMARK INTER:                   3.426
REMARK INTRA:                  -0.046
REMARK UNBOUND:                -0.017
REMARK SMILES CC(C)[C@H]([NH3+])C(=O)[O-]
REMARK SMILES IDX 4 1 5 2 6 6 7 7 8 8 2 9 1 10 3 11
REMARK H PARENT 5 3 5 4 5 5
REMARK Flexibility Score: inf
ROOT
ATOM      1  C   UNL     1       1.858   0.157  -8.879  1.00  0.00     0.230 C 
ENDROOT
BRANCH   1   2
ATOM      2  N   UNL     1       3.249   0.552  -9.150  1.00  0.00    -0.350 N 
ATOM      3  H   UNL     1       3.885  -0.277  -9.106  1.00  0.00     0.345 HD
ATOM      4  H   UNL     1       3.565   1.262  -8.449  1.00  0.00     0.345 HD
ATOM      5  H   UNL     1       3.320   0.999 -10.092  1.00  0.00     0.345 HD
ENDBRANCH   1   2
BRANCH   1   6
ATOM      6  C   UNL     1       1.637   0.108  -7.387  1.00  0.00     0.099 C 
ATOM      7  O   UNL     1       0.612   0.634  -6.881  1.00  0.00    -0.544 OA
ATOM      8  O   UNL     1       2.564  -0.520  -6.563  1.00  0.00    -0.544 OA
ENDBRANCH   1   6
BRANCH   1   9
ATOM      9  C   UNL     1       1.508  -1.215  -9.533  1.00  0.00     0.047 C 
ATOM     10  C   UNL     1       2.161  -1.373 -10.917  1.00  0.00     0.014 C 
ATOM     11  C   UNL     1      -0.015  -1.392  -9.671  1.00  0.00     0.014 C 
ENDBRANCH   1   9
TORSDOF 3
ENDMDL
MODEL 4
REMARK VINA RESULT:     3.028      1.987      2.771
REMARK INTER + INTRA:           3.453
REMARK INTER:                   3.205
REMARK INTRA:                   0.249
REMARK UNBOUND:                -0.017
REMARK SMILES CC(C)[C@H]([NH3+])C(=O)[O-]
REMARK SMILES IDX 4 1 5 2 6 6 7 7 8 8 2 9 1 10 3 11
REMARK H PARENT 5 3 5 4 5 5
REMARK Flexibility Score: inf
ROOT
ATOM      1  C   UNL     1      -2.336  -5.287 -11.832  1.00  0.00     0.230 C 
ENDROOT
BRANCH   1   2
ATOM      2  N   UNL     1      -1.741  -6.632 -11.843  1.00  0.00    -0.350 N 
ATOM      3  H   UNL     1      -1.112  -6.766 -11.018  1.00  0.00     0.345 HD
ATOM      4  H   UNL     1      -1.186  -6.774 -12.720  1.00  0.00     0.345 HD
ATOM      5  H   UNL     1      -2.491  -7.360 -11.835  1.00  0.00     0.345 HD
ENDBRANCH   1   2
BRANCH   1   6
ATOM      6  C   UNL     1      -1.789  -4.492 -12.992  1.00  0.00     0.099 C 
ATOM      7  O   UNL     1      -2.462  -3.552 -13.490  1.00  0.00    -0.544 OA
ATOM      8  O   UNL     1      -0.536  -4.790 -13.516  1.00  0.00    -0.544 OA
ENDBRANCH   1   6
BRANCH   1   9
ATOM      9  C   UNL     1      -2.073  -4.548 -10.485  1.00  0.00     0.047 C 
ATOM     10  C   UNL     1      -1.156  -3.327 -10.671  1.00  0.00     0.014 C 
ATOM     11  C   UNL     1      -1.448  -5.493  -9.444  1.00  0.00     0.014 C 
ENDBRANCH   1   9
TORSDOF 3
ENDMDL
MODEL 5
REMARK VINA RESULT:     3.187      2.645      3.294
REMARK INTER + INTRA:           3.636
REMARK INTER:                   3.418
REMARK INTRA:                   0.218
REMARK UNBOUND:                -0.017
REMARK SMILES CC(C)[C@H]([NH3+])C(=O)[O-]
REMARK SMILES IDX 4 1 5 2 6 6 7 7 8 8 2 9 1 10 3 11
REMARK H PARENT 5 3 5 4 5 5
REMARK Flexibility Score: inf
ROOT
ATOM      1  C   UNL     1      -1.438  -4.555 -10.839  1.00  0.00     0.230 C 
ENDROOT
BRANCH   1   2
ATOM      2  N   UNL     1      -2.357  -4.943  -9.758  1.00  0.00    -0.350 N 
ATOM      3  H   UNL     1      -3.337  -5.022 -10.115  1.00  0.00     0.345 HD
ATOM      4  H   UNL     1      -2.331  -4.232  -8.990  1.00  0.00     0.345 HD
ATOM      5  H   UNL     1      -2.060  -5.854  -9.341  1.00  0.00     0.345 HD
ENDBRANCH   1   2
BRANCH   1   6
ATOM      6  C   UNL     1      -1.365  -3.049 -10.912  1.00  0.00     0.099 C 
ATOM      7  O   UNL     1      -2.176  -2.410 -11.633  1.00  0.00    -0.544 OA
ATOM      8  O   UNL     1      -0.403  -2.359 -10.183  1.00  0.00    -0.544 OA
ENDBRANCH   1   6
BRANCH   1   9
ATOM      9  C   UNL     1      -1.873  -5.152 -12.212  1.00  0.00     0.047 C 
ATOM     10  C   UNL     1      -1.819  -6.690 -12.210  1.00  0.00     0.014 C 
ATOM     11  C   UNL     1      -0.991  -4.620 -13.355  1.00  0.00     0.014 C 
ENDBRANCH   1   9
TORSDOF 3
ENDMDL
MODEL 6
REMARK VINA RESULT:     3.389      7.332      8.265
REMARK INTER + INTRA:           3.867
REMARK INTER:                   3.770
REMARK INTRA:                   0.097
REMARK UNBOUND:                -0.017
REMARK SMILES CC(C)[C@H]([NH3+])C(=O)[O-]
REMARK SMILES IDX 4 1 5 2 6 6 7 7 8 8 2 9 1 10 3 11
REMARK H PARENT 5 3 5 4 5 5
REMARK Flexibility Score: inf
ROOT
ATOM      1  C   UNL     1       1.814  -0.277  -7.083  1.00  0.00     0.230 C 
ENDROOT
BRANCH   1   2
ATOM      2  N   UNL     1       0.941   0.893  -6.907  1.00  0.00    -0.350 N 
ATOM      3  H   UNL     1      -0.024   0.597  -6.631  1.00  0.00     0.345 HD
ATOM      4  H   UNL     1       0.887   1.440  -7.798  1.00  0.00     0.345 HD
ATOM      5  H   UNL     1       1.333   1.531  -6.179  1.00  0.00     0.345 HD
ENDBRANCH   1   2
BRANCH   1   6
ATOM      6  C   UNL     1       3.066  -0.090  -6.262  1.00  0.00     0.099 C 
ATOM      7  O   UNL     1       4.182  -0.458  -6.715  1.00  0.00    -0.544 OA
ATOM      8  O   UNL     1       2.996   0.492  -5.001  1.00  0.00    -0.544 OA
ENDBRANCH   1   6
BRANCH   1   9
ATOM      9  C   UNL     1       2.170  -0.514  -8.583  1.00  0.00     0.047 C 
ATOM     10  C   UNL     1       2.684   0.769  -9.259  1.00  0.00     0.014 C 
ATOM     11  C   UNL     1       0.956  -1.044  -9.366  1.00  0.00     0.014 C 
ENDBRANCH   1   9
TORSDOF 3
ENDMDL
MODEL 7
REMARK VINA RESULT:     3.467      2.716      3.412
REMARK INTER + INTRA:           3.957
REMARK INTER:                   3.413
REMARK INTRA:                   0.544
REMARK UNBOUND:                -0.017
REMARK SMILES CC(C)[C@H]([NH3+])C(=O)[O-]
REMARK SMILES IDX 4 1 5 2 6 6 7 7 8 8 2 9 1 10 3 11
REMARK H PARENT 5 3 5 4 5 5
REMARK Flexibility Score: inf
ROOT
ATOM      1  C   UNL     1      -1.850  -4.215 -12.075  1.00  0.00     0.230 C 
ENDROOT
BRANCH   1   2
ATOM      2  N   UNL     1      -1.027  -4.475 -13.266  1.00  0.00    -0.350 N 
ATOM      3  H   UNL     1      -0.053  -4.118 -13.129  1.00  0.00     0.345 HD
ATOM      4  H   UNL     1      -1.446  -4.006 -14.103  1.00  0.00     0.345 HD
ATOM      5  H   UNL     1      -1.000  -5.499 -13.470  1.00  0.00     0.345 HD
ENDBRANCH   1   2
BRANCH   1   6
ATOM      6  C   UNL     1      -1.081  -3.332 -11.123  1.00  0.00     0.099 C 
ATOM      7  O   UNL     1       0.125  -3.052 -11.352  1.00  0.00    -0.544 OA
ATOM      8  O   UNL     1      -1.701  -2.820  -9.988  1.00  0.00    -0.544 OA
ENDBRANCH   1   6
BRANCH   1   9
ATOM      9  C   UNL     1      -2.286  -5.536 -11.372  1.00  0.00     0.047 C 
ATOM     10  C   UNL     1      -1.833  -5.579  -9.902  1.00  0.00     0.014 C 
ATOM     11  C   UNL     1      -1.728  -6.768 -12.106  1.00  0.00     0.014 C 
ENDBRANCH   1   9
TORSDOF 3
ENDMDL
MODEL 8
REMARK VINA RESULT:     3.541      7.331      8.415
REMARK INTER + INTRA:           4.041
REMARK INTER:                   3.777
REMARK INTRA:                   0.264
REMARK UNBOUND:                -0.017
REMARK SMILES CC(C)[C@H]([NH3+])C(=O)[O-]
REMARK SMILES IDX 4 1 5 2 6 6 7 7 8 8 2 9 1 10 3 11
REMARK H PARENT 5 3 5 4 5 5
REMARK Flexibility Score: inf
ROOT
ATOM      1  C   UNL     1       2.819  -0.656  -7.207  1.00  0.00     0.230 C 
ENDROOT
BRANCH   1   2
ATOM      2  N   UNL     1       4.234  -0.259  -7.169  1.00  0.00    -0.350 N 
ATOM      3  H   UNL     1       4.856  -1.099  -7.227  1.00  0.00     0.345 HD
ATOM      4  H   UNL     1       4.441   0.256  -6.282  1.00  0.00     0.345 HD
ATOM      5  H   UNL     1       4.449   0.391  -7.958  1.00  0.00     0.345 HD
ENDBRANCH   1   2
BRANCH   1   6
ATOM      6  C   UNL     1       2.214  -0.215  -8.517  1.00  0.00     0.099 C 
ATOM      7  O   UNL     1       2.721   0.743  -9.158  1.00  0.00    -0.544 OA
ATOM      8  O   UNL     1       1.095  -0.864  -9.025  1.00  0.00    -0.544 OA
ENDBRANCH   1   6
BRANCH   1   9
ATOM      9  C   UNL     1       2.019  -0.067  -6.005  1.00  0.00     0.047 C 
ATOM     10  C   UNL     1       0.904   0.885  -6.470  1.00  0.00     0.014 C 
ATOM     11  C   UNL     1       2.947   0.683  -5.033  1.00  0.00     0.014 C 
ENDBRANCH   1   9
TORSDOF 3
ENDMDL
MODEL 9
REMARK VINA RESULT:     3.721      6.153      7.252
REMARK INTER + INTRA:           4.247
REMARK INTER:                   4.163
REMARK INTRA:                   0.084
REMARK UNBOUND:                -0.017
REMARK SMILES CC(C)[C@H]([NH3+])C(=O)[O-]
REMARK SMILES IDX 4 1 5 2 6 6 7 7 8 8 2 9 1 10 3 11
REMARK H PARENT 5 3 5 4 5 5
REMARK Flexibility Score: inf
ROOT
ATOM      1  C   UNL     1       2.422  -0.210  -8.848  1.00  0.00     0.230 C 
ENDROOT
BRANCH   1   2
ATOM      2  N   UNL     1       2.358   1.194  -9.280  1.00  0.00    -0.350 N 
ATOM      3  H   UNL     1       3.102   1.761  -8.812  1.00  0.00     0.345 HD
ATOM      4  H   UNL     1       1.423   1.601  -9.045  1.00  0.00     0.345 HD
ATOM      5  H   UNL     1       2.468   1.259 -10.317  1.00  0.00     0.345 HD
ENDBRANCH   1   2
BRANCH   1   6
ATOM      6  C   UNL     1       1.561  -1.050  -9.760  1.00  0.00     0.099 C 
ATOM      7  O   UNL     1       2.019  -1.466 -10.856  1.00  0.00    -0.544 OA
ATOM      8  O   UNL     1       0.259  -1.372  -9.393  1.00  0.00    -0.544 OA
ENDBRANCH   1   6
BRANCH   1   9
ATOM      9  C   UNL     1       1.980  -0.380  -7.363  1.00  0.00     0.047 C 
ATOM     10  C   UNL     1       0.912   0.651  -6.961  1.00  0.00     0.014 C 
ATOM     11  C   UNL     1       3.180  -0.259  -6.407  1.00  0.00     0.014 C 
ENDBRANCH   1   9
TORSDOF 3
ENDMDL
