MODEL 1
REMARK VINA RESULT:    -5.925      0.000      0.000
REMARK INTER + INTRA:          -6.777
REMARK INTER:                  -7.137
REMARK INTRA:                   0.361
REMARK UNBOUND:                 0.361
REMARK SMILES Oc1cc(O)c2c(c1)O[C@@H](c1ccc(O)c(O)c1)[C@H](O)C2
REMARK SMILES IDX 21 1 19 2 10 3 9 4 7 5 8 6 2 7 3 8 4 9 6 10 20 11 11 13
REMARK SMILES IDX 18 14 12 15 16 16 13 17 14 18 17 19 15 21 5 23 1 25
REMARK H PARENT 20 12 17 20 15 22 5 24 1 26
REMARK Flexibility Score: inf
ROOT
ATOM      1  C   UNL     1      29.317   8.714  29.377  1.00  0.00     0.079 C 
ATOM      2  C   UNL     1      27.950   9.004  28.728  1.00  0.00     0.164 C 
ATOM      3  C   UNL     1      28.131   9.265  27.223  1.00  0.00     0.232 C 
ATOM      4  O   UNL     1      28.782   8.152  26.613  1.00  0.00    -0.482 OA
ATOM      5  C   UNL     1      29.817   7.454  27.244  1.00  0.00     0.131 A 
ATOM      6  C   UNL     1      30.534   6.500  26.518  1.00  0.00     0.093 A 
ATOM      7  C   UNL     1      31.581   5.799  27.115  1.00  0.00     0.122 A 
ATOM      8  C   UNL     1      31.922   6.060  28.447  1.00  0.00     0.092 A 
ATOM      9  C   UNL     1      31.215   7.012  29.190  1.00  0.00     0.126 A 
ATOM     10  C   UNL     1      30.124   7.694  28.601  1.00  0.00     0.039 A 
ENDROOT
BRANCH   2  11
ATOM     11  O   UNL     1      27.362  10.124  29.337  1.00  0.00    -0.389 OA
ATOM     12  H   UNL     1      27.942  10.368  30.106  1.00  0.00     0.211 HD
ENDBRANCH   2  11
BRANCH   3  13
ATOM     13  C   UNL     1      26.801   9.509  26.548  1.00  0.00    -0.001 A 
ATOM     14  C   UNL     1      25.645   9.717  27.315  1.00  0.00     0.057 A 
ATOM     15  C   UNL     1      26.697   9.481  25.149  1.00  0.00     0.012 A 
ATOM     16  C   UNL     1      24.401   9.917  26.704  1.00  0.00     0.157 A 
ATOM     17  C   UNL     1      25.461   9.681  24.530  1.00  0.00     0.050 A 
ATOM     18  C   UNL     1      24.308   9.901  25.292  1.00  0.00     0.157 A 
BRANCH  16  19
ATOM     19  O   UNL     1      23.294  10.123  27.530  1.00  0.00    -0.504 OA
ATOM     20  H   UNL     1      22.380   9.729  27.357  1.00  0.00     0.293 HD
ENDBRANCH  16  19
BRANCH  18  21
ATOM     21  O   UNL     1      23.104  10.096  24.612  1.00  0.00    -0.504 OA
ATOM     22  H   UNL     1      22.627  10.982  24.552  1.00  0.00     0.293 HD
ENDBRANCH  18  21
ENDBRANCH   3  13
BRANCH   9  23
ATOM     23  O   UNL     1      31.630   7.262  30.501  1.00  0.00    -0.507 OA
ATOM     24  H   UNL     1      32.590   7.173  30.806  1.00  0.00     0.293 HD
ENDBRANCH   9  23
BRANCH   7  25
ATOM     25  O   UNL     1      32.284   4.849  26.375  1.00  0.00    -0.508 OA
ATOM     26  H   UNL     1      33.159   4.461  26.707  1.00  0.00     0.293 HD
ENDBRANCH   7  25
TORSDOF 6
ENDMDL
MODEL 2
REMARK VINA RESULT:    -5.797     20.715     22.894
REMARK INTER + INTRA:          -6.623
REMARK INTER:                  -6.735
REMARK INTRA:                   0.112
REMARK UNBOUND:                 0.361
REMARK SMILES Oc1cc(O)c2c(c1)O[C@@H](c1ccc(O)c(O)c1)[C@H](O)C2
REMARK SMILES IDX 21 1 19 2 10 3 9 4 7 5 8 6 2 7 3 8 4 9 6 10 20 11 11 13
REMARK SMILES IDX 18 14 12 15 16 16 13 17 14 18 17 19 15 21 5 23 1 25
REMARK H PARENT 20 12 17 20 15 22 5 24 1 26
REMARK Flexibility Score: inf
ROOT
ATOM      1  C   UNL     1      14.627  -8.565  16.611  1.00  0.00     0.079 C 
ATOM      2  C   UNL     1      15.409  -8.765  17.923  1.00  0.00     0.164 C 
ATOM      3  C   UNL     1      16.917  -8.613  17.662  1.00  0.00     0.232 C 
ATOM      4  O   UNL     1      17.180  -7.337  17.078  1.00  0.00    -0.482 OA
ATOM      5  C   UNL     1      16.330  -6.761  16.128  1.00  0.00     0.131 A 
ATOM      6  C   UNL     1      16.742  -5.605  15.461  1.00  0.00     0.093 A 
ATOM      7  C   UNL     1      15.924  -5.016  14.498  1.00  0.00     0.122 A 
ATOM      8  C   UNL     1      14.686  -5.592  14.190  1.00  0.00     0.092 A 
ATOM      9  C   UNL     1      14.256  -6.750  14.848  1.00  0.00     0.126 A 
ATOM     10  C   UNL     1      15.065  -7.326  15.858  1.00  0.00     0.039 A 
ENDROOT
BRANCH   2  11
ATOM     11  O   UNL     1      15.144 -10.043  18.443  1.00  0.00    -0.389 OA
ATOM     12  H   UNL     1      15.755 -10.672  17.979  1.00  0.00     0.211 HD
ENDBRANCH   2  11
BRANCH   3  13
ATOM     13  C   UNL     1      17.710  -8.759  18.940  1.00  0.00    -0.001 A 
ATOM     14  C   UNL     1      18.464  -7.684  19.433  1.00  0.00     0.057 A 
ATOM     15  C   UNL     1      17.740  -9.986  19.622  1.00  0.00     0.012 A 
ATOM     16  C   UNL     1      19.225  -7.814  20.601  1.00  0.00     0.157 A 
ATOM     17  C   UNL     1      18.495 -10.124  20.788  1.00  0.00     0.050 A 
ATOM     18  C   UNL     1      19.239  -9.050  21.290  1.00  0.00     0.157 A 
BRANCH  16  19
ATOM     19  O   UNL     1      19.949  -6.701  21.036  1.00  0.00    -0.504 OA
ATOM     20  H   UNL     1      20.341  -6.006  20.417  1.00  0.00     0.293 HD
ENDBRANCH  16  19
BRANCH  18  21
ATOM     21  O   UNL     1      19.971  -9.254  22.461  1.00  0.00    -0.504 OA
ATOM     22  H   UNL     1      19.588  -9.657  23.303  1.00  0.00     0.293 HD
ENDBRANCH  18  21
ENDBRANCH   3  13
BRANCH   9  23
ATOM     23  O   UNL     1      13.032  -7.306  14.467  1.00  0.00    -0.507 OA
ATOM     24  H   UNL     1      12.333  -7.617  15.129  1.00  0.00     0.293 HD
ENDBRANCH   9  23
BRANCH   7  25
ATOM     25  O   UNL     1      16.351  -3.862  13.844  1.00  0.00    -0.508 OA
ATOM     26  H   UNL     1      16.148  -2.939  14.211  1.00  0.00     0.293 HD
ENDBRANCH   7  25
TORSDOF 6
ENDMDL
MODEL 3
REMARK VINA RESULT:    -5.397      1.639      2.622
REMARK INTER + INTRA:          -6.140
REMARK INTER:                  -6.029
REMARK INTRA:                  -0.111
REMARK UNBOUND:                 0.361
REMARK SMILES Oc1cc(O)c2c(c1)O[C@@H](c1ccc(O)c(O)c1)[C@H](O)C2
REMARK SMILES IDX 21 1 19 2 10 3 9 4 7 5 8 6 2 7 3 8 4 9 6 10 20 11 11 13
REMARK SMILES IDX 18 14 12 15 16 16 13 17 14 18 17 19 15 21 5 23 1 25
REMARK H PARENT 20 12 17 20 15 22 5 24 1 26
REMARK Flexibility Score: inf
ROOT
ATOM      1  C   UNL     1      29.411   6.010  26.738  1.00  0.00     0.079 C 
ATOM      2  C   UNL     1      28.147   6.621  26.103  1.00  0.00     0.164 C 
ATOM      3  C   UNL     1      27.609   7.753  26.995  1.00  0.00     0.232 C 
ATOM      4  O   UNL     1      28.626   8.733  27.199  1.00  0.00    -0.482 OA
ATOM      5  C   UNL     1      29.969   8.388  27.386  1.00  0.00     0.131 A 
ATOM      6  C   UNL     1      30.877   9.379  27.767  1.00  0.00     0.093 A 
ATOM      7  C   UNL     1      32.219   9.063  27.977  1.00  0.00     0.122 A 
ATOM      8  C   UNL     1      32.657   7.744  27.814  1.00  0.00     0.092 A 
ATOM      9  C   UNL     1      31.761   6.738  27.432  1.00  0.00     0.126 A 
ATOM     10  C   UNL     1      30.407   7.063  27.176  1.00  0.00     0.039 A 
ENDROOT
BRANCH   2  11
ATOM     11  O   UNL     1      27.164   5.629  25.952  1.00  0.00    -0.389 OA
ATOM     12  H   UNL     1      27.360   4.928  26.627  1.00  0.00     0.211 HD
ENDBRANCH   2  11
BRANCH   3  13
ATOM     13  C   UNL     1      26.393   8.403  26.377  1.00  0.00    -0.001 A 
ATOM     14  C   UNL     1      25.408   8.982  27.192  1.00  0.00     0.057 A 
ATOM     15  C   UNL     1      26.210   8.393  24.985  1.00  0.00     0.012 A 
ATOM     16  C   UNL     1      24.263   9.564  26.634  1.00  0.00     0.157 A 
ATOM     17  C   UNL     1      25.072   8.972  24.421  1.00  0.00     0.050 A 
ATOM     18  C   UNL     1      24.094   9.561  25.229  1.00  0.00     0.157 A 
BRANCH  16  19
ATOM     19  O   UNL     1      23.327  10.125  27.505  1.00  0.00    -0.504 OA
ATOM     20  H   UNL     1      23.398  10.087  28.512  1.00  0.00     0.293 HD
ENDBRANCH  16  19
BRANCH  18  21
ATOM     21  O   UNL     1      22.981  10.125  24.602  1.00  0.00    -0.504 OA
ATOM     22  H   UNL     1      22.559  10.999  24.878  1.00  0.00     0.293 HD
ENDBRANCH  18  21
ENDBRANCH   3  13
BRANCH   9  23
ATOM     23  O   UNL     1      32.246   5.432  27.329  1.00  0.00    -0.507 OA
ATOM     24  H   UNL     1      31.753   4.693  26.847  1.00  0.00     0.293 HD
ENDBRANCH   9  23
BRANCH   7  25
ATOM     25  O   UNL     1      33.111  10.066  28.355  1.00  0.00    -0.508 OA
ATOM     26  H   UNL     1      33.630  10.600  27.667  1.00  0.00     0.293 HD
ENDBRANCH   7  25
TORSDOF 6
ENDMDL
MODEL 4
REMARK VINA RESULT:    -5.300     20.976     22.462
REMARK INTER + INTRA:          -6.024
REMARK INTER:                  -6.148
REMARK INTRA:                   0.125
REMARK UNBOUND:                 0.361
REMARK SMILES Oc1cc(O)c2c(c1)O[C@@H](c1ccc(O)c(O)c1)[C@H](O)C2
REMARK SMILES IDX 21 1 19 2 10 3 9 4 7 5 8 6 2 7 3 8 4 9 6 10 20 11 11 13
REMARK SMILES IDX 18 14 12 15 16 16 13 17 14 18 17 19 15 21 5 23 1 25
REMARK H PARENT 20 12 17 20 15 22 5 24 1 26
REMARK Flexibility Score: inf
ROOT
ATOM      1  C   UNL     1      17.053  -7.549  14.253  1.00  0.00     0.079 C 
ATOM      2  C   UNL     1      16.607  -6.075  14.223  1.00  0.00     0.164 C 
ATOM      3  C   UNL     1      15.254  -5.924  14.938  1.00  0.00     0.232 C 
ATOM      4  O   UNL     1      15.354  -6.422  16.272  1.00  0.00    -0.482 OA
ATOM      5  C   UNL     1      16.092  -7.566  16.590  1.00  0.00     0.131 A 
ATOM      6  C   UNL     1      15.993  -8.103  17.875  1.00  0.00     0.093 A 
ATOM      7  C   UNL     1      16.705  -9.252  18.217  1.00  0.00     0.122 A 
ATOM      8  C   UNL     1      17.517  -9.877  17.263  1.00  0.00     0.092 A 
ATOM      9  C   UNL     1      17.628  -9.354  15.970  1.00  0.00     0.126 A 
ATOM     10  C   UNL     1      16.941  -8.163  15.633  1.00  0.00     0.039 A 
ENDROOT
BRANCH   2  11
ATOM     11  O   UNL     1      16.492  -5.640  12.893  1.00  0.00    -0.389 OA
ATOM     12  H   UNL     1      16.193  -4.694  12.927  1.00  0.00     0.211 HD
ENDBRANCH   2  11
BRANCH   3  13
ATOM     13  C   UNL     1      14.809  -4.481  14.966  1.00  0.00    -0.001 A 
ATOM     14  C   UNL     1      15.687  -3.461  14.566  1.00  0.00     0.057 A 
ATOM     15  C   UNL     1      13.533  -4.137  15.437  1.00  0.00     0.012 A 
ATOM     16  C   UNL     1      15.298  -2.117  14.612  1.00  0.00     0.157 A 
ATOM     17  C   UNL     1      13.136  -2.800  15.486  1.00  0.00     0.050 A 
ATOM     18  C   UNL     1      14.004  -1.781  15.076  1.00  0.00     0.157 A 
BRANCH  16  19
ATOM     19  O   UNL     1      16.222  -1.156  14.195  1.00  0.00    -0.504 OA
ATOM     20  H   UNL     1      16.220  -0.197  14.510  1.00  0.00     0.293 HD
ENDBRANCH  16  19
BRANCH  18  21
ATOM     21  O   UNL     1      13.545  -0.464  15.147  1.00  0.00    -0.504 OA
ATOM     22  H   UNL     1      12.656  -0.197  15.541  1.00  0.00     0.293 HD
ENDBRANCH  18  21
ENDBRANCH   3  13
BRANCH   9  23
ATOM     23  O   UNL     1      18.417 -10.046  15.047  1.00  0.00    -0.507 OA
ATOM     24  H   UNL     1      18.603 -11.038  15.109  1.00  0.00     0.293 HD
ENDBRANCH   9  23
BRANCH   7  25
ATOM     25  O   UNL     1      16.595  -9.772  19.506  1.00  0.00    -0.508 OA
ATOM     26  H   UNL     1      16.767 -10.752  19.698  1.00  0.00     0.293 HD
ENDBRANCH   7  25
TORSDOF 6
ENDMDL
MODEL 5
REMARK VINA RESULT:    -4.965      1.791      3.241
REMARK INTER + INTRA:          -5.621
REMARK INTER:                  -5.304
REMARK INTRA:                  -0.316
REMARK UNBOUND:                 0.361
REMARK SMILES Oc1cc(O)c2c(c1)O[C@@H](c1ccc(O)c(O)c1)[C@H](O)C2
REMARK SMILES IDX 21 1 19 2 10 3 9 4 7 5 8 6 2 7 3 8 4 9 6 10 20 11 11 13
REMARK SMILES IDX 18 14 12 15 16 16 13 17 14 18 17 19 15 21 5 23 1 25
REMARK H PARENT 20 12 17 20 15 22 5 24 1 26
REMARK Flexibility Score: inf
ROOT
ATOM      1  C   UNL     1      30.666   6.476  27.739  1.00  0.00     0.079 C 
ATOM      2  C   UNL     1      29.632   7.081  26.770  1.00  0.00     0.164 C 
ATOM      3  C   UNL     1      28.457   7.676  27.564  1.00  0.00     0.232 C 
ATOM      4  O   UNL     1      28.942   8.644  28.493  1.00  0.00    -0.482 OA
ATOM      5  C   UNL     1      30.135   8.468  29.201  1.00  0.00     0.131 A 
ATOM      6  C   UNL     1      30.453   9.360  30.229  1.00  0.00     0.093 A 
ATOM      7  C   UNL     1      31.628   9.201  30.963  1.00  0.00     0.122 A 
ATOM      8  C   UNL     1      32.489   8.136  30.675  1.00  0.00     0.092 A 
ATOM      9  C   UNL     1      32.187   7.232  29.650  1.00  0.00     0.126 A 
ATOM     10  C   UNL     1      31.017   7.416  28.874  1.00  0.00     0.039 A 
ENDROOT
BRANCH   2  11
ATOM     11  O   UNL     1      29.160   6.087  25.897  1.00  0.00    -0.389 OA
ATOM     12  H   UNL     1      28.909   5.309  26.460  1.00  0.00     0.211 HD
ENDBRANCH   2  11
BRANCH   3  13
ATOM     13  C   UNL     1      27.446   8.318  26.642  1.00  0.00    -0.001 A 
ATOM     14  C   UNL     1      26.237   7.666  26.353  1.00  0.00     0.057 A 
ATOM     15  C   UNL     1      27.723   9.549  26.027  1.00  0.00     0.012 A 
ATOM     16  C   UNL     1      25.303   8.236  25.480  1.00  0.00     0.157 A 
ATOM     17  C   UNL     1      26.797  10.125  25.156  1.00  0.00     0.050 A 
ATOM     18  C   UNL     1      25.585   9.484  24.875  1.00  0.00     0.157 A 
BRANCH  16  19
ATOM     19  O   UNL     1      24.119   7.533  25.241  1.00  0.00    -0.504 OA
ATOM     20  H   UNL     1      23.527   7.682  24.437  1.00  0.00     0.293 HD
ENDBRANCH  16  19
BRANCH  18  21
ATOM     21  O   UNL     1      24.701  10.115  23.997  1.00  0.00    -0.504 OA
ATOM     22  H   UNL     1      24.199  10.962  24.214  1.00  0.00     0.293 HD
ENDBRANCH  18  21
ENDBRANCH   3  13
BRANCH   9  23
ATOM     23  O   UNL     1      33.061   6.163  29.438  1.00  0.00    -0.507 OA
ATOM     24  H   UNL     1      33.853   5.967  30.035  1.00  0.00     0.293 HD
ENDBRANCH   9  23
BRANCH   7  25
ATOM     25  O   UNL     1      31.929  10.101  31.983  1.00  0.00    -0.508 OA
ATOM     26  H   UNL     1      32.399  10.979  31.793  1.00  0.00     0.293 HD
ENDBRANCH   7  25
TORSDOF 6
ENDMDL
MODEL 6
REMARK VINA RESULT:    -4.468      1.813      7.029
REMARK INTER + INTRA:          -5.022
REMARK INTER:                  -4.982
REMARK INTRA:                  -0.041
REMARK UNBOUND:                 0.361
REMARK SMILES Oc1cc(O)c2c(c1)O[C@@H](c1ccc(O)c(O)c1)[C@H](O)C2
REMARK SMILES IDX 21 1 19 2 10 3 9 4 7 5 8 6 2 7 3 8 4 9 6 10 20 11 11 13
REMARK SMILES IDX 18 14 12 15 16 16 13 17 14 18 17 19 15 21 5 23 1 25
REMARK H PARENT 20 12 17 20 15 22 5 24 1 26
REMARK Flexibility Score: inf
ROOT
ATOM      1  C   UNL     1      27.522   7.153  25.622  1.00  0.00     0.079 C 
ATOM      2  C   UNL     1      28.697   7.228  26.615  1.00  0.00     0.164 C 
ATOM      3  C   UNL     1      28.936   8.689  27.032  1.00  0.00     0.232 C 
ATOM      4  O   UNL     1      27.740   9.236  27.585  1.00  0.00    -0.482 OA
ATOM      5  C   UNL     1      26.475   8.946  27.063  1.00  0.00     0.131 A 
ATOM      6  C   UNL     1      25.368   9.660  27.528  1.00  0.00     0.093 A 
ATOM      7  C   UNL     1      24.096   9.403  27.016  1.00  0.00     0.122 A 
ATOM      8  C   UNL     1      23.930   8.432  26.023  1.00  0.00     0.092 A 
ATOM      9  C   UNL     1      25.027   7.706  25.545  1.00  0.00     0.126 A 
ATOM     10  C   UNL     1      26.312   7.933  26.094  1.00  0.00     0.039 A 
ENDROOT
BRANCH   2  11
ATOM     11  O   UNL     1      29.857   6.708  26.019  1.00  0.00    -0.389 OA
ATOM     12  H   UNL     1      30.101   5.893  26.530  1.00  0.00     0.211 HD
ENDBRANCH   2  11
BRANCH   3  13
ATOM     13  C   UNL     1      30.055   8.791  28.043  1.00  0.00    -0.001 A 
ATOM     14  C   UNL     1      30.417   7.677  28.815  1.00  0.00     0.057 A 
ATOM     15  C   UNL     1      30.713  10.013  28.256  1.00  0.00     0.012 A 
ATOM     16  C   UNL     1      31.434   7.764  29.774  1.00  0.00     0.157 A 
ATOM     17  C   UNL     1      31.728  10.109  29.209  1.00  0.00     0.050 A 
ATOM     18  C   UNL     1      32.100   8.996  29.972  1.00  0.00     0.157 A 
BRANCH  16  19
ATOM     19  O   UNL     1      31.743   6.614  30.503  1.00  0.00    -0.504 OA
ATOM     20  H   UNL     1      31.937   6.608  31.494  1.00  0.00     0.293 HD
ENDBRANCH  16  19
BRANCH  18  21
ATOM     21  O   UNL     1      33.125   9.159  30.907  1.00  0.00    -0.504 OA
ATOM     22  H   UNL     1      34.107   9.086  30.686  1.00  0.00     0.293 HD
ENDBRANCH  18  21
ENDBRANCH   3  13
BRANCH   9  23
ATOM     23  O   UNL     1      24.807   6.781  24.521  1.00  0.00    -0.507 OA
ATOM     24  H   UNL     1      25.546   6.410  23.939  1.00  0.00     0.293 HD
ENDBRANCH   9  23
BRANCH   7  25
ATOM     25  O   UNL     1      23.004  10.125  27.494  1.00  0.00    -0.508 OA
ATOM     26  H   UNL     1      22.605   9.940  28.407  1.00  0.00     0.293 HD
ENDBRANCH   7  25
TORSDOF 6
ENDMDL
MODEL 7
REMARK VINA RESULT:    -4.382     11.049     14.318
REMARK INTER + INTRA:          -4.919
REMARK INTER:                  -4.555
REMARK INTRA:                  -0.364
REMARK UNBOUND:                 0.361
REMARK SMILES Oc1cc(O)c2c(c1)O[C@@H](c1ccc(O)c(O)c1)[C@H](O)C2
REMARK SMILES IDX 21 1 19 2 10 3 9 4 7 5 8 6 2 7 3 8 4 9 6 10 20 11 11 13
REMARK SMILES IDX 18 14 12 15 16 16 13 17 14 18 17 19 15 21 5 23 1 25
REMARK H PARENT 20 12 17 20 15 22 5 24 1 26
REMARK Flexibility Score: inf
ROOT
ATOM      1  C   UNL     1      31.477  -5.399  28.002  1.00  0.00     0.079 C 
ATOM      2  C   UNL     1      31.813  -4.072  28.709  1.00  0.00     0.164 C 
ATOM      3  C   UNL     1      30.927  -3.906  29.955  1.00  0.00     0.232 C 
ATOM      4  O   UNL     1      31.097  -5.026  30.822  1.00  0.00    -0.482 OA
ATOM      5  C   UNL     1      31.237  -6.331  30.338  1.00  0.00     0.131 A 
ATOM      6  C   UNL     1      31.208  -7.397  31.241  1.00  0.00     0.093 A 
ATOM      7  C   UNL     1      31.330  -8.710  30.786  1.00  0.00     0.122 A 
ATOM      8  C   UNL     1      31.471  -8.962  29.417  1.00  0.00     0.092 A 
ATOM      9  C   UNL     1      31.502  -7.907  28.498  1.00  0.00     0.126 A 
ATOM     10  C   UNL     1      31.423  -6.571  28.960  1.00  0.00     0.039 A 
ENDROOT
BRANCH   2  11
ATOM     11  O   UNL     1      31.602  -2.998  27.829  1.00  0.00    -0.389 OA
ATOM     12  H   UNL     1      30.826  -3.243  27.260  1.00  0.00     0.211 HD
ENDBRANCH   2  11
BRANCH   3  13
ATOM     13  C   UNL     1      31.264  -2.633  30.698  1.00  0.00    -0.001 A 
ATOM     14  C   UNL     1      30.288  -1.644  30.888  1.00  0.00     0.057 A 
ATOM     15  C   UNL     1      32.569  -2.404  31.163  1.00  0.00     0.012 A 
ATOM     16  C   UNL     1      30.593  -0.449  31.550  1.00  0.00     0.157 A 
ATOM     17  C   UNL     1      32.882  -1.216  31.825  1.00  0.00     0.050 A 
ATOM     18  C   UNL     1      31.907  -0.232  32.027  1.00  0.00     0.157 A 
BRANCH  16  19
ATOM     19  O   UNL     1      29.570   0.489  31.707  1.00  0.00    -0.504 OA
ATOM     20  H   UNL     1      28.991   0.561  32.532  1.00  0.00     0.293 HD
ENDBRANCH  16  19
BRANCH  18  21
ATOM     21  O   UNL     1      32.285   0.932  32.699  1.00  0.00    -0.504 OA
ATOM     22  H   UNL     1      33.142   1.030  33.221  1.00  0.00     0.293 HD
ENDBRANCH  18  21
ENDBRANCH   3  13
BRANCH   9  23
ATOM     23  O   UNL     1      31.600  -8.221  27.140  1.00  0.00    -0.507 OA
ATOM     24  H   UNL     1      31.577  -9.168  26.786  1.00  0.00     0.293 HD
ENDBRANCH   9  23
BRANCH   7  25
ATOM     25  O   UNL     1      31.301  -9.760  31.702  1.00  0.00    -0.508 OA
ATOM     26  H   UNL     1      30.526  -9.882  32.344  1.00  0.00     0.293 HD
ENDBRANCH   7  25
TORSDOF 6
ENDMDL
MODEL 8
REMARK VINA RESULT:    -3.762     20.515     22.330
REMARK INTER + INTRA:          -4.171
REMARK INTER:                  -4.042
REMARK INTRA:                  -0.128
REMARK UNBOUND:                 0.361
REMARK SMILES Oc1cc(O)c2c(c1)O[C@@H](c1ccc(O)c(O)c1)[C@H](O)C2
REMARK SMILES IDX 21 1 19 2 10 3 9 4 7 5 8 6 2 7 3 8 4 9 6 10 20 11 11 13
REMARK SMILES IDX 18 14 12 15 16 16 13 17 14 18 17 19 15 21 5 23 1 25
REMARK H PARENT 20 12 17 20 15 22 5 24 1 26
REMARK Flexibility Score: inf
ROOT
ATOM      1  C   UNL     1      16.319  -5.955  13.915  1.00  0.00     0.079 C 
ATOM      2  C   UNL     1      15.934  -4.474  14.097  1.00  0.00     0.164 C 
ATOM      3  C   UNL     1      14.469  -4.368  14.555  1.00  0.00     0.232 C 
ATOM      4  O   UNL     1      14.282  -5.116  15.756  1.00  0.00    -0.482 OA
ATOM      5  C   UNL     1      14.905  -6.349  15.972  1.00  0.00     0.131 A 
ATOM      6  C   UNL     1      14.532  -7.114  17.080  1.00  0.00     0.093 A 
ATOM      7  C   UNL     1      15.124  -8.354  17.314  1.00  0.00     0.122 A 
ATOM      8  C   UNL     1      16.092  -8.841  16.428  1.00  0.00     0.092 A 
ATOM      9  C   UNL     1      16.479  -8.090  15.312  1.00  0.00     0.126 A 
ATOM     10  C   UNL     1      15.911  -6.811  15.096  1.00  0.00     0.039 A 
ENDROOT
BRANCH   2  11
ATOM     11  O   UNL     1      16.103  -3.786  12.885  1.00  0.00    -0.389 OA
ATOM     12  H   UNL     1      16.354  -4.464  12.204  1.00  0.00     0.211 HD
ENDBRANCH   2  11
BRANCH   3  13
ATOM     13  C   UNL     1      14.073  -2.928  14.786  1.00  0.00    -0.001 A 
ATOM     14  C   UNL     1      14.074  -2.393  16.084  1.00  0.00     0.057 A 
ATOM     15  C   UNL     1      13.654  -2.124  13.716  1.00  0.00     0.012 A 
ATOM     16  C   UNL     1      13.683  -1.069  16.317  1.00  0.00     0.157 A 
ATOM     17  C   UNL     1      13.264  -0.802  13.938  1.00  0.00     0.050 A 
ATOM     18  C   UNL     1      13.275  -0.261  15.229  1.00  0.00     0.157 A 
BRANCH  16  19
ATOM     19  O   UNL     1      13.712  -0.602  17.633  1.00  0.00    -0.504 OA
ATOM     20  H   UNL     1      14.561  -0.433  18.153  1.00  0.00     0.293 HD
ENDBRANCH  16  19
BRANCH  18  21
ATOM     21  O   UNL     1      12.875   1.068  15.383  1.00  0.00    -0.504 OA
ATOM     22  H   UNL     1      12.664   1.494  16.273  1.00  0.00     0.293 HD
ENDBRANCH  18  21
ENDBRANCH   3  13
BRANCH   9  23
ATOM     23  O   UNL     1      17.416  -8.647  14.438  1.00  0.00    -0.507 OA
ATOM     24  H   UNL     1      18.258  -9.110  14.749  1.00  0.00     0.293 HD
ENDBRANCH   9  23
BRANCH   7  25
ATOM     25  O   UNL     1      14.740  -9.101  18.426  1.00  0.00    -0.508 OA
ATOM     26  H   UNL     1      13.815  -9.013  18.830  1.00  0.00     0.293 HD
ENDBRANCH   7  25
TORSDOF 6
ENDMDL
