MODEL 1
REMARK VINA RESULT:    -4.749      0.000      0.000
REMARK INTER + INTRA:         -11.356
REMARK INTER:                  -9.191
REMARK INTRA:                  -2.165
REMARK UNBOUND:                -2.165
REMARK SMILES CCCCCCCCCCCCCCCCCC(=O)[O-]
REMARK SMILES IDX 10 1 11 2 12 3 13 4 14 5 15 6 16 7 17 8 18 9 19 10 20 11
REMARK SMILES IDX 9 12 8 13 7 14 6 15 5 16 4 17 3 18 2 19 1 20
REMARK H PARENT
REMARK Flexibility Score: inf
ROOT
ATOM      1  C   UNL     1      -8.694 -38.792  44.674  1.00  0.00     0.000 C 
ENDROOT
BRANCH   1   2
ATOM      2  C   UNL     1      -9.395 -37.459  44.355  1.00  0.00     0.000 C 
BRANCH   2   3
ATOM      3  C   UNL     1      -9.881 -36.670  45.585  1.00  0.00     0.000 C 
BRANCH   3   4
ATOM      4  C   UNL     1     -10.709 -35.431  45.212  1.00  0.00     0.000 C 
BRANCH   4   5
ATOM      5  C   UNL     1      -9.840 -34.165  45.234  1.00  0.00     0.000 C 
BRANCH   5   6
ATOM      6  C   UNL     1      -9.218 -33.841  43.863  1.00  0.00     0.000 C 
BRANCH   6   7
ATOM      7  C   UNL     1     -10.233 -33.584  42.730  1.00  0.00     0.006 C 
BRANCH   7   8
ATOM      8  C   UNL     1      -9.637 -33.643  41.315  1.00  0.00     0.053 C 
BRANCH   8   9
ATOM      9  C   UNL     1      -8.446 -32.747  41.171  1.00  0.00     0.041 C 
ATOM     10  O   UNL     1      -8.589 -31.496  41.166  1.00  0.00    -0.550 OA
ATOM     11  O   UNL     1      -7.180 -33.296  41.009  1.00  0.00    -0.550 OA
ENDBRANCH   8   9
ENDBRANCH   7   8
ENDBRANCH   6   7
ENDBRANCH   5   6
ENDBRANCH   4   5
ENDBRANCH   3   4
ENDBRANCH   2   3
ENDBRANCH   1   2
BRANCH   1  12
ATOM     12  C   UNL     1      -9.607 -40.011  44.482  1.00  0.00     0.000 C 
BRANCH  12  13
ATOM     13  C   UNL     1     -10.837 -39.650  43.638  1.00  0.00    -0.000 C 
BRANCH  13  14
ATOM     14  C   UNL     1     -12.118 -40.235  44.253  1.00  0.00    -0.000 C 
BRANCH  14  15
ATOM     15  C   UNL     1     -12.784 -39.281  45.257  1.00  0.00    -0.000 C 
BRANCH  15  16
ATOM     16  C   UNL     1     -12.547 -39.701  46.717  1.00  0.00    -0.000 C 
BRANCH  16  17
ATOM     17  C   UNL     1     -12.124 -38.524  47.616  1.00  0.00    -0.000 C 
BRANCH  17  18
ATOM     18  C   UNL     1     -11.162 -38.889  48.766  1.00  0.00    -0.000 C 
BRANCH  18  19
ATOM     19  C   UNL     1     -10.343 -40.173  48.547  1.00  0.00    -0.003 C 
ATOM     20  C   UNL     1      -8.874 -39.896  48.232  1.00  0.00     0.004 C 
ENDBRANCH  18  19
ENDBRANCH  17  18
ENDBRANCH  16  17
ENDBRANCH  15  16
ENDBRANCH  14  15
ENDBRANCH  13  14
ENDBRANCH  12  13
ENDBRANCH   1  12
TORSDOF 16
ENDMDL
MODEL 2
REMARK VINA RESULT:    -4.738      3.191      7.521
REMARK INTER + INTRA:         -11.334
REMARK INTER:                  -9.480
REMARK INTRA:                  -1.854
REMARK UNBOUND:                -2.165
REMARK SMILES CCCCCCCCCCCCCCCCCC(=O)[O-]
REMARK SMILES IDX 10 1 11 2 12 3 13 4 14 5 15 6 16 7 17 8 18 9 19 10 20 11
REMARK SMILES IDX 9 12 8 13 7 14 6 15 5 16 4 17 3 18 2 19 1 20
REMARK H PARENT
REMARK Flexibility Score: inf
ROOT
ATOM      1  C   UNL     1      -9.785 -36.607  44.785  1.00  0.00     0.000 C 
ENDROOT
BRANCH   1   2
ATOM      2  C   UNL     1      -8.918 -37.845  44.492  1.00  0.00     0.000 C 
BRANCH   2   3
ATOM      3  C   UNL     1      -8.347 -38.547  45.738  1.00  0.00     0.000 C 
BRANCH   3   4
ATOM      4  C   UNL     1      -8.569 -37.749  47.031  1.00  0.00     0.000 C 
BRANCH   4   5
ATOM      5  C   UNL     1      -8.939 -38.682  48.194  1.00  0.00     0.000 C 
BRANCH   5   6
ATOM      6  C   UNL     1      -9.538 -40.020  47.722  1.00  0.00     0.000 C 
BRANCH   6   7
ATOM      7  C   UNL     1     -10.989 -40.281  48.176  1.00  0.00     0.006 C 
BRANCH   7   8
ATOM      8  C   UNL     1     -11.958 -40.641  47.038  1.00  0.00     0.053 C 
BRANCH   8   9
ATOM      9  C   UNL     1     -12.008 -39.575  45.988  1.00  0.00     0.041 C 
ATOM     10  O   UNL     1     -12.385 -38.410  46.283  1.00  0.00    -0.550 OA
ATOM     11  O   UNL     1     -11.669 -39.877  44.675  1.00  0.00    -0.550 OA
ENDBRANCH   8   9
ENDBRANCH   7   8
ENDBRANCH   6   7
ENDBRANCH   5   6
ENDBRANCH   4   5
ENDBRANCH   3   4
ENDBRANCH   2   3
ENDBRANCH   1   2
BRANCH   1  12
ATOM     12  C   UNL     1      -9.494 -35.433  43.839  1.00  0.00     0.000 C 
BRANCH  12  13
ATOM     13  C   UNL     1     -10.337 -34.206  44.209  1.00  0.00    -0.000 C 
BRANCH  13  14
ATOM     14  C   UNL     1     -10.664 -33.368  42.963  1.00  0.00    -0.000 C 
BRANCH  14  15
ATOM     15  C   UNL     1      -9.971 -33.891  41.695  1.00  0.00    -0.000 C 
BRANCH  15  16
ATOM     16  C   UNL     1      -9.016 -32.858  41.076  1.00  0.00    -0.000 C 
BRANCH  16  17
ATOM     17  C   UNL     1      -7.607 -32.898  41.699  1.00  0.00    -0.000 C 
BRANCH  17  18
ATOM     18  C   UNL     1      -7.299 -31.765  42.700  1.00  0.00    -0.000 C 
BRANCH  18  19
ATOM     19  C   UNL     1      -7.237 -32.199  44.174  1.00  0.00    -0.003 C 
ATOM     20  C   UNL     1      -6.019 -31.641  44.909  1.00  0.00     0.004 C 
ENDBRANCH  18  19
ENDBRANCH  17  18
ENDBRANCH  16  17
ENDBRANCH  15  16
ENDBRANCH  14  15
ENDBRANCH  13  14
ENDBRANCH  12  13
ENDBRANCH   1  12
TORSDOF 16
ENDMDL
MODEL 3
REMARK VINA RESULT:    -4.720      4.087      6.759
REMARK INTER + INTRA:         -11.301
REMARK INTER:                  -8.694
REMARK INTRA:                  -2.607
REMARK UNBOUND:                -2.165
REMARK SMILES CCCCCCCCCCCCCCCCCC(=O)[O-]
REMARK SMILES IDX 10 1 11 2 12 3 13 4 14 5 15 6 16 7 17 8 18 9 19 10 20 11
REMARK SMILES IDX 9 12 8 13 7 14 6 15 5 16 4 17 3 18 2 19 1 20
REMARK H PARENT
REMARK Flexibility Score: inf
ROOT
ATOM      1  C   UNL     1     -11.859 -40.879  46.628  1.00  0.00     0.000 C 
ENDROOT
BRANCH   1   2
ATOM      2  C   UNL     1     -12.410 -41.223  45.233  1.00  0.00     0.000 C 
BRANCH   2   3
ATOM      3  C   UNL     1     -12.570 -40.021  44.283  1.00  0.00     0.000 C 
BRANCH   3   4
ATOM      4  C   UNL     1     -11.541 -40.017  43.142  1.00  0.00     0.000 C 
BRANCH   4   5
ATOM      5  C   UNL     1     -10.551 -41.182  43.295  1.00  0.00     0.000 C 
BRANCH   5   6
ATOM      6  C   UNL     1      -9.465 -41.193  42.203  1.00  0.00     0.000 C 
BRANCH   6   7
ATOM      7  C   UNL     1      -8.368 -42.262  42.384  1.00  0.00     0.006 C 
BRANCH   7   8
ATOM      8  C   UNL     1      -7.033 -41.721  42.921  1.00  0.00     0.053 C 
BRANCH   8   9
ATOM      9  C   UNL     1      -6.099 -42.824  43.314  1.00  0.00     0.041 C 
ATOM     10  O   UNL     1      -6.413 -44.026  43.106  1.00  0.00    -0.550 OA
ATOM     11  O   UNL     1      -4.896 -42.525  43.940  1.00  0.00    -0.550 OA
ENDBRANCH   8   9
ENDBRANCH   7   8
ENDBRANCH   6   7
ENDBRANCH   5   6
ENDBRANCH   4   5
ENDBRANCH   3   4
ENDBRANCH   2   3
ENDBRANCH   1   2
BRANCH   1  12
ATOM     12  C   UNL     1     -12.194 -39.446  47.068  1.00  0.00     0.000 C 
BRANCH  12  13
ATOM     13  C   UNL     1     -11.279 -38.994  48.214  1.00  0.00    -0.000 C 
BRANCH  13  14
ATOM     14  C   UNL     1     -10.470 -40.176  48.770  1.00  0.00    -0.000 C 
BRANCH  14  15
ATOM     15  C   UNL     1      -8.956 -40.009  48.564  1.00  0.00    -0.000 C 
BRANCH  15  16
ATOM     16  C   UNL     1      -8.617 -38.911  47.542  1.00  0.00    -0.000 C 
BRANCH  16  17
ATOM     17  C   UNL     1      -8.415 -39.462  46.117  1.00  0.00    -0.000 C 
BRANCH  17  18
ATOM     18  C   UNL     1      -8.788 -38.492  44.978  1.00  0.00    -0.000 C 
BRANCH  18  19
ATOM     19  C   UNL     1      -9.579 -37.247  45.417  1.00  0.00    -0.003 C 
ATOM     20  C   UNL     1     -10.513 -36.721  44.328  1.00  0.00     0.004 C 
ENDBRANCH  18  19
ENDBRANCH  17  18
ENDBRANCH  16  17
ENDBRANCH  15  16
ENDBRANCH  14  15
ENDBRANCH  13  14
ENDBRANCH  12  13
ENDBRANCH   1  12
TORSDOF 16
ENDMDL
MODEL 4
REMARK VINA RESULT:    -4.659      3.041      6.901
REMARK INTER + INTRA:         -11.182
REMARK INTER:                  -9.058
REMARK INTRA:                  -2.124
REMARK UNBOUND:                -2.165
REMARK SMILES CCCCCCCCCCCCCCCCCC(=O)[O-]
REMARK SMILES IDX 10 1 11 2 12 3 13 4 14 5 15 6 16 7 17 8 18 9 19 10 20 11
REMARK SMILES IDX 9 12 8 13 7 14 6 15 5 16 4 17 3 18 2 19 1 20
REMARK H PARENT
REMARK Flexibility Score: inf
ROOT
ATOM      1  C   UNL     1     -10.579 -40.484  43.018  1.00  0.00     0.000 C 
ENDROOT
BRANCH   1   2
ATOM      2  C   UNL     1     -11.234 -41.839  43.340  1.00  0.00     0.000 C 
BRANCH   2   3
ATOM      3  C   UNL     1     -11.924 -41.916  44.715  1.00  0.00     0.000 C 
BRANCH   3   4
ATOM      4  C   UNL     1     -12.844 -40.718  44.992  1.00  0.00     0.000 C 
BRANCH   4   5
ATOM      5  C   UNL     1     -12.661 -40.208  46.429  1.00  0.00     0.000 C 
BRANCH   5   6
ATOM      6  C   UNL     1     -11.253 -40.481  46.988  1.00  0.00     0.000 C 
BRANCH   6   7
ATOM      7  C   UNL     1     -11.000 -39.944  48.412  1.00  0.00     0.006 C 
BRANCH   7   8
ATOM      8  C   UNL     1     -10.235 -38.612  48.464  1.00  0.00     0.053 C 
BRANCH   8   9
ATOM      9  C   UNL     1      -8.786 -38.784  48.125  1.00  0.00     0.041 C 
ATOM     10  O   UNL     1      -8.166 -39.815  48.496  1.00  0.00    -0.550 OA
ATOM     11  O   UNL     1      -8.114 -37.789  47.426  1.00  0.00    -0.550 OA
ENDBRANCH   8   9
ENDBRANCH   7   8
ENDBRANCH   6   7
ENDBRANCH   5   6
ENDBRANCH   4   5
ENDBRANCH   3   4
ENDBRANCH   2   3
ENDBRANCH   1   2
BRANCH   1  12
ATOM     12  C   UNL     1      -9.235 -40.283  43.732  1.00  0.00     0.000 C 
BRANCH  12  13
ATOM     13  C   UNL     1      -9.136 -38.874  44.331  1.00  0.00    -0.000 C 
BRANCH  13  14
ATOM     14  C   UNL     1     -10.466 -38.119  44.187  1.00  0.00    -0.000 C 
BRANCH  14  15
ATOM     15  C   UNL     1     -10.499 -36.812  44.994  1.00  0.00    -0.000 C 
BRANCH  15  16
ATOM     16  C   UNL     1      -9.784 -35.657  44.274  1.00  0.00    -0.000 C 
BRANCH  16  17
ATOM     17  C   UNL     1     -10.580 -34.338  44.325  1.00  0.00    -0.000 C 
BRANCH  17  18
ATOM     18  C   UNL     1     -10.533 -33.493  43.035  1.00  0.00    -0.000 C 
BRANCH  18  19
ATOM     19  C   UNL     1      -9.553 -33.998  41.962  1.00  0.00    -0.003 C 
ATOM     20  C   UNL     1      -9.706 -33.270  40.627  1.00  0.00     0.004 C 
ENDBRANCH  18  19
ENDBRANCH  17  18
ENDBRANCH  16  17
ENDBRANCH  15  16
ENDBRANCH  14  15
ENDBRANCH  13  14
ENDBRANCH  12  13
ENDBRANCH   1  12
TORSDOF 16
ENDMDL
MODEL 5
REMARK VINA RESULT:    -4.653      1.158      3.051
REMARK INTER + INTRA:         -11.170
REMARK INTER:                  -9.173
REMARK INTRA:                  -1.997
REMARK UNBOUND:                -2.165
REMARK SMILES CCCCCCCCCCCCCCCCCC(=O)[O-]
REMARK SMILES IDX 10 1 11 2 12 3 13 4 14 5 15 6 16 7 17 8 18 9 19 10 20 11
REMARK SMILES IDX 9 12 8 13 7 14 6 15 5 16 4 17 3 18 2 19 1 20
REMARK H PARENT
REMARK Flexibility Score: inf
ROOT
ATOM      1  C   UNL     1      -8.388 -38.133  47.873  1.00  0.00     0.000 C 
ENDROOT
BRANCH   1   2
ATOM      2  C   UNL     1      -8.960 -37.013  46.988  1.00  0.00     0.000 C 
BRANCH   2   3
ATOM      3  C   UNL     1      -9.680 -37.495  45.714  1.00  0.00     0.000 C 
BRANCH   3   4
ATOM      4  C   UNL     1     -10.649 -36.450  45.141  1.00  0.00     0.000 C 
BRANCH   4   5
ATOM      5  C   UNL     1      -9.890 -35.195  44.680  1.00  0.00     0.000 C 
BRANCH   5   6
ATOM      6  C   UNL     1      -9.919 -35.005  43.152  1.00  0.00     0.000 C 
BRANCH   6   7
ATOM      7  C   UNL     1     -10.282 -33.582  42.679  1.00  0.00     0.006 C 
BRANCH   7   8
ATOM      8  C   UNL     1      -9.420 -33.057  41.519  1.00  0.00     0.053 C 
BRANCH   8   9
ATOM      9  C   UNL     1      -7.969 -32.994  41.884  1.00  0.00     0.041 C 
ATOM     10  O   UNL     1      -7.104 -33.532  41.144  1.00  0.00    -0.550 OA
ATOM     11  O   UNL     1      -7.576 -32.367  43.060  1.00  0.00    -0.550 OA
ENDBRANCH   8   9
ENDBRANCH   7   8
ENDBRANCH   6   7
ENDBRANCH   5   6
ENDBRANCH   4   5
ENDBRANCH   3   4
ENDBRANCH   2   3
ENDBRANCH   1   2
BRANCH   1  12
ATOM     12  C   UNL     1      -8.872 -39.531  47.460  1.00  0.00     0.000 C 
BRANCH  12  13
ATOM     13  C   UNL     1      -9.827 -40.115  48.509  1.00  0.00    -0.000 C 
BRANCH  13  14
ATOM     14  C   UNL     1     -11.292 -39.851  48.126  1.00  0.00    -0.000 C 
BRANCH  14  15
ATOM     15  C   UNL     1     -11.685 -40.505  46.792  1.00  0.00    -0.000 C 
BRANCH  15  16
ATOM     16  C   UNL     1     -12.715 -39.674  46.009  1.00  0.00    -0.000 C 
BRANCH  16  17
ATOM     17  C   UNL     1     -12.890 -40.156  44.556  1.00  0.00    -0.000 C 
BRANCH  17  18
ATOM     18  C   UNL     1     -11.912 -39.538  43.537  1.00  0.00    -0.000 C 
BRANCH  18  19
ATOM     19  C   UNL     1     -10.867 -40.513  42.965  1.00  0.00    -0.003 C 
ATOM     20  C   UNL     1      -9.531 -40.456  43.703  1.00  0.00     0.004 C 
ENDBRANCH  18  19
ENDBRANCH  17  18
ENDBRANCH  16  17
ENDBRANCH  15  16
ENDBRANCH  14  15
ENDBRANCH  13  14
ENDBRANCH  12  13
ENDBRANCH   1  12
TORSDOF 16
ENDMDL
MODEL 6
REMARK VINA RESULT:    -4.638      3.266      5.704
REMARK INTER + INTRA:         -11.142
REMARK INTER:                  -9.467
REMARK INTRA:                  -1.676
REMARK UNBOUND:                -2.165
REMARK SMILES CCCCCCCCCCCCCCCCCC(=O)[O-]
REMARK SMILES IDX 10 1 11 2 12 3 13 4 14 5 15 6 16 7 17 8 18 9 19 10 20 11
REMARK SMILES IDX 9 12 8 13 7 14 6 15 5 16 4 17 3 18 2 19 1 20
REMARK H PARENT
REMARK Flexibility Score: inf
ROOT
ATOM      1  C   UNL     1      -9.506 -33.267  40.863  1.00  0.00     0.000 C 
ENDROOT
BRANCH   1   2
ATOM      2  C   UNL     1      -8.079 -32.722  41.048  1.00  0.00     0.000 C 
BRANCH   2   3
ATOM      3  C   UNL     1      -7.997 -31.227  41.410  1.00  0.00     0.000 C 
BRANCH   3   4
ATOM      4  C   UNL     1      -7.249 -30.970  42.727  1.00  0.00     0.000 C 
BRANCH   4   5
ATOM      5  C   UNL     1      -7.157 -32.255  43.564  1.00  0.00     0.000 C 
BRANCH   5   6
ATOM      6  C   UNL     1      -7.148 -31.983  45.080  1.00  0.00     0.000 C 
BRANCH   6   7
ATOM      7  C   UNL     1      -5.774 -31.596  45.665  1.00  0.00     0.006 C 
BRANCH   7   8
ATOM      8  C   UNL     1      -5.718 -30.192  46.286  1.00  0.00     0.053 C 
BRANCH   8   9
ATOM      9  C   UNL     1      -4.892 -29.249  45.465  1.00  0.00     0.041 C 
ATOM     10  O   UNL     1      -4.092 -29.694  44.601  1.00  0.00    -0.550 OA
ATOM     11  O   UNL     1      -4.983 -27.880  45.680  1.00  0.00    -0.550 OA
ENDBRANCH   8   9
ENDBRANCH   7   8
ENDBRANCH   6   7
ENDBRANCH   5   6
ENDBRANCH   4   5
ENDBRANCH   3   4
ENDBRANCH   2   3
ENDBRANCH   1   2
BRANCH   1  12
ATOM     12  C   UNL     1      -9.922 -34.248  41.969  1.00  0.00     0.000 C 
BRANCH  12  13
ATOM     13  C   UNL     1     -10.656 -33.520  43.103  1.00  0.00    -0.000 C 
BRANCH  13  14
ATOM     14  C   UNL     1     -10.267 -34.100  44.471  1.00  0.00    -0.000 C 
BRANCH  14  15
ATOM     15  C   UNL     1      -9.720 -35.533  44.376  1.00  0.00    -0.000 C 
BRANCH  15  16
ATOM     16  C   UNL     1     -10.669 -36.570  44.999  1.00  0.00    -0.000 C 
BRANCH  16  17
ATOM     17  C   UNL     1     -11.028 -37.711  44.028  1.00  0.00    -0.000 C 
BRANCH  17  18
ATOM     18  C   UNL     1     -10.402 -39.080  44.363  1.00  0.00    -0.000 C 
BRANCH  18  19
ATOM     19  C   UNL     1      -8.875 -39.156  44.193  1.00  0.00    -0.003 C 
ATOM     20  C   UNL     1      -8.420 -40.413  43.453  1.00  0.00     0.004 C 
ENDBRANCH  18  19
ENDBRANCH  17  18
ENDBRANCH  16  17
ENDBRANCH  15  16
ENDBRANCH  14  15
ENDBRANCH  13  14
ENDBRANCH  12  13
ENDBRANCH   1  12
TORSDOF 16
ENDMDL
MODEL 7
REMARK VINA RESULT:    -4.622      3.090      7.100
REMARK INTER + INTRA:         -11.110
REMARK INTER:                  -9.175
REMARK INTRA:                  -1.936
REMARK UNBOUND:                -2.165
REMARK SMILES CCCCCCCCCCCCCCCCCC(=O)[O-]
REMARK SMILES IDX 10 1 11 2 12 3 13 4 14 5 15 6 16 7 17 8 18 9 19 10 20 11
REMARK SMILES IDX 9 12 8 13 7 14 6 15 5 16 4 17 3 18 2 19 1 20
REMARK H PARENT
REMARK Flexibility Score: inf
ROOT
ATOM      1  C   UNL     1      -9.645 -36.632  46.602  1.00  0.00     0.000 C 
ENDROOT
BRANCH   1   2
ATOM      2  C   UNL     1      -9.840 -37.510  47.852  1.00  0.00     0.000 C 
BRANCH   2   3
ATOM      3  C   UNL     1      -8.749 -38.574  48.074  1.00  0.00     0.000 C 
BRANCH   3   4
ATOM      4  C   UNL     1      -9.222 -39.996  47.739  1.00  0.00     0.000 C 
BRANCH   4   5
ATOM      5  C   UNL     1     -10.680 -39.988  47.253  1.00  0.00     0.000 C 
BRANCH   5   6
ATOM      6  C   UNL     1     -10.874 -40.747  45.928  1.00  0.00     0.000 C 
BRANCH   6   7
ATOM      7  C   UNL     1     -10.747 -39.884  44.656  1.00  0.00     0.006 C 
BRANCH   7   8
ATOM      8  C   UNL     1      -9.304 -39.668  44.173  1.00  0.00     0.053 C 
BRANCH   8   9
ATOM      9  C   UNL     1      -8.914 -40.656  43.117  1.00  0.00     0.041 C 
ATOM     10  O   UNL     1      -7.716 -41.027  43.006  1.00  0.00    -0.550 OA
ATOM     11  O   UNL     1      -9.871 -41.142  42.234  1.00  0.00    -0.550 OA
ENDBRANCH   8   9
ENDBRANCH   7   8
ENDBRANCH   6   7
ENDBRANCH   5   6
ENDBRANCH   4   5
ENDBRANCH   3   4
ENDBRANCH   2   3
ENDBRANCH   1   2
BRANCH   1  12
ATOM     12  C   UNL     1     -10.946 -36.409  45.818  1.00  0.00     0.000 C 
BRANCH  12  13
ATOM     13  C   UNL     1     -10.662 -36.224  44.321  1.00  0.00    -0.000 C 
BRANCH  13  14
ATOM     14  C   UNL     1      -9.374 -35.415  44.102  1.00  0.00    -0.000 C 
BRANCH  14  15
ATOM     15  C   UNL     1      -9.607 -33.897  44.166  1.00  0.00    -0.000 C 
BRANCH  15  16
ATOM     16  C   UNL     1     -10.516 -33.391  43.035  1.00  0.00    -0.000 C 
BRANCH  16  17
ATOM     17  C   UNL     1     -10.134 -33.968  41.658  1.00  0.00    -0.000 C 
BRANCH  17  18
ATOM     18  C   UNL     1      -9.434 -32.979  40.704  1.00  0.00    -0.000 C 
BRANCH  18  19
ATOM     19  C   UNL     1      -8.059 -32.479  41.179  1.00  0.00    -0.003 C 
ATOM     20  C   UNL     1      -6.992 -33.574  41.173  1.00  0.00     0.004 C 
ENDBRANCH  18  19
ENDBRANCH  17  18
ENDBRANCH  16  17
ENDBRANCH  15  16
ENDBRANCH  14  15
ENDBRANCH  13  14
ENDBRANCH  12  13
ENDBRANCH   1  12
TORSDOF 16
ENDMDL
MODEL 8
REMARK VINA RESULT:    -4.618      4.007      6.189
REMARK INTER + INTRA:         -11.102
REMARK INTER:                  -8.419
REMARK INTRA:                  -2.683
REMARK UNBOUND:                -2.165
REMARK SMILES CCCCCCCCCCCCCCCCCC(=O)[O-]
REMARK SMILES IDX 10 1 11 2 12 3 13 4 14 5 15 6 16 7 17 8 18 9 19 10 20 11
REMARK SMILES IDX 9 12 8 13 7 14 6 15 5 16 4 17 3 18 2 19 1 20
REMARK H PARENT
REMARK Flexibility Score: inf
ROOT
ATOM      1  C   UNL     1     -12.796 -39.823  46.574  1.00  0.00     0.000 C 
ENDROOT
BRANCH   1   2
ATOM      2  C   UNL     1     -12.339 -41.280  46.381  1.00  0.00     0.000 C 
BRANCH   2   3
ATOM      3  C   UNL     1     -11.430 -41.520  45.161  1.00  0.00     0.000 C 
BRANCH   3   4
ATOM      4  C   UNL     1     -12.184 -42.106  43.958  1.00  0.00     0.000 C 
BRANCH   4   5
ATOM      5  C   UNL     1     -11.658 -41.515  42.641  1.00  0.00     0.000 C 
BRANCH   5   6
ATOM      6  C   UNL     1     -10.229 -40.955  42.764  1.00  0.00     0.000 C 
BRANCH   6   7
ATOM      7  C   UNL     1      -9.183 -41.632  41.855  1.00  0.00     0.006 C 
BRANCH   7   8
ATOM      8  C   UNL     1      -7.761 -41.064  41.986  1.00  0.00     0.053 C 
BRANCH   8   9
ATOM      9  C   UNL     1      -6.889 -41.928  42.844  1.00  0.00     0.041 C 
ATOM     10  O   UNL     1      -6.349 -41.456  43.878  1.00  0.00    -0.550 OA
ATOM     11  O   UNL     1      -6.649 -43.248  42.481  1.00  0.00    -0.550 OA
ENDBRANCH   8   9
ENDBRANCH   7   8
ENDBRANCH   6   7
ENDBRANCH   5   6
ENDBRANCH   4   5
ENDBRANCH   3   4
ENDBRANCH   2   3
ENDBRANCH   1   2
BRANCH   1  12
ATOM     12  C   UNL     1     -12.580 -38.956  45.324  1.00  0.00     0.000 C 
BRANCH  12  13
ATOM     13  C   UNL     1     -11.598 -37.812  45.610  1.00  0.00    -0.000 C 
BRANCH  13  14
ATOM     14  C   UNL     1     -10.557 -37.688  44.488  1.00  0.00    -0.000 C 
BRANCH  14  15
ATOM     15  C   UNL     1      -9.142 -37.405  45.018  1.00  0.00    -0.000 C 
BRANCH  15  16
ATOM     16  C   UNL     1      -8.219 -38.631  44.920  1.00  0.00    -0.000 C 
BRANCH  16  17
ATOM     17  C   UNL     1      -8.506 -39.683  46.009  1.00  0.00    -0.000 C 
BRANCH  17  18
ATOM     18  C   UNL     1      -8.678 -39.121  47.436  1.00  0.00    -0.000 C 
BRANCH  18  19
ATOM     19  C   UNL     1      -8.751 -40.182  48.548  1.00  0.00    -0.003 C 
ATOM     20  C   UNL     1     -10.122 -40.246  49.220  1.00  0.00     0.004 C 
ENDBRANCH  18  19
ENDBRANCH  17  18
ENDBRANCH  16  17
ENDBRANCH  15  16
ENDBRANCH  14  15
ENDBRANCH  13  14
ENDBRANCH  12  13
ENDBRANCH   1  12
TORSDOF 16
ENDMDL
MODEL 9
REMARK VINA RESULT:    -4.596      2.950      6.820
REMARK INTER + INTRA:         -11.060
REMARK INTER:                  -9.190
REMARK INTRA:                  -1.870
REMARK UNBOUND:                -2.165
REMARK SMILES CCCCCCCCCCCCCCCCCC(=O)[O-]
REMARK SMILES IDX 10 1 11 2 12 3 13 4 14 5 15 6 16 7 17 8 18 9 19 10 20 11
REMARK SMILES IDX 9 12 8 13 7 14 6 15 5 16 4 17 3 18 2 19 1 20
REMARK H PARENT
REMARK Flexibility Score: inf
ROOT
ATOM      1  C   UNL     1      -8.685 -38.638  47.785  1.00  0.00     0.000 C 
ENDROOT
BRANCH   1   2
ATOM      2  C   UNL     1      -9.468 -39.961  47.709  1.00  0.00     0.000 C 
BRANCH   2   3
ATOM      3  C   UNL     1     -10.984 -39.833  47.947  1.00  0.00     0.000 C 
BRANCH   3   4
ATOM      4  C   UNL     1     -11.812 -40.770  47.056  1.00  0.00     0.000 C 
BRANCH   4   5
ATOM      5  C   UNL     1     -11.926 -40.210  45.630  1.00  0.00     0.000 C 
BRANCH   5   6
ATOM      6  C   UNL     1     -11.136 -41.035  44.597  1.00  0.00     0.000 C 
BRANCH   6   7
ATOM      7  C   UNL     1     -10.359 -40.204  43.555  1.00  0.00     0.006 C 
BRANCH   7   8
ATOM      8  C   UNL     1      -8.881 -40.597  43.399  1.00  0.00     0.053 C 
BRANCH   8   9
ATOM      9  C   UNL     1      -8.580 -41.106  42.023  1.00  0.00     0.041 C 
ATOM     10  O   UNL     1      -9.442 -41.769  41.389  1.00  0.00    -0.550 OA
ATOM     11  O   UNL     1      -7.332 -40.876  41.456  1.00  0.00    -0.550 OA
ENDBRANCH   8   9
ENDBRANCH   7   8
ENDBRANCH   6   7
ENDBRANCH   5   6
ENDBRANCH   4   5
ENDBRANCH   3   4
ENDBRANCH   2   3
ENDBRANCH   1   2
BRANCH   1  12
ATOM     12  C   UNL     1      -8.651 -37.883  46.448  1.00  0.00     0.000 C 
BRANCH  12  13
ATOM     13  C   UNL     1      -9.661 -36.728  46.443  1.00  0.00    -0.000 C 
BRANCH  13  14
ATOM     14  C   UNL     1     -10.652 -36.869  45.277  1.00  0.00    -0.000 C 
BRANCH  14  15
ATOM     15  C   UNL     1     -10.306 -35.959  44.089  1.00  0.00    -0.000 C 
BRANCH  15  16
ATOM     16  C   UNL     1     -10.534 -34.471  44.399  1.00  0.00    -0.000 C 
BRANCH  16  17
ATOM     17  C   UNL     1     -10.206 -33.554  43.205  1.00  0.00    -0.000 C 
BRANCH  17  18
ATOM     18  C   UNL     1      -8.712 -33.472  42.832  1.00  0.00    -0.000 C 
BRANCH  18  19
ATOM     19  C   UNL     1      -8.425 -33.280  41.332  1.00  0.00    -0.003 C 
ATOM     20  C   UNL     1      -9.695 -33.229  40.484  1.00  0.00     0.004 C 
ENDBRANCH  18  19
ENDBRANCH  17  18
ENDBRANCH  16  17
ENDBRANCH  15  16
ENDBRANCH  14  15
ENDBRANCH  13  14
ENDBRANCH  12  13
ENDBRANCH   1  12
TORSDOF 16
ENDMDL
