MODEL 1
REMARK VINA RESULT:    -4.257      0.000      0.000
REMARK INTER + INTRA:          -4.257
REMARK INTER:                  -4.257
REMARK INTRA:                   0.000
REMARK UNBOUND:                 0.000
REMARK SMILES CC1=CC(=O)[C@H]2C[C@@H]1C2(C)C
REMARK SMILES IDX 1 1 2 2 3 3 4 4 5 5 6 6 7 7 8 8 9 9 10 10 11 11
REMARK H PARENT
REMARK Flexibility Score: inf
ROOT
ATOM      1  C   UNL     1      25.104  28.701  27.282  1.00  0.00     0.040 C 
ATOM      2  C   UNL     1      26.197  28.699  26.263  1.00  0.00    -0.066 C 
ATOM      3  C   UNL     1      27.126  27.704  26.221  1.00  0.00     0.047 C 
ATOM      4  C   UNL     1      28.189  27.831  25.172  1.00  0.00     0.159 C 
ATOM      5  O   UNL     1      29.125  26.997  25.058  1.00  0.00    -0.295 OA
ATOM      6  C   UNL     1      28.057  29.045  24.252  1.00  0.00     0.067 C 
ATOM      7  C   UNL     1      26.563  29.066  23.865  1.00  0.00     0.021 C 
ATOM      8  C   UNL     1      26.318  29.810  25.197  1.00  0.00     0.022 C 
ATOM      9  C   UNL     1      27.793  30.304  25.128  1.00  0.00    -0.019 C 
ATOM     10  C   UNL     1      27.936  31.622  24.325  1.00  0.00     0.012 C 
ATOM     11  C   UNL     1      28.579  30.456  26.460  1.00  0.00     0.012 C 
ENDROOT
TORSDOF 0
ENDMDL
MODEL 2
REMARK VINA RESULT:    -3.950      1.778      3.601
REMARK INTER + INTRA:          -3.950
REMARK INTER:                  -3.950
REMARK INTRA:                   0.000
REMARK UNBOUND:                 0.000
REMARK SMILES CC1=CC(=O)[C@H]2C[C@@H]1C2(C)C
REMARK SMILES IDX 1 1 2 2 3 3 4 4 5 5 6 6 7 7 8 8 9 9 10 10 11 11
REMARK H PARENT
REMARK Flexibility Score: inf
ROOT
ATOM      1  C   UNL     1      28.771  29.492  22.701  1.00  0.00     0.040 C 
ATOM      2  C   UNL     1      28.331  29.500  24.131  1.00  0.00    -0.066 C 
ATOM      3  C   UNL     1      28.899  30.337  25.042  1.00  0.00     0.047 C 
ATOM      4  C   UNL     1      28.393  30.229  26.449  1.00  0.00     0.159 C 
ATOM      5  O   UNL     1      28.865  30.920  27.389  1.00  0.00    -0.295 OA
ATOM      6  C   UNL     1      27.264  29.219  26.661  1.00  0.00     0.067 C 
ATOM      7  C   UNL     1      26.291  29.488  25.493  1.00  0.00     0.021 C 
ATOM      8  C   UNL     1      27.202  28.577  24.640  1.00  0.00     0.022 C 
ATOM      9  C   UNL     1      27.653  27.886  25.960  1.00  0.00    -0.019 C 
ATOM     10  C   UNL     1      26.721  26.715  26.360  1.00  0.00     0.012 C 
ATOM     11  C   UNL     1      29.125  27.397  26.067  1.00  0.00     0.012 C 
ENDROOT
TORSDOF 0
ENDMDL
MODEL 3
REMARK VINA RESULT:    -3.804      9.076     10.210
REMARK INTER + INTRA:          -3.804
REMARK INTER:                  -3.804
REMARK INTRA:                   0.000
REMARK UNBOUND:                 0.000
REMARK SMILES CC1=CC(=O)[C@H]2C[C@@H]1C2(C)C
REMARK SMILES IDX 1 1 2 2 3 3 4 4 5 5 6 6 7 7 8 8 9 9 10 10 11 11
REMARK H PARENT
REMARK Flexibility Score: inf
ROOT
ATOM      1  C   UNL     1      29.044  35.512  19.384  1.00  0.00     0.040 C 
ATOM      2  C   UNL     1      27.697  36.108  19.639  1.00  0.00    -0.066 C 
ATOM      3  C   UNL     1      26.576  35.600  19.057  1.00  0.00     0.047 C 
ATOM      4  C   UNL     1      25.289  36.304  19.367  1.00  0.00     0.159 C 
ATOM      5  O   UNL     1      24.191  35.954  18.859  1.00  0.00    -0.295 OA
ATOM      6  C   UNL     1      25.404  37.477  20.342  1.00  0.00     0.067 C 
ATOM      7  C   UNL     1      26.301  36.938  21.477  1.00  0.00     0.021 C 
ATOM      8  C   UNL     1      27.506  37.313  20.586  1.00  0.00     0.022 C 
ATOM      9  C   UNL     1      26.596  38.373  19.899  1.00  0.00    -0.019 C 
ATOM     10  C   UNL     1      26.617  39.735  20.638  1.00  0.00     0.012 C 
ATOM     11  C   UNL     1      26.797  38.639  18.381  1.00  0.00     0.012 C 
ENDROOT
TORSDOF 0
ENDMDL
MODEL 4
REMARK VINA RESULT:    -3.734      8.490     10.339
REMARK INTER + INTRA:          -3.734
REMARK INTER:                  -3.734
REMARK INTRA:                   0.000
REMARK UNBOUND:                 0.000
REMARK SMILES CC1=CC(=O)[C@H]2C[C@@H]1C2(C)C
REMARK SMILES IDX 1 1 2 2 3 3 4 4 5 5 6 6 7 7 8 8 9 9 10 10 11 11
REMARK H PARENT
REMARK Flexibility Score: inf
ROOT
ATOM      1  C   UNL     1      27.639  40.096  21.261  1.00  0.00     0.040 C 
ATOM      2  C   UNL     1      26.893  38.919  20.718  1.00  0.00    -0.066 C 
ATOM      3  C   UNL     1      25.624  38.637  21.123  1.00  0.00     0.047 C 
ATOM      4  C   UNL     1      24.995  37.412  20.529  1.00  0.00     0.159 C 
ATOM      5  O   UNL     1      23.842  37.024  20.852  1.00  0.00    -0.295 OA
ATOM      6  C   UNL     1      25.853  36.668  19.505  1.00  0.00     0.067 C 
ATOM      7  C   UNL     1      26.412  37.784  18.597  1.00  0.00     0.021 C 
ATOM      8  C   UNL     1      27.515  37.979  19.663  1.00  0.00     0.022 C 
ATOM      9  C   UNL     1      27.285  36.499  20.088  1.00  0.00    -0.019 C 
ATOM     10  C   UNL     1      28.145  35.508  19.263  1.00  0.00     0.012 C 
ATOM     11  C   UNL     1      27.432  36.136  21.592  1.00  0.00     0.012 C 
ENDROOT
TORSDOF 0
ENDMDL
MODEL 5
REMARK VINA RESULT:    -3.625      8.150     10.310
REMARK INTER + INTRA:          -3.625
REMARK INTER:                  -3.625
REMARK INTRA:                   0.000
REMARK UNBOUND:                 0.000
REMARK SMILES CC1=CC(=O)[C@H]2C[C@@H]1C2(C)C
REMARK SMILES IDX 1 1 2 2 3 3 4 4 5 5 6 6 7 7 8 8 9 9 10 10 11 11
REMARK H PARENT
REMARK Flexibility Score: inf
ROOT
ATOM      1  C   UNL     1      27.667  35.511  22.027  1.00  0.00     0.040 C 
ATOM      2  C   UNL     1      26.851  36.675  21.562  1.00  0.00    -0.066 C 
ATOM      3  C   UNL     1      25.559  36.838  21.960  1.00  0.00     0.047 C 
ATOM      4  C   UNL     1      24.837  38.027  21.400  1.00  0.00     0.159 C 
ATOM      5  O   UNL     1      23.629  38.265  21.661  1.00  0.00    -0.295 OA
ATOM      6  C   UNL     1      25.672  38.929  20.490  1.00  0.00     0.067 C 
ATOM      7  C   UNL     1      27.005  39.103  21.248  1.00  0.00     0.021 C 
ATOM      8  C   UNL     1      27.435  37.755  20.626  1.00  0.00     0.022 C 
ATOM      9  C   UNL     1      26.432  38.035  19.469  1.00  0.00    -0.019 C 
ATOM     10  C   UNL     1      27.069  38.860  18.322  1.00  0.00     0.012 C 
ATOM     11  C   UNL     1      25.680  36.827  18.841  1.00  0.00     0.012 C 
ENDROOT
TORSDOF 0
ENDMDL
MODEL 6
REMARK VINA RESULT:    -3.619      8.959     10.307
REMARK INTER + INTRA:          -3.619
REMARK INTER:                  -3.619
REMARK INTRA:                   0.000
REMARK UNBOUND:                 0.000
REMARK SMILES CC1=CC(=O)[C@H]2C[C@@H]1C2(C)C
REMARK SMILES IDX 1 1 2 2 3 3 4 4 5 5 6 6 7 7 8 8 9 9 10 10 11 11
REMARK H PARENT
REMARK Flexibility Score: inf
ROOT
ATOM      1  C   UNL     1      28.691  35.086  19.374  1.00  0.00     0.040 C 
ATOM      2  C   UNL     1      27.937  36.354  19.616  1.00  0.00    -0.066 C 
ATOM      3  C   UNL     1      28.569  37.486  20.034  1.00  0.00     0.047 C 
ATOM      4  C   UNL     1      27.699  38.683  20.271  1.00  0.00     0.159 C 
ATOM      5  O   UNL     1      28.159  39.775  20.696  1.00  0.00    -0.295 OA
ATOM      6  C   UNL     1      26.215  38.484  19.963  1.00  0.00     0.067 C 
ATOM      7  C   UNL     1      26.205  37.762  18.598  1.00  0.00     0.021 C 
ATOM      8  C   UNL     1      26.413  36.450  19.388  1.00  0.00     0.022 C 
ATOM      9  C   UNL     1      25.749  37.149  20.611  1.00  0.00    -0.019 C 
ATOM     10  C   UNL     1      24.207  36.999  20.610  1.00  0.00     0.012 C 
ATOM     11  C   UNL     1      26.272  36.795  22.032  1.00  0.00     0.012 C 
ENDROOT
TORSDOF 0
ENDMDL
MODEL 7
REMARK VINA RESULT:    -3.582      1.282      3.428
REMARK INTER + INTRA:          -3.582
REMARK INTER:                  -3.582
REMARK INTRA:                   0.000
REMARK UNBOUND:                 0.000
REMARK SMILES CC1=CC(=O)[C@H]2C[C@@H]1C2(C)C
REMARK SMILES IDX 1 1 2 2 3 3 4 4 5 5 6 6 7 7 8 8 9 9 10 10 11 11
REMARK H PARENT
REMARK Flexibility Score: inf
ROOT
ATOM      1  C   UNL     1      28.004  32.896  24.244  1.00  0.00     0.040 C 
ATOM      2  C   UNL     1      28.192  31.414  24.311  1.00  0.00    -0.066 C 
ATOM      3  C   UNL     1      28.640  30.708  23.236  1.00  0.00     0.047 C 
ATOM      4  C   UNL     1      28.757  29.224  23.419  1.00  0.00     0.159 C 
ATOM      5  O   UNL     1      29.122  28.459  22.488  1.00  0.00    -0.295 OA
ATOM      6  C   UNL     1      28.403  28.708  24.814  1.00  0.00     0.067 C 
ATOM      7  C   UNL     1      29.125  29.679  25.772  1.00  0.00     0.021 C 
ATOM      8  C   UNL     1      27.908  30.615  25.601  1.00  0.00     0.022 C 
ATOM      9  C   UNL     1      27.060  29.356  25.255  1.00  0.00    -0.019 C 
ATOM     10  C   UNL     1      26.465  28.681  26.517  1.00  0.00     0.012 C 
ATOM     11  C   UNL     1      25.927  29.502  24.201  1.00  0.00     0.012 C 
ENDROOT
TORSDOF 0
ENDMDL
MODEL 8
REMARK VINA RESULT:    -3.576      8.724      9.816
REMARK INTER + INTRA:          -3.576
REMARK INTER:                  -3.576
REMARK INTRA:                   0.000
REMARK UNBOUND:                 0.000
REMARK SMILES CC1=CC(=O)[C@H]2C[C@@H]1C2(C)C
REMARK SMILES IDX 1 1 2 2 3 3 4 4 5 5 6 6 7 7 8 8 9 9 10 10 11 11
REMARK H PARENT
REMARK Flexibility Score: inf
ROOT
ATOM      1  C   UNL     1      24.334  35.835  18.688  1.00  0.00     0.040 C 
ATOM      2  C   UNL     1      25.676  36.342  19.112  1.00  0.00    -0.066 C 
ATOM      3  C   UNL     1      26.755  35.515  19.184  1.00  0.00     0.047 C 
ATOM      4  C   UNL     1      28.037  36.136  19.651  1.00  0.00     0.159 C 
ATOM      5  O   UNL     1      29.094  35.468  19.797  1.00  0.00    -0.295 OA
ATOM      6  C   UNL     1      27.970  37.636  19.939  1.00  0.00     0.067 C 
ATOM      7  C   UNL     1      27.207  38.219  18.730  1.00  0.00     0.021 C 
ATOM      8  C   UNL     1      25.909  37.826  19.469  1.00  0.00     0.022 C 
ATOM      9  C   UNL     1      26.707  37.919  20.802  1.00  0.00    -0.019 C 
ATOM     10  C   UNL     1      26.704  39.352  21.392  1.00  0.00     0.012 C 
ATOM     11  C   UNL     1      26.352  36.922  21.941  1.00  0.00     0.012 C 
ENDROOT
TORSDOF 0
ENDMDL
MODEL 9
REMARK VINA RESULT:    -3.553      1.808      3.009
REMARK INTER + INTRA:          -3.553
REMARK INTER:                  -3.553
REMARK INTRA:                   0.000
REMARK UNBOUND:                 0.000
REMARK SMILES CC1=CC(=O)[C@H]2C[C@@H]1C2(C)C
REMARK SMILES IDX 1 1 2 2 3 3 4 4 5 5 6 6 7 7 8 8 9 9 10 10 11 11
REMARK H PARENT
REMARK Flexibility Score: inf
ROOT
ATOM      1  C   UNL     1      28.993  26.205  26.341  1.00  0.00     0.040 C 
ATOM      2  C   UNL     1      28.676  27.659  26.195  1.00  0.00    -0.066 C 
ATOM      3  C   UNL     1      29.118  28.575  27.100  1.00  0.00     0.047 C 
ATOM      4  C   UNL     1      28.708  29.997  26.860  1.00  0.00     0.159 C 
ATOM      5  O   UNL     1      29.020  30.929  27.646  1.00  0.00    -0.295 OA
ATOM      6  C   UNL     1      27.884  30.234  25.593  1.00  0.00     0.067 C 
ATOM      7  C   UNL     1      28.627  29.434  24.503  1.00  0.00     0.021 C 
ATOM      8  C   UNL     1      27.852  28.196  25.005  1.00  0.00     0.022 C 
ATOM      9  C   UNL     1      26.755  29.167  25.531  1.00  0.00    -0.019 C 
ATOM     10  C   UNL     1      25.692  29.495  24.451  1.00  0.00     0.012 C 
ATOM     11  C   UNL     1      26.015  28.795  26.846  1.00  0.00     0.012 C 
ENDROOT
TORSDOF 0
ENDMDL
