MODEL 1
REMARK VINA RESULT:    -4.114      0.000      0.000
REMARK INTER + INTRA:          -6.429
REMARK INTER:                  -6.278
REMARK INTRA:                  -0.151
REMARK UNBOUND:                -0.151
REMARK SMILES CC1=CCC[C@H](C)C(=O)C[C@H](C(C)C)C(=O)C1
REMARK SMILES IDX 8 1 9 2 6 3 7 4 5 5 4 6 3 7 2 8 1 9 10 11 11 12 15 13 16 14
REMARK SMILES IDX 17 15 12 17 13 18 14 19
REMARK H PARENT
REMARK Flexibility Score: 70.00
ROOT
ATOM      1  C   UNL     1      -1.211 -23.600  -9.153  1.00  0.00     0.136 C 
ATOM      2  O   UNL     1      -1.311 -24.571  -8.418  1.00  0.00    -0.299 OA
ENDROOT
BRANCH   1   3
ATOM      3  C   UNL     1      -2.357 -22.607  -9.227  1.00  0.00     0.053 C 
ATOM      4  C   UNL     1      -1.865 -21.312  -9.884  1.00  0.00     0.016 C 
BRANCH   3   5
ATOM      5  C   UNL     1      -3.571 -23.167  -9.999  1.00  0.00     0.015 C 
BRANCH   5   6
ATOM      6  C   UNL     1      -3.225 -24.222 -11.063  1.00  0.00     0.028 C 
BRANCH   6   7
ATOM      7  C   UNL     1      -3.301 -23.714 -12.485  1.00  0.00    -0.028 C 
ATOM      8  C   UNL     1      -2.334 -23.088 -13.207  1.00  0.00    -0.070 CG0
ATOM      9  C   UNL     1      -2.732 -22.585 -14.575  1.00  0.00     0.039 C 
ATOM     10  G   UNL     1      -0.872 -22.939 -12.800  1.00  0.00     0.000 G0
ENDBRANCH   6   7
ENDBRANCH   5   6
ENDBRANCH   3   5
ENDBRANCH   1   3
BRANCH   1  11
ATOM     11  C   UNL     1      -0.002 -23.463 -10.051  1.00  0.00     0.087 C 
BRANCH  11  12
ATOM     12  C   UNL     1       0.209 -24.606 -11.088  1.00  0.00     0.066 C 
BRANCH  12  13
ATOM     13  C   UNL     1      -0.088 -24.189 -12.529  1.00  0.00     0.140 C 
ATOM     14  O   UNL     1       0.172 -24.933 -13.465  1.00  0.00    -0.299 OA
BRANCH  13  15
ATOM     15  C   UNL     1      -0.863 -22.925 -12.795  1.00  0.00     0.106 CG0
ATOM     16  G   UNL     1      -2.320 -23.109 -13.207  1.00  0.00     0.000 G0
ENDBRANCH  13  15
ENDBRANCH  12  13
BRANCH  12  17
ATOM     17  C   UNL     1       1.535 -25.407 -10.866  1.00  0.00    -0.006 C 
ATOM     18  C   UNL     1       1.396 -26.626  -9.940  1.00  0.00     0.008 C 
ATOM     19  C   UNL     1       2.691 -24.501 -10.405  1.00  0.00     0.008 C 
ENDBRANCH  12  17
ENDBRANCH  11  12
ENDBRANCH   1  11
TORSDOF 1
ENDMDL
MODEL 2
REMARK VINA RESULT:    -3.873      2.972      5.621
REMARK INTER + INTRA:          -6.061
REMARK INTER:                  -5.958
REMARK INTRA:                  -0.102
REMARK UNBOUND:                -0.151
REMARK SMILES CC1=CCC[C@H](C)C(=O)C[C@H](C(C)C)C(=O)C1
REMARK SMILES IDX 8 1 9 2 6 3 7 4 5 5 4 6 3 7 2 8 1 9 10 11 11 12 15 13 16 14
REMARK SMILES IDX 17 15 12 17 13 18 14 19
REMARK H PARENT
REMARK Flexibility Score: 70.00
ROOT
ATOM      1  C   UNL     1       3.618 -25.584 -10.311  1.00  0.00     0.136 C 
ATOM      2  O   UNL     1       4.296 -24.573 -10.416  1.00  0.00    -0.299 OA
ENDROOT
BRANCH   1   3
ATOM      3  C   UNL     1       4.226 -26.925 -10.682  1.00  0.00     0.053 C 
ATOM      4  C   UNL     1       5.699 -26.949 -10.255  1.00  0.00     0.016 C 
BRANCH   3   5
ATOM      5  C   UNL     1       3.468 -28.109 -10.047  1.00  0.00     0.015 C 
BRANCH   5   6
ATOM      6  C   UNL     1       2.223 -28.568 -10.826  1.00  0.00     0.028 C 
BRANCH   6   7
ATOM      7  C   UNL     1       2.365 -28.475 -12.328  1.00  0.00    -0.028 C 
ATOM      8  C   UNL     1       1.684 -27.673 -13.189  1.00  0.00    -0.070 CG0
ATOM      9  C   UNL     1       1.956 -27.879 -14.661  1.00  0.00     0.039 C 
ATOM     10  G   UNL     1       0.754 -26.530 -12.798  1.00  0.00     0.000 G0
ENDBRANCH   6   7
ENDBRANCH   5   6
ENDBRANCH   3   5
ENDBRANCH   1   3
BRANCH   1  11
ATOM     11  C   UNL     1       2.162 -25.471  -9.920  1.00  0.00     0.087 C 
BRANCH  11  12
ATOM     12  C   UNL     1       1.236 -24.747 -10.944  1.00  0.00     0.066 C 
BRANCH  12  13
ATOM     13  C   UNL     1       1.407 -25.240 -12.381  1.00  0.00     0.140 C 
ATOM     14  O   UNL     1       2.179 -24.684 -13.148  1.00  0.00    -0.299 OA
BRANCH  13  15
ATOM     15  C   UNL     1       0.750 -26.525 -12.811  1.00  0.00     0.106 CG0
ATOM     16  G   UNL     1       1.692 -27.664 -13.189  1.00  0.00     0.000 G0
ENDBRANCH  13  15
ENDBRANCH  12  13
BRANCH  12  17
ATOM     17  C   UNL     1      -0.239 -24.592 -10.444  1.00  0.00    -0.006 C 
ATOM     18  C   UNL     1      -0.902 -23.257 -10.819  1.00  0.00     0.008 C 
ATOM     19  C   UNL     1      -0.372 -24.862  -8.933  1.00  0.00     0.008 C 
ENDBRANCH  12  17
ENDBRANCH  11  12
ENDBRANCH   1  11
TORSDOF 1
ENDMDL
MODEL 3
REMARK VINA RESULT:    -3.738      2.458      5.935
REMARK INTER + INTRA:          -5.855
REMARK INTER:                  -5.889
REMARK INTRA:                   0.034
REMARK UNBOUND:                -0.151
REMARK SMILES CC1=CCC[C@H](C)C(=O)C[C@H](C(C)C)C(=O)C1
REMARK SMILES IDX 8 1 9 2 6 3 7 4 5 5 4 6 3 7 2 8 1 9 10 11 11 12 15 13 16 14
REMARK SMILES IDX 17 15 12 17 13 18 14 19
REMARK H PARENT
REMARK Flexibility Score: 70.00
ROOT
ATOM      1  C   UNL     1       1.316 -26.542 -13.168  1.00  0.00     0.136 C 
ATOM      2  O   UNL     1       1.535 -26.829 -14.335  1.00  0.00    -0.299 OA
ENDROOT
BRANCH   1   3
ATOM      3  C   UNL     1       1.305 -27.645 -12.124  1.00  0.00     0.053 C 
ATOM      4  C   UNL     1       0.445 -28.810 -12.625  1.00  0.00     0.016 C 
BRANCH   3   5
ATOM      5  C   UNL     1       2.726 -28.141 -11.780  1.00  0.00     0.015 C 
BRANCH   5   6
ATOM      6  C   UNL     1       3.230 -27.730 -10.385  1.00  0.00     0.028 C 
BRANCH   6   7
ATOM      7  C   UNL     1       3.740 -26.309 -10.306  1.00  0.00    -0.028 C 
ATOM      8  C   UNL     1       3.038 -25.178 -10.031  1.00  0.00    -0.070 CG0
ATOM      9  C   UNL     1       3.793 -23.873 -10.133  1.00  0.00     0.039 C 
ATOM     10  G   UNL     1       1.596 -25.121  -9.537  1.00  0.00     0.000 G0
ENDBRANCH   6   7
ENDBRANCH   5   6
ENDBRANCH   3   5
ENDBRANCH   1   3
BRANCH   1  11
ATOM     11  C   UNL     1       0.954 -25.120 -12.803  1.00  0.00     0.087 C 
BRANCH  11  12
ATOM     12  C   UNL     1      -0.024 -24.954 -11.601  1.00  0.00     0.066 C 
BRANCH  12  13
ATOM     13  C   UNL     1       0.621 -24.319 -10.369  1.00  0.00     0.140 C 
ATOM     14  O   UNL     1       0.266 -23.218  -9.971  1.00  0.00    -0.299 OA
BRANCH  13  15
ATOM     15  C   UNL     1       1.581 -25.122  -9.533  1.00  0.00     0.106 CG0
ATOM     16  G   UNL     1       3.018 -25.187 -10.042  1.00  0.00     0.000 G0
ENDBRANCH  13  15
ENDBRANCH  12  13
BRANCH  12  17
ATOM     17  C   UNL     1      -1.422 -24.383 -12.014  1.00  0.00    -0.006 C 
ATOM     18  C   UNL     1      -1.363 -23.079 -12.827  1.00  0.00     0.008 C 
ATOM     19  C   UNL     1      -2.367 -24.231 -10.808  1.00  0.00     0.008 C 
ENDBRANCH  12  17
ENDBRANCH  11  12
ENDBRANCH   1  11
TORSDOF 1
ENDMDL
MODEL 4
REMARK VINA RESULT:    -3.689      3.500      6.775
REMARK INTER + INTRA:          -5.781
REMARK INTER:                  -5.546
REMARK INTRA:                  -0.234
REMARK UNBOUND:                -0.151
REMARK SMILES CC1=CCC[C@H](C)C(=O)C[C@H](C(C)C)C(=O)C1
REMARK SMILES IDX 8 1 9 2 6 3 7 4 5 5 4 6 3 7 2 8 1 9 10 11 11 12 15 13 16 14
REMARK SMILES IDX 17 15 12 17 13 18 14 19
REMARK H PARENT
REMARK Flexibility Score: 70.00
ROOT
ATOM      1  C   UNL     1       1.578 -26.795 -13.304  1.00  0.00     0.136 C 
ATOM      2  O   UNL     1       1.487 -26.936 -14.514  1.00  0.00    -0.299 OA
ENDROOT
BRANCH   1   3
ATOM      3  C   UNL     1       1.830 -28.014 -12.434  1.00  0.00     0.053 C 
ATOM      4  C   UNL     1       0.779 -29.086 -12.746  1.00  0.00     0.016 C 
BRANCH   3   5
ATOM      5  C   UNL     1       3.250 -28.588 -12.624  1.00  0.00     0.015 C 
BRANCH   5   6
ATOM      6  C   UNL     1       3.984 -28.936 -11.318  1.00  0.00     0.028 C 
BRANCH   6   7
ATOM      7  C   UNL     1       5.094 -27.975 -10.958  1.00  0.00    -0.028 C 
ATOM      8  C   UNL     1       4.989 -26.730 -10.423  1.00  0.00    -0.070 CG0
ATOM      9  C   UNL     1       6.272 -25.947 -10.275  1.00  0.00     0.039 C 
ATOM     10  G   UNL     1       3.712 -26.100  -9.875  1.00  0.00     0.000 G0
ENDBRANCH   6   7
ENDBRANCH   5   6
ENDBRANCH   3   5
ENDBRANCH   1   3
BRANCH   1  11
ATOM     11  C   UNL     1       1.333 -25.436 -12.688  1.00  0.00     0.087 C 
BRANCH  11  12
ATOM     12  C   UNL     1       1.554 -25.336 -11.148  1.00  0.00     0.066 C 
BRANCH  12  13
ATOM     13  C   UNL     1       3.014 -25.111 -10.751  1.00  0.00     0.140 C 
ATOM     14  O   UNL     1       3.586 -24.067 -11.028  1.00  0.00    -0.299 OA
BRANCH  13  15
ATOM     15  C   UNL     1       3.707 -26.110  -9.864  1.00  0.00     0.106 CG0
ATOM     16  G   UNL     1       4.993 -26.717 -10.417  1.00  0.00     0.000 G0
ENDBRANCH  13  15
ENDBRANCH  12  13
BRANCH  12  17
ATOM     17  C   UNL     1       0.501 -24.430 -10.429  1.00  0.00    -0.006 C 
ATOM     18  C   UNL     1      -0.101 -25.042  -9.153  1.00  0.00     0.008 C 
ATOM     19  C   UNL     1      -0.611 -23.960 -11.385  1.00  0.00     0.008 C 
ENDBRANCH  12  17
ENDBRANCH  11  12
ENDBRANCH   1  11
TORSDOF 1
ENDMDL
MODEL 5
REMARK VINA RESULT:    -3.469      7.709      9.851
REMARK INTER + INTRA:          -5.445
REMARK INTER:                  -5.523
REMARK INTRA:                   0.079
REMARK UNBOUND:                -0.151
REMARK SMILES CC1=CCC[C@H](C)C(=O)C[C@H](C(C)C)C(=O)C1
REMARK SMILES IDX 8 1 9 2 6 3 7 4 5 5 4 6 3 7 2 8 1 9 10 11 11 12 15 13 16 14
REMARK SMILES IDX 17 15 12 17 13 18 14 19
REMARK H PARENT
REMARK Flexibility Score: 70.00
ROOT
ATOM      1  C   UNL     1       5.454 -26.745 -10.563  1.00  0.00     0.136 C 
ATOM      2  O   UNL     1       4.555 -25.922 -10.641  1.00  0.00    -0.299 OA
ENDROOT
BRANCH   1   3
ATOM      3  C   UNL     1       5.113 -28.223 -10.625  1.00  0.00     0.053 C 
ATOM      4  C   UNL     1       3.663 -28.429 -10.172  1.00  0.00     0.016 C 
BRANCH   3   5
ATOM      5  C   UNL     1       5.319 -28.814 -12.036  1.00  0.00     0.015 C 
BRANCH   5   6
ATOM      6  C   UNL     1       6.363 -29.942 -12.115  1.00  0.00     0.028 C 
BRANCH   6   7
ATOM      7  C   UNL     1       7.131 -29.984 -13.416  1.00  0.00    -0.028 C 
ATOM      8  C   UNL     1       8.224 -29.259 -13.771  1.00  0.00    -0.070 CG0
ATOM      9  C   UNL     1       8.716 -29.428 -15.190  1.00  0.00     0.039 C 
ATOM     10  G   UNL     1       9.048 -28.373 -12.841  1.00  0.00     0.000 G0
ENDBRANCH   6   7
ENDBRANCH   5   6
ENDBRANCH   3   5
ENDBRANCH   1   3
BRANCH   1  11
ATOM     11  C   UNL     1       6.870 -26.282 -10.298  1.00  0.00     0.087 C 
BRANCH  11  12
ATOM     12  C   UNL     1       7.998 -27.272 -10.716  1.00  0.00     0.066 C 
BRANCH  12  13
ATOM     13  C   UNL     1       8.344 -27.216 -12.205  1.00  0.00     0.140 C 
ATOM     14  O   UNL     1       8.166 -26.194 -12.852  1.00  0.00    -0.299 OA
BRANCH  13  15
ATOM     15  C   UNL     1       9.066 -28.371 -12.846  1.00  0.00     0.106 CG0
ATOM     16  G   UNL     1       8.228 -29.257 -13.762  1.00  0.00     0.000 G0
ENDBRANCH  13  15
ENDBRANCH  12  13
BRANCH  12  17
ATOM     17  C   UNL     1       9.214 -27.277  -9.731  1.00  0.00    -0.006 C 
ATOM     18  C   UNL     1       9.624 -28.672  -9.231  1.00  0.00     0.008 C 
ATOM     19  C   UNL     1       9.007 -26.314  -8.547  1.00  0.00     0.008 C 
ENDBRANCH  12  17
ENDBRANCH  11  12
ENDBRANCH   1  11
TORSDOF 1
ENDMDL
MODEL 6
REMARK VINA RESULT:    -3.405      1.863      4.794
REMARK INTER + INTRA:          -5.346
REMARK INTER:                  -5.867
REMARK INTRA:                   0.520
REMARK UNBOUND:                -0.151
REMARK SMILES CC1=CCC[C@H](C)C(=O)C[C@H](C(C)C)C(=O)C1
REMARK SMILES IDX 8 1 9 2 6 3 7 4 5 5 4 6 3 7 2 8 1 9 10 11 11 12 15 13 16 14
REMARK SMILES IDX 17 15 12 17 13 18 14 19
REMARK H PARENT
REMARK Flexibility Score: 70.00
ROOT
ATOM      1  C   UNL     1       0.166 -24.590 -12.244  1.00  0.00     0.136 C 
ATOM      2  O   UNL     1       0.511 -24.873 -13.381  1.00  0.00    -0.299 OA
ENDROOT
BRANCH   1   3
ATOM      3  C   UNL     1       0.546 -25.517 -11.103  1.00  0.00     0.053 C 
ATOM      4  C   UNL     1       1.813 -26.293 -11.481  1.00  0.00     0.016 C 
BRANCH   3   5
ATOM      5  C   UNL     1       0.761 -24.758  -9.777  1.00  0.00     0.015 C 
BRANCH   5   6
ATOM      6  C   UNL     1      -0.378 -24.913  -8.755  1.00  0.00     0.028 C 
BRANCH   6   7
ATOM      7  C   UNL     1      -1.305 -23.721  -8.677  1.00  0.00    -0.028 C 
ATOM      8  C   UNL     1      -2.378 -23.438  -9.462  1.00  0.00    -0.070 CG0
ATOM      9  C   UNL     1      -3.056 -22.108  -9.226  1.00  0.00     0.039 C 
ATOM     10  G   UNL     1      -3.010 -24.379 -10.483  1.00  0.00     0.000 G0
ENDBRANCH   6   7
ENDBRANCH   5   6
ENDBRANCH   3   5
ENDBRANCH   1   3
BRANCH   1  11
ATOM     11  C   UNL     1      -0.719 -23.386 -12.008  1.00  0.00     0.087 C 
BRANCH  11  12
ATOM     12  C   UNL     1      -2.090 -23.394 -12.749  1.00  0.00     0.066 C 
BRANCH  12  13
ATOM     13  C   UNL     1      -3.267 -23.789 -11.856  1.00  0.00     0.140 C 
ATOM     14  O   UNL     1      -4.413 -23.770 -12.283  1.00  0.00    -0.299 OA
BRANCH  13  15
ATOM     15  C   UNL     1      -3.005 -24.370 -10.492  1.00  0.00     0.106 CG0
ATOM     16  G   UNL     1      -2.368 -23.428  -9.475  1.00  0.00     0.000 G0
ENDBRANCH  13  15
ENDBRANCH  12  13
BRANCH  12  17
ATOM     17  C   UNL     1      -2.310 -22.139 -13.657  1.00  0.00    -0.006 C 
ATOM     18  C   UNL     1      -2.813 -20.892 -12.912  1.00  0.00     0.008 C 
ATOM     19  C   UNL     1      -3.209 -22.449 -14.869  1.00  0.00     0.008 C 
ENDBRANCH  12  17
ENDBRANCH  11  12
ENDBRANCH   1  11
TORSDOF 1
ENDMDL
MODEL 7
REMARK VINA RESULT:    -3.363      6.614      9.641
REMARK INTER + INTRA:          -5.283
REMARK INTER:                  -5.052
REMARK INTRA:                  -0.230
REMARK UNBOUND:                -0.151
REMARK SMILES CC1=CCC[C@H](C)C(=O)C[C@H](C(C)C)C(=O)C1
REMARK SMILES IDX 8 1 9 2 6 3 7 4 5 5 4 6 3 7 2 8 1 9 10 11 11 12 15 13 16 14
REMARK SMILES IDX 17 15 12 17 13 18 14 19
REMARK H PARENT
REMARK Flexibility Score: 70.00
ROOT
ATOM      1  C   UNL     1       6.843 -25.953 -10.272  1.00  0.00     0.136 C 
ATOM      2  O   UNL     1       6.207 -24.938 -10.515  1.00  0.00    -0.299 OA
ENDROOT
BRANCH   1   3
ATOM      3  C   UNL     1       8.360 -25.908 -10.334  1.00  0.00     0.053 C 
ATOM      4  C   UNL     1       8.926 -25.914  -8.910  1.00  0.00     0.016 C 
BRANCH   3   5
ATOM      5  C   UNL     1       8.949 -27.080 -11.147  1.00  0.00     0.015 C 
BRANCH   5   6
ATOM      6  C   UNL     1       8.836 -26.925 -12.673  1.00  0.00     0.028 C 
BRANCH   6   7
ATOM      7  C   UNL     1       8.858 -28.233 -13.431  1.00  0.00    -0.028 C 
ATOM      8  C   UNL     1       7.825 -29.085 -13.667  1.00  0.00    -0.070 CG0
ATOM      9  C   UNL     1       8.166 -30.384 -14.359  1.00  0.00     0.039 C 
ATOM     10  G   UNL     1       6.353 -28.804 -13.384  1.00  0.00     0.000 G0
ENDBRANCH   6   7
ENDBRANCH   5   6
ENDBRANCH   3   5
ENDBRANCH   1   3
BRANCH   1  11
ATOM     11  C   UNL     1       6.112 -27.252 -10.020  1.00  0.00     0.087 C 
BRANCH  11  12
ATOM     12  C   UNL     1       5.264 -27.797 -11.208  1.00  0.00     0.066 C 
BRANCH  12  13
ATOM     13  C   UNL     1       5.913 -28.975 -11.936  1.00  0.00     0.140 C 
ATOM     14  O   UNL     1       5.966 -30.081 -11.418  1.00  0.00    -0.299 OA
BRANCH  13  15
ATOM     15  C   UNL     1       6.343 -28.819 -13.371  1.00  0.00     0.106 CG0
ATOM     16  G   UNL     1       7.818 -29.079 -13.659  1.00  0.00     0.000 G0
ENDBRANCH  13  15
ENDBRANCH  12  13
BRANCH  12  17
ATOM     17  C   UNL     1       3.746 -27.958 -10.864  1.00  0.00    -0.006 C 
ATOM     18  C   UNL     1       2.978 -28.911 -11.794  1.00  0.00     0.008 C 
ATOM     19  C   UNL     1       3.026 -26.600 -10.760  1.00  0.00     0.008 C 
ENDBRANCH  12  17
ENDBRANCH  11  12
ENDBRANCH   1  11
TORSDOF 1
ENDMDL
MODEL 8
REMARK VINA RESULT:    -3.264      1.563      3.761
REMARK INTER + INTRA:          -5.132
REMARK INTER:                  -6.033
REMARK INTRA:                   0.901
REMARK UNBOUND:                -0.151
REMARK SMILES CC1=CCC[C@H](C)C(=O)C[C@H](C(C)C)C(=O)C1
REMARK SMILES IDX 8 1 9 2 6 3 7 4 5 5 4 6 3 7 2 8 1 9 10 11 11 12 15 13 16 14
REMARK SMILES IDX 17 15 12 17 13 18 14 19
REMARK H PARENT
REMARK Flexibility Score: 70.00
ROOT
ATOM      1  C   UNL     1       0.536 -25.226  -9.640  1.00  0.00     0.136 C 
ATOM      2  O   UNL     1       0.945 -26.322  -9.289  1.00  0.00    -0.299 OA
ENDROOT
BRANCH   1   3
ATOM      3  C   UNL     1       1.397 -24.373 -10.554  1.00  0.00     0.053 C 
ATOM      4  C   UNL     1       2.854 -24.432 -10.079  1.00  0.00     0.016 C 
BRANCH   3   5
ATOM      5  C   UNL     1       1.301 -24.811 -12.030  1.00  0.00     0.015 C 
BRANCH   5   6
ATOM      6  C   UNL     1      -0.134 -24.944 -12.569  1.00  0.00     0.028 C 
BRANCH   6   7
ATOM      7  C   UNL     1      -0.774 -23.629 -12.955  1.00  0.00    -0.028 C 
ATOM      8  C   UNL     1      -2.072 -23.251 -12.812  1.00  0.00    -0.070 CG0
ATOM      9  C   UNL     1      -2.454 -21.912 -13.396  1.00  0.00     0.039 C 
ATOM     10  G   UNL     1      -3.142 -24.011 -12.034  1.00  0.00     0.000 G0
ENDBRANCH   6   7
ENDBRANCH   5   6
ENDBRANCH   3   5
ENDBRANCH   1   3
BRANCH   1  11
ATOM     11  C   UNL     1      -0.764 -24.697  -9.077  1.00  0.00     0.087 C 
BRANCH  11  12
ATOM     12  C   UNL     1      -1.530 -23.678  -9.973  1.00  0.00     0.066 C 
BRANCH  12  13
ATOM     13  C   UNL     1      -2.826 -24.233 -10.564  1.00  0.00     0.140 C 
ATOM     14  O   UNL     1      -3.679 -24.736  -9.846  1.00  0.00    -0.299 OA
BRANCH  13  15
ATOM     15  C   UNL     1      -3.137 -24.010 -12.021  1.00  0.00     0.106 CG0
ATOM     16  G   UNL     1      -2.082 -23.251 -12.821  1.00  0.00     0.000 G0
ENDBRANCH  13  15
ENDBRANCH  12  13
BRANCH  12  17
ATOM     17  C   UNL     1      -1.621 -22.247  -9.346  1.00  0.00    -0.006 C 
ATOM     18  C   UNL     1      -3.054 -21.739  -9.123  1.00  0.00     0.008 C 
ATOM     19  C   UNL     1      -0.793 -21.213 -10.133  1.00  0.00     0.008 C 
ENDBRANCH  12  17
ENDBRANCH  11  12
ENDBRANCH   1  11
TORSDOF 1
ENDMDL
MODEL 9
REMARK VINA RESULT:    -3.169      1.689      3.664
REMARK INTER + INTRA:          -4.987
REMARK INTER:                  -5.186
REMARK INTRA:                   0.199
REMARK UNBOUND:                -0.151
REMARK SMILES CC1=CCC[C@H](C)C(=O)C[C@H](C(C)C)C(=O)C1
REMARK SMILES IDX 8 1 9 2 6 3 7 4 5 5 4 6 3 7 2 8 1 9 10 11 11 12 15 13 16 14
REMARK SMILES IDX 17 15 12 17 13 18 14 19
REMARK H PARENT
REMARK Flexibility Score: 70.00
ROOT
ATOM      1  C   UNL     1      -1.389 -23.039 -13.237  1.00  0.00     0.136 C 
ATOM      2  O   UNL     1      -0.386 -22.385 -13.479  1.00  0.00    -0.299 OA
ENDROOT
BRANCH   1   3
ATOM      3  C   UNL     1      -2.729 -22.562 -13.768  1.00  0.00     0.053 C 
ATOM      4  C   UNL     1      -3.830 -23.521 -13.302  1.00  0.00     0.016 C 
BRANCH   3   5
ATOM      5  C   UNL     1      -3.057 -21.120 -13.325  1.00  0.00     0.015 C 
BRANCH   5   6
ATOM      6  C   UNL     1      -2.736 -20.811 -11.853  1.00  0.00     0.028 C 
BRANCH   6   7
ATOM      7  C   UNL     1      -3.512 -21.650 -10.862  1.00  0.00    -0.028 C 
ATOM      8  C   UNL     1      -3.026 -22.486  -9.906  1.00  0.00    -0.070 CG0
ATOM      9  C   UNL     1      -4.044 -23.289  -9.131  1.00  0.00     0.039 C 
ATOM     10  G   UNL     1      -1.565 -22.608  -9.487  1.00  0.00     0.000 G0
ENDBRANCH   6   7
ENDBRANCH   5   6
ENDBRANCH   3   5
ENDBRANCH   1   3
BRANCH   1  11
ATOM     11  C   UNL     1      -1.295 -24.246 -12.330  1.00  0.00     0.087 C 
BRANCH  11  12
ATOM     12  C   UNL     1      -0.259 -24.146 -11.171  1.00  0.00     0.066 C 
BRANCH  12  13
ATOM     13  C   UNL     1      -0.895 -23.931  -9.797  1.00  0.00     0.140 C 
ATOM     14  O   UNL     1      -0.750 -24.751  -8.902  1.00  0.00    -0.299 OA
BRANCH  13  15
ATOM     15  C   UNL     1      -1.566 -22.619  -9.484  1.00  0.00     0.106 CG0
ATOM     16  G   UNL     1      -3.026 -22.497  -9.908  1.00  0.00     0.000 G0
ENDBRANCH  13  15
ENDBRANCH  12  13
BRANCH  12  17
ATOM     17  C   UNL     1       0.860 -25.237 -11.244  1.00  0.00    -0.006 C 
ATOM     18  C   UNL     1       2.203 -24.817 -10.625  1.00  0.00     0.008 C 
ATOM     19  C   UNL     1       1.062 -25.768 -12.676  1.00  0.00     0.008 C 
ENDBRANCH  12  17
ENDBRANCH  11  12
ENDBRANCH   1  11
TORSDOF 1
ENDMDL
