MODEL 1
REMARK VINA RESULT:    -6.030      0.000      0.000
REMARK INTER + INTRA:          -8.184
REMARK INTER:                  -7.440
REMARK INTRA:                  -0.744
REMARK UNBOUND:                -0.744
REMARK SMILES CC(C)=CCC[C@@H](C)c1ccc(C)cc1
REMARK SMILES IDX 6 1 7 2 8 3 9 4 13 5 12 6 11 7 14 8 10 9 15 10 5 11 4 12
REMARK SMILES IDX 2 13 1 14 3 15
REMARK H PARENT
REMARK Flexibility Score: inf
ROOT
ATOM      1  C   UNL     1       4.799  -7.009  27.556  1.00  0.00     0.012 C 
ENDROOT
BRANCH   1   2
ATOM      2  C   UNL     1       5.672  -5.803  27.139  1.00  0.00     0.016 C 
ATOM      3  C   UNL     1       7.020  -5.777  27.878  1.00  0.00     0.013 C 
BRANCH   2   4
ATOM      4  C   UNL     1       5.898  -5.808  25.637  1.00  0.00    -0.045 A 
ATOM      5  C   UNL     1       6.502  -5.809  21.360  1.00  0.00     0.044 C 
ATOM      6  C   UNL     1       6.301  -5.837  22.845  1.00  0.00    -0.051 A 
ATOM      7  C   UNL     1       5.045  -6.155  23.383  1.00  0.00     0.004 A 
ATOM      8  C   UNL     1       7.348  -5.481  23.707  1.00  0.00     0.004 A 
ATOM      9  C   UNL     1       4.847  -6.147  24.767  1.00  0.00     0.004 A 
ATOM     10  C   UNL     1       7.152  -5.472  25.091  1.00  0.00     0.004 A 
ENDBRANCH   2   4
ENDBRANCH   1   2
BRANCH   1  11
ATOM     11  C   UNL     1       3.365  -6.599  27.926  1.00  0.00     0.028 C 
BRANCH  11  12
ATOM     12  C   UNL     1       3.358  -5.264  28.630  1.00  0.00    -0.028 C 
ATOM     13  C   UNL     1       2.361  -4.357  28.539  1.00  0.00    -0.080 C 
ATOM     14  C   UNL     1       1.103  -4.626  27.746  1.00  0.00     0.039 C 
ATOM     15  C   UNL     1       2.512  -3.048  29.269  1.00  0.00     0.039 C 
ENDBRANCH  11  12
ENDBRANCH   1  11
TORSDOF 4
ENDMDL
MODEL 2
REMARK VINA RESULT:    -6.005      4.854      8.107
REMARK INTER + INTRA:          -8.153
REMARK INTER:                  -7.439
REMARK INTRA:                  -0.713
REMARK UNBOUND:                -0.744
REMARK SMILES CC(C)=CCC[C@@H](C)c1ccc(C)cc1
REMARK SMILES IDX 6 1 7 2 8 3 9 4 13 5 12 6 11 7 14 8 10 9 15 10 5 11 4 12
REMARK SMILES IDX 2 13 1 14 3 15
REMARK H PARENT
REMARK Flexibility Score: inf
ROOT
ATOM      1  C   UNL     1       8.954  -5.628  22.529  1.00  0.00     0.012 C 
ENDROOT
BRANCH   1   2
ATOM      2  C   UNL     1       8.217  -6.590  21.570  1.00  0.00     0.016 C 
ATOM      3  C   UNL     1       8.168  -8.028  22.112  1.00  0.00     0.013 C 
BRANCH   2   4
ATOM      4  C   UNL     1       6.813  -6.086  21.291  1.00  0.00    -0.045 A 
ATOM      5  C   UNL     1       2.820  -4.624  20.528  1.00  0.00     0.044 C 
ATOM      6  C   UNL     1       4.195  -5.159  20.794  1.00  0.00    -0.051 A 
ATOM      7  C   UNL     1       4.685  -5.228  22.107  1.00  0.00     0.004 A 
ATOM      8  C   UNL     1       5.027  -5.532  19.729  1.00  0.00     0.004 A 
ATOM      9  C   UNL     1       5.980  -5.693  22.353  1.00  0.00     0.004 A 
ATOM     10  C   UNL     1       6.322  -5.997  19.974  1.00  0.00     0.004 A 
ENDBRANCH   2   4
ENDBRANCH   1   2
BRANCH   1  11
ATOM     11  C   UNL     1      10.122  -4.895  21.850  1.00  0.00     0.028 C 
BRANCH  11  12
ATOM     12  C   UNL     1      10.678  -5.720  20.715  1.00  0.00    -0.028 C 
ATOM     13  C   UNL     1      11.987  -5.779  20.383  1.00  0.00    -0.080 C 
ATOM     14  C   UNL     1      13.048  -5.048  21.173  1.00  0.00     0.039 C 
ATOM     15  C   UNL     1      12.389  -6.617  19.198  1.00  0.00     0.039 C 
ENDBRANCH  11  12
ENDBRANCH   1  11
TORSDOF 4
ENDMDL
MODEL 3
REMARK VINA RESULT:    -5.977      4.847      8.114
REMARK INTER + INTRA:          -8.119
REMARK INTER:                  -7.406
REMARK INTRA:                  -0.713
REMARK UNBOUND:                -0.744
REMARK SMILES CC(C)=CCC[C@@H](C)c1ccc(C)cc1
REMARK SMILES IDX 6 1 7 2 8 3 9 4 13 5 12 6 11 7 14 8 10 9 15 10 5 11 4 12
REMARK SMILES IDX 2 13 1 14 3 15
REMARK H PARENT
REMARK Flexibility Score: inf
ROOT
ATOM      1  C   UNL     1       9.025  -5.638  22.563  1.00  0.00     0.012 C 
ENDROOT
BRANCH   1   2
ATOM      2  C   UNL     1       8.291  -6.610  21.611  1.00  0.00     0.016 C 
ATOM      3  C   UNL     1       8.251  -8.044  22.162  1.00  0.00     0.013 C 
BRANCH   2   4
ATOM      4  C   UNL     1       6.883  -6.115  21.332  1.00  0.00    -0.045 A 
ATOM      5  C   UNL     1       2.874  -4.732  20.510  1.00  0.00     0.044 C 
ATOM      6  C   UNL     1       4.275  -5.184  20.794  1.00  0.00    -0.051 A 
ATOM      7  C   UNL     1       5.116  -5.582  19.744  1.00  0.00     0.004 A 
ATOM      8  C   UNL     1       4.734  -5.275  22.115  1.00  0.00     0.004 A 
ATOM      9  C   UNL     1       6.411  -6.038  20.011  1.00  0.00     0.004 A 
ATOM     10  C   UNL     1       6.028  -5.731  22.384  1.00  0.00     0.004 A 
ENDBRANCH   2   4
ENDBRANCH   1   2
BRANCH   1  11
ATOM     11  C   UNL     1      10.185  -4.901  21.875  1.00  0.00     0.028 C 
BRANCH  11  12
ATOM     12  C   UNL     1      10.734  -5.722  20.734  1.00  0.00    -0.028 C 
ATOM     13  C   UNL     1      12.037  -5.758  20.376  1.00  0.00    -0.080 C 
ATOM     14  C   UNL     1      13.099  -5.002  21.140  1.00  0.00     0.039 C 
ATOM     15  C   UNL     1      12.432  -6.595  19.188  1.00  0.00     0.039 C 
ENDBRANCH  11  12
ENDBRANCH   1  11
TORSDOF 4
ENDMDL
MODEL 4
REMARK VINA RESULT:    -5.898      3.983      6.861
REMARK INTER + INTRA:          -8.021
REMARK INTER:                  -7.069
REMARK INTRA:                  -0.952
REMARK UNBOUND:                -0.744
REMARK SMILES CC(C)=CCC[C@@H](C)c1ccc(C)cc1
REMARK SMILES IDX 6 1 7 2 8 3 9 4 13 5 12 6 11 7 14 8 10 9 15 10 5 11 4 12
REMARK SMILES IDX 2 13 1 14 3 15
REMARK H PARENT
REMARK Flexibility Score: inf
ROOT
ATOM      1  C   UNL     1       5.826  -6.334  20.025  1.00  0.00     0.012 C 
ENDROOT
BRANCH   1   2
ATOM      2  C   UNL     1       4.500  -6.992  19.580  1.00  0.00     0.016 C 
ATOM      3  C   UNL     1       4.286  -8.369  20.229  1.00  0.00     0.013 C 
BRANCH   2   4
ATOM      4  C   UNL     1       3.327  -6.078  19.890  1.00  0.00    -0.045 A 
ATOM      5  C   UNL     1      -0.028  -3.509  20.785  1.00  0.00     0.044 C 
ATOM      6  C   UNL     1       1.136  -4.390  20.446  1.00  0.00    -0.051 A 
ATOM      7  C   UNL     1       0.924  -5.707  20.012  1.00  0.00     0.004 A 
ATOM      8  C   UNL     1       2.448  -3.928  20.625  1.00  0.00     0.004 A 
ATOM      9  C   UNL     1       2.010  -6.541  19.730  1.00  0.00     0.004 A 
ATOM     10  C   UNL     1       3.535  -4.761  20.344  1.00  0.00     0.004 A 
ENDBRANCH   2   4
ENDBRANCH   1   2
BRANCH   1  11
ATOM     11  C   UNL     1       6.630  -7.219  20.991  1.00  0.00     0.028 C 
BRANCH  11  12
ATOM     12  C   UNL     1       7.248  -6.385  22.086  1.00  0.00    -0.028 C 
ATOM     13  C   UNL     1       6.566  -5.881  23.139  1.00  0.00    -0.080 C 
ATOM     14  C   UNL     1       5.096  -6.158  23.350  1.00  0.00     0.039 C 
ATOM     15  C   UNL     1       7.312  -5.032  24.136  1.00  0.00     0.039 C 
ENDBRANCH  11  12
ENDBRANCH   1  11
TORSDOF 4
ENDMDL
MODEL 5
REMARK VINA RESULT:    -5.852     13.586     14.733
REMARK INTER + INTRA:          -7.964
REMARK INTER:                  -6.525
REMARK INTRA:                  -1.439
REMARK UNBOUND:                -0.744
REMARK SMILES CC(C)=CCC[C@@H](C)c1ccc(C)cc1
REMARK SMILES IDX 6 1 7 2 8 3 9 4 13 5 12 6 11 7 14 8 10 9 15 10 5 11 4 12
REMARK SMILES IDX 2 13 1 14 3 15
REMARK H PARENT
REMARK Flexibility Score: inf
ROOT
ATOM      1  C   UNL     1       0.278   8.992  20.835  1.00  0.00     0.012 C 
ENDROOT
BRANCH   1   2
ATOM      2  C   UNL     1       1.252   9.293  19.673  1.00  0.00     0.016 C 
ATOM      3  C   UNL     1       1.666  10.773  19.629  1.00  0.00     0.013 C 
BRANCH   2   4
ATOM      4  C   UNL     1       2.481   8.407  19.770  1.00  0.00    -0.045 A 
ATOM      5  C   UNL     1       5.990   5.899  20.011  1.00  0.00     0.044 C 
ATOM      6  C   UNL     1       4.755   6.745  19.932  1.00  0.00    -0.051 A 
ATOM      7  C   UNL     1       4.151   7.001  18.692  1.00  0.00     0.004 A 
ATOM      8  C   UNL     1       4.232   7.342  21.087  1.00  0.00     0.004 A 
ATOM      9  C   UNL     1       3.020   7.819  18.613  1.00  0.00     0.004 A 
ATOM     10  C   UNL     1       3.102   8.161  21.010  1.00  0.00     0.004 A 
ENDBRANCH   2   4
ENDBRANCH   1   2
BRANCH   1  11
ATOM     11  C   UNL     1      -0.445   7.646  20.667  1.00  0.00     0.028 C 
BRANCH  11  12
ATOM     12  C   UNL     1      -0.141   6.731  21.828  1.00  0.00    -0.028 C 
ATOM     13  C   UNL     1       0.524   5.559  21.723  1.00  0.00    -0.080 C 
ATOM     14  C   UNL     1       1.087   5.072  20.409  1.00  0.00     0.039 C 
ATOM     15  C   UNL     1       0.719   4.732  22.967  1.00  0.00     0.039 C 
ENDBRANCH  11  12
ENDBRANCH   1  11
TORSDOF 4
ENDMDL
MODEL 6
REMARK VINA RESULT:    -5.773     12.251     14.278
REMARK INTER + INTRA:          -7.868
REMARK INTER:                  -6.977
REMARK INTRA:                  -0.890
REMARK UNBOUND:                -0.744
REMARK SMILES CC(C)=CCC[C@@H](C)c1ccc(C)cc1
REMARK SMILES IDX 6 1 7 2 8 3 9 4 13 5 12 6 11 7 14 8 10 9 15 10 5 11 4 12
REMARK SMILES IDX 2 13 1 14 3 15
REMARK H PARENT
REMARK Flexibility Score: inf
ROOT
ATOM      1  C   UNL     1       1.393   8.385  21.152  1.00  0.00     0.012 C 
ENDROOT
BRANCH   1   2
ATOM      2  C   UNL     1       0.397   7.336  20.608  1.00  0.00     0.016 C 
ATOM      3  C   UNL     1       0.974   6.546  19.422  1.00  0.00     0.013 C 
BRANCH   2   4
ATOM      4  C   UNL     1      -0.029   6.388  21.714  1.00  0.00    -0.045 A 
ATOM      5  C   UNL     1      -1.275   3.685  24.845  1.00  0.00     0.044 C 
ATOM      6  C   UNL     1      -0.835   4.643  23.779  1.00  0.00    -0.051 A 
ATOM      7  C   UNL     1      -1.755   5.529  23.201  1.00  0.00     0.004 A 
ATOM      8  C   UNL     1       0.484   4.616  23.305  1.00  0.00     0.004 A 
ATOM      9  C   UNL     1      -1.354   6.398  22.182  1.00  0.00     0.004 A 
ATOM     10  C   UNL     1       0.887   5.483  22.286  1.00  0.00     0.004 A 
ENDBRANCH   2   4
ENDBRANCH   1   2
BRANCH   1  11
ATOM     11  C   UNL     1       2.752   8.338  20.436  1.00  0.00     0.028 C 
BRANCH  11  12
ATOM     12  C   UNL     1       3.766   7.592  21.269  1.00  0.00    -0.028 C 
ATOM     13  C   UNL     1       4.642   6.688  20.777  1.00  0.00    -0.080 C 
ATOM     14  C   UNL     1       4.727   6.374  19.302  1.00  0.00     0.039 C 
ATOM     15  C   UNL     1       5.571   5.994  21.738  1.00  0.00     0.039 C 
ENDBRANCH  11  12
ENDBRANCH   1  11
TORSDOF 4
ENDMDL
MODEL 7
REMARK VINA RESULT:    -5.690      6.068      7.878
REMARK INTER + INTRA:          -7.765
REMARK INTER:                  -7.099
REMARK INTRA:                  -0.666
REMARK UNBOUND:                -0.744
REMARK SMILES CC(C)=CCC[C@@H](C)c1ccc(C)cc1
REMARK SMILES IDX 6 1 7 2 8 3 9 4 13 5 12 6 11 7 14 8 10 9 15 10 5 11 4 12
REMARK SMILES IDX 2 13 1 14 3 15
REMARK H PARENT
REMARK Flexibility Score: inf
ROOT
ATOM      1  C   UNL     1      -0.210  -5.603  20.080  1.00  0.00     0.012 C 
ENDROOT
BRANCH   1   2
ATOM      2  C   UNL     1       0.898  -4.538  19.916  1.00  0.00     0.016 C 
ATOM      3  C   UNL     1       0.778  -3.409  20.952  1.00  0.00     0.013 C 
BRANCH   2   4
ATOM      4  C   UNL     1       2.269  -5.185  20.001  1.00  0.00    -0.045 A 
ATOM      5  C   UNL     1       6.174  -7.012  20.279  1.00  0.00     0.044 C 
ATOM      6  C   UNL     1       4.827  -6.365  20.157  1.00  0.00    -0.051 A 
ATOM      7  C   UNL     1       4.584  -5.119  20.753  1.00  0.00     0.004 A 
ATOM      8  C   UNL     1       3.780  -7.031  19.504  1.00  0.00     0.004 A 
ATOM      9  C   UNL     1       3.318  -4.532  20.670  1.00  0.00     0.004 A 
ATOM     10  C   UNL     1       2.513  -6.445  19.420  1.00  0.00     0.004 A 
ENDBRANCH   2   4
ENDBRANCH   1   2
BRANCH   1  11
ATOM     11  C   UNL     1      -1.433  -5.071  20.844  1.00  0.00     0.028 C 
BRANCH  11  12
ATOM     12  C   UNL     1      -2.469  -4.539  19.884  1.00  0.00    -0.028 C 
ATOM     13  C   UNL     1      -3.056  -3.325  19.988  1.00  0.00    -0.080 C 
ATOM     14  C   UNL     1      -2.679  -2.343  21.073  1.00  0.00     0.039 C 
ATOM     15  C   UNL     1      -4.103  -2.946  18.974  1.00  0.00     0.039 C 
ENDBRANCH  11  12
ENDBRANCH   1  11
TORSDOF 4
ENDMDL
MODEL 8
REMARK VINA RESULT:    -5.677      4.452      6.260
REMARK INTER + INTRA:          -7.749
REMARK INTER:                  -7.285
REMARK INTRA:                  -0.464
REMARK UNBOUND:                -0.744
REMARK SMILES CC(C)=CCC[C@@H](C)c1ccc(C)cc1
REMARK SMILES IDX 6 1 7 2 8 3 9 4 13 5 12 6 11 7 14 8 10 9 15 10 5 11 4 12
REMARK SMILES IDX 2 13 1 14 3 15
REMARK H PARENT
REMARK Flexibility Score: inf
ROOT
ATOM      1  C   UNL     1       2.982  -4.483  20.408  1.00  0.00     0.012 C 
ENDROOT
BRANCH   1   2
ATOM      2  C   UNL     1       3.483  -5.935  20.578  1.00  0.00     0.016 C 
ATOM      3  C   UNL     1       3.503  -6.703  19.247  1.00  0.00     0.013 C 
BRANCH   2   4
ATOM      4  C   UNL     1       4.863  -5.947  21.212  1.00  0.00    -0.045 A 
ATOM      5  C   UNL     1       8.803  -5.963  22.983  1.00  0.00     0.044 C 
ATOM      6  C   UNL     1       7.433  -5.987  22.374  1.00  0.00    -0.051 A 
ATOM      7  C   UNL     1       7.275  -6.196  20.996  1.00  0.00     0.004 A 
ATOM      8  C   UNL     1       6.304  -5.733  23.164  1.00  0.00     0.004 A 
ATOM      9  C   UNL     1       6.000  -6.183  20.421  1.00  0.00     0.004 A 
ATOM     10  C   UNL     1       5.029  -5.718  22.592  1.00  0.00     0.004 A 
ENDBRANCH   2   4
ENDBRANCH   1   2
BRANCH   1  11
ATOM     11  C   UNL     1       1.495  -4.411  20.025  1.00  0.00     0.028 C 
BRANCH  11  12
ATOM     12  C   UNL     1       0.826  -3.242  20.705  1.00  0.00    -0.028 C 
ATOM     13  C   UNL     1      -0.388  -3.294  21.296  1.00  0.00    -0.080 C 
ATOM     14  C   UNL     1      -1.185  -4.575  21.379  1.00  0.00     0.039 C 
ATOM     15  C   UNL     1      -0.945  -2.033  21.903  1.00  0.00     0.039 C 
ENDBRANCH  11  12
ENDBRANCH   1  11
TORSDOF 4
ENDMDL
MODEL 9
REMARK VINA RESULT:    -5.671      4.981      7.868
REMARK INTER + INTRA:          -7.742
REMARK INTER:                  -7.244
REMARK INTRA:                  -0.498
REMARK UNBOUND:                -0.744
REMARK SMILES CC(C)=CCC[C@@H](C)c1ccc(C)cc1
REMARK SMILES IDX 6 1 7 2 8 3 9 4 13 5 12 6 11 7 14 8 10 9 15 10 5 11 4 12
REMARK SMILES IDX 2 13 1 14 3 15
REMARK H PARENT
REMARK Flexibility Score: inf
ROOT
ATOM      1  C   UNL     1       3.488  -4.675  20.816  1.00  0.00     0.012 C 
ENDROOT
BRANCH   1   2
ATOM      2  C   UNL     1       2.362  -5.228  19.914  1.00  0.00     0.016 C 
ATOM      3  C   UNL     1       2.223  -6.755  20.025  1.00  0.00     0.013 C 
BRANCH   2   4
ATOM      4  C   UNL     1       1.041  -4.556  20.244  1.00  0.00    -0.045 A 
ATOM      5  C   UNL     1      -2.731  -2.677  21.193  1.00  0.00     0.044 C 
ATOM      6  C   UNL     1      -1.422  -3.315  20.837  1.00  0.00    -0.051 A 
ATOM      7  C   UNL     1      -1.394  -4.584  20.239  1.00  0.00     0.004 A 
ATOM      8  C   UNL     1      -0.215  -2.680  21.159  1.00  0.00     0.004 A 
ATOM      9  C   UNL     1      -0.173  -5.195  19.939  1.00  0.00     0.004 A 
ATOM     10  C   UNL     1       1.007  -3.290  20.861  1.00  0.00     0.004 A 
ENDBRANCH   2   4
ENDBRANCH   1   2
BRANCH   1  11
ATOM     11  C   UNL     1       4.550  -5.734  21.153  1.00  0.00     0.028 C 
BRANCH  11  12
ATOM     12  C   UNL     1       5.232  -5.406  22.459  1.00  0.00    -0.028 C 
ATOM     13  C   UNL     1       6.488  -5.786  22.781  1.00  0.00    -0.080 C 
ATOM     14  C   UNL     1       7.368  -6.547  21.816  1.00  0.00     0.039 C 
ATOM     15  C   UNL     1       7.023  -5.417  24.140  1.00  0.00     0.039 C 
ENDBRANCH  11  12
ENDBRANCH   1  11
TORSDOF 4
ENDMDL
