MODEL 1
REMARK VINA RESULT:    -4.266      0.000      0.000
REMARK INTER + INTRA:          -5.406
REMARK INTER:                  -5.015
REMARK INTRA:                  -0.391
REMARK UNBOUND:                -0.391
REMARK SMILES C=CC(C)=CCC=C(C)C
REMARK SMILES IDX 5 1 3 2 4 3 6 4 7 5 9 6 8 7 10 8 2 9 1 10
REMARK H PARENT
REMARK Flexibility Score: inf
ROOT
ATOM      1  C   UNL     1     168.097 162.998 199.675  1.00  0.00    -0.020 C 
ATOM      2  C   UNL     1     168.715 163.846 200.522  1.00  0.00    -0.055 C 
ATOM      3  C   UNL     1     168.542 163.744 202.022  1.00  0.00     0.044 C 
ENDROOT
BRANCH   1   4
ATOM      4  C   UNL     1     167.171 161.888 200.100  1.00  0.00     0.055 C 
BRANCH   4   5
ATOM      5  C   UNL     1     165.947 161.831 199.218  1.00  0.00    -0.024 C 
ATOM      6  C   UNL     1     163.588 162.206 198.634  1.00  0.00     0.039 C 
ATOM      7  C   UNL     1     164.743 162.310 199.596  1.00  0.00    -0.080 C 
ATOM      8  C   UNL     1     164.536 162.945 200.950  1.00  0.00     0.039 C 
ENDBRANCH   4   5
ENDBRANCH   1   4
BRANCH   2   9
ATOM      9  C   UNL     1     169.643 164.851 199.942  1.00  0.00    -0.005 C 
ATOM     10  C   UNL     1     169.481 166.167 200.072  1.00  0.00     0.009 C 
ENDBRANCH   2   9
TORSDOF 3
ENDMDL
MODEL 2
REMARK VINA RESULT:    -4.249      5.004      7.666
REMARK INTER + INTRA:          -5.386
REMARK INTER:                  -5.012
REMARK INTRA:                  -0.374
REMARK UNBOUND:                -0.391
REMARK SMILES C=CC(C)=CCC=C(C)C
REMARK SMILES IDX 5 1 3 2 4 3 6 4 7 5 9 6 8 7 10 8 2 9 1 10
REMARK H PARENT
REMARK Flexibility Score: inf
ROOT
ATOM      1  C   UNL     1     163.977 169.052 199.647  1.00  0.00    -0.020 C 
ATOM      2  C   UNL     1     163.306 168.251 200.500  1.00  0.00    -0.055 C 
ATOM      3  C   UNL     1     163.460 168.375 201.999  1.00  0.00     0.044 C 
ENDROOT
BRANCH   1   4
ATOM      4  C   UNL     1     164.948 170.125 200.066  1.00  0.00     0.055 C 
BRANCH   4   5
ATOM      5  C   UNL     1     166.160 170.144 199.166  1.00  0.00    -0.024 C 
ATOM      6  C   UNL     1     168.506 169.727 198.561  1.00  0.00     0.039 C 
ATOM      7  C   UNL     1     167.363 169.662 199.540  1.00  0.00    -0.080 C 
ATOM      8  C   UNL     1     167.582 169.060 200.908  1.00  0.00     0.039 C 
ENDBRANCH   4   5
ENDBRANCH   1   4
BRANCH   2   9
ATOM      9  C   UNL     1     162.340 167.281 199.923  1.00  0.00    -0.005 C 
ATOM     10  C   UNL     1     162.513 165.959 199.956  1.00  0.00     0.009 C 
ENDBRANCH   2   9
TORSDOF 3
ENDMDL
MODEL 3
REMARK VINA RESULT:    -4.245      5.539      6.230
REMARK INTER + INTRA:          -5.381
REMARK INTER:                  -5.018
REMARK INTRA:                  -0.363
REMARK UNBOUND:                -0.391
REMARK SMILES C=CC(C)=CCC=C(C)C
REMARK SMILES IDX 5 1 3 2 4 3 6 4 7 5 9 6 8 7 10 8 2 9 1 10
REMARK H PARENT
REMARK Flexibility Score: inf
ROOT
ATOM      1  C   UNL     1     166.300 170.138 199.185  1.00  0.00    -0.020 C 
ATOM      2  C   UNL     1     167.506 169.652 199.546  1.00  0.00    -0.055 C 
ATOM      3  C   UNL     1     167.747 169.046 200.911  1.00  0.00     0.044 C 
ENDROOT
BRANCH   1   4
ATOM      4  C   UNL     1     165.085 170.155 200.075  1.00  0.00     0.055 C 
BRANCH   4   5
ATOM      5  C   UNL     1     164.031 169.196 199.576  1.00  0.00    -0.024 C 
ATOM      6  C   UNL     1     162.304 167.459 199.789  1.00  0.00     0.039 C 
ATOM      7  C   UNL     1     163.338 168.374 200.392  1.00  0.00    -0.080 C 
ATOM      8  C   UNL     1     163.576 168.358 201.883  1.00  0.00     0.039 C 
ENDBRANCH   4   5
ENDBRANCH   1   4
BRANCH   2   9
ATOM      9  C   UNL     1     168.587 169.657 198.528  1.00  0.00    -0.005 C 
ATOM     10  C   UNL     1     169.228 168.559 198.125  1.00  0.00     0.009 C 
ENDBRANCH   2   9
TORSDOF 3
ENDMDL
MODEL 4
REMARK VINA RESULT:    -4.231      0.709      4.872
REMARK INTER + INTRA:          -5.364
REMARK INTER:                  -5.014
REMARK INTRA:                  -0.350
REMARK UNBOUND:                -0.391
REMARK SMILES C=CC(C)=CCC=C(C)C
REMARK SMILES IDX 5 1 3 2 4 3 6 4 7 5 9 6 8 7 10 8 2 9 1 10
REMARK H PARENT
REMARK Flexibility Score: inf
ROOT
ATOM      1  C   UNL     1     165.632 161.862 199.187  1.00  0.00    -0.020 C 
ATOM      2  C   UNL     1     164.436 162.393 199.513  1.00  0.00    -0.055 C 
ATOM      3  C   UNL     1     164.183 163.020 200.866  1.00  0.00     0.044 C 
ENDROOT
BRANCH   1   4
ATOM      4  C   UNL     1     166.824 161.812 200.106  1.00  0.00     0.055 C 
BRANCH   4   5
ATOM      5  C   UNL     1     167.953 162.667 199.582  1.00  0.00    -0.024 C 
ATOM      6  C   UNL     1     169.790 164.294 199.742  1.00  0.00     0.039 C 
ATOM      7  C   UNL     1     168.682 163.487 200.368  1.00  0.00    -0.080 C 
ATOM      8  C   UNL     1     168.412 163.606 201.849  1.00  0.00     0.039 C 
ENDBRANCH   4   5
ENDBRANCH   1   4
BRANCH   2   9
ATOM      9  C   UNL     1     163.380 162.414 198.468  1.00  0.00    -0.005 C 
ATOM     10  C   UNL     1     162.655 163.493 198.173  1.00  0.00     0.009 C 
ENDBRANCH   2   9
TORSDOF 3
ENDMDL
MODEL 5
REMARK VINA RESULT:    -4.217      5.121      6.103
REMARK INTER + INTRA:          -5.348
REMARK INTER:                  -4.901
REMARK INTRA:                  -0.447
REMARK UNBOUND:                -0.391
REMARK SMILES C=CC(C)=CCC=C(C)C
REMARK SMILES IDX 5 1 3 2 4 3 6 4 7 5 9 6 8 7 10 8 2 9 1 10
REMARK H PARENT
REMARK Flexibility Score: inf
ROOT
ATOM      1  C   UNL     1     163.834 169.239 199.338  1.00  0.00    -0.020 C 
ATOM      2  C   UNL     1     164.856 169.721 200.075  1.00  0.00    -0.055 C 
ATOM      3  C   UNL     1     164.792 169.787 201.584  1.00  0.00     0.044 C 
ENDROOT
BRANCH   1   4
ATOM      4  C   UNL     1     162.533 168.737 199.908  1.00  0.00     0.055 C 
BRANCH   4   5
ATOM      5  C   UNL     1     162.283 167.301 199.514  1.00  0.00    -0.024 C 
ATOM      6  C   UNL     1     162.303 164.861 199.817  1.00  0.00     0.039 C 
ATOM      7  C   UNL     1     162.600 166.255 200.305  1.00  0.00    -0.080 C 
ATOM      8  C   UNL     1     163.238 166.454 201.660  1.00  0.00     0.039 C 
ENDBRANCH   4   5
ENDBRANCH   1   4
BRANCH   2   9
ATOM      9  C   UNL     1     166.095 170.122 199.360  1.00  0.00    -0.005 C 
ATOM     10  C   UNL     1     167.306 169.650 199.659  1.00  0.00     0.009 C 
ENDBRANCH   2   9
TORSDOF 3
ENDMDL
MODEL 6
REMARK VINA RESULT:    -4.144      1.515      2.388
REMARK INTER + INTRA:          -5.262
REMARK INTER:                  -4.803
REMARK INTRA:                  -0.459
REMARK UNBOUND:                -0.391
REMARK SMILES C=CC(C)=CCC=C(C)C
REMARK SMILES IDX 5 1 3 2 4 3 6 4 7 5 9 6 8 7 10 8 2 9 1 10
REMARK H PARENT
REMARK Flexibility Score: inf
ROOT
ATOM      1  C   UNL     1     166.232 162.481 198.883  1.00  0.00    -0.020 C 
ATOM      2  C   UNL     1     167.374 162.531 199.598  1.00  0.00    -0.055 C 
ATOM      3  C   UNL     1     167.424 162.120 201.053  1.00  0.00     0.044 C 
ENDROOT
BRANCH   1   4
ATOM      4  C   UNL     1     164.899 162.041 199.431  1.00  0.00     0.055 C 
BRANCH   4   5
ATOM      5  C   UNL     1     163.890 163.163 199.375  1.00  0.00    -0.024 C 
ATOM      6  C   UNL     1     162.501 164.973 200.293  1.00  0.00     0.039 C 
ATOM      7  C   UNL     1     163.514 163.870 200.461  1.00  0.00    -0.080 C 
ATOM      8  C   UNL     1     164.087 163.581 201.829  1.00  0.00     0.039 C 
ENDBRANCH   4   5
ENDBRANCH   1   4
BRANCH   2   9
ATOM      9  C   UNL     1     168.617 162.933 198.891  1.00  0.00    -0.005 C 
ATOM     10  C   UNL     1     169.718 163.353 199.514  1.00  0.00     0.009 C 
ENDBRANCH   2   9
TORSDOF 3
ENDMDL
MODEL 7
REMARK VINA RESULT:    -4.135      4.995      7.326
REMARK INTER + INTRA:          -5.251
REMARK INTER:                  -4.813
REMARK INTRA:                  -0.438
REMARK UNBOUND:                -0.391
REMARK SMILES C=CC(C)=CCC=C(C)C
REMARK SMILES IDX 5 1 3 2 4 3 6 4 7 5 9 6 8 7 10 8 2 9 1 10
REMARK H PARENT
REMARK Flexibility Score: inf
ROOT
ATOM      1  C   UNL     1     165.810 169.558 198.977  1.00  0.00    -0.020 C 
ATOM      2  C   UNL     1     164.651 169.510 199.665  1.00  0.00    -0.055 C 
ATOM      3  C   UNL     1     164.582 169.852 201.137  1.00  0.00     0.044 C 
ENDROOT
BRANCH   1   4
ATOM      4  C   UNL     1     167.143 169.930 199.571  1.00  0.00     0.055 C 
BRANCH   4   5
ATOM      5  C   UNL     1     168.152 168.823 199.383  1.00  0.00    -0.024 C 
ATOM      6  C   UNL     1     169.587 166.957 200.093  1.00  0.00     0.039 C 
ATOM      7  C   UNL     1     168.580 168.036 200.392  1.00  0.00    -0.080 C 
ATOM      8  C   UNL     1     168.069 168.215 201.803  1.00  0.00     0.039 C 
ENDBRANCH   4   5
ENDBRANCH   1   4
BRANCH   2   9
ATOM      9  C   UNL     1     163.413 169.180 198.914  1.00  0.00    -0.005 C 
ATOM     10  C   UNL     1     162.325 168.653 199.479  1.00  0.00     0.009 C 
ENDBRANCH   2   9
TORSDOF 3
ENDMDL
MODEL 8
REMARK VINA RESULT:    -4.094      4.196      6.389
REMARK INTER + INTRA:          -5.203
REMARK INTER:                  -4.978
REMARK INTRA:                  -0.226
REMARK UNBOUND:                -0.391
REMARK SMILES C=CC(C)=CCC=C(C)C
REMARK SMILES IDX 5 1 3 2 4 3 6 4 7 5 9 6 8 7 10 8 2 9 1 10
REMARK H PARENT
REMARK Flexibility Score: inf
ROOT
ATOM      1  C   UNL     1     163.057 164.347 200.055  1.00  0.00    -0.020 C 
ATOM      2  C   UNL     1     163.072 163.489 199.014  1.00  0.00    -0.055 C 
ATOM      3  C   UNL     1     162.356 163.795 197.717  1.00  0.00     0.044 C 
ENDROOT
BRANCH   1   4
ATOM      4  C   UNL     1     162.333 165.667 200.065  1.00  0.00     0.055 C 
BRANCH   4   5
ATOM      5  C   UNL     1     163.074 166.689 200.892  1.00  0.00    -0.024 C 
ATOM      6  C   UNL     1     163.829 168.946 201.514  1.00  0.00     0.039 C 
ATOM      7  C   UNL     1     163.057 168.011 200.620  1.00  0.00    -0.080 C 
ATOM      8  C   UNL     1     162.282 168.565 199.447  1.00  0.00     0.039 C 
ENDBRANCH   4   5
ENDBRANCH   1   4
BRANCH   2   9
ATOM      9  C   UNL     1     163.885 162.252 199.147  1.00  0.00    -0.005 C 
ATOM     10  C   UNL     1     164.565 161.704 198.141  1.00  0.00     0.009 C 
ENDBRANCH   2   9
TORSDOF 3
ENDMDL
MODEL 9
REMARK VINA RESULT:    -4.092      2.792      5.151
REMARK INTER + INTRA:          -5.201
REMARK INTER:                  -4.964
REMARK INTRA:                  -0.237
REMARK UNBOUND:                -0.391
REMARK SMILES C=CC(C)=CCC=C(C)C
REMARK SMILES IDX 5 1 3 2 4 3 6 4 7 5 9 6 8 7 10 8 2 9 1 10
REMARK H PARENT
REMARK Flexibility Score: inf
ROOT
ATOM      1  C   UNL     1     168.988 167.631 200.000  1.00  0.00    -0.020 C 
ATOM      2  C   UNL     1     168.865 168.419 198.912  1.00  0.00    -0.055 C 
ATOM      3  C   UNL     1     169.410 168.008 197.563  1.00  0.00     0.044 C 
ENDROOT
BRANCH   1   4
ATOM      4  C   UNL     1     169.680 166.293 200.013  1.00  0.00     0.055 C 
BRANCH   4   5
ATOM      5  C   UNL     1     168.905 165.287 200.829  1.00  0.00    -0.024 C 
ATOM      6  C   UNL     1     168.116 163.044 201.457  1.00  0.00     0.039 C 
ATOM      7  C   UNL     1     168.924 163.962 200.576  1.00  0.00    -0.080 C 
ATOM      8  C   UNL     1     169.734 163.387 199.439  1.00  0.00     0.039 C 
ENDBRANCH   4   5
ENDBRANCH   1   4
BRANCH   2   9
ATOM      9  C   UNL     1     168.101 169.685 199.057  1.00  0.00    -0.005 C 
ATOM     10  C   UNL     1     167.527 170.322 198.037  1.00  0.00     0.009 C 
ENDBRANCH   2   9
TORSDOF 3
ENDMDL
