MODEL 1
REMARK VINA RESULT:    -3.654      0.000      0.000
REMARK INTER + INTRA:          -6.663
REMARK INTER:                  -5.577
REMARK INTRA:                  -1.086
REMARK UNBOUND:                -1.086
REMARK SMILES CCCCCCCCCCC(=O)[O-]
REMARK SMILES IDX 7 1 8 2 9 3 10 4 11 5 12 6 13 7 6 8 5 9 4 10 3 11 2 12 1 13
REMARK H PARENT
REMARK Flexibility Score: inf
ROOT
ATOM      1  C   UNL     1      14.590  43.439  19.425  1.00  0.00     0.000 C 
ENDROOT
BRANCH   1   2
ATOM      2  C   UNL     1      13.149  43.042  19.063  1.00  0.00     0.000 C 
BRANCH   2   3
ATOM      3  C   UNL     1      12.108  44.020  19.629  1.00  0.00     0.006 C 
BRANCH   3   4
ATOM      4  C   UNL     1      10.772  43.337  19.949  1.00  0.00     0.053 C 
BRANCH   4   5
ATOM      5  C   UNL     1       9.634  44.280  19.715  1.00  0.00     0.041 C 
ATOM      6  O   UNL     1       8.476  43.835  19.500  1.00  0.00    -0.550 OA
ATOM      7  O   UNL     1       9.843  45.651  19.783  1.00  0.00    -0.550 OA
ENDBRANCH   4   5
ENDBRANCH   3   4
ENDBRANCH   2   3
ENDBRANCH   1   2
BRANCH   1   8
ATOM      8  C   UNL     1      14.653  44.641  20.385  1.00  0.00     0.000 C 
BRANCH   8   9
ATOM      9  C   UNL     1      15.367  45.887  19.823  1.00  0.00    -0.000 C 
BRANCH   9  10
ATOM     10  C   UNL     1      15.639  45.858  18.308  1.00  0.00    -0.000 C 
BRANCH  10  11
ATOM     11  C   UNL     1      14.816  46.897  17.534  1.00  0.00    -0.000 C 
BRANCH  11  12
ATOM     12  C   UNL     1      13.547  46.266  16.949  1.00  0.00    -0.003 C 
ATOM     13  C   UNL     1      12.293  46.950  17.486  1.00  0.00     0.004 C 
ENDBRANCH  11  12
ENDBRANCH  10  11
ENDBRANCH   9  10
ENDBRANCH   8   9
ENDBRANCH   1   8
TORSDOF 9
ENDMDL
MODEL 2
REMARK VINA RESULT:    -3.640     10.167     11.640
REMARK INTER + INTRA:          -6.642
REMARK INTER:                  -5.397
REMARK INTRA:                  -1.245
REMARK UNBOUND:                -1.086
REMARK SMILES CCCCCCCCCCC(=O)[O-]
REMARK SMILES IDX 7 1 8 2 9 3 10 4 11 5 12 6 13 7 6 8 5 9 4 10 3 11 2 12 1 13
REMARK H PARENT
REMARK Flexibility Score: inf
ROOT
ATOM      1  C   UNL     1      13.772  41.023  27.557  1.00  0.00     0.000 C 
ENDROOT
BRANCH   1   2
ATOM      2  C   UNL     1      12.873  39.790  27.748  1.00  0.00     0.000 C 
BRANCH   2   3
ATOM      3  C   UNL     1      13.384  38.563  26.977  1.00  0.00     0.006 C 
BRANCH   3   4
ATOM      4  C   UNL     1      13.969  37.488  27.902  1.00  0.00     0.053 C 
BRANCH   4   5
ATOM      5  C   UNL     1      13.226  36.199  27.741  1.00  0.00     0.041 C 
ATOM      6  O   UNL     1      12.547  35.985  26.702  1.00  0.00    -0.550 OA
ATOM      7  O   UNL     1      13.321  35.216  28.717  1.00  0.00    -0.550 OA
ENDBRANCH   4   5
ENDBRANCH   3   4
ENDBRANCH   2   3
ENDBRANCH   1   2
BRANCH   1   8
ATOM      8  C   UNL     1      14.037  41.776  28.874  1.00  0.00     0.000 C 
BRANCH   8   9
ATOM      9  C   UNL     1      15.440  41.557  29.478  1.00  0.00    -0.000 C 
BRANCH   9  10
ATOM     10  C   UNL     1      15.621  40.237  30.248  1.00  0.00    -0.000 C 
BRANCH  10  11
ATOM     11  C   UNL     1      16.689  39.325  29.626  1.00  0.00    -0.000 C 
BRANCH  11  12
ATOM     12  C   UNL     1      17.405  40.031  28.469  1.00  0.00    -0.003 C 
ATOM     13  C   UNL     1      17.176  39.298  27.150  1.00  0.00     0.004 C 
ENDBRANCH  11  12
ENDBRANCH  10  11
ENDBRANCH   9  10
ENDBRANCH   8   9
ENDBRANCH   1   8
TORSDOF 9
ENDMDL
MODEL 3
REMARK VINA RESULT:    -3.551      2.810      5.124
REMARK INTER + INTRA:          -6.505
REMARK INTER:                  -5.565
REMARK INTRA:                  -0.940
REMARK UNBOUND:                -1.086
REMARK SMILES CCCCCCCCCCC(=O)[O-]
REMARK SMILES IDX 7 1 8 2 9 3 10 4 11 5 12 6 13 7 6 8 5 9 4 10 3 11 2 12 1 13
REMARK H PARENT
REMARK Flexibility Score: inf
ROOT
ATOM      1  C   UNL     1      12.727  45.553  17.176  1.00  0.00     0.000 C 
ENDROOT
BRANCH   1   2
ATOM      2  C   UNL     1      13.614  44.340  17.501  1.00  0.00     0.000 C 
BRANCH   2   3
ATOM      3  C   UNL     1      13.931  44.226  19.001  1.00  0.00     0.006 C 
BRANCH   3   4
ATOM      4  C   UNL     1      15.427  44.013  19.272  1.00  0.00     0.053 C 
BRANCH   4   5
ATOM      5  C   UNL     1      15.926  45.019  20.261  1.00  0.00     0.041 C 
ATOM      6  O   UNL     1      17.121  44.979  20.657  1.00  0.00    -0.550 OA
ATOM      7  O   UNL     1      15.086  46.030  20.708  1.00  0.00    -0.550 OA
ENDBRANCH   4   5
ENDBRANCH   3   4
ENDBRANCH   2   3
ENDBRANCH   1   2
BRANCH   1   8
ATOM      8  C   UNL     1      12.410  46.408  18.417  1.00  0.00     0.000 C 
BRANCH   8   9
ATOM      9  C   UNL     1      11.044  47.123  18.384  1.00  0.00    -0.000 C 
BRANCH   9  10
ATOM     10  C   UNL     1       9.969  46.521  19.308  1.00  0.00    -0.000 C 
BRANCH  10  11
ATOM     11  C   UNL     1      10.445  45.253  20.031  1.00  0.00    -0.000 C 
BRANCH  11  12
ATOM     12  C   UNL     1       9.588  44.045  19.638  1.00  0.00    -0.003 C 
ATOM     13  C   UNL     1      10.321  42.735  19.916  1.00  0.00     0.004 C 
ENDBRANCH  11  12
ENDBRANCH  10  11
ENDBRANCH   9  10
ENDBRANCH   8   9
ENDBRANCH   1   8
TORSDOF 9
ENDMDL
MODEL 4
REMARK VINA RESULT:    -3.536      3.508      4.943
REMARK INTER + INTRA:          -6.483
REMARK INTER:                  -5.326
REMARK INTRA:                  -1.157
REMARK UNBOUND:                -1.086
REMARK SMILES CCCCCCCCCCC(=O)[O-]
REMARK SMILES IDX 7 1 8 2 9 3 10 4 11 5 12 6 13 7 6 8 5 9 4 10 3 11 2 12 1 13
REMARK H PARENT
REMARK Flexibility Score: inf
ROOT
ATOM      1  C   UNL     1      15.835  46.070  20.247  1.00  0.00     0.000 C 
ENDROOT
BRANCH   1   2
ATOM      2  C   UNL     1      15.977  45.773  18.744  1.00  0.00     0.000 C 
BRANCH   2   3
ATOM      3  C   UNL     1      16.033  44.267  18.443  1.00  0.00     0.006 C 
BRANCH   3   4
ATOM      4  C   UNL     1      17.335  43.617  18.931  1.00  0.00     0.053 C 
BRANCH   4   5
ATOM      5  C   UNL     1      17.036  42.397  19.743  1.00  0.00     0.041 C 
ATOM      6  O   UNL     1      17.319  41.254  19.297  1.00  0.00    -0.550 OA
ATOM      7  O   UNL     1      16.488  42.524  21.013  1.00  0.00    -0.550 OA
ENDBRANCH   4   5
ENDBRANCH   3   4
ENDBRANCH   2   3
ENDBRANCH   1   2
BRANCH   1   8
ATOM      8  C   UNL     1      14.530  45.509  20.842  1.00  0.00     0.000 C 
BRANCH   8   9
ATOM      9  C   UNL     1      13.241  46.195  20.345  1.00  0.00    -0.000 C 
BRANCH   9  10
ATOM     10  C   UNL     1      12.223  45.260  19.667  1.00  0.00    -0.000 C 
BRANCH  10  11
ATOM     11  C   UNL     1      12.278  45.329  18.134  1.00  0.00    -0.000 C 
BRANCH  11  12
ATOM     12  C   UNL     1      12.519  46.766  17.659  1.00  0.00    -0.003 C 
ATOM     13  C   UNL     1      13.407  46.795  16.418  1.00  0.00     0.004 C 
ENDBRANCH  11  12
ENDBRANCH  10  11
ENDBRANCH   9  10
ENDBRANCH   8   9
ENDBRANCH   1   8
TORSDOF 9
ENDMDL
MODEL 5
REMARK VINA RESULT:    -3.495      3.573      4.942
REMARK INTER + INTRA:          -6.421
REMARK INTER:                  -5.323
REMARK INTRA:                  -1.097
REMARK UNBOUND:                -1.086
REMARK SMILES CCCCCCCCCCC(=O)[O-]
REMARK SMILES IDX 7 1 8 2 9 3 10 4 11 5 12 6 13 7 6 8 5 9 4 10 3 11 2 12 1 13
REMARK H PARENT
REMARK Flexibility Score: inf
ROOT
ATOM      1  C   UNL     1      15.870  46.238  19.466  1.00  0.00     0.000 C 
ENDROOT
BRANCH   1   2
ATOM      2  C   UNL     1      15.147  45.435  20.561  1.00  0.00     0.000 C 
BRANCH   2   3
ATOM      3  C   UNL     1      15.068  43.935  20.236  1.00  0.00     0.006 C 
BRANCH   3   4
ATOM      4  C   UNL     1      16.327  43.172  20.669  1.00  0.00     0.053 C 
BRANCH   4   5
ATOM      5  C   UNL     1      16.930  42.456  19.502  1.00  0.00     0.041 C 
ATOM      6  O   UNL     1      17.488  43.106  18.579  1.00  0.00    -0.550 OA
ATOM      7  O   UNL     1      16.919  41.068  19.457  1.00  0.00    -0.550 OA
ENDBRANCH   4   5
ENDBRANCH   3   4
ENDBRANCH   2   3
ENDBRANCH   1   2
BRANCH   1   8
ATOM      8  C   UNL     1      15.373  45.895  18.050  1.00  0.00     0.000 C 
BRANCH   8   9
ATOM      9  C   UNL     1      14.847  47.094  17.236  1.00  0.00    -0.000 C 
BRANCH   9  10
ATOM     10  C   UNL     1      13.359  47.020  16.848  1.00  0.00    -0.000 C 
BRANCH  10  11
ATOM     11  C   UNL     1      12.633  45.831  17.493  1.00  0.00    -0.000 C 
BRANCH  11  12
ATOM     12  C   UNL     1      11.672  46.306  18.589  1.00  0.00    -0.003 C 
ATOM     13  C   UNL     1      11.459  45.224  19.643  1.00  0.00     0.004 C 
ENDBRANCH  11  12
ENDBRANCH  10  11
ENDBRANCH   9  10
ENDBRANCH   8   9
ENDBRANCH   1   8
TORSDOF 9
ENDMDL
MODEL 6
REMARK VINA RESULT:    -3.438      5.256      6.990
REMARK INTER + INTRA:          -6.333
REMARK INTER:                  -5.499
REMARK INTRA:                  -0.834
REMARK UNBOUND:                -1.086
REMARK SMILES CCCCCCCCCCC(=O)[O-]
REMARK SMILES IDX 7 1 8 2 9 3 10 4 11 5 12 6 13 7 6 8 5 9 4 10 3 11 2 12 1 13
REMARK H PARENT
REMARK Flexibility Score: inf
ROOT
ATOM      1  C   UNL     1      19.891  47.106  20.606  1.00  0.00     0.000 C 
ENDROOT
BRANCH   1   2
ATOM      2  C   UNL     1      19.956  45.582  20.411  1.00  0.00     0.000 C 
BRANCH   2   3
ATOM      3  C   UNL     1      18.639  44.883  20.783  1.00  0.00     0.006 C 
BRANCH   3   4
ATOM      4  C   UNL     1      18.073  44.042  19.631  1.00  0.00     0.053 C 
BRANCH   4   5
ATOM      5  C   UNL     1      16.666  44.450  19.330  1.00  0.00     0.041 C 
ATOM      6  O   UNL     1      15.938  44.933  20.237  1.00  0.00    -0.550 OA
ATOM      7  O   UNL     1      16.172  44.342  18.036  1.00  0.00    -0.550 OA
ENDBRANCH   4   5
ENDBRANCH   3   4
ENDBRANCH   2   3
ENDBRANCH   1   2
BRANCH   1   8
ATOM      8  C   UNL     1      18.460  47.612  20.863  1.00  0.00     0.000 C 
BRANCH   8   9
ATOM      9  C   UNL     1      18.356  48.807  21.834  1.00  0.00    -0.000 C 
BRANCH   9  10
ATOM     10  C   UNL     1      19.644  49.634  21.994  1.00  0.00    -0.000 C 
BRANCH  10  11
ATOM     11  C   UNL     1      19.654  50.897  21.121  1.00  0.00    -0.000 C 
BRANCH  11  12
ATOM     12  C   UNL     1      20.548  50.706  19.891  1.00  0.00    -0.003 C 
ATOM     13  C   UNL     1      19.716  50.423  18.643  1.00  0.00     0.004 C 
ENDBRANCH  11  12
ENDBRANCH  10  11
ENDBRANCH   9  10
ENDBRANCH   8   9
ENDBRANCH   1   8
TORSDOF 9
ENDMDL
MODEL 7
REMARK VINA RESULT:    -3.429      2.218      3.806
REMARK INTER + INTRA:          -6.318
REMARK INTER:                  -5.477
REMARK INTRA:                  -0.841
REMARK UNBOUND:                -1.086
REMARK SMILES CCCCCCCCCCC(=O)[O-]
REMARK SMILES IDX 7 1 8 2 9 3 10 4 11 5 12 6 13 7 6 8 5 9 4 10 3 11 2 12 1 13
REMARK H PARENT
REMARK Flexibility Score: inf
ROOT
ATOM      1  C   UNL     1      14.575  44.976  20.353  1.00  0.00     0.000 C 
ENDROOT
BRANCH   1   2
ATOM      2  C   UNL     1      13.439  44.147  19.729  1.00  0.00     0.000 C 
BRANCH   2   3
ATOM      3  C   UNL     1      12.453  45.010  18.925  1.00  0.00     0.006 C 
BRANCH   3   4
ATOM      4  C   UNL     1      11.997  46.256  19.696  1.00  0.00     0.053 C 
BRANCH   4   5
ATOM      5  C   UNL     1      10.526  46.466  19.524  1.00  0.00     0.041 C 
ATOM      6  O   UNL     1       9.740  45.482  19.528  1.00  0.00    -0.550 OA
ATOM      7  O   UNL     1      10.017  47.753  19.408  1.00  0.00    -0.550 OA
ENDBRANCH   4   5
ENDBRANCH   3   4
ENDBRANCH   2   3
ENDBRANCH   1   2
BRANCH   1   8
ATOM      8  C   UNL     1      15.593  45.471  19.311  1.00  0.00     0.000 C 
BRANCH   8   9
ATOM      9  C   UNL     1      16.138  44.381  18.365  1.00  0.00    -0.000 C 
BRANCH   9  10
ATOM     10  C   UNL     1      17.355  43.602  18.897  1.00  0.00    -0.000 C 
BRANCH  10  11
ATOM     11  C   UNL     1      16.970  42.259  19.534  1.00  0.00    -0.000 C 
BRANCH  11  12
ATOM     12  C   UNL     1      17.339  42.233  21.022  1.00  0.00    -0.003 C 
ATOM     13  C   UNL     1      18.276  43.384  21.377  1.00  0.00     0.004 C 
ENDBRANCH  11  12
ENDBRANCH  10  11
ENDBRANCH   9  10
ENDBRANCH   8   9
ENDBRANCH   1   8
TORSDOF 9
ENDMDL
MODEL 8
REMARK VINA RESULT:    -3.421      4.296      5.882
REMARK INTER + INTRA:          -6.306
REMARK INTER:                  -5.222
REMARK INTRA:                  -1.084
REMARK UNBOUND:                -1.086
REMARK SMILES CCCCCCCCCCC(=O)[O-]
REMARK SMILES IDX 7 1 8 2 9 3 10 4 11 5 12 6 13 7 6 8 5 9 4 10 3 11 2 12 1 13
REMARK H PARENT
REMARK Flexibility Score: inf
ROOT
ATOM      1  C   UNL     1      16.950  43.714  19.066  1.00  0.00     0.000 C 
ENDROOT
BRANCH   1   2
ATOM      2  C   UNL     1      18.089  44.387  19.851  1.00  0.00     0.000 C 
BRANCH   2   3
ATOM      3  C   UNL     1      17.572  45.290  20.982  1.00  0.00     0.006 C 
BRANCH   3   4
ATOM      4  C   UNL     1      17.229  46.705  20.496  1.00  0.00     0.053 C 
BRANCH   4   5
ATOM      5  C   UNL     1      18.197  47.698  21.056  1.00  0.00     0.041 C 
ATOM      6  O   UNL     1      17.820  48.534  21.919  1.00  0.00    -0.550 OA
ATOM      7  O   UNL     1      19.528  47.671  20.660  1.00  0.00    -0.550 OA
ENDBRANCH   4   5
ENDBRANCH   3   4
ENDBRANCH   2   3
ENDBRANCH   1   2
BRANCH   1   8
ATOM      8  C   UNL     1      15.824  43.196  19.979  1.00  0.00     0.000 C 
BRANCH   8   9
ATOM      9  C   UNL     1      14.418  43.742  19.653  1.00  0.00    -0.000 C 
BRANCH   9  10
ATOM     10  C   UNL     1      13.900  44.829  20.611  1.00  0.00    -0.000 C 
BRANCH  10  11
ATOM     11  C   UNL     1      13.499  46.122  19.886  1.00  0.00    -0.000 C 
BRANCH  11  12
ATOM     12  C   UNL     1      14.099  46.167  18.476  1.00  0.00    -0.003 C 
ATOM     13  C   UNL     1      13.030  46.478  17.432  1.00  0.00     0.004 C 
ENDBRANCH  11  12
ENDBRANCH  10  11
ENDBRANCH   9  10
ENDBRANCH   8   9
ENDBRANCH   1   8
TORSDOF 9
ENDMDL
MODEL 9
REMARK VINA RESULT:    -3.419      5.208      7.289
REMARK INTER + INTRA:          -6.304
REMARK INTER:                  -5.066
REMARK INTRA:                  -1.238
REMARK UNBOUND:                -1.086
REMARK SMILES CCCCCCCCCCC(=O)[O-]
REMARK SMILES IDX 7 1 8 2 9 3 10 4 11 5 12 6 13 7 6 8 5 9 4 10 3 11 2 12 1 13
REMARK H PARENT
REMARK Flexibility Score: inf
ROOT
ATOM      1  C   UNL     1      15.454  44.921  20.413  1.00  0.00     0.000 C 
ENDROOT
BRANCH   1   2
ATOM      2  C   UNL     1      16.305  46.139  20.016  1.00  0.00     0.000 C 
BRANCH   2   3
ATOM      3  C   UNL     1      17.320  46.528  21.102  1.00  0.00     0.006 C 
BRANCH   3   4
ATOM      4  C   UNL     1      18.760  46.570  20.573  1.00  0.00     0.053 C 
BRANCH   4   5
ATOM      5  C   UNL     1      19.260  47.980  20.533  1.00  0.00     0.041 C 
ATOM      6  O   UNL     1      20.140  48.364  21.348  1.00  0.00    -0.550 OA
ATOM      7  O   UNL     1      18.790  48.857  19.564  1.00  0.00    -0.550 OA
ENDBRANCH   4   5
ENDBRANCH   3   4
ENDBRANCH   2   3
ENDBRANCH   1   2
BRANCH   1   8
ATOM      8  C   UNL     1      15.556  43.768  19.398  1.00  0.00     0.000 C 
BRANCH   8   9
ATOM      9  C   UNL     1      16.919  43.646  18.686  1.00  0.00    -0.000 C 
BRANCH   9  10
ATOM     10  C   UNL     1      17.815  42.495  19.179  1.00  0.00    -0.000 C 
BRANCH  10  11
ATOM     11  C   UNL     1      18.880  42.957  20.184  1.00  0.00    -0.000 C 
BRANCH  11  12
ATOM     12  C   UNL     1      18.363  42.841  21.622  1.00  0.00    -0.003 C 
ATOM     13  C   UNL     1      17.519  41.583  21.805  1.00  0.00     0.004 C 
ENDBRANCH  11  12
ENDBRANCH  10  11
ENDBRANCH   9  10
ENDBRANCH   8   9
ENDBRANCH   1   8
TORSDOF 9
ENDMDL
