MODEL 1
REMARK VINA RESULT:    -4.586      0.000      0.000
REMARK INTER + INTRA:          -8.403
REMARK INTER:                  -7.266
REMARK INTRA:                  -1.137
REMARK UNBOUND:                -1.137
REMARK SMILES CCCCCCCCCCCC(=O)[O-]
REMARK SMILES IDX 7 1 8 2 9 3 10 4 11 5 12 6 13 7 14 8 6 9 5 10 4 11 3 12 2 13
REMARK SMILES IDX 1 14
REMARK H PARENT
REMARK Flexibility Score: inf
ROOT
ATOM      1  C   UNL     1      19.764  68.272  36.125  1.00  0.00     0.000 C 
ENDROOT
BRANCH   1   2
ATOM      2  C   UNL     1      20.527  69.471  35.546  1.00  0.00     0.000 C 
BRANCH   2   3
ATOM      3  C   UNL     1      20.532  69.493  34.006  1.00  0.00     0.000 C 
BRANCH   3   4
ATOM      4  C   UNL     1      19.790  70.685  33.367  1.00  0.00     0.006 C 
BRANCH   4   5
ATOM      5  C   UNL     1      18.550  70.297  32.546  1.00  0.00     0.053 C 
BRANCH   5   6
ATOM      6  C   UNL     1      17.362  70.032  33.418  1.00  0.00     0.041 C 
ATOM      7  O   UNL     1      17.303  70.521  34.577  1.00  0.00    -0.550 OA
ATOM      8  O   UNL     1      16.332  69.219  32.961  1.00  0.00    -0.550 OA
ENDBRANCH   5   6
ENDBRANCH   4   5
ENDBRANCH   3   4
ENDBRANCH   2   3
ENDBRANCH   1   2
BRANCH   1   9
ATOM      9  C   UNL     1      20.601  66.990  36.029  1.00  0.00     0.000 C 
BRANCH   9  10
ATOM     10  C   UNL     1      19.733  65.794  35.615  1.00  0.00    -0.000 C 
BRANCH  10  11
ATOM     11  C   UNL     1      18.241  66.153  35.674  1.00  0.00    -0.000 C 
BRANCH  11  12
ATOM     12  C   UNL     1      17.645  66.436  34.286  1.00  0.00    -0.000 C 
BRANCH  12  13
ATOM     13  C   UNL     1      18.402  65.718  33.159  1.00  0.00    -0.003 C 
ATOM     14  C   UNL     1      19.047  66.719  32.206  1.00  0.00     0.004 C 
ENDBRANCH  12  13
ENDBRANCH  11  12
ENDBRANCH  10  11
ENDBRANCH   9  10
ENDBRANCH   1   9
TORSDOF 10
ENDMDL
MODEL 2
REMARK VINA RESULT:    -4.454     12.573     14.584
REMARK INTER + INTRA:          -8.194
REMARK INTER:                  -6.874
REMARK INTRA:                  -1.320
REMARK UNBOUND:                -1.137
REMARK SMILES CCCCCCCCCCCC(=O)[O-]
REMARK SMILES IDX 7 1 8 2 9 3 10 4 11 5 12 6 13 7 14 8 6 9 5 10 4 11 3 12 2 13
REMARK SMILES IDX 1 14
REMARK H PARENT
REMARK Flexibility Score: inf
ROOT
ATOM      1  C   UNL     1       7.950  78.686  31.484  1.00  0.00     0.000 C 
ENDROOT
BRANCH   1   2
ATOM      2  C   UNL     1       8.536  77.274  31.617  1.00  0.00     0.000 C 
BRANCH   2   3
ATOM      3  C   UNL     1       9.942  77.264  32.245  1.00  0.00     0.000 C 
BRANCH   3   4
ATOM      4  C   UNL     1      11.108  77.188  31.238  1.00  0.00     0.006 C 
BRANCH   4   5
ATOM      5  C   UNL     1      11.428  78.515  30.532  1.00  0.00     0.053 C 
BRANCH   5   6
ATOM      6  C   UNL     1      10.759  78.614  29.197  1.00  0.00     0.041 C 
ATOM      7  O   UNL     1      10.106  79.646  28.889  1.00  0.00    -0.550 OA
ATOM      8  O   UNL     1      10.829  77.552  28.304  1.00  0.00    -0.550 OA
ENDBRANCH   5   6
ENDBRANCH   4   5
ENDBRANCH   3   4
ENDBRANCH   2   3
ENDBRANCH   1   2
BRANCH   1   9
ATOM      9  C   UNL     1       8.156  79.490  32.774  1.00  0.00     0.000 C 
BRANCH   9  10
ATOM     10  C   UNL     1       9.020  80.731  32.518  1.00  0.00    -0.000 C 
BRANCH  10  11
ATOM     11  C   UNL     1      10.018  80.951  33.666  1.00  0.00    -0.000 C 
BRANCH  11  12
ATOM     12  C   UNL     1       9.865  79.914  34.790  1.00  0.00    -0.000 C 
BRANCH  12  13
ATOM     13  C   UNL     1      11.204  79.280  35.196  1.00  0.00    -0.003 C 
ATOM     14  C   UNL     1      10.998  77.879  35.764  1.00  0.00     0.004 C 
ENDBRANCH  12  13
ENDBRANCH  11  12
ENDBRANCH  10  11
ENDBRANCH   9  10
ENDBRANCH   1   9
TORSDOF 10
ENDMDL
MODEL 3
REMARK VINA RESULT:    -4.383     12.304     14.010
REMARK INTER + INTRA:          -8.081
REMARK INTER:                  -6.820
REMARK INTRA:                  -1.261
REMARK UNBOUND:                -1.137
REMARK SMILES CCCCCCCCCCCC(=O)[O-]
REMARK SMILES IDX 7 1 8 2 9 3 10 4 11 5 12 6 13 7 14 8 6 9 5 10 4 11 3 12 2 13
REMARK SMILES IDX 1 14
REMARK H PARENT
REMARK Flexibility Score: inf
ROOT
ATOM      1  C   UNL     1       8.284  79.119  31.712  1.00  0.00     0.000 C 
ENDROOT
BRANCH   1   2
ATOM      2  C   UNL     1       7.970  79.582  33.142  1.00  0.00     0.000 C 
BRANCH   2   3
ATOM      3  C   UNL     1       9.079  80.466  33.743  1.00  0.00     0.000 C 
BRANCH   3   4
ATOM      4  C   UNL     1      10.485  79.832  33.756  1.00  0.00     0.006 C 
BRANCH   4   5
ATOM      5  C   UNL     1      11.093  79.659  35.157  1.00  0.00     0.053 C 
BRANCH   5   6
ATOM      6  C   UNL     1      11.108  78.225  35.586  1.00  0.00     0.041 C 
ATOM      7  O   UNL     1      10.031  77.629  35.848  1.00  0.00    -0.550 OA
ATOM      8  O   UNL     1      12.318  77.556  35.729  1.00  0.00    -0.550 OA
ENDBRANCH   5   6
ENDBRANCH   4   5
ENDBRANCH   3   4
ENDBRANCH   2   3
ENDBRANCH   1   2
BRANCH   1   9
ATOM      9  C   UNL     1       8.005  77.619  31.548  1.00  0.00     0.000 C 
BRANCH   9  10
ATOM     10  C   UNL     1       9.167  76.780  32.095  1.00  0.00    -0.000 C 
BRANCH  10  11
ATOM     11  C   UNL     1      10.235  76.551  31.014  1.00  0.00    -0.000 C 
BRANCH  11  12
ATOM     12  C   UNL     1      11.507  77.380  31.254  1.00  0.00    -0.000 C 
BRANCH  12  13
ATOM     13  C   UNL     1      11.589  78.615  30.345  1.00  0.00    -0.003 C 
ATOM     14  C   UNL     1      10.798  78.402  29.057  1.00  0.00     0.004 C 
ENDBRANCH  12  13
ENDBRANCH  11  12
ENDBRANCH  10  11
ENDBRANCH   9  10
ENDBRANCH   1   9
TORSDOF 10
ENDMDL
MODEL 4
REMARK VINA RESULT:    -4.334      1.886      4.110
REMARK INTER + INTRA:          -8.005
REMARK INTER:                  -6.883
REMARK INTRA:                  -1.122
REMARK UNBOUND:                -1.137
REMARK SMILES CCCCCCCCCCCC(=O)[O-]
REMARK SMILES IDX 7 1 8 2 9 3 10 4 11 5 12 6 13 7 14 8 6 9 5 10 4 11 3 12 2 13
REMARK SMILES IDX 1 14
REMARK H PARENT
REMARK Flexibility Score: inf
ROOT
ATOM      1  C   UNL     1      20.814  67.456  35.803  1.00  0.00     0.000 C 
ENDROOT
BRANCH   1   2
ATOM      2  C   UNL     1      19.412  66.901  36.093  1.00  0.00     0.000 C 
BRANCH   2   3
ATOM      3  C   UNL     1      19.280  65.403  35.763  1.00  0.00     0.000 C 
BRANCH   3   4
ATOM      4  C   UNL     1      18.366  65.076  34.565  1.00  0.00     0.006 C 
BRANCH   4   5
ATOM      5  C   UNL     1      17.959  66.295  33.722  1.00  0.00     0.053 C 
BRANCH   5   6
ATOM      6  C   UNL     1      18.818  66.446  32.505  1.00  0.00     0.041 C 
ATOM      7  O   UNL     1      19.639  67.397  32.422  1.00  0.00    -0.550 OA
ATOM      8  O   UNL     1      18.688  65.553  31.448  1.00  0.00    -0.550 OA
ENDBRANCH   5   6
ENDBRANCH   4   5
ENDBRANCH   3   4
ENDBRANCH   2   3
ENDBRANCH   1   2
BRANCH   1   9
ATOM      9  C   UNL     1      20.819  68.989  35.856  1.00  0.00     0.000 C 
BRANCH   9  10
ATOM     10  C   UNL     1      20.608  69.589  34.460  1.00  0.00    -0.000 C 
BRANCH  10  11
ATOM     11  C   UNL     1      19.537  70.690  34.492  1.00  0.00    -0.000 C 
BRANCH  11  12
ATOM     12  C   UNL     1      18.353  70.338  35.407  1.00  0.00    -0.000 C 
BRANCH  12  13
ATOM     13  C   UNL     1      17.217  69.627  34.658  1.00  0.00    -0.003 C 
ATOM     14  C   UNL     1      17.200  70.022  33.184  1.00  0.00     0.004 C 
ENDBRANCH  12  13
ENDBRANCH  11  12
ENDBRANCH  10  11
ENDBRANCH   9  10
ENDBRANCH   1   9
TORSDOF 10
ENDMDL
MODEL 5
REMARK VINA RESULT:    -4.327     12.543     14.509
REMARK INTER + INTRA:          -7.993
REMARK INTER:                  -6.722
REMARK INTRA:                  -1.271
REMARK UNBOUND:                -1.137
REMARK SMILES CCCCCCCCCCCC(=O)[O-]
REMARK SMILES IDX 7 1 8 2 9 3 10 4 11 5 12 6 13 7 14 8 6 9 5 10 4 11 3 12 2 13
REMARK SMILES IDX 1 14
REMARK H PARENT
REMARK Flexibility Score: inf
ROOT
ATOM      1  C   UNL     1       9.303  80.493  32.205  1.00  0.00     0.000 C 
ENDROOT
BRANCH   1   2
ATOM      2  C   UNL     1       9.957  79.718  31.053  1.00  0.00     0.000 C 
BRANCH   2   3
ATOM      3  C   UNL     1      11.369  79.208  31.399  1.00  0.00     0.000 C 
BRANCH   3   4
ATOM      4  C   UNL     1      11.461  77.699  31.705  1.00  0.00     0.006 C 
BRANCH   4   5
ATOM      5  C   UNL     1      10.134  77.053  32.133  1.00  0.00     0.053 C 
BRANCH   5   6
ATOM      6  C   UNL     1       9.570  76.172  31.062  1.00  0.00     0.041 C 
ATOM      7  O   UNL     1       8.618  75.389  31.320  1.00  0.00    -0.550 OA
ATOM      8  O   UNL     1      10.117  76.194  29.785  1.00  0.00    -0.550 OA
ENDBRANCH   5   6
ENDBRANCH   4   5
ENDBRANCH   3   4
ENDBRANCH   2   3
ENDBRANCH   1   2
BRANCH   1   9
ATOM      9  C   UNL     1       7.867  80.009  32.446  1.00  0.00     0.000 C 
BRANCH   9  10
ATOM     10  C   UNL     1       7.579  79.862  33.946  1.00  0.00    -0.000 C 
BRANCH  10  11
ATOM     11  C   UNL     1       8.832  80.173  34.778  1.00  0.00    -0.000 C 
BRANCH  11  12
ATOM     12  C   UNL     1       9.602  78.906  35.184  1.00  0.00    -0.000 C 
BRANCH  12  13
ATOM     13  C   UNL     1      11.099  79.168  35.402  1.00  0.00    -0.003 C 
ATOM     14  C   UNL     1      11.404  80.662  35.379  1.00  0.00     0.004 C 
ENDBRANCH  12  13
ENDBRANCH  11  12
ENDBRANCH  10  11
ENDBRANCH   9  10
ENDBRANCH   1   9
TORSDOF 10
ENDMDL
MODEL 6
REMARK VINA RESULT:    -4.226     12.897     14.224
REMARK INTER + INTRA:          -7.833
REMARK INTER:                  -6.673
REMARK INTRA:                  -1.160
REMARK UNBOUND:                -1.137
REMARK SMILES CCCCCCCCCCCC(=O)[O-]
REMARK SMILES IDX 7 1 8 2 9 3 10 4 11 5 12 6 13 7 14 8 6 9 5 10 4 11 3 12 2 13
REMARK SMILES IDX 1 14
REMARK H PARENT
REMARK Flexibility Score: inf
ROOT
ATOM      1  C   UNL     1      10.922  77.532  32.474  1.00  0.00     0.000 C 
ENDROOT
BRANCH   1   2
ATOM      2  C   UNL     1      11.281  77.991  33.894  1.00  0.00     0.000 C 
BRANCH   2   3
ATOM      3  C   UNL     1      10.056  78.085  34.822  1.00  0.00     0.000 C 
BRANCH   3   4
ATOM      4  C   UNL     1       9.692  79.511  35.283  1.00  0.00     0.006 C 
BRANCH   4   5
ATOM      5  C   UNL     1       8.401  80.071  34.666  1.00  0.00     0.053 C 
BRANCH   5   6
ATOM      6  C   UNL     1       8.609  80.536  33.258  1.00  0.00     0.041 C 
ATOM      7  O   UNL     1       7.775  80.242  32.362  1.00  0.00    -0.550 OA
ATOM      8  O   UNL     1       9.744  81.268  32.929  1.00  0.00    -0.550 OA
ENDBRANCH   5   6
ENDBRANCH   4   5
ENDBRANCH   3   4
ENDBRANCH   2   3
ENDBRANCH   1   2
BRANCH   1   9
ATOM      9  C   UNL     1       9.450  77.108  32.390  1.00  0.00     0.000 C 
BRANCH   9  10
ATOM     10  C   UNL     1       9.183  76.292  31.118  1.00  0.00    -0.000 C 
BRANCH  10  11
ATOM     11  C   UNL     1      10.429  76.252  30.220  1.00  0.00    -0.000 C 
BRANCH  11  12
ATOM     12  C   UNL     1      10.221  76.987  28.886  1.00  0.00    -0.000 C 
BRANCH  12  13
ATOM     13  C   UNL     1      10.904  78.362  28.855  1.00  0.00    -0.003 C 
ATOM     14  C   UNL     1       9.960  79.456  29.342  1.00  0.00     0.004 C 
ENDBRANCH  12  13
ENDBRANCH  11  12
ENDBRANCH  10  11
ENDBRANCH   9  10
ENDBRANCH   1   9
TORSDOF 10
ENDMDL
MODEL 7
REMARK VINA RESULT:    -4.186     12.685     14.289
REMARK INTER + INTRA:          -7.770
REMARK INTER:                  -6.635
REMARK INTRA:                  -1.134
REMARK UNBOUND:                -1.137
REMARK SMILES CCCCCCCCCCCC(=O)[O-]
REMARK SMILES IDX 7 1 8 2 9 3 10 4 11 5 12 6 13 7 14 8 6 9 5 10 4 11 3 12 2 13
REMARK SMILES IDX 1 14
REMARK H PARENT
REMARK Flexibility Score: inf
ROOT
ATOM      1  C   UNL     1      11.197  79.791  31.614  1.00  0.00     0.000 C 
ENDROOT
BRANCH   1   2
ATOM      2  C   UNL     1       9.678  80.016  31.626  1.00  0.00     0.000 C 
BRANCH   2   3
ATOM      3  C   UNL     1       9.203  80.837  32.839  1.00  0.00     0.000 C 
BRANCH   3   4
ATOM      4  C   UNL     1       8.262  80.090  33.805  1.00  0.00     0.006 C 
BRANCH   4   5
ATOM      5  C   UNL     1       8.872  79.787  35.183  1.00  0.00     0.053 C 
BRANCH   5   6
ATOM      6  C   UNL     1      10.182  79.071  35.069  1.00  0.00     0.041 C 
ATOM      7  O   UNL     1      11.244  79.623  35.459  1.00  0.00    -0.550 OA
ATOM      8  O   UNL     1      10.234  77.804  34.500  1.00  0.00    -0.550 OA
ENDBRANCH   5   6
ENDBRANCH   4   5
ENDBRANCH   3   4
ENDBRANCH   2   3
ENDBRANCH   1   2
BRANCH   1   9
ATOM      9  C   UNL     1      11.554  78.496  30.874  1.00  0.00     0.000 C 
BRANCH   9  10
ATOM     10  C   UNL     1      10.810  78.403  29.535  1.00  0.00    -0.000 C 
BRANCH  10  11
ATOM     11  C   UNL     1       9.846  77.207  29.526  1.00  0.00    -0.000 C 
BRANCH  11  12
ATOM     12  C   UNL     1      10.103  76.230  30.684  1.00  0.00    -0.000 C 
BRANCH  12  13
ATOM     13  C   UNL     1       8.884  76.071  31.605  1.00  0.00    -0.003 C 
ATOM     14  C   UNL     1       7.813  77.107  31.282  1.00  0.00     0.004 C 
ENDBRANCH  12  13
ENDBRANCH  11  12
ENDBRANCH  10  11
ENDBRANCH   9  10
ENDBRANCH   1   9
TORSDOF 10
ENDMDL
MODEL 8
REMARK VINA RESULT:    -4.185     15.882     18.438
REMARK INTER + INTRA:          -7.768
REMARK INTER:                  -6.768
REMARK INTRA:                  -1.000
REMARK UNBOUND:                -1.137
REMARK SMILES CCCCCCCCCCCC(=O)[O-]
REMARK SMILES IDX 7 1 8 2 9 3 10 4 11 5 12 6 13 7 14 8 6 9 5 10 4 11 3 12 2 13
REMARK SMILES IDX 1 14
REMARK H PARENT
REMARK Flexibility Score: inf
ROOT
ATOM      1  C   UNL     1      20.479  75.974  19.353  1.00  0.00     0.000 C 
ENDROOT
BRANCH   1   2
ATOM      2  C   UNL     1      19.113  76.654  19.521  1.00  0.00     0.000 C 
BRANCH   2   3
ATOM      3  C   UNL     1      18.084  76.201  18.468  1.00  0.00     0.000 C 
BRANCH   3   4
ATOM      4  C   UNL     1      17.467  74.809  18.713  1.00  0.00     0.006 C 
BRANCH   4   5
ATOM      5  C   UNL     1      18.227  73.650  18.049  1.00  0.00     0.053 C 
BRANCH   5   6
ATOM      6  C   UNL     1      18.699  72.643  19.052  1.00  0.00     0.041 C 
ATOM      7  O   UNL     1      18.733  72.934  20.276  1.00  0.00    -0.550 OA
ATOM      8  O   UNL     1      19.132  71.392  18.629  1.00  0.00    -0.550 OA
ENDBRANCH   5   6
ENDBRANCH   4   5
ENDBRANCH   3   4
ENDBRANCH   2   3
ENDBRANCH   1   2
BRANCH   1   9
ATOM      9  C   UNL     1      21.396  76.803  18.444  1.00  0.00     0.000 C 
BRANCH   9  10
ATOM     10  C   UNL     1      21.323  76.311  16.992  1.00  0.00    -0.000 C 
BRANCH  10  11
ATOM     11  C   UNL     1      21.074  77.481  16.028  1.00  0.00    -0.000 C 
BRANCH  11  12
ATOM     12  C   UNL     1      19.927  78.394  16.489  1.00  0.00    -0.000 C 
BRANCH  12  13
ATOM     13  C   UNL     1      20.370  79.854  16.673  1.00  0.00    -0.003 C 
ATOM     14  C   UNL     1      20.369  80.246  18.147  1.00  0.00     0.004 C 
ENDBRANCH  12  13
ENDBRANCH  11  12
ENDBRANCH  10  11
ENDBRANCH   9  10
ENDBRANCH   1   9
TORSDOF 10
ENDMDL
MODEL 9
REMARK VINA RESULT:    -4.175     14.678     17.007
REMARK INTER + INTRA:          -7.753
REMARK INTER:                  -7.274
REMARK INTRA:                  -0.478
REMARK UNBOUND:                -1.137
REMARK SMILES CCCCCCCCCCCC(=O)[O-]
REMARK SMILES IDX 7 1 8 2 9 3 10 4 11 5 12 6 13 7 14 8 6 9 5 10 4 11 3 12 2 13
REMARK SMILES IDX 1 14
REMARK H PARENT
REMARK Flexibility Score: inf
ROOT
ATOM      1  C   UNL     1      18.825  74.357  19.269  1.00  0.00     0.000 C 
ENDROOT
BRANCH   1   2
ATOM      2  C   UNL     1      18.269  72.934  19.420  1.00  0.00     0.000 C 
BRANCH   2   3
ATOM      3  C   UNL     1      18.849  71.951  18.386  1.00  0.00     0.000 C 
BRANCH   3   4
ATOM      4  C   UNL     1      19.025  70.503  18.888  1.00  0.00     0.006 C 
BRANCH   4   5
ATOM      5  C   UNL     1      17.839  69.574  18.585  1.00  0.00     0.053 C 
BRANCH   5   6
ATOM      6  C   UNL     1      17.002  69.320  19.800  1.00  0.00     0.041 C 
ATOM      7  O   UNL     1      17.333  69.810  20.912  1.00  0.00    -0.550 OA
ATOM      8  O   UNL     1      15.873  68.516  19.710  1.00  0.00    -0.550 OA
ENDBRANCH   5   6
ENDBRANCH   4   5
ENDBRANCH   3   4
ENDBRANCH   2   3
ENDBRANCH   1   2
BRANCH   1   9
ATOM      9  C   UNL     1      20.018  74.582  20.207  1.00  0.00     0.000 C 
BRANCH   9  10
ATOM     10  C   UNL     1      20.656  75.956  19.966  1.00  0.00    -0.000 C 
BRANCH  10  11
ATOM     11  C   UNL     1      20.275  76.503  18.582  1.00  0.00    -0.000 C 
BRANCH  11  12
ATOM     12  C   UNL     1      19.592  77.879  18.657  1.00  0.00    -0.000 C 
BRANCH  12  13
ATOM     13  C   UNL     1      20.041  78.824  17.533  1.00  0.00    -0.003 C 
ATOM     14  C   UNL     1      20.375  80.208  18.082  1.00  0.00     0.004 C 
ENDBRANCH  12  13
ENDBRANCH  11  12
ENDBRANCH  10  11
ENDBRANCH   9  10
ENDBRANCH   1   9
TORSDOF 10
ENDMDL
