MODEL 1
REMARK VINA RESULT:    -3.637      0.000      0.000
REMARK INTER + INTRA:          -4.341
REMARK INTER:                  -4.274
REMARK INTRA:                  -0.066
REMARK UNBOUND:                -0.066
REMARK SMILES CCCCC(=O)[O-]
REMARK SMILES IDX 4 1 5 2 6 3 7 4 3 5 2 6 1 7
REMARK H PARENT
REMARK Flexibility Score: inf
ROOT
ATOM      1  C   UNL     1     -11.632 -27.882 -34.767  1.00  0.00     0.053 C 
ENDROOT
BRANCH   1   2
ATOM      2  C   UNL     1     -11.271 -26.437 -34.625  1.00  0.00     0.041 C 
ATOM      3  O   UNL     1     -11.185 -25.702 -35.644  1.00  0.00    -0.550 OA
ATOM      4  O   UNL     1     -10.983 -25.912 -33.371  1.00  0.00    -0.550 OA
ENDBRANCH   1   2
BRANCH   1   5
ATOM      5  C   UNL     1     -12.721 -28.264 -33.756  1.00  0.00     0.006 C 
BRANCH   5   6
ATOM      6  C   UNL     1     -14.036 -27.507 -33.995  1.00  0.00    -0.003 C 
ATOM      7  C   UNL     1     -14.519 -27.600 -35.441  1.00  0.00     0.004 C 
ENDBRANCH   5   6
ENDBRANCH   1   5
TORSDOF 3
ENDMDL
MODEL 2
REMARK VINA RESULT:    -3.582      2.418      3.134
REMARK INTER + INTRA:          -4.277
REMARK INTER:                  -4.249
REMARK INTRA:                  -0.027
REMARK UNBOUND:                -0.066
REMARK SMILES CCCCC(=O)[O-]
REMARK SMILES IDX 4 1 5 2 6 3 7 4 3 5 2 6 1 7
REMARK H PARENT
REMARK Flexibility Score: inf
ROOT
ATOM      1  C   UNL     1     -13.153 -27.656 -32.949  1.00  0.00     0.053 C 
ENDROOT
BRANCH   1   2
ATOM      2  C   UNL     1     -12.612 -28.239 -31.682  1.00  0.00     0.041 C 
ATOM      3  O   UNL     1     -13.323 -29.012 -30.986  1.00  0.00    -0.550 OA
ATOM      4  O   UNL     1     -11.341 -27.892 -31.243  1.00  0.00    -0.550 OA
ENDBRANCH   1   2
BRANCH   1   5
ATOM      5  C   UNL     1     -12.433 -28.256 -34.164  1.00  0.00     0.006 C 
BRANCH   5   6
ATOM      6  C   UNL     1     -13.033 -27.783 -35.497  1.00  0.00    -0.003 C 
ATOM      7  C   UNL     1     -14.535 -27.518 -35.409  1.00  0.00     0.004 C 
ENDBRANCH   5   6
ENDBRANCH   1   5
TORSDOF 3
ENDMDL
MODEL 3
REMARK VINA RESULT:    -3.525      2.014      2.804
REMARK INTER + INTRA:          -4.210
REMARK INTER:                  -4.116
REMARK INTRA:                  -0.094
REMARK UNBOUND:                -0.066
REMARK SMILES CCCCC(=O)[O-]
REMARK SMILES IDX 4 1 5 2 6 3 7 4 3 5 2 6 1 7
REMARK H PARENT
REMARK Flexibility Score: inf
ROOT
ATOM      1  C   UNL     1     -12.193 -25.342 -34.652  1.00  0.00     0.053 C 
ENDROOT
BRANCH   1   2
ATOM      2  C   UNL     1     -12.769 -24.511 -35.756  1.00  0.00     0.041 C 
ATOM      3  O   UNL     1     -13.368 -25.061 -36.717  1.00  0.00    -0.550 OA
ATOM      4  O   UNL     1     -12.601 -23.132 -35.748  1.00  0.00    -0.550 OA
ENDBRANCH   1   2
BRANCH   1   5
ATOM      5  C   UNL     1     -11.162 -26.332 -35.211  1.00  0.00     0.006 C 
BRANCH   5   6
ATOM      6  C   UNL     1     -11.523 -27.793 -34.905  1.00  0.00    -0.003 C 
ATOM      7  C   UNL     1     -13.002 -27.981 -34.570  1.00  0.00     0.004 C 
ENDBRANCH   5   6
ENDBRANCH   1   5
TORSDOF 3
ENDMDL
MODEL 4
REMARK VINA RESULT:    -3.521      1.983      2.656
REMARK INTER + INTRA:          -4.204
REMARK INTER:                  -4.156
REMARK INTRA:                  -0.048
REMARK UNBOUND:                -0.066
REMARK SMILES CCCCC(=O)[O-]
REMARK SMILES IDX 4 1 5 2 6 3 7 4 3 5 2 6 1 7
REMARK H PARENT
REMARK Flexibility Score: inf
ROOT
ATOM      1  C   UNL     1     -12.713 -28.420 -32.260  1.00  0.00     0.053 C 
ENDROOT
BRANCH   1   2
ATOM      2  C   UNL     1     -11.539 -27.773 -31.595  1.00  0.00     0.041 C 
ATOM      3  O   UNL     1     -10.978 -26.779 -32.126  1.00  0.00    -0.550 OA
ATOM      4  O   UNL     1     -11.033 -28.298 -30.412  1.00  0.00    -0.550 OA
ENDBRANCH   1   2
BRANCH   1   5
ATOM      5  C   UNL     1     -13.384 -27.440 -33.231  1.00  0.00     0.006 C 
BRANCH   5   6
ATOM      6  C   UNL     1     -13.297 -27.908 -34.692  1.00  0.00    -0.003 C 
ATOM      7  C   UNL     1     -14.549 -27.567 -35.498  1.00  0.00     0.004 C 
ENDBRANCH   5   6
ENDBRANCH   1   5
TORSDOF 3
ENDMDL
MODEL 5
REMARK VINA RESULT:    -3.520     15.173     15.769
REMARK INTER + INTRA:          -4.204
REMARK INTER:                  -4.183
REMARK INTRA:                  -0.021
REMARK UNBOUND:                -0.066
REMARK SMILES CCCCC(=O)[O-]
REMARK SMILES IDX 4 1 5 2 6 3 7 4 3 5 2 6 1 7
REMARK H PARENT
REMARK Flexibility Score: inf
ROOT
ATOM      1  C   UNL     1      -6.607 -31.406 -47.894  1.00  0.00     0.053 C 
ENDROOT
BRANCH   1   2
ATOM      2  C   UNL     1      -5.975 -32.701 -47.490  1.00  0.00     0.041 C 
ATOM      3  O   UNL     1      -4.961 -33.129 -48.101  1.00  0.00    -0.550 OA
ATOM      4  O   UNL     1      -6.535 -33.459 -46.469  1.00  0.00    -0.550 OA
ENDBRANCH   1   2
BRANCH   1   5
ATOM      5  C   UNL     1      -5.596 -30.529 -48.645  1.00  0.00     0.006 C 
BRANCH   5   6
ATOM      6  C   UNL     1      -6.116 -29.103 -48.883  1.00  0.00    -0.003 C 
ATOM      7  C   UNL     1      -5.538 -28.090 -47.897  1.00  0.00     0.004 C 
ENDBRANCH   5   6
ENDBRANCH   1   5
TORSDOF 3
ENDMDL
MODEL 6
REMARK VINA RESULT:    -3.503      1.522      2.397
REMARK INTER + INTRA:          -4.184
REMARK INTER:                  -4.154
REMARK INTRA:                  -0.030
REMARK UNBOUND:                -0.066
REMARK SMILES CCCCC(=O)[O-]
REMARK SMILES IDX 4 1 5 2 6 3 7 4 3 5 2 6 1 7
REMARK H PARENT
REMARK Flexibility Score: inf
ROOT
ATOM      1  C   UNL     1     -13.504 -27.344 -35.349  1.00  0.00     0.053 C 
ENDROOT
BRANCH   1   2
ATOM      2  C   UNL     1     -12.853 -26.041 -35.692  1.00  0.00     0.041 C 
ATOM      3  O   UNL     1     -13.450 -25.207 -36.423  1.00  0.00    -0.550 OA
ATOM      4  O   UNL     1     -11.567 -25.767 -35.244  1.00  0.00    -0.550 OA
ENDBRANCH   1   2
BRANCH   1   5
ATOM      5  C   UNL     1     -13.731 -27.447 -33.835  1.00  0.00     0.006 C 
BRANCH   5   6
ATOM      6  C   UNL     1     -12.655 -28.290 -33.135  1.00  0.00    -0.003 C 
ATOM      7  C   UNL     1     -12.996 -28.594 -31.677  1.00  0.00     0.004 C 
ENDBRANCH   5   6
ENDBRANCH   1   5
TORSDOF 3
ENDMDL
MODEL 7
REMARK VINA RESULT:    -3.503      2.091      2.834
REMARK INTER + INTRA:          -4.183
REMARK INTER:                  -4.117
REMARK INTRA:                  -0.066
REMARK UNBOUND:                -0.066
REMARK SMILES CCCCC(=O)[O-]
REMARK SMILES IDX 4 1 5 2 6 3 7 4 3 5 2 6 1 7
REMARK H PARENT
REMARK Flexibility Score: inf
ROOT
ATOM      1  C   UNL     1     -12.032 -27.604 -34.969  1.00  0.00     0.053 C 
ENDROOT
BRANCH   1   2
ATOM      2  C   UNL     1     -13.321 -27.062 -35.503  1.00  0.00     0.041 C 
ATOM      3  O   UNL     1     -13.386 -25.875 -35.916  1.00  0.00    -0.550 OA
ATOM      4  O   UNL     1     -14.463 -27.854 -35.500  1.00  0.00    -0.550 OA
ENDBRANCH   1   2
BRANCH   1   5
ATOM      5  C   UNL     1     -12.297 -28.545 -33.787  1.00  0.00     0.006 C 
BRANCH   5   6
ATOM      6  C   UNL     1     -12.586 -27.785 -32.483  1.00  0.00    -0.003 C 
ATOM      7  C   UNL     1     -12.978 -28.710 -31.333  1.00  0.00     0.004 C 
ENDBRANCH   5   6
ENDBRANCH   1   5
TORSDOF 3
ENDMDL
MODEL 8
REMARK VINA RESULT:    -3.492      2.026      2.910
REMARK INTER + INTRA:          -4.171
REMARK INTER:                  -4.063
REMARK INTRA:                  -0.108
REMARK UNBOUND:                -0.066
REMARK SMILES CCCCC(=O)[O-]
REMARK SMILES IDX 4 1 5 2 6 3 7 4 3 5 2 6 1 7
REMARK H PARENT
REMARK Flexibility Score: inf
ROOT
ATOM      1  C   UNL     1     -13.846 -27.470 -33.876  1.00  0.00     0.053 C 
ENDROOT
BRANCH   1   2
ATOM      2  C   UNL     1     -12.740 -28.252 -33.241  1.00  0.00     0.041 C 
ATOM      3  O   UNL     1     -11.751 -28.622 -33.928  1.00  0.00    -0.550 OA
ATOM      4  O   UNL     1     -12.824 -28.616 -31.903  1.00  0.00    -0.550 OA
ENDBRANCH   1   2
BRANCH   1   5
ATOM      5  C   UNL     1     -13.659 -27.417 -35.398  1.00  0.00     0.006 C 
BRANCH   5   6
ATOM      6  C   UNL     1     -13.453 -25.986 -35.916  1.00  0.00    -0.003 C 
ATOM      7  C   UNL     1     -12.057 -25.442 -35.615  1.00  0.00     0.004 C 
ENDBRANCH   5   6
ENDBRANCH   1   5
TORSDOF 3
ENDMDL
MODEL 9
REMARK VINA RESULT:    -3.306      2.088      3.195
REMARK INTER + INTRA:          -3.952
REMARK INTER:                  -3.849
REMARK INTRA:                  -0.103
REMARK UNBOUND:                -0.066
REMARK SMILES CCCCC(=O)[O-]
REMARK SMILES IDX 4 1 5 2 6 3 7 4 3 5 2 6 1 7
REMARK H PARENT
REMARK Flexibility Score: inf
ROOT
ATOM      1  C   UNL     1     -13.746 -27.613 -33.620  1.00  0.00     0.053 C 
ENDROOT
BRANCH   1   2
ATOM      2  C   UNL     1     -13.881 -27.298 -35.077  1.00  0.00     0.041 C 
ATOM      3  O   UNL     1     -14.820 -27.799 -35.749  1.00  0.00    -0.550 OA
ATOM      4  O   UNL     1     -12.941 -26.489 -35.704  1.00  0.00    -0.550 OA
ENDBRANCH   1   2
BRANCH   1   5
ATOM      5  C   UNL     1     -12.415 -28.327 -33.349  1.00  0.00     0.006 C 
BRANCH   5   6
ATOM      6  C   UNL     1     -11.601 -27.652 -32.235  1.00  0.00    -0.003 C 
ATOM      7  C   UNL     1     -11.140 -26.244 -32.609  1.00  0.00     0.004 C 
ENDBRANCH   5   6
ENDBRANCH   1   5
TORSDOF 3
ENDMDL
