MODEL 1
REMARK VINA RESULT:    -5.442      0.000      0.000
REMARK INTER + INTRA:          -6.143
REMARK INTER:                  -5.919
REMARK INTRA:                  -0.224
REMARK UNBOUND:                -0.224
REMARK SMILES CC1=C2C[C@@H](C(C)(C)O)CC[C@]2(C)CCC1
REMARK SMILES IDX 6 1 7 2 8 3 5 4 1 5 2 6 3 7 16 8 4 9 12 10 15 11 11 12 14 13
REMARK SMILES IDX 13 14 10 15 9 16
REMARK H PARENT 9 17
REMARK Flexibility Score: inf
ROOT
ATOM      1  C   UNL     1     133.683 141.288 136.440  1.00  0.00     0.062 C 
ATOM      2  C   UNL     1     133.847 140.693 135.023  1.00  0.00     0.042 C 
ATOM      3  C   UNL     1     135.069 141.320 137.116  1.00  0.00     0.042 C 
ENDROOT
BRANCH   1   4
ATOM      4  C   UNL     1     132.623 140.475 137.276  1.00  0.00     0.024 C 
ATOM      5  C   UNL     1     132.020 136.365 136.468  1.00  0.00     0.039 C 
ATOM      6  C   UNL     1     131.026 137.142 137.303  1.00  0.00    -0.074 C 
ATOM      7  C   UNL     1     131.025 138.513 137.338  1.00  0.00    -0.065 C 
ATOM      8  C   UNL     1     130.125 136.313 138.201  1.00  0.00     0.031 C 
ATOM      9  C   UNL     1     131.967 139.337 136.462  1.00  0.00     0.038 C 
ATOM     10  C   UNL     1     129.957 139.302 138.114  1.00  0.00    -0.011 C 
ATOM     11  C   UNL     1     128.884 137.059 138.675  1.00  0.00     0.005 C 
ATOM     12  C   UNL     1     130.618 140.515 138.830  1.00  0.00     0.011 C 
ATOM     13  C   UNL     1     129.278 138.430 139.208  1.00  0.00     0.011 C 
ATOM     14  C   UNL     1     128.875 139.804 137.123  1.00  0.00     0.016 C 
ATOM     15  C   UNL     1     131.527 141.354 137.922  1.00  0.00     0.008 C 
ENDBRANCH   1   4
BRANCH   1  16
ATOM     16  O   UNL     1     133.254 142.625 136.308  1.00  0.00    -0.390 OA
ATOM     17  H   UNL     1     132.502 142.769 136.941  1.00  0.00     0.211 HD
ENDBRANCH   1  16
TORSDOF 2
ENDMDL
MODEL 2
REMARK VINA RESULT:    -5.228     13.405     14.417
REMARK INTER + INTRA:          -5.910
REMARK INTER:                  -5.683
REMARK INTRA:                  -0.226
REMARK UNBOUND:                -0.224
REMARK SMILES CC1=C2C[C@@H](C(C)(C)O)CC[C@]2(C)CCC1
REMARK SMILES IDX 6 1 7 2 8 3 5 4 1 5 2 6 3 7 16 8 4 9 12 10 15 11 11 12 14 13
REMARK SMILES IDX 13 14 10 15 9 16
REMARK H PARENT 9 17
REMARK Flexibility Score: inf
ROOT
ATOM      1  C   UNL     1     143.621 136.972 146.568  1.00  0.00     0.062 C 
ATOM      2  C   UNL     1     143.958 137.402 145.122  1.00  0.00     0.042 C 
ATOM      3  C   UNL     1     144.563 135.818 146.964  1.00  0.00     0.042 C 
ENDROOT
BRANCH   1   4
ATOM      4  C   UNL     1     142.099 136.583 146.701  1.00  0.00     0.024 C 
ATOM      5  C   UNL     1     140.568 135.360 150.452  1.00  0.00     0.039 C 
ATOM      6  C   UNL     1     139.781 135.121 149.182  1.00  0.00    -0.074 C 
ATOM      7  C   UNL     1     140.359 135.227 147.942  1.00  0.00    -0.065 C 
ATOM      8  C   UNL     1     138.291 134.895 149.359  1.00  0.00     0.031 C 
ATOM      9  C   UNL     1     141.853 135.499 147.776  1.00  0.00     0.038 C 
ATOM     10  C   UNL     1     139.582 134.895 146.657  1.00  0.00    -0.011 C 
ATOM     11  C   UNL     1     137.626 134.240 148.154  1.00  0.00     0.005 C 
ATOM     12  C   UNL     1     139.936 135.927 145.548  1.00  0.00     0.011 C 
ATOM     13  C   UNL     1     138.045 134.960 146.879  1.00  0.00     0.011 C 
ATOM     14  C   UNL     1     139.965 133.468 146.185  1.00  0.00     0.016 C 
ATOM     15  C   UNL     1     141.443 136.155 145.368  1.00  0.00     0.008 C 
ENDBRANCH   1   4
BRANCH   1  16
ATOM     16  O   UNL     1     143.906 138.054 147.425  1.00  0.00    -0.390 OA
ATOM     17  H   UNL     1     143.751 137.754 148.360  1.00  0.00     0.211 HD
ENDBRANCH   1  16
TORSDOF 2
ENDMDL
MODEL 3
REMARK VINA RESULT:    -5.129     13.564     16.319
REMARK INTER + INTRA:          -5.803
REMARK INTER:                  -5.551
REMARK INTRA:                  -0.251
REMARK UNBOUND:                -0.224
REMARK SMILES CC1=C2C[C@@H](C(C)(C)O)CC[C@]2(C)CCC1
REMARK SMILES IDX 6 1 7 2 8 3 5 4 1 5 2 6 3 7 16 8 4 9 12 10 15 11 11 12 14 13
REMARK SMILES IDX 13 14 10 15 9 16
REMARK H PARENT 9 17
REMARK Flexibility Score: inf
ROOT
ATOM      1  C   UNL     1     144.800 138.198 140.976  1.00  0.00     0.062 C 
ATOM      2  C   UNL     1     145.055 139.544 140.261  1.00  0.00     0.042 C 
ATOM      3  C   UNL     1     143.299 138.103 141.313  1.00  0.00     0.042 C 
ENDROOT
BRANCH   1   4
ATOM      4  C   UNL     1     145.715 138.054 142.252  1.00  0.00     0.024 C 
ATOM      5  C   UNL     1     144.130 136.351 145.787  1.00  0.00     0.039 C 
ATOM      6  C   UNL     1     145.435 137.115 145.816  1.00  0.00    -0.074 C 
ATOM      7  C   UNL     1     145.825 137.921 144.777  1.00  0.00    -0.065 C 
ATOM      8  C   UNL     1     146.345 136.828 146.997  1.00  0.00     0.031 C 
ATOM      9  C   UNL     1     144.919 138.169 143.572  1.00  0.00     0.038 C 
ATOM     10  C   UNL     1     147.107 138.768 144.848  1.00  0.00    -0.011 C 
ATOM     11  C   UNL     1     147.406 137.897 147.224  1.00  0.00     0.005 C 
ATOM     12  C   UNL     1     147.832 138.738 143.471  1.00  0.00     0.011 C 
ATOM     13  C   UNL     1     148.102 138.221 145.909  1.00  0.00     0.011 C 
ATOM     14  C   UNL     1     146.733 140.229 145.210  1.00  0.00     0.016 C 
ATOM     15  C   UNL     1     146.913 139.030 142.277  1.00  0.00     0.008 C 
ENDBRANCH   1   4
BRANCH   1  16
ATOM     16  O   UNL     1     145.090 137.158 140.070  1.00  0.00    -0.390 OA
ATOM     17  H   UNL     1     145.773 137.490 139.430  1.00  0.00     0.211 HD
ENDBRANCH   1  16
TORSDOF 2
ENDMDL
MODEL 4
REMARK VINA RESULT:    -5.015      1.164      2.871
REMARK INTER + INTRA:          -5.678
REMARK INTER:                  -5.458
REMARK INTRA:                  -0.220
REMARK UNBOUND:                -0.224
REMARK SMILES CC1=C2C[C@@H](C(C)(C)O)CC[C@]2(C)CCC1
REMARK SMILES IDX 6 1 7 2 8 3 5 4 1 5 2 6 3 7 16 8 4 9 12 10 15 11 11 12 14 13
REMARK SMILES IDX 13 14 10 15 9 16
REMARK H PARENT 9 17
REMARK Flexibility Score: inf
ROOT
ATOM      1  C   UNL     1     133.878 141.306 134.965  1.00  0.00     0.062 C 
ATOM      2  C   UNL     1     133.860 141.526 133.436  1.00  0.00     0.042 C 
ATOM      3  C   UNL     1     135.274 140.788 135.365  1.00  0.00     0.042 C 
ENDROOT
BRANCH   1   4
ATOM      4  C   UNL     1     132.722 140.331 135.410  1.00  0.00     0.024 C 
ATOM      5  C   UNL     1     130.803 140.914 139.136  1.00  0.00     0.039 C 
ATOM      6  C   UNL     1     130.636 139.617 138.376  1.00  0.00    -0.074 C 
ATOM      7  C   UNL     1     131.461 139.277 137.335  1.00  0.00    -0.065 C 
ATOM      8  C   UNL     1     129.421 138.785 138.746  1.00  0.00     0.031 C 
ATOM      9  C   UNL     1     132.655 140.145 136.943  1.00  0.00     0.038 C 
ATOM     10  C   UNL     1     131.348 137.917 136.624  1.00  0.00    -0.011 C 
ATOM     11  C   UNL     1     129.519 137.331 138.299  1.00  0.00     0.005 C 
ATOM     12  C   UNL     1     131.539 138.109 135.091  1.00  0.00     0.011 C 
ATOM     13  C   UNL     1     129.953 137.268 136.840  1.00  0.00     0.011 C 
ATOM     14  C   UNL     1     132.441 136.964 137.172  1.00  0.00     0.016 C 
ATOM     15  C   UNL     1     132.768 138.950 134.718  1.00  0.00     0.008 C 
ENDBRANCH   1   4
BRANCH   1  16
ATOM     16  O   UNL     1     133.704 142.558 135.591  1.00  0.00    -0.390 OA
ATOM     17  H   UNL     1     134.356 142.620 136.338  1.00  0.00     0.211 HD
ENDBRANCH   1  16
TORSDOF 2
ENDMDL
MODEL 5
REMARK VINA RESULT:    -4.989     13.764     15.305
REMARK INTER + INTRA:          -5.651
REMARK INTER:                  -5.434
REMARK INTRA:                  -0.217
REMARK UNBOUND:                -0.224
REMARK SMILES CC1=C2C[C@@H](C(C)(C)O)CC[C@]2(C)CCC1
REMARK SMILES IDX 6 1 7 2 8 3 5 4 1 5 2 6 3 7 16 8 4 9 12 10 15 11 11 12 14 13
REMARK SMILES IDX 13 14 10 15 9 16
REMARK H PARENT 9 17
REMARK Flexibility Score: inf
ROOT
ATOM      1  C   UNL     1     137.638 133.934 149.296  1.00  0.00     0.062 C 
ATOM      2  C   UNL     1     137.938 132.470 148.901  1.00  0.00     0.042 C 
ATOM      3  C   UNL     1     136.335 134.368 148.596  1.00  0.00     0.042 C 
ENDROOT
BRANCH   1   4
ATOM      4  C   UNL     1     138.853 134.874 148.946  1.00  0.00     0.024 C 
ATOM      5  C   UNL     1     139.953 135.464 144.903  1.00  0.00     0.039 C 
ATOM      6  C   UNL     1     140.887 135.865 146.023  1.00  0.00    -0.074 C 
ATOM      7  C   UNL     1     140.704 135.427 147.310  1.00  0.00    -0.065 C 
ATOM      8  C   UNL     1     141.951 136.887 145.664  1.00  0.00     0.031 C 
ATOM      9  C   UNL     1     139.601 134.433 147.668  1.00  0.00     0.038 C 
ATOM     10  C   UNL     1     141.705 135.762 148.428  1.00  0.00    -0.011 C 
ATOM     11  C   UNL     1     143.109 136.935 146.654  1.00  0.00     0.005 C 
ATOM     12  C   UNL     1     140.936 136.087 149.741  1.00  0.00     0.011 C 
ATOM     13  C   UNL     1     142.569 137.005 148.076  1.00  0.00     0.011 C 
ATOM     14  C   UNL     1     142.639 134.544 148.656  1.00  0.00     0.016 C 
ATOM     15  C   UNL     1     139.861 135.053 150.105  1.00  0.00     0.008 C 
ENDBRANCH   1   4
BRANCH   1  16
ATOM     16  O   UNL     1     137.397 133.973 150.684  1.00  0.00    -0.390 OA
ATOM     17  H   UNL     1     137.295 134.925 150.951  1.00  0.00     0.211 HD
ENDBRANCH   1  16
TORSDOF 2
ENDMDL
MODEL 6
REMARK VINA RESULT:    -4.930      2.133      4.968
REMARK INTER + INTRA:          -5.587
REMARK INTER:                  -5.363
REMARK INTRA:                  -0.224
REMARK UNBOUND:                -0.224
REMARK SMILES CC1=C2C[C@@H](C(C)(C)O)CC[C@]2(C)CCC1
REMARK SMILES IDX 6 1 7 2 8 3 5 4 1 5 2 6 3 7 16 8 4 9 12 10 15 11 11 12 14 13
REMARK SMILES IDX 13 14 10 15 9 16
REMARK H PARENT 9 17
REMARK Flexibility Score: inf
ROOT
ATOM      1  C   UNL     1     130.091 140.051 138.217  1.00  0.00     0.062 C 
ATOM      2  C   UNL     1     130.689 141.053 139.230  1.00  0.00     0.042 C 
ATOM      3  C   UNL     1     129.212 139.047 138.989  1.00  0.00     0.042 C 
ENDROOT
BRANCH   1   4
ATOM      4  C   UNL     1     131.227 139.342 137.385  1.00  0.00     0.024 C 
ATOM      5  C   UNL     1     135.250 139.617 138.670  1.00  0.00     0.039 C 
ATOM      6  C   UNL     1     134.916 139.141 137.273  1.00  0.00    -0.074 C 
ATOM      7  C   UNL     1     133.671 139.318 136.726  1.00  0.00    -0.065 C 
ATOM      8  C   UNL     1     135.996 138.337 136.572  1.00  0.00     0.031 C 
ATOM      9  C   UNL     1     132.577 140.092 137.460  1.00  0.00     0.038 C 
ATOM     10  C   UNL     1     133.360 138.915 135.275  1.00  0.00    -0.011 C 
ATOM     11  C   UNL     1     135.813 138.256 135.062  1.00  0.00     0.005 C 
ATOM     12  C   UNL     1     131.946 138.272 135.200  1.00  0.00     0.011 C 
ATOM     13  C   UNL     1     134.376 137.869 134.737  1.00  0.00     0.011 C 
ATOM     14  C   UNL     1     133.409 140.178 134.375  1.00  0.00     0.016 C 
ATOM     15  C   UNL     1     130.854 139.086 135.907  1.00  0.00     0.008 C 
ENDBRANCH   1   4
BRANCH   1  16
ATOM     16  O   UNL     1     129.242 140.762 137.345  1.00  0.00    -0.390 OA
ATOM     17  H   UNL     1     128.397 140.247 137.252  1.00  0.00     0.211 HD
ENDBRANCH   1  16
TORSDOF 2
ENDMDL
MODEL 7
REMARK VINA RESULT:    -4.905     13.431     15.892
REMARK INTER + INTRA:          -5.558
REMARK INTER:                  -5.339
REMARK INTRA:                  -0.220
REMARK UNBOUND:                -0.224
REMARK SMILES CC1=C2C[C@@H](C(C)(C)O)CC[C@]2(C)CCC1
REMARK SMILES IDX 6 1 7 2 8 3 5 4 1 5 2 6 3 7 16 8 4 9 12 10 15 11 11 12 14 13
REMARK SMILES IDX 13 14 10 15 9 16
REMARK H PARENT 9 17
REMARK Flexibility Score: inf
ROOT
ATOM      1  C   UNL     1     146.934 138.365 146.731  1.00  0.00     0.062 C 
ATOM      2  C   UNL     1     147.789 139.519 146.160  1.00  0.00     0.042 C 
ATOM      3  C   UNL     1     147.868 137.394 147.482  1.00  0.00     0.042 C 
ENDROOT
BRANCH   1   4
ATOM      4  C   UNL     1     146.114 137.651 145.591  1.00  0.00     0.024 C 
ATOM      5  C   UNL     1     146.416 139.041 141.605  1.00  0.00     0.039 C 
ATOM      6  C   UNL     1     145.304 138.100 142.012  1.00  0.00    -0.074 C 
ATOM      7  C   UNL     1     144.998 137.867 143.329  1.00  0.00    -0.065 C 
ATOM      8  C   UNL     1     144.644 137.328 140.884  1.00  0.00     0.031 C 
ATOM      9  C   UNL     1     145.700 138.619 144.458  1.00  0.00     0.038 C 
ATOM     10  C   UNL     1     143.809 136.981 143.738  1.00  0.00    -0.011 C 
ATOM     11  C   UNL     1     143.286 136.746 141.255  1.00  0.00     0.005 C 
ATOM     12  C   UNL     1     144.207 136.100 144.958  1.00  0.00     0.011 C 
ATOM     13  C   UNL     1     143.382 136.023 142.592  1.00  0.00     0.011 C 
ATOM     14  C   UNL     1     142.607 137.886 144.117  1.00  0.00     0.016 C 
ATOM     15  C   UNL     1     144.873 136.882 146.099  1.00  0.00     0.008 C 
ENDBRANCH   1   4
BRANCH   1  16
ATOM     16  O   UNL     1     146.046 138.906 147.683  1.00  0.00    -0.390 OA
ATOM     17  H   UNL     1     145.403 139.493 147.203  1.00  0.00     0.211 HD
ENDBRANCH   1  16
TORSDOF 2
ENDMDL
MODEL 8
REMARK VINA RESULT:    -4.897     14.262     16.773
REMARK INTER + INTRA:          -5.550
REMARK INTER:                  -5.357
REMARK INTRA:                  -0.193
REMARK UNBOUND:                -0.224
REMARK SMILES CC1=C2C[C@@H](C(C)(C)O)CC[C@]2(C)CCC1
REMARK SMILES IDX 6 1 7 2 8 3 5 4 1 5 2 6 3 7 16 8 4 9 12 10 15 11 11 12 14 13
REMARK SMILES IDX 13 14 10 15 9 16
REMARK H PARENT 9 17
REMARK Flexibility Score: inf
ROOT
ATOM      1  C   UNL     1     143.489 136.825 146.608  1.00  0.00     0.062 C 
ATOM      2  C   UNL     1     144.039 135.579 147.339  1.00  0.00     0.042 C 
ATOM      3  C   UNL     1     142.048 136.523 146.149  1.00  0.00     0.042 C 
ENDROOT
BRANCH   1   4
ATOM      4  C   UNL     1     144.429 137.240 145.413  1.00  0.00     0.024 C 
ATOM      5  C   UNL     1     148.483 138.192 146.165  1.00  0.00     0.039 C 
ATOM      6  C   UNL     1     147.837 138.553 144.846  1.00  0.00    -0.074 C 
ATOM      7  C   UNL     1     146.476 138.534 144.676  1.00  0.00    -0.065 C 
ATOM      8  C   UNL     1     148.789 138.801 143.689  1.00  0.00     0.031 C 
ATOM      9  C   UNL     1     145.529 138.239 145.838  1.00  0.00     0.038 C 
ATOM     10  C   UNL     1     145.818 138.988 143.362  1.00  0.00    -0.011 C 
ATOM     11  C   UNL     1     148.157 139.567 142.533  1.00  0.00     0.005 C 
ATOM     12  C   UNL     1     144.634 138.040 143.013  1.00  0.00     0.011 C 
ATOM     13  C   UNL     1     146.816 138.943 142.172  1.00  0.00     0.011 C 
ATOM     14  C   UNL     1     145.295 140.438 143.530  1.00  0.00     0.016 C 
ATOM     15  C   UNL     1     143.671 137.790 144.182  1.00  0.00     0.008 C 
ENDBRANCH   1   4
BRANCH   1  16
ATOM     16  O   UNL     1     143.415 137.882 147.538  1.00  0.00    -0.390 OA
ATOM     17  H   UNL     1     144.075 138.575 147.268  1.00  0.00     0.211 HD
ENDBRANCH   1  16
TORSDOF 2
ENDMDL
MODEL 9
REMARK VINA RESULT:    -4.813     12.751     14.107
REMARK INTER + INTRA:          -5.459
REMARK INTER:                  -5.228
REMARK INTRA:                  -0.231
REMARK UNBOUND:                -0.224
REMARK SMILES CC1=C2C[C@@H](C(C)(C)O)CC[C@]2(C)CCC1
REMARK SMILES IDX 6 1 7 2 8 3 5 4 1 5 2 6 3 7 16 8 4 9 12 10 15 11 11 12 14 13
REMARK SMILES IDX 13 14 10 15 9 16
REMARK H PARENT 9 17
REMARK Flexibility Score: inf
ROOT
ATOM      1  C   UNL     1     136.077 131.294 149.648  1.00  0.00     0.062 C 
ATOM      2  C   UNL     1     136.005 131.743 151.125  1.00  0.00     0.042 C 
ATOM      3  C   UNL     1     137.122 130.166 149.533  1.00  0.00     0.042 C 
ENDROOT
BRANCH   1   4
ATOM      4  C   UNL     1     136.399 132.513 148.702  1.00  0.00     0.024 C 
ATOM      5  C   UNL     1     137.085 131.846 144.580  1.00  0.00     0.039 C 
ATOM      6  C   UNL     1     137.460 133.163 145.221  1.00  0.00    -0.074 C 
ATOM      7  C   UNL     1     137.531 133.311 146.583  1.00  0.00    -0.065 C 
ATOM      8  C   UNL     1     137.615 134.340 144.274  1.00  0.00     0.031 C 
ATOM      9  C   UNL     1     137.328 132.128 147.528  1.00  0.00     0.038 C 
ATOM     10  C   UNL     1     138.000 134.625 147.230  1.00  0.00    -0.011 C 
ATOM     11  C   UNL     1     138.398 135.503 144.871  1.00  0.00     0.005 C 
ATOM     12  C   UNL     1     137.129 134.934 148.482  1.00  0.00     0.011 C 
ATOM     13  C   UNL     1     137.860 135.829 146.258  1.00  0.00     0.011 C 
ATOM     14  C   UNL     1     139.487 134.483 147.649  1.00  0.00     0.016 C 
ATOM     15  C   UNL     1     136.973 133.745 149.440  1.00  0.00     0.008 C 
ENDBRANCH   1   4
BRANCH   1  16
ATOM     16  O   UNL     1     134.829 130.742 149.295  1.00  0.00    -0.390 OA
ATOM     17  H   UNL     1     134.184 131.490 149.182  1.00  0.00     0.211 HD
ENDBRANCH   1  16
TORSDOF 2
ENDMDL
