MODEL 1
REMARK VINA RESULT:    -4.347      0.000      0.000
REMARK INTER + INTRA:          -6.812
REMARK INTER:                  -6.635
REMARK INTRA:                  -0.177
REMARK UNBOUND:                -0.177
REMARK SMILES CC1=CCC[C@@H](C)C(=O)C[C@@H](C(C)C)C(=O)C1
REMARK SMILES IDX 8 1 9 2 6 3 7 4 5 5 4 6 3 7 2 8 1 9 10 11 11 12 15 13 16 14
REMARK SMILES IDX 17 15 12 17 13 18 14 19
REMARK H PARENT
REMARK Flexibility Score: 70.00
ROOT
ATOM      1  C   UNL     1      18.990  -9.690  65.887  1.00  0.00     0.136 C 
ATOM      2  O   UNL     1      19.883  -8.960  66.291  1.00  0.00    -0.299 OA
ENDROOT
BRANCH   1   3
ATOM      3  C   UNL     1      18.999 -10.137  64.438  1.00  0.00     0.053 C 
ATOM      4  C   UNL     1      20.417 -10.064  63.856  1.00  0.00     0.016 C 
BRANCH   3   5
ATOM      5  C   UNL     1      18.005  -9.267  63.621  1.00  0.00     0.015 C 
BRANCH   5   6
ATOM      6  C   UNL     1      16.842 -10.042  62.972  1.00  0.00     0.028 C 
BRANCH   6   7
ATOM      7  C   UNL     1      16.889 -11.551  63.107  1.00  0.00    -0.028 C 
ATOM      8  C   UNL     1      16.188 -12.306  63.987  1.00  0.00    -0.070 CG0
ATOM      9  C   UNL     1      16.322 -13.805  63.899  1.00  0.00     0.039 C 
ATOM     10  G   UNL     1      15.330 -11.723  65.093  1.00  0.00     0.000 G0
ENDBRANCH   6   7
ENDBRANCH   5   6
ENDBRANCH   3   5
ENDBRANCH   1   3
BRANCH   1  11
ATOM     11  C   UNL     1      17.904 -10.116  66.852  1.00  0.00     0.087 C 
BRANCH  11  12
ATOM     12  C   UNL     1      17.467 -11.600  66.697  1.00  0.00     0.066 C 
BRANCH  12  13
ATOM     13  C   UNL     1      15.962 -11.740  66.465  1.00  0.00     0.140 C 
ATOM     14  O   UNL     1      15.229 -11.882  67.431  1.00  0.00    -0.299 OA
BRANCH  13  15
ATOM     15  C   UNL     1      15.320 -11.737  65.087  1.00  0.00     0.106 CG0
ATOM     16  G   UNL     1      16.201 -12.287  63.982  1.00  0.00     0.000 G0
ENDBRANCH  13  15
ENDBRANCH  12  13
BRANCH  12  17
ATOM     17  C   UNL     1      17.936 -12.523  67.865  1.00  0.00    -0.006 C 
ATOM     18  C   UNL     1      19.014 -11.904  68.771  1.00  0.00     0.008 C 
ATOM     19  C   UNL     1      18.405 -13.895  67.356  1.00  0.00     0.008 C 
ENDBRANCH  12  17
ENDBRANCH  11  12
ENDBRANCH   1  11
TORSDOF 1
ENDMDL
MODEL 2
REMARK VINA RESULT:    -4.232     15.693     17.168
REMARK INTER + INTRA:          -6.637
REMARK INTER:                  -6.247
REMARK INTRA:                  -0.389
REMARK UNBOUND:                -0.177
REMARK SMILES CC1=CCC[C@@H](C)C(=O)C[C@@H](C(C)C)C(=O)C1
REMARK SMILES IDX 8 1 9 2 6 3 7 4 5 5 4 6 3 7 2 8 1 9 10 11 11 12 15 13 16 14
REMARK SMILES IDX 17 15 12 17 13 18 14 19
REMARK H PARENT
REMARK Flexibility Score: 70.00
ROOT
ATOM      1  C   UNL     1       9.156   1.048  62.965  1.00  0.00     0.136 C 
ATOM      2  O   UNL     1      10.346   1.316  63.053  1.00  0.00    -0.299 OA
ENDROOT
BRANCH   1   3
ATOM      3  C   UNL     1       8.685   0.129  61.855  1.00  0.00     0.053 C 
ATOM      4  C   UNL     1       8.968  -1.337  62.206  1.00  0.00     0.016 C 
BRANCH   3   5
ATOM      5  C   UNL     1       9.370   0.536  60.521  1.00  0.00     0.015 C 
BRANCH   5   6
ATOM      6  C   UNL     1       8.678   1.680  59.755  1.00  0.00     0.028 C 
BRANCH   6   7
ATOM      7  C   UNL     1       8.992   3.085  60.231  1.00  0.00    -0.028 C 
ATOM      8  C   UNL     1       8.193   3.880  60.984  1.00  0.00    -0.070 CG0
ATOM      9  C   UNL     1       8.733   5.220  61.418  1.00  0.00     0.039 C 
ATOM     10  G   UNL     1       6.768   3.524  61.357  1.00  0.00     0.000 G0
ENDBRANCH   6   7
ENDBRANCH   5   6
ENDBRANCH   3   5
ENDBRANCH   1   3
BRANCH   1  11
ATOM     11  C   UNL     1       8.198   1.650  63.971  1.00  0.00     0.087 C 
BRANCH  11  12
ATOM     12  C   UNL     1       6.750   1.831  63.435  1.00  0.00     0.066 C 
BRANCH  12  13
ATOM     13  C   UNL     1       6.527   3.214  62.823  1.00  0.00     0.140 C 
ATOM     14  O   UNL     1       6.125   4.117  63.540  1.00  0.00    -0.299 OA
BRANCH  13  15
ATOM     15  C   UNL     1       6.756   3.530  61.353  1.00  0.00     0.106 CG0
ATOM     16  G   UNL     1       8.187   3.888  61.004  1.00  0.00     0.000 G0
ENDBRANCH  13  15
ENDBRANCH  12  13
BRANCH  12  17
ATOM     17  C   UNL     1       5.641   1.505  64.485  1.00  0.00    -0.006 C 
ATOM     18  C   UNL     1       6.087   1.661  65.950  1.00  0.00     0.008 C 
ATOM     19  C   UNL     1       5.041   0.108  64.267  1.00  0.00     0.008 C 
ENDBRANCH  12  17
ENDBRANCH  11  12
ENDBRANCH   1  11
TORSDOF 1
ENDMDL
MODEL 3
REMARK VINA RESULT:    -4.228     16.146     17.159
REMARK INTER + INTRA:          -6.630
REMARK INTER:                  -6.574
REMARK INTRA:                  -0.056
REMARK UNBOUND:                -0.177
REMARK SMILES CC1=CCC[C@@H](C)C(=O)C[C@@H](C(C)C)C(=O)C1
REMARK SMILES IDX 8 1 9 2 6 3 7 4 5 5 4 6 3 7 2 8 1 9 10 11 11 12 15 13 16 14
REMARK SMILES IDX 17 15 12 17 13 18 14 19
REMARK H PARENT
REMARK Flexibility Score: 70.00
ROOT
ATOM      1  C   UNL     1       9.879   2.507  63.291  1.00  0.00     0.136 C 
ATOM      2  O   UNL     1      10.723   1.624  63.256  1.00  0.00    -0.299 OA
ENDROOT
BRANCH   1   3
ATOM      3  C   UNL     1      10.067   3.744  62.434  1.00  0.00     0.053 C 
ATOM      4  C   UNL     1      11.515   4.245  62.514  1.00  0.00     0.016 C 
BRANCH   3   5
ATOM      5  C   UNL     1       9.062   4.841  62.880  1.00  0.00     0.015 C 
BRANCH   5   6
ATOM      6  C   UNL     1       7.858   5.044  61.939  1.00  0.00     0.028 C 
BRANCH   6   7
ATOM      7  C   UNL     1       7.894   4.270  60.636  1.00  0.00    -0.028 C 
ATOM      8  C   UNL     1       7.303   3.075  60.390  1.00  0.00    -0.070 CG0
ATOM      9  C   UNL     1       7.394   2.513  58.994  1.00  0.00     0.039 C 
ATOM     10  G   UNL     1       6.616   2.245  61.456  1.00  0.00     0.000 G0
ENDBRANCH   6   7
ENDBRANCH   5   6
ENDBRANCH   3   5
ENDBRANCH   1   3
BRANCH   1  11
ATOM     11  C   UNL     1       8.676   2.331  64.193  1.00  0.00     0.087 C 
BRANCH  11  12
ATOM     12  C   UNL     1       7.683   1.233  63.716  1.00  0.00     0.066 C 
BRANCH  12  13
ATOM     13  C   UNL     1       7.495   1.242  62.198  1.00  0.00     0.140 C 
ATOM     14  O   UNL     1       8.112   0.431  61.525  1.00  0.00    -0.299 OA
BRANCH  13  15
ATOM     15  C   UNL     1       6.596   2.227  61.468  1.00  0.00     0.106 CG0
ATOM     16  G   UNL     1       7.304   3.068  60.424  1.00  0.00     0.000 G0
ENDBRANCH  13  15
ENDBRANCH  12  13
BRANCH  12  17
ATOM     17  C   UNL     1       6.303   1.269  64.445  1.00  0.00    -0.006 C 
ATOM     18  C   UNL     1       6.385   1.601  65.945  1.00  0.00     0.008 C 
ATOM     19  C   UNL     1       5.515  -0.034  64.240  1.00  0.00     0.008 C 
ENDBRANCH  12  17
ENDBRANCH  11  12
ENDBRANCH   1  11
TORSDOF 1
ENDMDL
MODEL 4
REMARK VINA RESULT:    -4.188      2.065      4.844
REMARK INTER + INTRA:          -6.569
REMARK INTER:                  -6.268
REMARK INTRA:                  -0.301
REMARK UNBOUND:                -0.177
REMARK SMILES CC1=CCC[C@@H](C)C(=O)C[C@@H](C(C)C)C(=O)C1
REMARK SMILES IDX 8 1 9 2 6 3 7 4 5 5 4 6 3 7 2 8 1 9 10 11 11 12 15 13 16 14
REMARK SMILES IDX 17 15 12 17 13 18 14 19
REMARK H PARENT
REMARK Flexibility Score: 70.00
ROOT
ATOM      1  C   UNL     1      16.804 -11.687  66.953  1.00  0.00     0.136 C 
ATOM      2  O   UNL     1      15.933 -11.980  67.760  1.00  0.00    -0.299 OA
ENDROOT
BRANCH   1   3
ATOM      3  C   UNL     1      18.190 -12.281  67.112  1.00  0.00     0.053 C 
ATOM      4  C   UNL     1      18.107 -13.787  67.392  1.00  0.00     0.016 C 
BRANCH   3   5
ATOM      5  C   UNL     1      18.946 -11.534  68.246  1.00  0.00     0.015 C 
BRANCH   5   6
ATOM      6  C   UNL     1      19.829 -10.361  67.778  1.00  0.00     0.028 C 
BRANCH   6   7
ATOM      7  C   UNL     1      20.635 -10.596  66.516  1.00  0.00    -0.028 C 
ATOM      8  C   UNL     1      20.349 -10.130  65.276  1.00  0.00    -0.070 CG0
ATOM      9  C   UNL     1      21.331 -10.414  64.167  1.00  0.00     0.039 C 
ATOM     10  G   UNL     1      19.067  -9.398  64.931  1.00  0.00     0.000 G0
ENDBRANCH   6   7
ENDBRANCH   5   6
ENDBRANCH   3   5
ENDBRANCH   1   3
BRANCH   1  11
ATOM     11  C   UNL     1      16.461 -10.737  65.825  1.00  0.00     0.087 C 
BRANCH  11  12
ATOM     12  C   UNL     1      17.057 -11.149  64.449  1.00  0.00     0.066 C 
BRANCH  12  13
ATOM     13  C   UNL     1      18.139 -10.179  63.972  1.00  0.00     0.140 C 
ATOM     14  O   UNL     1      18.295 -10.016  62.772  1.00  0.00    -0.299 OA
BRANCH  13  15
ATOM     15  C   UNL     1      19.059  -9.417  64.913  1.00  0.00     0.106 CG0
ATOM     16  G   UNL     1      20.338 -10.148  65.269  1.00  0.00     0.000 G0
ENDBRANCH  13  15
ENDBRANCH  12  13
BRANCH  12  17
ATOM     17  C   UNL     1      15.984 -11.372  63.337  1.00  0.00    -0.006 C 
ATOM     18  C   UNL     1      14.529 -11.240  63.821  1.00  0.00     0.008 C 
ATOM     19  C   UNL     1      16.177 -12.717  62.620  1.00  0.00     0.008 C 
ENDBRANCH  12  17
ENDBRANCH  11  12
ENDBRANCH   1  11
TORSDOF 1
ENDMDL
MODEL 5
REMARK VINA RESULT:    -4.082      3.600      5.575
REMARK INTER + INTRA:          -6.407
REMARK INTER:                  -6.210
REMARK INTRA:                  -0.198
REMARK UNBOUND:                -0.177
REMARK SMILES CC1=CCC[C@@H](C)C(=O)C[C@@H](C(C)C)C(=O)C1
REMARK SMILES IDX 8 1 9 2 6 3 7 4 5 5 4 6 3 7 2 8 1 9 10 11 11 12 15 13 16 14
REMARK SMILES IDX 17 15 12 17 13 18 14 19
REMARK H PARENT
REMARK Flexibility Score: 70.00
ROOT
ATOM      1  C   UNL     1      16.697 -10.390  63.211  1.00  0.00     0.136 C 
ATOM      2  O   UNL     1      17.629 -11.108  62.879  1.00  0.00    -0.299 OA
ENDROOT
BRANCH   1   3
ATOM      3  C   UNL     1      16.170 -10.471  64.631  1.00  0.00     0.053 C 
ATOM      4  C   UNL     1      17.279 -10.152  65.641  1.00  0.00     0.016 C 
BRANCH   3   5
ATOM      5  C   UNL     1      15.564 -11.879  64.878  1.00  0.00     0.015 C 
BRANCH   5   6
ATOM      6  C   UNL     1      14.050 -11.994  64.612  1.00  0.00     0.028 C 
BRANCH   6   7
ATOM      7  C   UNL     1      13.650 -12.732  63.350  1.00  0.00    -0.028 C 
ATOM      8  C   UNL     1      13.066 -12.195  62.251  1.00  0.00    -0.070 CG0
ATOM      9  C   UNL     1      12.822 -13.095  61.066  1.00  0.00     0.039 C 
ATOM     10  G   UNL     1      12.587 -10.759  62.174  1.00  0.00     0.000 G0
ENDBRANCH   6   7
ENDBRANCH   5   6
ENDBRANCH   3   5
ENDBRANCH   1   3
BRANCH   1  11
ATOM     11  C   UNL     1      16.103  -9.447  62.186  1.00  0.00     0.087 C 
BRANCH  11  12
ATOM     12  C   UNL     1      14.636  -9.028  62.487  1.00  0.00     0.066 C 
BRANCH  12  13
ATOM     13  C   UNL     1      13.629  -9.769  61.606  1.00  0.00     0.140 C 
ATOM     14  O   UNL     1      13.631  -9.555  60.404  1.00  0.00    -0.299 OA
BRANCH  13  15
ATOM     15  C   UNL     1      12.599 -10.748  62.147  1.00  0.00     0.106 CG0
ATOM     16  G   UNL     1      13.074 -12.186  62.214  1.00  0.00     0.000 G0
ENDBRANCH  13  15
ENDBRANCH  12  13
BRANCH  12  17
ATOM     17  C   UNL     1      14.393  -7.488  62.429  1.00  0.00    -0.006 C 
ATOM     18  C   UNL     1      12.919  -7.069  62.575  1.00  0.00     0.008 C 
ATOM     19  C   UNL     1      14.991  -6.862  61.159  1.00  0.00     0.008 C 
ENDBRANCH  12  17
ENDBRANCH  11  12
ENDBRANCH   1  11
TORSDOF 1
ENDMDL
MODEL 6
REMARK VINA RESULT:    -4.006     16.154     17.734
REMARK INTER + INTRA:          -6.291
REMARK INTER:                  -5.884
REMARK INTRA:                  -0.407
REMARK UNBOUND:                -0.177
REMARK SMILES CC1=CCC[C@@H](C)C(=O)C[C@@H](C(C)C)C(=O)C1
REMARK SMILES IDX 8 1 9 2 6 3 7 4 5 5 4 6 3 7 2 8 1 9 10 11 11 12 15 13 16 14
REMARK SMILES IDX 17 15 12 17 13 18 14 19
REMARK H PARENT
REMARK Flexibility Score: 70.00
ROOT
ATOM      1  C   UNL     1       7.044   0.017  62.143  1.00  0.00     0.136 C 
ATOM      2  O   UNL     1       7.744  -0.850  61.639  1.00  0.00    -0.299 OA
ENDROOT
BRANCH   1   3
ATOM      3  C   UNL     1       5.927   0.635  61.324  1.00  0.00     0.053 C 
ATOM      4  C   UNL     1       4.993  -0.450  60.773  1.00  0.00     0.016 C 
BRANCH   3   5
ATOM      5  C   UNL     1       6.537   1.493  60.182  1.00  0.00     0.015 C 
BRANCH   5   6
ATOM      6  C   UNL     1       6.443   3.017  60.389  1.00  0.00     0.028 C 
BRANCH   6   7
ATOM      7  C   UNL     1       7.761   3.755  60.516  1.00  0.00    -0.028 C 
ATOM      8  C   UNL     1       8.317   4.225  61.658  1.00  0.00    -0.070 CG0
ATOM      9  C   UNL     1       9.681   4.862  61.573  1.00  0.00     0.039 C 
ATOM     10  G   UNL     1       7.616   4.203  63.002  1.00  0.00     0.000 G0
ENDBRANCH   6   7
ENDBRANCH   5   6
ENDBRANCH   3   5
ENDBRANCH   1   3
BRANCH   1  11
ATOM     11  C   UNL     1       7.324   0.441  63.569  1.00  0.00     0.087 C 
BRANCH  11  12
ATOM     12  C   UNL     1       6.763   1.845  63.933  1.00  0.00     0.066 C 
BRANCH  12  13
ATOM     13  C   UNL     1       7.825   2.940  63.824  1.00  0.00     0.140 C 
ATOM     14  O   UNL     1       8.878   2.799  64.426  1.00  0.00    -0.299 OA
BRANCH  13  15
ATOM     15  C   UNL     1       7.636   4.218  63.022  1.00  0.00     0.106 CG0
ATOM     16  G   UNL     1       8.330   4.222  61.674  1.00  0.00     0.000 G0
ENDBRANCH  13  15
ENDBRANCH  12  13
BRANCH  12  17
ATOM     17  C   UNL     1       6.050   1.901  65.320  1.00  0.00    -0.006 C 
ATOM     18  C   UNL     1       5.289   0.618  65.697  1.00  0.00     0.008 C 
ATOM     19  C   UNL     1       5.115   3.115  65.434  1.00  0.00     0.008 C 
ENDBRANCH  12  17
ENDBRANCH  11  12
ENDBRANCH   1  11
TORSDOF 1
ENDMDL
MODEL 7
REMARK VINA RESULT:    -3.977      3.118      4.957
REMARK INTER + INTRA:          -6.247
REMARK INTER:                  -5.771
REMARK INTRA:                  -0.476
REMARK UNBOUND:                -0.177
REMARK SMILES CC1=CCC[C@@H](C)C(=O)C[C@@H](C(C)C)C(=O)C1
REMARK SMILES IDX 8 1 9 2 6 3 7 4 5 5 4 6 3 7 2 8 1 9 10 11 11 12 15 13 16 14
REMARK SMILES IDX 17 15 12 17 13 18 14 19
REMARK H PARENT
REMARK Flexibility Score: 70.00
ROOT
ATOM      1  C   UNL     1      16.194 -12.908  62.689  1.00  0.00     0.136 C 
ATOM      2  O   UNL     1      16.804 -13.945  62.471  1.00  0.00    -0.299 OA
ENDROOT
BRANCH   1   3
ATOM      3  C   UNL     1      14.677 -12.932  62.706  1.00  0.00     0.053 C 
ATOM      4  C   UNL     1      14.161 -14.020  63.656  1.00  0.00     0.016 C 
BRANCH   3   5
ATOM      5  C   UNL     1      14.148 -13.142  61.261  1.00  0.00     0.015 C 
BRANCH   5   6
ATOM      6  C   UNL     1      14.006 -11.855  60.425  1.00  0.00     0.028 C 
BRANCH   6   7
ATOM      7  C   UNL     1      13.282 -10.703  61.094  1.00  0.00    -0.028 C 
ATOM      8  C   UNL     1      13.842  -9.563  61.567  1.00  0.00    -0.070 CG0
ATOM      9  C   UNL     1      12.927  -8.503  62.126  1.00  0.00     0.039 C 
ATOM     10  G   UNL     1      15.338  -9.325  61.623  1.00  0.00     0.000 G0
ENDBRANCH   6   7
ENDBRANCH   5   6
ENDBRANCH   3   5
ENDBRANCH   1   3
BRANCH   1  11
ATOM     11  C   UNL     1      16.981 -11.638  62.933  1.00  0.00     0.087 C 
BRANCH  11  12
ATOM     12  C   UNL     1      16.235 -10.590  63.808  1.00  0.00     0.066 C 
BRANCH  12  13
ATOM     13  C   UNL     1      15.919  -9.309  63.035  1.00  0.00     0.140 C 
ATOM     14  O   UNL     1      16.130  -8.232  63.571  1.00  0.00    -0.299 OA
BRANCH  13  15
ATOM     15  C   UNL     1      15.329  -9.296  61.634  1.00  0.00     0.106 CG0
ATOM     16  G   UNL     1      13.842  -9.587  61.576  1.00  0.00     0.000 G0
ENDBRANCH  13  15
ENDBRANCH  12  13
BRANCH  12  17
ATOM     17  C   UNL     1      16.956 -10.262  65.153  1.00  0.00    -0.006 C 
ATOM     18  C   UNL     1      18.488 -10.168  65.047  1.00  0.00     0.008 C 
ATOM     19  C   UNL     1      16.568 -11.250  66.264  1.00  0.00     0.008 C 
ENDBRANCH  12  17
ENDBRANCH  11  12
ENDBRANCH   1  11
TORSDOF 1
ENDMDL
MODEL 8
REMARK VINA RESULT:    -3.871     15.237     16.831
REMARK INTER + INTRA:          -6.086
REMARK INTER:                  -6.026
REMARK INTRA:                  -0.060
REMARK UNBOUND:                -0.177
REMARK SMILES CC1=CCC[C@@H](C)C(=O)C[C@@H](C(C)C)C(=O)C1
REMARK SMILES IDX 8 1 9 2 6 3 7 4 5 5 4 6 3 7 2 8 1 9 10 11 11 12 15 13 16 14
REMARK SMILES IDX 17 15 12 17 13 18 14 19
REMARK H PARENT
REMARK Flexibility Score: 70.00
ROOT
ATOM      1  C   UNL     1       9.217   2.347  60.197  1.00  0.00     0.136 C 
ATOM      2  O   UNL     1      10.270   2.823  59.796  1.00  0.00    -0.299 OA
ENDROOT
BRANCH   1   3
ATOM      3  C   UNL     1       7.980   3.222  60.245  1.00  0.00     0.053 C 
ATOM      4  C   UNL     1       7.361   3.366  58.849  1.00  0.00     0.016 C 
BRANCH   3   5
ATOM      5  C   UNL     1       8.348   4.606  60.848  1.00  0.00     0.015 C 
BRANCH   5   6
ATOM      6  C   UNL     1       8.040   4.766  62.349  1.00  0.00     0.028 C 
BRANCH   6   7
ATOM      7  C   UNL     1       6.971   3.851  62.911  1.00  0.00    -0.028 C 
ATOM      8  C   UNL     1       7.161   2.811  63.760  1.00  0.00    -0.070 CG0
ATOM      9  C   UNL     1       5.945   2.076  64.264  1.00  0.00     0.039 C 
ATOM     10  G   UNL     1       8.529   2.309  64.176  1.00  0.00     0.000 G0
ENDBRANCH   6   7
ENDBRANCH   5   6
ENDBRANCH   3   5
ENDBRANCH   1   3
BRANCH   1  11
ATOM     11  C   UNL     1       9.194   0.897  60.633  1.00  0.00     0.087 C 
BRANCH  11  12
ATOM     12  C   UNL     1       8.599   0.674  62.053  1.00  0.00     0.066 C 
BRANCH  12  13
ATOM     13  C   UNL     1       9.287   1.534  63.112  1.00  0.00     0.140 C 
ATOM     14  O   UNL     1      10.507   1.601  63.113  1.00  0.00    -0.299 OA
BRANCH  13  15
ATOM     15  C   UNL     1       8.537   2.299  64.191  1.00  0.00     0.106 CG0
ATOM     16  G   UNL     1       7.177   2.816  63.765  1.00  0.00     0.000 G0
ENDBRANCH  13  15
ENDBRANCH  12  13
BRANCH  12  17
ATOM     17  C   UNL     1       8.561  -0.823  62.493  1.00  0.00    -0.006 C 
ATOM     18  C   UNL     1       9.377  -1.772  61.597  1.00  0.00     0.008 C 
ATOM     19  C   UNL     1       7.121  -1.342  62.629  1.00  0.00     0.008 C 
ENDBRANCH  12  17
ENDBRANCH  11  12
ENDBRANCH   1  11
TORSDOF 1
ENDMDL
MODEL 9
REMARK VINA RESULT:    -3.836      2.583      5.701
REMARK INTER + INTRA:          -6.032
REMARK INTER:                  -5.613
REMARK INTRA:                  -0.420
REMARK UNBOUND:                -0.177
REMARK SMILES CC1=CCC[C@@H](C)C(=O)C[C@@H](C(C)C)C(=O)C1
REMARK SMILES IDX 8 1 9 2 6 3 7 4 5 5 4 6 3 7 2 8 1 9 10 11 11 12 15 13 16 14
REMARK SMILES IDX 17 15 12 17 13 18 14 19
REMARK H PARENT
REMARK Flexibility Score: 70.00
ROOT
ATOM      1  C   UNL     1      13.475 -11.973  63.416  1.00  0.00     0.136 C 
ATOM      2  O   UNL     1      12.746 -12.479  64.258  1.00  0.00    -0.299 OA
ENDROOT
BRANCH   1   3
ATOM      3  C   UNL     1      13.869 -12.781  62.196  1.00  0.00     0.053 C 
ATOM      4  C   UNL     1      12.625 -13.295  61.460  1.00  0.00     0.016 C 
BRANCH   3   5
ATOM      5  C   UNL     1      14.797 -13.949  62.626  1.00  0.00     0.015 C 
BRANCH   5   6
ATOM      6  C   UNL     1      16.302 -13.619  62.631  1.00  0.00     0.028 C 
BRANCH   6   7
ATOM      7  C   UNL     1      16.909 -13.294  63.981  1.00  0.00    -0.028 C 
ATOM      8  C   UNL     1      17.413 -12.099  64.374  1.00  0.00    -0.070 CG0
ATOM      9  C   UNL     1      17.898 -11.966  65.796  1.00  0.00     0.039 C 
ATOM     10  G   UNL     1      17.575 -10.912  63.445  1.00  0.00     0.000 G0
ENDBRANCH   6   7
ENDBRANCH   5   6
ENDBRANCH   3   5
ENDBRANCH   1   3
BRANCH   1  11
ATOM     11  C   UNL     1      13.958 -10.554  63.631  1.00  0.00     0.087 C 
BRANCH  11  12
ATOM     12  C   UNL     1      15.118 -10.131  62.686  1.00  0.00     0.066 C 
BRANCH  12  13
ATOM     13  C   UNL     1      16.429  -9.909  63.440  1.00  0.00     0.140 C 
ATOM     14  O   UNL     1      16.579  -8.871  64.065  1.00  0.00    -0.299 OA
BRANCH  13  15
ATOM     15  C   UNL     1      17.579 -10.904  63.438  1.00  0.00     0.106 CG0
ATOM     16  G   UNL     1      17.388 -12.087  64.366  1.00  0.00     0.000 G0
ENDBRANCH  13  15
ENDBRANCH  12  13
BRANCH  12  17
ATOM     17  C   UNL     1      14.782  -8.902  61.785  1.00  0.00    -0.006 C 
ATOM     18  C   UNL     1      14.014  -7.778  62.502  1.00  0.00     0.008 C 
ATOM     19  C   UNL     1      14.033  -9.316  60.509  1.00  0.00     0.008 C 
ENDBRANCH  12  17
ENDBRANCH  11  12
ENDBRANCH   1  11
TORSDOF 1
ENDMDL
