MODEL 1
REMARK VINA RESULT:    -4.337      0.000      0.000
REMARK INTER + INTRA:          -7.699
REMARK INTER:                  -6.872
REMARK INTRA:                  -0.827
REMARK UNBOUND:                -0.827
REMARK SMILES CCCCCCCCCCCC(=O)[O-]
REMARK SMILES IDX 7 1 8 2 9 3 10 4 11 5 12 6 13 7 14 8 6 9 5 10 4 11 3 12 2 13
REMARK SMILES IDX 1 14
REMARK H PARENT
REMARK Flexibility Score: inf
ROOT
ATOM      1  C   UNL     1      17.149 -45.576  27.549  1.00  0.00     0.000 C 
ENDROOT
BRANCH   1   2
ATOM      2  C   UNL     1      17.444 -45.435  29.053  1.00  0.00     0.000 C 
BRANCH   2   3
ATOM      3  C   UNL     1      17.420 -43.977  29.535  1.00  0.00     0.000 C 
BRANCH   3   4
ATOM      4  C   UNL     1      16.126 -43.673  30.304  1.00  0.00     0.006 C 
BRANCH   4   5
ATOM      5  C   UNL     1      15.518 -44.930  30.941  1.00  0.00     0.053 C 
BRANCH   5   6
ATOM      6  C   UNL     1      15.853 -45.033  32.398  1.00  0.00     0.041 C 
ATOM      7  O   UNL     1      16.576 -44.159  32.945  1.00  0.00    -0.550 OA
ATOM      8  O   UNL     1      15.338 -46.075  33.158  1.00  0.00    -0.550 OA
ENDBRANCH   5   6
ENDBRANCH   4   5
ENDBRANCH   3   4
ENDBRANCH   2   3
ENDBRANCH   1   2
BRANCH   1   9
ATOM      9  C   UNL     1      17.041 -44.249  26.776  1.00  0.00     0.000 C 
BRANCH   9  10
ATOM     10  C   UNL     1      17.886 -44.234  25.490  1.00  0.00    -0.000 C 
BRANCH  10  11
ATOM     11  C   UNL     1      18.717 -42.948  25.347  1.00  0.00    -0.000 C 
BRANCH  11  12
ATOM     12  C   UNL     1      18.420 -41.926  26.459  1.00  0.00    -0.000 C 
BRANCH  12  13
ATOM     13  C   UNL     1      18.459 -40.476  25.952  1.00  0.00    -0.003 C 
ATOM     14  C   UNL     1      18.287 -40.372  24.436  1.00  0.00     0.004 C 
ENDBRANCH  12  13
ENDBRANCH  11  12
ENDBRANCH  10  11
ENDBRANCH   9  10
ENDBRANCH   1   9
TORSDOF 10
ENDMDL
MODEL 2
REMARK VINA RESULT:    -4.310      1.052      1.752
REMARK INTER + INTRA:          -7.656
REMARK INTER:                  -6.544
REMARK INTRA:                  -1.112
REMARK UNBOUND:                -0.827
REMARK SMILES CCCCCCCCCCCC(=O)[O-]
REMARK SMILES IDX 7 1 8 2 9 3 10 4 11 5 12 6 13 7 14 8 6 9 5 10 4 11 3 12 2 13
REMARK SMILES IDX 1 14
REMARK H PARENT
REMARK Flexibility Score: inf
ROOT
ATOM      1  C   UNL     1      16.668 -45.230  27.919  1.00  0.00     0.000 C 
ENDROOT
BRANCH   1   2
ATOM      2  C   UNL     1      17.603 -45.584  29.089  1.00  0.00     0.000 C 
BRANCH   2   3
ATOM      3  C   UNL     1      17.125 -45.017  30.433  1.00  0.00     0.000 C 
BRANCH   3   4
ATOM      4  C   UNL     1      15.725 -44.398  30.303  1.00  0.00     0.006 C 
BRANCH   4   5
ATOM      5  C   UNL     1      14.693 -45.102  31.194  1.00  0.00     0.053 C 
BRANCH   5   6
ATOM      6  C   UNL     1      15.066 -45.030  32.643  1.00  0.00     0.041 C 
ATOM      7  O   UNL     1      15.268 -46.087  33.298  1.00  0.00    -0.550 OA
ATOM      8  O   UNL     1      15.227 -43.796  33.260  1.00  0.00    -0.550 OA
ENDBRANCH   5   6
ENDBRANCH   4   5
ENDBRANCH   3   4
ENDBRANCH   2   3
ENDBRANCH   1   2
BRANCH   1   9
ATOM      9  C   UNL     1      17.338 -45.192  26.534  1.00  0.00     0.000 C 
BRANCH   9  10
ATOM     10  C   UNL     1      17.111 -43.862  25.795  1.00  0.00    -0.000 C 
BRANCH  10  11
ATOM     11  C   UNL     1      18.425 -43.117  25.506  1.00  0.00    -0.000 C 
BRANCH  11  12
ATOM     12  C   UNL     1      18.468 -41.722  26.155  1.00  0.00    -0.000 C 
BRANCH  12  13
ATOM     13  C   UNL     1      17.849 -41.709  27.561  1.00  0.00    -0.003 C 
ATOM     14  C   UNL     1      18.861 -42.035  28.659  1.00  0.00     0.004 C 
ENDBRANCH  12  13
ENDBRANCH  11  12
ENDBRANCH  10  11
ENDBRANCH   9  10
ENDBRANCH   1   9
TORSDOF 10
ENDMDL
MODEL 3
REMARK VINA RESULT:    -4.230      1.397      2.500
REMARK INTER + INTRA:          -7.530
REMARK INTER:                  -6.206
REMARK INTRA:                  -1.324
REMARK UNBOUND:                -0.827
REMARK SMILES CCCCCCCCCCCC(=O)[O-]
REMARK SMILES IDX 7 1 8 2 9 3 10 4 11 5 12 6 13 7 14 8 6 9 5 10 4 11 3 12 2 13
REMARK SMILES IDX 1 14
REMARK H PARENT
REMARK Flexibility Score: inf
ROOT
ATOM      1  C   UNL     1      16.740 -43.612  25.850  1.00  0.00     0.000 C 
ENDROOT
BRANCH   1   2
ATOM      2  C   UNL     1      16.360 -44.193  27.224  1.00  0.00     0.000 C 
BRANCH   2   3
ATOM      3  C   UNL     1      17.201 -45.418  27.610  1.00  0.00     0.000 C 
BRANCH   3   4
ATOM      4  C   UNL     1      17.408 -45.487  29.131  1.00  0.00     0.006 C 
BRANCH   4   5
ATOM      5  C   UNL     1      16.581 -44.434  29.879  1.00  0.00     0.053 C 
BRANCH   5   6
ATOM      6  C   UNL     1      15.515 -45.060  30.724  1.00  0.00     0.041 C 
ATOM      7  O   UNL     1      14.442 -45.459  30.197  1.00  0.00    -0.550 OA
ATOM      8  O   UNL     1      15.719 -45.237  32.086  1.00  0.00    -0.550 OA
ENDBRANCH   5   6
ENDBRANCH   4   5
ENDBRANCH   3   4
ENDBRANCH   2   3
ENDBRANCH   1   2
BRANCH   1   9
ATOM      9  C   UNL     1      18.250 -43.575  25.550  1.00  0.00     0.000 C 
BRANCH   9  10
ATOM     10  C   UNL     1      18.709 -42.234  24.953  1.00  0.00    -0.000 C 
BRANCH  10  11
ATOM     11  C   UNL     1      17.881 -41.045  25.469  1.00  0.00    -0.000 C 
BRANCH  11  12
ATOM     12  C   UNL     1      18.536 -40.350  26.676  1.00  0.00    -0.000 C 
BRANCH  12  13
ATOM     13  C   UNL     1      17.966 -40.839  28.017  1.00  0.00    -0.003 C 
ATOM     14  C   UNL     1      18.952 -41.707  28.800  1.00  0.00     0.004 C 
ENDBRANCH  12  13
ENDBRANCH  11  12
ENDBRANCH  10  11
ENDBRANCH   9  10
ENDBRANCH   1   9
TORSDOF 10
ENDMDL
MODEL 4
REMARK VINA RESULT:    -4.205      1.317      2.167
REMARK INTER + INTRA:          -7.490
REMARK INTER:                  -6.459
REMARK INTRA:                  -1.032
REMARK UNBOUND:                -0.827
REMARK SMILES CCCCCCCCCCCC(=O)[O-]
REMARK SMILES IDX 7 1 8 2 9 3 10 4 11 5 12 6 13 7 14 8 6 9 5 10 4 11 3 12 2 13
REMARK SMILES IDX 1 14
REMARK H PARENT
REMARK Flexibility Score: inf
ROOT
ATOM      1  C   UNL     1      16.393 -43.790  26.148  1.00  0.00     0.000 C 
ENDROOT
BRANCH   1   2
ATOM      2  C   UNL     1      16.110 -44.239  27.593  1.00  0.00     0.000 C 
BRANCH   2   3
ATOM      3  C   UNL     1      16.902 -45.490  27.999  1.00  0.00     0.000 C 
BRANCH   3   4
ATOM      4  C   UNL     1      17.705 -45.240  29.284  1.00  0.00     0.006 C 
BRANCH   4   5
ATOM      5  C   UNL     1      17.638 -43.776  29.738  1.00  0.00     0.053 C 
BRANCH   5   6
ATOM      6  C   UNL     1      17.102 -43.649  31.131  1.00  0.00     0.041 C 
ATOM      7  O   UNL     1      15.886 -43.880  31.364  1.00  0.00    -0.550 OA
ATOM      8  O   UNL     1      17.951 -43.309  32.176  1.00  0.00    -0.550 OA
ENDBRANCH   5   6
ENDBRANCH   4   5
ENDBRANCH   3   4
ENDBRANCH   2   3
ENDBRANCH   1   2
BRANCH   1   9
ATOM      9  C   UNL     1      17.794 -44.143  25.616  1.00  0.00     0.000 C 
BRANCH   9  10
ATOM     10  C   UNL     1      18.669 -42.903  25.365  1.00  0.00    -0.000 C 
BRANCH  10  11
ATOM     11  C   UNL     1      18.716 -41.960  26.579  1.00  0.00    -0.000 C 
BRANCH  11  12
ATOM     12  C   UNL     1      18.222 -40.541  26.242  1.00  0.00    -0.000 C 
BRANCH  12  13
ATOM     13  C   UNL     1      18.220 -40.262  24.731  1.00  0.00    -0.003 C 
ATOM     14  C   UNL     1      18.573 -38.813  24.394  1.00  0.00     0.004 C 
ENDBRANCH  12  13
ENDBRANCH  11  12
ENDBRANCH  10  11
ENDBRANCH   9  10
ENDBRANCH   1   9
TORSDOF 10
ENDMDL
MODEL 5
REMARK VINA RESULT:    -4.200      1.779      3.577
REMARK INTER + INTRA:          -7.483
REMARK INTER:                  -6.350
REMARK INTRA:                  -1.133
REMARK UNBOUND:                -0.827
REMARK SMILES CCCCCCCCCCCC(=O)[O-]
REMARK SMILES IDX 7 1 8 2 9 3 10 4 11 5 12 6 13 7 14 8 6 9 5 10 4 11 3 12 2 13
REMARK SMILES IDX 1 14
REMARK H PARENT
REMARK Flexibility Score: inf
ROOT
ATOM      1  C   UNL     1      18.839 -42.667  25.212  1.00  0.00     0.000 C 
ENDROOT
BRANCH   1   2
ATOM      2  C   UNL     1      17.524 -43.295  25.709  1.00  0.00     0.000 C 
BRANCH   2   3
ATOM      3  C   UNL     1      17.584 -44.827  25.795  1.00  0.00     0.000 C 
BRANCH   3   4
ATOM      4  C   UNL     1      17.154 -45.318  27.185  1.00  0.00     0.006 C 
BRANCH   4   5
ATOM      5  C   UNL     1      16.575 -44.190  28.048  1.00  0.00     0.053 C 
BRANCH   5   6
ATOM      6  C   UNL     1      16.749 -44.462  29.511  1.00  0.00     0.041 C 
ATOM      7  O   UNL     1      15.992 -43.909  30.352  1.00  0.00    -0.550 OA
ATOM      8  O   UNL     1      17.724 -45.352  29.943  1.00  0.00    -0.550 OA
ENDBRANCH   5   6
ENDBRANCH   4   5
ENDBRANCH   3   4
ENDBRANCH   2   3
ENDBRANCH   1   2
BRANCH   1   9
ATOM      9  C   UNL     1      18.673 -41.442  24.295  1.00  0.00     0.000 C 
BRANCH   9  10
ATOM     10  C   UNL     1      17.636 -40.435  24.822  1.00  0.00    -0.000 C 
BRANCH  10  11
ATOM     11  C   UNL     1      18.281 -39.131  25.321  1.00  0.00    -0.000 C 
BRANCH  11  12
ATOM     12  C   UNL     1      18.678 -39.200  26.806  1.00  0.00    -0.000 C 
BRANCH  12  13
ATOM     13  C   UNL     1      17.709 -40.058  27.635  1.00  0.00    -0.003 C 
ATOM     14  C   UNL     1      18.428 -41.022  28.579  1.00  0.00     0.004 C 
ENDBRANCH  12  13
ENDBRANCH  11  12
ENDBRANCH  10  11
ENDBRANCH   9  10
ENDBRANCH   1   9
TORSDOF 10
ENDMDL
MODEL 6
REMARK VINA RESULT:    -4.197      3.284      5.764
REMARK INTER + INTRA:          -7.478
REMARK INTER:                  -6.443
REMARK INTRA:                  -1.035
REMARK UNBOUND:                -0.827
REMARK SMILES CCCCCCCCCCCC(=O)[O-]
REMARK SMILES IDX 7 1 8 2 9 3 10 4 11 5 12 6 13 7 14 8 6 9 5 10 4 11 3 12 2 13
REMARK SMILES IDX 1 14
REMARK H PARENT
REMARK Flexibility Score: inf
ROOT
ATOM      1  C   UNL     1      18.670 -42.937  25.458  1.00  0.00     0.000 C 
ENDROOT
BRANCH   1   2
ATOM      2  C   UNL     1      17.845 -41.690  25.825  1.00  0.00     0.000 C 
BRANCH   2   3
ATOM      3  C   UNL     1      18.357 -40.411  25.147  1.00  0.00     0.000 C 
BRANCH   3   4
ATOM      4  C   UNL     1      18.483 -39.263  26.160  1.00  0.00     0.006 C 
BRANCH   4   5
ATOM      5  C   UNL     1      18.318 -39.744  27.607  1.00  0.00     0.053 C 
BRANCH   5   6
ATOM      6  C   UNL     1      18.710 -38.686  28.593  1.00  0.00     0.041 C 
ATOM      7  O   UNL     1      17.964 -38.428  29.575  1.00  0.00    -0.550 OA
ATOM      8  O   UNL     1      19.915 -38.011  28.448  1.00  0.00    -0.550 OA
ENDBRANCH   5   6
ENDBRANCH   4   5
ENDBRANCH   3   4
ENDBRANCH   2   3
ENDBRANCH   1   2
BRANCH   1   9
ATOM      9  C   UNL     1      17.885 -44.262  25.452  1.00  0.00     0.000 C 
BRANCH   9  10
ATOM     10  C   UNL     1      16.899 -44.378  26.627  1.00  0.00    -0.000 C 
BRANCH  10  11
ATOM     11  C   UNL     1      17.273 -45.509  27.600  1.00  0.00    -0.000 C 
BRANCH  11  12
ATOM     12  C   UNL     1      17.439 -45.010  29.047  1.00  0.00    -0.000 C 
BRANCH  12  13
ATOM     13  C   UNL     1      17.387 -43.478  29.150  1.00  0.00    -0.003 C 
ATOM     14  C   UNL     1      18.722 -42.866  29.575  1.00  0.00     0.004 C 
ENDBRANCH  12  13
ENDBRANCH  11  12
ENDBRANCH  10  11
ENDBRANCH   9  10
ENDBRANCH   1   9
TORSDOF 10
ENDMDL
MODEL 7
REMARK VINA RESULT:    -4.169      2.266      4.235
REMARK INTER + INTRA:          -7.433
REMARK INTER:                  -5.993
REMARK INTRA:                  -1.440
REMARK UNBOUND:                -0.827
REMARK SMILES CCCCCCCCCCCC(=O)[O-]
REMARK SMILES IDX 7 1 8 2 9 3 10 4 11 5 12 6 13 7 14 8 6 9 5 10 4 11 3 12 2 13
REMARK SMILES IDX 1 14
REMARK H PARENT
REMARK Flexibility Score: inf
ROOT
ATOM      1  C   UNL     1      18.454 -40.055  25.949  1.00  0.00     0.000 C 
ENDROOT
BRANCH   1   2
ATOM      2  C   UNL     1      17.651 -40.100  27.262  1.00  0.00     0.000 C 
BRANCH   2   3
ATOM      3  C   UNL     1      18.542 -40.064  28.512  1.00  0.00     0.000 C 
BRANCH   3   4
ATOM      4  C   UNL     1      18.206 -41.223  29.461  1.00  0.00     0.006 C 
BRANCH   4   5
ATOM      5  C   UNL     1      19.091 -42.452  29.214  1.00  0.00     0.053 C 
BRANCH   5   6
ATOM      6  C   UNL     1      19.003 -43.437  30.340  1.00  0.00     0.041 C 
ATOM      7  O   UNL     1      17.896 -43.664  30.897  1.00  0.00    -0.550 OA
ATOM      8  O   UNL     1      20.135 -44.129  30.750  1.00  0.00    -0.550 OA
ENDBRANCH   5   6
ENDBRANCH   4   5
ENDBRANCH   3   4
ENDBRANCH   2   3
ENDBRANCH   1   2
BRANCH   1   9
ATOM      9  C   UNL     1      18.242 -41.257  25.012  1.00  0.00     0.000 C 
BRANCH   9  10
ATOM     10  C   UNL     1      18.981 -42.522  25.483  1.00  0.00    -0.000 C 
BRANCH  10  11
ATOM     11  C   UNL     1      18.090 -43.774  25.443  1.00  0.00    -0.000 C 
BRANCH  11  12
ATOM     12  C   UNL     1      16.639 -43.479  25.864  1.00  0.00    -0.000 C 
BRANCH  12  13
ATOM     13  C   UNL     1      16.337 -43.941  27.298  1.00  0.00    -0.003 C 
ATOM     14  C   UNL     1      17.052 -45.241  27.666  1.00  0.00     0.004 C 
ENDBRANCH  12  13
ENDBRANCH  11  12
ENDBRANCH  10  11
ENDBRANCH   9  10
ENDBRANCH   1   9
TORSDOF 10
ENDMDL
MODEL 8
REMARK VINA RESULT:    -4.138      1.907      2.717
REMARK INTER + INTRA:          -7.384
REMARK INTER:                  -6.149
REMARK INTRA:                  -1.235
REMARK UNBOUND:                -0.827
REMARK SMILES CCCCCCCCCCCC(=O)[O-]
REMARK SMILES IDX 7 1 8 2 9 3 10 4 11 5 12 6 13 7 14 8 6 9 5 10 4 11 3 12 2 13
REMARK SMILES IDX 1 14
REMARK H PARENT
REMARK Flexibility Score: inf
ROOT
ATOM      1  C   UNL     1      17.029 -44.036  26.358  1.00  0.00     0.000 C 
ENDROOT
BRANCH   1   2
ATOM      2  C   UNL     1      17.140 -45.277  27.262  1.00  0.00     0.000 C 
BRANCH   2   3
ATOM      3  C   UNL     1      17.296 -44.925  28.748  1.00  0.00     0.000 C 
BRANCH   3   4
ATOM      4  C   UNL     1      17.313 -43.403  28.955  1.00  0.00     0.006 C 
BRANCH   4   5
ATOM      5  C   UNL     1      18.641 -42.911  29.544  1.00  0.00     0.053 C 
BRANCH   5   6
ATOM      6  C   UNL     1      19.045 -43.707  30.747  1.00  0.00     0.041 C 
ATOM      7  O   UNL     1      20.122 -44.361  30.740  1.00  0.00    -0.550 OA
ATOM      8  O   UNL     1      18.252 -43.699  31.887  1.00  0.00    -0.550 OA
ENDBRANCH   5   6
ENDBRANCH   4   5
ENDBRANCH   3   4
ENDBRANCH   2   3
ENDBRANCH   1   2
BRANCH   1   9
ATOM      9  C   UNL     1      18.157 -43.878  25.322  1.00  0.00     0.000 C 
BRANCH   9  10
ATOM     10  C   UNL     1      18.968 -42.585  25.512  1.00  0.00    -0.000 C 
BRANCH  10  11
ATOM     11  C   UNL     1      18.506 -41.456  24.576  1.00  0.00    -0.000 C 
BRANCH  11  12
ATOM     12  C   UNL     1      18.051 -40.202  25.345  1.00  0.00    -0.000 C 
BRANCH  12  13
ATOM     13  C   UNL     1      18.382 -40.278  26.843  1.00  0.00    -0.003 C 
ATOM     14  C   UNL     1      17.215 -39.851  27.732  1.00  0.00     0.004 C 
ENDBRANCH  12  13
ENDBRANCH  11  12
ENDBRANCH  10  11
ENDBRANCH   9  10
ENDBRANCH   1   9
TORSDOF 10
ENDMDL
MODEL 9
REMARK VINA RESULT:    -4.039      2.291      3.682
REMARK INTER + INTRA:          -7.227
REMARK INTER:                  -5.839
REMARK INTRA:                  -1.388
REMARK UNBOUND:                -0.827
REMARK SMILES CCCCCCCCCCCC(=O)[O-]
REMARK SMILES IDX 7 1 8 2 9 3 10 4 11 5 12 6 13 7 14 8 6 9 5 10 4 11 3 12 2 13
REMARK SMILES IDX 1 14
REMARK H PARENT
REMARK Flexibility Score: inf
ROOT
ATOM      1  C   UNL     1      18.322 -39.836  28.789  1.00  0.00     0.000 C 
ENDROOT
BRANCH   1   2
ATOM      2  C   UNL     1      19.238 -40.917  29.392  1.00  0.00     0.000 C 
BRANCH   2   3
ATOM      3  C   UNL     1      18.480 -41.923  30.270  1.00  0.00     0.000 C 
BRANCH   3   4
ATOM      4  C   UNL     1      18.257 -43.247  29.524  1.00  0.00     0.006 C 
BRANCH   4   5
ATOM      5  C   UNL     1      16.768 -43.585  29.371  1.00  0.00     0.053 C 
BRANCH   5   6
ATOM      6  C   UNL     1      16.555 -45.038  29.072  1.00  0.00     0.041 C 
ATOM      7  O   UNL     1      17.510 -45.853  29.179  1.00  0.00    -0.550 OA
ATOM      8  O   UNL     1      15.295 -45.497  28.711  1.00  0.00    -0.550 OA
ENDBRANCH   5   6
ENDBRANCH   4   5
ENDBRANCH   3   4
ENDBRANCH   2   3
ENDBRANCH   1   2
BRANCH   1   9
ATOM      9  C   UNL     1      17.570 -40.253  27.512  1.00  0.00     0.000 C 
BRANCH   9  10
ATOM     10  C   UNL     1      18.417 -40.096  26.238  1.00  0.00    -0.000 C 
BRANCH  10  11
ATOM     11  C   UNL     1      18.217 -41.257  25.250  1.00  0.00    -0.000 C 
BRANCH  11  12
ATOM     12  C   UNL     1      18.809 -42.580  25.767  1.00  0.00    -0.000 C 
BRANCH  12  13
ATOM     13  C   UNL     1      17.793 -43.733  25.731  1.00  0.00    -0.003 C 
ATOM     14  C   UNL     1      16.346 -43.246  25.662  1.00  0.00     0.004 C 
ENDBRANCH  12  13
ENDBRANCH  11  12
ENDBRANCH  10  11
ENDBRANCH   9  10
ENDBRANCH   1   9
TORSDOF 10
ENDMDL
