MODEL 1
REMARK VINA RESULT:    -3.464      0.000      0.000
REMARK INTER + INTRA:          -4.326
REMARK INTER:                  -4.274
REMARK INTRA:                  -0.053
REMARK UNBOUND:                -0.053
REMARK SMILES CCCCCC(=O)[O-]
REMARK SMILES IDX 4 1 5 2 6 3 7 4 8 5 3 6 2 7 1 8
REMARK H PARENT
REMARK Flexibility Score: inf
ROOT
ATOM      1  C   UNL     1     -15.186   6.992  29.550  1.00  0.00     0.006 C 
ENDROOT
BRANCH   1   2
ATOM      2  C   UNL     1     -16.328   6.811  30.566  1.00  0.00     0.053 C 
BRANCH   2   3
ATOM      3  C   UNL     1     -16.193   5.551  31.364  1.00  0.00     0.041 C 
ATOM      4  O   UNL     1     -17.120   5.187  32.134  1.00  0.00    -0.550 OA
ATOM      5  O   UNL     1     -15.059   4.758  31.232  1.00  0.00    -0.550 OA
ENDBRANCH   2   3
ENDBRANCH   1   2
BRANCH   1   6
ATOM      6  C   UNL     1     -14.835   8.464  29.263  1.00  0.00     0.000 C 
BRANCH   6   7
ATOM      7  C   UNL     1     -13.982   8.643  27.999  1.00  0.00    -0.003 C 
ATOM      8  C   UNL     1     -12.533   8.965  28.354  1.00  0.00     0.004 C 
ENDBRANCH   6   7
ENDBRANCH   1   6
TORSDOF 4
ENDMDL
MODEL 2
REMARK VINA RESULT:    -3.413      0.933      1.236
REMARK INTER + INTRA:          -4.263
REMARK INTER:                  -4.197
REMARK INTRA:                  -0.066
REMARK UNBOUND:                -0.053
REMARK SMILES CCCCCC(=O)[O-]
REMARK SMILES IDX 4 1 5 2 6 3 7 4 8 5 3 6 2 7 1 8
REMARK H PARENT
REMARK Flexibility Score: inf
ROOT
ATOM      1  C   UNL     1     -15.962   6.923  30.357  1.00  0.00     0.006 C 
ENDROOT
BRANCH   1   2
ATOM      2  C   UNL     1     -16.412   5.452  30.406  1.00  0.00     0.053 C 
BRANCH   2   3
ATOM      3  C   UNL     1     -16.173   4.821  31.743  1.00  0.00     0.041 C 
ATOM      4  O   UNL     1     -17.123   4.685  32.558  1.00  0.00    -0.550 OA
ATOM      5  O   UNL     1     -14.909   4.349  32.078  1.00  0.00    -0.550 OA
ENDBRANCH   2   3
ENDBRANCH   1   2
BRANCH   1   6
ATOM      6  C   UNL     1     -14.829   7.195  29.350  1.00  0.00     0.000 C 
BRANCH   6   7
ATOM      7  C   UNL     1     -14.712   8.676  28.962  1.00  0.00    -0.003 C 
ATOM      8  C   UNL     1     -14.331   8.831  27.493  1.00  0.00     0.004 C 
ENDBRANCH   6   7
ENDBRANCH   1   6
TORSDOF 4
ENDMDL
MODEL 3
REMARK VINA RESULT:    -3.386      3.316      4.842
REMARK INTER + INTRA:          -4.231
REMARK INTER:                  -4.169
REMARK INTRA:                  -0.062
REMARK UNBOUND:                -0.053
REMARK SMILES CCCCCC(=O)[O-]
REMARK SMILES IDX 4 1 5 2 6 3 7 4 8 5 3 6 2 7 1 8
REMARK H PARENT
REMARK Flexibility Score: inf
ROOT
ATOM      1  C   UNL     1     -14.969   7.237  29.457  1.00  0.00     0.006 C 
ENDROOT
BRANCH   1   2
ATOM      2  C   UNL     1     -14.697   8.700  29.067  1.00  0.00     0.053 C 
BRANCH   2   3
ATOM      3  C   UNL     1     -13.913   8.821  27.797  1.00  0.00     0.041 C 
ATOM      4  O   UNL     1     -14.508   8.946  26.694  1.00  0.00    -0.550 OA
ATOM      5  O   UNL     1     -12.523   8.832  27.831  1.00  0.00    -0.550 OA
ENDBRANCH   2   3
ENDBRANCH   1   2
BRANCH   1   6
ATOM      6  C   UNL     1     -16.117   7.064  30.469  1.00  0.00     0.000 C 
BRANCH   6   7
ATOM      7  C   UNL     1     -16.243   5.627  30.996  1.00  0.00    -0.003 C 
ATOM      8  C   UNL     1     -16.544   4.650  29.863  1.00  0.00     0.004 C 
ENDBRANCH   6   7
ENDBRANCH   1   6
TORSDOF 4
ENDMDL
MODEL 4
REMARK VINA RESULT:    -3.329     25.302     26.317
REMARK INTER + INTRA:          -4.160
REMARK INTER:                  -4.006
REMARK INTRA:                  -0.154
REMARK UNBOUND:                -0.053
REMARK SMILES CCCCCC(=O)[O-]
REMARK SMILES IDX 4 1 5 2 6 3 7 4 8 5 3 6 2 7 1 8
REMARK H PARENT
REMARK Flexibility Score: inf
ROOT
ATOM      1  C   UNL     1       3.125  -9.837  19.382  1.00  0.00     0.006 C 
ENDROOT
BRANCH   1   2
ATOM      2  C   UNL     1       1.772 -10.434  18.954  1.00  0.00     0.053 C 
BRANCH   2   3
ATOM      3  C   UNL     1       1.374 -10.021  17.570  1.00  0.00     0.041 C 
ATOM      4  O   UNL     1       1.626 -10.769  16.589  1.00  0.00    -0.550 OA
ATOM      5  O   UNL     1       0.692  -8.828  17.365  1.00  0.00    -0.550 OA
ENDBRANCH   2   3
ENDBRANCH   1   2
BRANCH   1   6
ATOM      6  C   UNL     1       3.038  -8.913  20.610  1.00  0.00     0.000 C 
BRANCH   6   7
ATOM      7  C   UNL     1       1.633  -8.863  21.227  1.00  0.00    -0.003 C 
ATOM      8  C   UNL     1       1.701  -8.878  22.751  1.00  0.00     0.004 C 
ENDBRANCH   6   7
ENDBRANCH   1   6
TORSDOF 4
ENDMDL
MODEL 5
REMARK VINA RESULT:    -3.293      3.730      6.333
REMARK INTER + INTRA:          -4.116
REMARK INTER:                  -3.986
REMARK INTRA:                  -0.130
REMARK UNBOUND:                -0.053
REMARK SMILES CCCCCC(=O)[O-]
REMARK SMILES IDX 4 1 5 2 6 3 7 4 8 5 3 6 2 7 1 8
REMARK H PARENT
REMARK Flexibility Score: inf
ROOT
ATOM      1  C   UNL     1     -15.424   2.834  32.820  1.00  0.00     0.006 C 
ENDROOT
BRANCH   1   2
ATOM      2  C   UNL     1     -15.042   4.134  32.090  1.00  0.00     0.053 C 
BRANCH   2   3
ATOM      3  C   UNL     1     -16.186   4.717  31.318  1.00  0.00     0.041 C 
ATOM      4  O   UNL     1     -16.621   5.864  31.601  1.00  0.00    -0.550 OA
ATOM      5  O   UNL     1     -16.749   4.011  30.261  1.00  0.00    -0.550 OA
ENDBRANCH   2   3
ENDBRANCH   1   2
BRANCH   1   6
ATOM      6  C   UNL     1     -16.628   2.983  33.769  1.00  0.00     0.000 C 
BRANCH   6   7
ATOM      7  C   UNL     1     -17.085   1.648  34.374  1.00  0.00    -0.003 C 
ATOM      8  C   UNL     1     -16.028   1.082  35.319  1.00  0.00     0.004 C 
ENDBRANCH   6   7
ENDBRANCH   1   6
TORSDOF 4
ENDMDL
MODEL 6
REMARK VINA RESULT:    -3.212     25.188     26.212
REMARK INTER + INTRA:          -4.016
REMARK INTER:                  -3.954
REMARK INTRA:                  -0.061
REMARK UNBOUND:                -0.053
REMARK SMILES CCCCCC(=O)[O-]
REMARK SMILES IDX 4 1 5 2 6 3 7 4 8 5 3 6 2 7 1 8
REMARK H PARENT
REMARK Flexibility Score: inf
ROOT
ATOM      1  C   UNL     1       2.024  -9.327  20.101  1.00  0.00     0.006 C 
ENDROOT
BRANCH   1   2
ATOM      2  C   UNL     1       2.550 -10.081  18.866  1.00  0.00     0.053 C 
BRANCH   2   3
ATOM      3  C   UNL     1       1.463 -10.421  17.893  1.00  0.00     0.041 C 
ATOM      4  O   UNL     1       1.748 -10.938  16.781  1.00  0.00    -0.550 OA
ATOM      5  O   UNL     1       0.132 -10.201  18.227  1.00  0.00    -0.550 OA
ENDBRANCH   2   3
ENDBRANCH   1   2
BRANCH   1   6
ATOM      6  C   UNL     1       3.125  -8.912  21.094  1.00  0.00     0.000 C 
BRANCH   6   7
ATOM      7  C   UNL     1       2.578  -8.172  22.323  1.00  0.00    -0.003 C 
ATOM      8  C   UNL     1       1.914  -9.140  23.298  1.00  0.00     0.004 C 
ENDBRANCH   6   7
ENDBRANCH   1   6
TORSDOF 4
ENDMDL
MODEL 7
REMARK VINA RESULT:    -3.156     24.958     25.945
REMARK INTER + INTRA:          -3.947
REMARK INTER:                  -3.717
REMARK INTRA:                  -0.230
REMARK UNBOUND:                -0.053
REMARK SMILES CCCCCC(=O)[O-]
REMARK SMILES IDX 4 1 5 2 6 3 7 4 8 5 3 6 2 7 1 8
REMARK H PARENT
REMARK Flexibility Score: inf
ROOT
ATOM      1  C   UNL     1       2.094 -10.315  18.408  1.00  0.00     0.006 C 
ENDROOT
BRANCH   1   2
ATOM      2  C   UNL     1       0.706  -9.654  18.346  1.00  0.00     0.053 C 
BRANCH   2   3
ATOM      3  C   UNL     1       0.689  -8.432  17.480  1.00  0.00     0.041 C 
ATOM      4  O   UNL     1       0.943  -7.302  17.974  1.00  0.00    -0.550 OA
ATOM      5  O   UNL     1       0.428  -8.543  16.119  1.00  0.00    -0.550 OA
ENDBRANCH   2   3
ENDBRANCH   1   2
BRANCH   1   6
ATOM      6  C   UNL     1       3.017  -9.727  19.491  1.00  0.00     0.000 C 
BRANCH   6   7
ATOM      7  C   UNL     1       2.263  -9.304  20.759  1.00  0.00    -0.003 C 
ATOM      8  C   UNL     1       2.689  -7.910  21.214  1.00  0.00     0.004 C 
ENDBRANCH   6   7
ENDBRANCH   1   6
TORSDOF 4
ENDMDL
MODEL 8
REMARK VINA RESULT:    -3.132      3.366      4.799
REMARK INTER + INTRA:          -3.917
REMARK INTER:                  -3.876
REMARK INTRA:                  -0.041
REMARK UNBOUND:                -0.053
REMARK SMILES CCCCCC(=O)[O-]
REMARK SMILES IDX 4 1 5 2 6 3 7 4 8 5 3 6 2 7 1 8
REMARK H PARENT
REMARK Flexibility Score: inf
ROOT
ATOM      1  C   UNL     1     -16.457   3.533  32.320  1.00  0.00     0.006 C 
ENDROOT
BRANCH   1   2
ATOM      2  C   UNL     1     -17.125   3.035  33.614  1.00  0.00     0.053 C 
BRANCH   2   3
ATOM      3  C   UNL     1     -16.652   1.671  34.018  1.00  0.00     0.041 C 
ATOM      4  O   UNL     1     -15.911   1.531  35.026  1.00  0.00    -0.550 OA
ATOM      5  O   UNL     1     -17.059   0.551  33.303  1.00  0.00    -0.550 OA
ENDBRANCH   2   3
ENDBRANCH   1   2
BRANCH   1   6
ATOM      6  C   UNL     1     -16.791   4.994  31.969  1.00  0.00     0.000 C 
BRANCH   6   7
ATOM      7  C   UNL     1     -16.410   5.369  30.530  1.00  0.00    -0.003 C 
ATOM      8  C   UNL     1     -16.041   6.846  30.426  1.00  0.00     0.004 C 
ENDBRANCH   6   7
ENDBRANCH   1   6
TORSDOF 4
ENDMDL
MODEL 9
REMARK VINA RESULT:    -1.921      3.164      5.024
REMARK INTER + INTRA:          -2.423
REMARK INTER:                  -2.335
REMARK INTRA:                  -0.088
REMARK UNBOUND:                -0.053
REMARK SMILES CCCCCC(=O)[O-]
REMARK SMILES IDX 4 1 5 2 6 3 7 4 8 5 3 6 2 7 1 8
REMARK H PARENT
REMARK Flexibility Score: inf
ROOT
ATOM      1  C   UNL     1     -13.957   8.015  28.200  1.00  0.00     0.006 C 
ENDROOT
BRANCH   1   2
ATOM      2  C   UNL     1     -12.872   9.097  28.344  1.00  0.00     0.053 C 
BRANCH   2   3
ATOM      3  C   UNL     1     -11.499   8.517  28.497  1.00  0.00     0.041 C 
ATOM      4  O   UNL     1     -11.328   7.458  29.155  1.00  0.00    -0.550 OA
ATOM      5  O   UNL     1     -10.411   9.125  27.881  1.00  0.00    -0.550 OA
ENDBRANCH   2   3
ENDBRANCH   1   2
BRANCH   1   6
ATOM      6  C   UNL     1     -14.935   7.950  29.387  1.00  0.00     0.000 C 
BRANCH   6   7
ATOM      7  C   UNL     1     -15.271   6.514  29.812  1.00  0.00    -0.003 C 
ATOM      8  C   UNL     1     -16.374   6.497  30.867  1.00  0.00     0.004 C 
ENDBRANCH   6   7
ENDBRANCH   1   6
TORSDOF 4
ENDMDL
