MODEL 1
REMARK VINA RESULT:    -4.520      0.000      0.000
REMARK INTER + INTRA:         -12.493
REMARK INTER:                  -9.805
REMARK INTRA:                  -2.688
REMARK UNBOUND:                -2.688
REMARK SMILES CCCCCCCCCCCCCCCCCCCCCC(=O)[O-]
REMARK SMILES IDX 12 1 11 2 10 3 9 4 8 5 7 6 6 7 5 8 4 9 3 10 2 11 1 12 13 13
REMARK SMILES IDX 14 14 15 15 16 16 17 17 18 18 19 19 20 20 21 21 22 22 23 23
REMARK SMILES IDX 24 24
REMARK H PARENT
REMARK Flexibility Score: inf
ROOT
ATOM      1  C   UNL     1       3.176  12.913  80.512  1.00  0.00     0.000 C 
ENDROOT
BRANCH   1   2
ATOM      2  C   UNL     1       3.133  13.656  81.861  1.00  0.00     0.000 C 
BRANCH   2   3
ATOM      3  C   UNL     1       4.286  13.281  82.817  1.00  0.00     0.000 C 
BRANCH   3   4
ATOM      4  C   UNL     1       3.975  12.025  83.651  1.00  0.00    -0.000 C 
BRANCH   4   5
ATOM      5  C   UNL     1       4.948  10.867  83.345  1.00  0.00    -0.000 C 
BRANCH   5   6
ATOM      6  C   UNL     1       4.469   9.933  82.216  1.00  0.00    -0.000 C 
BRANCH   6   7
ATOM      7  C   UNL     1       5.177   8.568  82.154  1.00  0.00    -0.000 C 
BRANCH   7   8
ATOM      8  C   UNL     1       6.534   8.632  81.433  1.00  0.00    -0.000 C 
BRANCH   8   9
ATOM      9  C   UNL     1       6.728   7.485  80.423  1.00  0.00    -0.000 C 
BRANCH   9  10
ATOM     10  C   UNL     1       7.755   7.764  79.311  1.00  0.00    -0.000 C 
BRANCH  10  11
ATOM     11  C   UNL     1       8.977   6.837  79.380  1.00  0.00    -0.003 C 
ATOM     12  C   UNL     1       8.558   5.392  79.632  1.00  0.00     0.004 C 
ENDBRANCH  10  11
ENDBRANCH   9  10
ENDBRANCH   8   9
ENDBRANCH   7   8
ENDBRANCH   6   7
ENDBRANCH   5   6
ENDBRANCH   4   5
ENDBRANCH   3   4
ENDBRANCH   2   3
ENDBRANCH   1   2
BRANCH   1  13
ATOM     13  C   UNL     1       1.924  12.080  80.190  1.00  0.00     0.000 C 
BRANCH  13  14
ATOM     14  C   UNL     1       0.868  12.033  81.312  1.00  0.00     0.000 C 
BRANCH  14  15
ATOM     15  C   UNL     1       0.660  10.624  81.911  1.00  0.00     0.000 C 
BRANCH  15  16
ATOM     16  C   UNL     1       0.774  10.618  83.445  1.00  0.00     0.000 C 
BRANCH  16  17
ATOM     17  C   UNL     1       1.390   9.319  83.989  1.00  0.00     0.000 C 
BRANCH  17  18
ATOM     18  C   UNL     1       1.628   9.370  85.508  1.00  0.00     0.000 C 
BRANCH  18  19
ATOM     19  C   UNL     1       2.653   8.327  85.982  1.00  0.00     0.000 C 
BRANCH  19  20
ATOM     20  C   UNL     1       2.886   7.210  84.950  1.00  0.00     0.006 C 
BRANCH  20  21
ATOM     21  C   UNL     1       2.621   5.816  85.536  1.00  0.00     0.053 C 
BRANCH  21  22
ATOM     22  C   UNL     1       1.204   5.669  85.998  1.00  0.00     0.041 C 
ATOM     23  O   UNL     1       0.255   6.078  85.280  1.00  0.00    -0.550 OA
ATOM     24  O   UNL     1       0.934   5.102  87.238  1.00  0.00    -0.550 OA
ENDBRANCH  21  22
ENDBRANCH  20  21
ENDBRANCH  19  20
ENDBRANCH  18  19
ENDBRANCH  17  18
ENDBRANCH  16  17
ENDBRANCH  15  16
ENDBRANCH  14  15
ENDBRANCH  13  14
ENDBRANCH   1  13
TORSDOF 20
ENDMDL
MODEL 2
REMARK VINA RESULT:    -4.242     12.397     14.334
REMARK INTER + INTRA:         -11.890
REMARK INTER:                  -8.719
REMARK INTRA:                  -3.171
REMARK UNBOUND:                -2.688
REMARK SMILES CCCCCCCCCCCCCCCCCCCCCC(=O)[O-]
REMARK SMILES IDX 12 1 11 2 10 3 9 4 8 5 7 6 6 7 5 8 4 9 3 10 2 11 1 12 13 13
REMARK SMILES IDX 14 14 15 15 16 16 17 17 18 18 19 19 20 20 21 21 22 22 23 23
REMARK SMILES IDX 24 24
REMARK H PARENT
REMARK Flexibility Score: inf
ROOT
ATOM      1  C   UNL     1      16.215   4.158  80.988  1.00  0.00     0.000 C 
ENDROOT
BRANCH   1   2
ATOM      2  C   UNL     1      16.159   5.653  80.620  1.00  0.00     0.000 C 
BRANCH   2   3
ATOM      3  C   UNL     1      15.600   5.927  79.207  1.00  0.00     0.000 C 
BRANCH   3   4
ATOM      4  C   UNL     1      16.643   6.566  78.273  1.00  0.00    -0.000 C 
BRANCH   4   5
ATOM      5  C   UNL     1      16.431   6.160  76.799  1.00  0.00    -0.000 C 
BRANCH   5   6
ATOM      6  C   UNL     1      15.977   4.699  76.615  1.00  0.00    -0.000 C 
BRANCH   6   7
ATOM      7  C   UNL     1      17.111   3.658  76.624  1.00  0.00    -0.000 C 
BRANCH   7   8
ATOM      8  C   UNL     1      16.636   2.261  77.059  1.00  0.00    -0.000 C 
BRANCH   8   9
ATOM      9  C   UNL     1      15.182   2.256  77.569  1.00  0.00    -0.000 C 
BRANCH   9  10
ATOM     10  C   UNL     1      14.913   1.316  78.758  1.00  0.00    -0.000 C 
BRANCH  10  11
ATOM     11  C   UNL     1      13.665   1.710  79.561  1.00  0.00    -0.003 C 
ATOM     12  C   UNL     1      13.187   3.109  79.183  1.00  0.00     0.004 C 
ENDBRANCH  10  11
ENDBRANCH   9  10
ENDBRANCH   8   9
ENDBRANCH   7   8
ENDBRANCH   6   7
ENDBRANCH   5   6
ENDBRANCH   4   5
ENDBRANCH   3   4
ENDBRANCH   2   3
ENDBRANCH   1   2
BRANCH   1  13
ATOM     13  C   UNL     1      17.458   3.410  80.475  1.00  0.00     0.000 C 
BRANCH  13  14
ATOM     14  C   UNL     1      18.354   2.808  81.576  1.00  0.00     0.000 C 
BRANCH  14  15
ATOM     15  C   UNL     1      17.577   1.994  82.634  1.00  0.00     0.000 C 
BRANCH  15  16
ATOM     16  C   UNL     1      17.436   0.512  82.244  1.00  0.00     0.000 C 
BRANCH  16  17
ATOM     17  C   UNL     1      15.991   0.002  82.367  1.00  0.00     0.000 C 
BRANCH  17  18
ATOM     18  C   UNL     1      14.985   1.138  82.621  1.00  0.00     0.000 C 
BRANCH  18  19
ATOM     19  C   UNL     1      13.907   0.756  83.648  1.00  0.00     0.000 C 
BRANCH  19  20
ATOM     20  C   UNL     1      13.221  -0.582  83.320  1.00  0.00     0.006 C 
BRANCH  20  21
ATOM     21  C   UNL     1      11.909  -0.765  84.096  1.00  0.00     0.053 C 
BRANCH  21  22
ATOM     22  C   UNL     1      11.115  -1.926  83.581  1.00  0.00     0.041 C 
ATOM     23  O   UNL     1      10.630  -1.899  82.419  1.00  0.00    -0.550 OA
ATOM     24  O   UNL     1      10.889  -3.028  84.395  1.00  0.00    -0.550 OA
ENDBRANCH  21  22
ENDBRANCH  20  21
ENDBRANCH  19  20
ENDBRANCH  18  19
ENDBRANCH  17  18
ENDBRANCH  16  17
ENDBRANCH  15  16
ENDBRANCH  14  15
ENDBRANCH  13  14
ENDBRANCH   1  13
TORSDOF 20
ENDMDL
MODEL 3
REMARK VINA RESULT:    -4.188     12.851     14.665
REMARK INTER + INTRA:         -11.774
REMARK INTER:                  -8.514
REMARK INTRA:                  -3.260
REMARK UNBOUND:                -2.688
REMARK SMILES CCCCCCCCCCCCCCCCCCCCCC(=O)[O-]
REMARK SMILES IDX 12 1 11 2 10 3 9 4 8 5 7 6 6 7 5 8 4 9 3 10 2 11 1 12 13 13
REMARK SMILES IDX 14 14 15 15 16 16 17 17 18 18 19 19 20 20 21 21 22 22 23 23
REMARK SMILES IDX 24 24
REMARK H PARENT
REMARK Flexibility Score: inf
ROOT
ATOM      1  C   UNL     1      15.753   2.030  77.643  1.00  0.00     0.000 C 
ENDROOT
BRANCH   1   2
ATOM      2  C   UNL     1      17.186   2.597  77.622  1.00  0.00     0.000 C 
BRANCH   2   3
ATOM      3  C   UNL     1      17.968   2.268  76.332  1.00  0.00     0.000 C 
BRANCH   3   4
ATOM      4  C   UNL     1      18.870   3.429  75.877  1.00  0.00    -0.000 C 
BRANCH   4   5
ATOM      5  C   UNL     1      18.254   4.218  74.701  1.00  0.00    -0.000 C 
BRANCH   5   6
ATOM      6  C   UNL     1      17.735   5.615  75.093  1.00  0.00    -0.000 C 
BRANCH   6   7
ATOM      7  C   UNL     1      16.302   5.644  75.652  1.00  0.00    -0.000 C 
BRANCH   7   8
ATOM      8  C   UNL     1      16.222   6.258  77.061  1.00  0.00    -0.000 C 
BRANCH   8   9
ATOM      9  C   UNL     1      17.608   6.468  77.700  1.00  0.00    -0.000 C 
BRANCH   9  10
ATOM     10  C   UNL     1      17.655   6.281  79.227  1.00  0.00    -0.000 C 
BRANCH  10  11
ATOM     11  C   UNL     1      16.390   5.616  79.788  1.00  0.00    -0.003 C 
ATOM     12  C   UNL     1      16.744   4.520  80.789  1.00  0.00     0.004 C 
ENDBRANCH  10  11
ENDBRANCH   9  10
ENDBRANCH   8   9
ENDBRANCH   7   8
ENDBRANCH   6   7
ENDBRANCH   5   6
ENDBRANCH   4   5
ENDBRANCH   3   4
ENDBRANCH   2   3
ENDBRANCH   1   2
BRANCH   1  13
ATOM     13  C   UNL     1      14.638   3.087  77.708  1.00  0.00     0.000 C 
BRANCH  13  14
ATOM     14  C   UNL     1      13.802   3.072  79.003  1.00  0.00     0.000 C 
BRANCH  14  15
ATOM     15  C   UNL     1      13.721   1.683  79.674  1.00  0.00     0.000 C 
BRANCH  15  16
ATOM     16  C   UNL     1      14.253   1.700  81.118  1.00  0.00     0.000 C 
BRANCH  16  17
ATOM     17  C   UNL     1      15.108   0.466  81.448  1.00  0.00     0.000 C 
BRANCH  17  18
ATOM     18  C   UNL     1      14.938   0.005  82.906  1.00  0.00     0.000 C 
BRANCH  18  19
ATOM     19  C   UNL     1      13.692   0.606  83.576  1.00  0.00     0.000 C 
BRANCH  19  20
ATOM     20  C   UNL     1      12.686  -0.466  84.031  1.00  0.00     0.006 C 
BRANCH  20  21
ATOM     21  C   UNL     1      12.744  -1.724  83.153  1.00  0.00     0.053 C 
BRANCH  21  22
ATOM     22  C   UNL     1      11.724  -1.685  82.057  1.00  0.00     0.041 C 
ATOM     23  O   UNL     1      10.532  -2.020  82.286  1.00  0.00    -0.550 OA
ATOM     24  O   UNL     1      12.098  -1.304  80.774  1.00  0.00    -0.550 OA
ENDBRANCH  21  22
ENDBRANCH  20  21
ENDBRANCH  19  20
ENDBRANCH  18  19
ENDBRANCH  17  18
ENDBRANCH  16  17
ENDBRANCH  15  16
ENDBRANCH  14  15
ENDBRANCH  13  14
ENDBRANCH   1  13
TORSDOF 20
ENDMDL
MODEL 4
REMARK VINA RESULT:    -4.177      1.967      4.424
REMARK INTER + INTRA:         -11.749
REMARK INTER:                  -8.380
REMARK INTRA:                  -3.369
REMARK UNBOUND:                -2.688
REMARK SMILES CCCCCCCCCCCCCCCCCCCCCC(=O)[O-]
REMARK SMILES IDX 12 1 11 2 10 3 9 4 8 5 7 6 6 7 5 8 4 9 3 10 2 11 1 12 13 13
REMARK SMILES IDX 14 14 15 15 16 16 17 17 18 18 19 19 20 20 21 21 22 22 23 23
REMARK SMILES IDX 24 24
REMARK H PARENT
REMARK Flexibility Score: inf
ROOT
ATOM      1  C   UNL     1       2.178   9.440  83.527  1.00  0.00     0.000 C 
ENDROOT
BRANCH   1   2
ATOM      2  C   UNL     1       0.711   9.861  83.319  1.00  0.00     0.000 C 
BRANCH   2   3
ATOM      3  C   UNL     1       0.394  10.330  81.882  1.00  0.00     0.000 C 
BRANCH   3   4
ATOM      4  C   UNL     1       0.105  11.839  81.804  1.00  0.00    -0.000 C 
BRANCH   4   5
ATOM      5  C   UNL     1       0.553  12.584  83.079  1.00  0.00    -0.000 C 
BRANCH   5   6
ATOM      6  C   UNL     1       1.865  13.375  82.910  1.00  0.00    -0.000 C 
BRANCH   6   7
ATOM      7  C   UNL     1       2.311  13.594  81.453  1.00  0.00    -0.000 C 
BRANCH   7   8
ATOM      8  C   UNL     1       3.739  13.090  81.184  1.00  0.00    -0.000 C 
BRANCH   8   9
ATOM      9  C   UNL     1       3.851  11.555  81.240  1.00  0.00    -0.000 C 
BRANCH   9  10
ATOM     10  C   UNL     1       5.287  11.004  81.172  1.00  0.00    -0.000 C 
BRANCH  10  11
ATOM     11  C   UNL     1       5.550   9.892  82.197  1.00  0.00    -0.003 C 
ATOM     12  C   UNL     1       6.217   8.686  81.540  1.00  0.00     0.004 C 
ENDBRANCH  10  11
ENDBRANCH   9  10
ENDBRANCH   8   9
ENDBRANCH   7   8
ENDBRANCH   6   7
ENDBRANCH   5   6
ENDBRANCH   4   5
ENDBRANCH   3   4
ENDBRANCH   2   3
ENDBRANCH   1   2
BRANCH   1  13
ATOM     13  C   UNL     1       2.914  10.189  84.651  1.00  0.00     0.000 C 
BRANCH  13  14
ATOM     14  C   UNL     1       2.179  10.214  86.006  1.00  0.00     0.000 C 
BRANCH  14  15
ATOM     15  C   UNL     1       2.949   9.509  87.144  1.00  0.00     0.000 C 
BRANCH  15  16
ATOM     16  C   UNL     1       2.027   9.096  88.305  1.00  0.00     0.000 C 
BRANCH  16  17
ATOM     17  C   UNL     1       0.537   9.262  87.966  1.00  0.00     0.000 C 
BRANCH  17  18
ATOM     18  C   UNL     1      -0.163   7.915  87.716  1.00  0.00     0.000 C 
BRANCH  18  19
ATOM     19  C   UNL     1      -0.582   7.728  86.249  1.00  0.00     0.000 C 
BRANCH  19  20
ATOM     20  C   UNL     1       0.368   6.799  85.473  1.00  0.00     0.006 C 
BRANCH  20  21
ATOM     21  C   UNL     1       1.299   6.013  86.406  1.00  0.00     0.053 C 
BRANCH  21  22
ATOM     22  C   UNL     1       2.527   5.536  85.695  1.00  0.00     0.041 C 
ATOM     23  O   UNL     1       2.881   4.330  85.776  1.00  0.00    -0.550 OA
ATOM     24  O   UNL     1       3.297   6.431  84.962  1.00  0.00    -0.550 OA
ENDBRANCH  21  22
ENDBRANCH  20  21
ENDBRANCH  19  20
ENDBRANCH  18  19
ENDBRANCH  17  18
ENDBRANCH  16  17
ENDBRANCH  15  16
ENDBRANCH  14  15
ENDBRANCH  13  14
ENDBRANCH   1  13
TORSDOF 20
ENDMDL
MODEL 5
REMARK VINA RESULT:    -4.169      3.715      7.740
REMARK INTER + INTRA:         -11.732
REMARK INTER:                  -9.033
REMARK INTRA:                  -2.699
REMARK UNBOUND:                -2.688
REMARK SMILES CCCCCCCCCCCCCCCCCCCCCC(=O)[O-]
REMARK SMILES IDX 12 1 11 2 10 3 9 4 8 5 7 6 6 7 5 8 4 9 3 10 2 11 1 12 13 13
REMARK SMILES IDX 14 14 15 15 16 16 17 17 18 18 19 19 20 20 21 21 22 22 23 23
REMARK SMILES IDX 24 24
REMARK H PARENT
REMARK Flexibility Score: inf
ROOT
ATOM      1  C   UNL     1      -0.230  10.089  84.313  1.00  0.00     0.000 C 
ENDROOT
BRANCH   1   2
ATOM      2  C   UNL     1      -1.109   8.994  84.947  1.00  0.00     0.000 C 
BRANCH   2   3
ATOM      3  C   UNL     1      -0.364   7.666  85.203  1.00  0.00     0.000 C 
BRANCH   3   4
ATOM      4  C   UNL     1       0.030   7.486  86.680  1.00  0.00    -0.000 C 
BRANCH   4   5
ATOM      5  C   UNL     1       1.496   7.030  86.840  1.00  0.00    -0.000 C 
BRANCH   5   6
ATOM      6  C   UNL     1       2.514   7.946  86.133  1.00  0.00    -0.000 C 
BRANCH   6   7
ATOM      7  C   UNL     1       2.703   9.330  86.780  1.00  0.00    -0.000 C 
BRANCH   7   8
ATOM      8  C   UNL     1       2.529   9.305  88.308  1.00  0.00    -0.000 C 
BRANCH   8   9
ATOM      9  C   UNL     1       1.755  10.525  88.841  1.00  0.00    -0.000 C 
BRANCH   9  10
ATOM     10  C   UNL     1       0.802  11.185  87.829  1.00  0.00    -0.000 C 
BRANCH  10  11
ATOM     11  C   UNL     1       1.160  12.649  87.538  1.00  0.00    -0.003 C 
ATOM     12  C   UNL     1       1.418  12.867  86.050  1.00  0.00     0.004 C 
ENDBRANCH  10  11
ENDBRANCH   9  10
ENDBRANCH   8   9
ENDBRANCH   7   8
ENDBRANCH   6   7
ENDBRANCH   5   6
ENDBRANCH   4   5
ENDBRANCH   3   4
ENDBRANCH   2   3
ENDBRANCH   1   2
BRANCH   1  13
ATOM     13  C   UNL     1      -0.111  10.019  82.781  1.00  0.00     0.000 C 
BRANCH  13  14
ATOM     14  C   UNL     1       1.258  10.445  82.214  1.00  0.00     0.000 C 
BRANCH  14  15
ATOM     15  C   UNL     1       2.460   9.882  83.005  1.00  0.00     0.000 C 
BRANCH  15  16
ATOM     16  C   UNL     1       3.383  10.993  83.535  1.00  0.00     0.000 C 
BRANCH  16  17
ATOM     17  C   UNL     1       4.872  10.681  83.315  1.00  0.00     0.000 C 
BRANCH  17  18
ATOM     18  C   UNL     1       5.175  10.235  81.874  1.00  0.00     0.000 C 
BRANCH  18  19
ATOM     19  C   UNL     1       5.915   8.890  81.813  1.00  0.00     0.000 C 
BRANCH  19  20
ATOM     20  C   UNL     1       7.006   8.860  80.728  1.00  0.00     0.006 C 
BRANCH  20  21
ATOM     21  C   UNL     1       7.393   7.427  80.336  1.00  0.00     0.053 C 
BRANCH  21  22
ATOM     22  C   UNL     1       8.680   7.388  79.572  1.00  0.00     0.041 C 
ATOM     23  O   UNL     1       9.441   8.391  79.557  1.00  0.00    -0.550 OA
ATOM     24  O   UNL     1       9.026   6.251  78.852  1.00  0.00    -0.550 OA
ENDBRANCH  21  22
ENDBRANCH  20  21
ENDBRANCH  19  20
ENDBRANCH  18  19
ENDBRANCH  17  18
ENDBRANCH  16  17
ENDBRANCH  15  16
ENDBRANCH  14  15
ENDBRANCH  13  14
ENDBRANCH   1  13
TORSDOF 20
ENDMDL
MODEL 6
REMARK VINA RESULT:    -4.136      3.167      6.935
REMARK INTER + INTRA:         -11.661
REMARK INTER:                  -9.250
REMARK INTRA:                  -2.411
REMARK UNBOUND:                -2.688
REMARK SMILES CCCCCCCCCCCCCCCCCCCCCC(=O)[O-]
REMARK SMILES IDX 12 1 11 2 10 3 9 4 8 5 7 6 6 7 5 8 4 9 3 10 2 11 1 12 13 13
REMARK SMILES IDX 14 14 15 15 16 16 17 17 18 18 19 19 20 20 21 21 22 22 23 23
REMARK SMILES IDX 24 24
REMARK H PARENT
REMARK Flexibility Score: inf
ROOT
ATOM      1  C   UNL     1       2.702  13.875  82.716  1.00  0.00     0.000 C 
ENDROOT
BRANCH   1   2
ATOM      2  C   UNL     1       1.267  14.143  83.211  1.00  0.00     0.000 C 
BRANCH   2   3
ATOM      3  C   UNL     1       0.198  13.262  82.530  1.00  0.00     0.000 C 
BRANCH   3   4
ATOM      4  C   UNL     1       0.772  12.427  81.371  1.00  0.00    -0.000 C 
BRANCH   4   5
ATOM      5  C   UNL     1       0.410  10.932  81.497  1.00  0.00    -0.000 C 
BRANCH   5   6
ATOM      6  C   UNL     1       0.315  10.434  82.953  1.00  0.00    -0.000 C 
BRANCH   6   7
ATOM      7  C   UNL     1       1.533   9.635  83.449  1.00  0.00    -0.000 C 
BRANCH   7   8
ATOM      8  C   UNL     1       1.399   9.192  84.916  1.00  0.00    -0.000 C 
BRANCH   8   9
ATOM      9  C   UNL     1       2.750   8.811  85.551  1.00  0.00    -0.000 C 
BRANCH   9  10
ATOM     10  C   UNL     1       3.040   9.472  86.910  1.00  0.00    -0.000 C 
BRANCH  10  11
ATOM     11  C   UNL     1       2.056   9.043  88.006  1.00  0.00    -0.003 C 
ATOM     12  C   UNL     1       1.929  10.117  89.082  1.00  0.00     0.004 C 
ENDBRANCH  10  11
ENDBRANCH   9  10
ENDBRANCH   8   9
ENDBRANCH   7   8
ENDBRANCH   6   7
ENDBRANCH   5   6
ENDBRANCH   4   5
ENDBRANCH   3   4
ENDBRANCH   2   3
ENDBRANCH   1   2
BRANCH   1  13
ATOM     13  C   UNL     1       3.660  13.310  83.779  1.00  0.00     0.000 C 
BRANCH  13  14
ATOM     14  C   UNL     1       4.334  11.975  83.404  1.00  0.00     0.000 C 
BRANCH  14  15
ATOM     15  C   UNL     1       4.245  11.635  81.900  1.00  0.00     0.000 C 
BRANCH  15  16
ATOM     16  C   UNL     1       5.297  10.597  81.472  1.00  0.00     0.000 C 
BRANCH  16  17
ATOM     17  C   UNL     1       5.134   9.253  82.201  1.00  0.00     0.000 C 
BRANCH  17  18
ATOM     18  C   UNL     1       5.921   8.117  81.525  1.00  0.00     0.000 C 
BRANCH  18  19
ATOM     19  C   UNL     1       7.238   8.602  80.896  1.00  0.00     0.000 C 
BRANCH  19  20
ATOM     20  C   UNL     1       7.505   7.972  79.518  1.00  0.00     0.006 C 
BRANCH  20  21
ATOM     21  C   UNL     1       8.785   7.125  79.507  1.00  0.00     0.053 C 
BRANCH  21  22
ATOM     22  C   UNL     1       8.488   5.666  79.665  1.00  0.00     0.041 C 
ATOM     23  O   UNL     1       7.299   5.269  79.791  1.00  0.00    -0.550 OA
ATOM     24  O   UNL     1       9.528   4.745  79.701  1.00  0.00    -0.550 OA
ENDBRANCH  21  22
ENDBRANCH  20  21
ENDBRANCH  19  20
ENDBRANCH  18  19
ENDBRANCH  17  18
ENDBRANCH  16  17
ENDBRANCH  15  16
ENDBRANCH  14  15
ENDBRANCH  13  14
ENDBRANCH   1  13
TORSDOF 20
ENDMDL
MODEL 7
REMARK VINA RESULT:    -4.109     13.004     14.781
REMARK INTER + INTRA:         -11.600
REMARK INTER:                  -8.122
REMARK INTRA:                  -3.478
REMARK UNBOUND:                -2.688
REMARK SMILES CCCCCCCCCCCCCCCCCCCCCC(=O)[O-]
REMARK SMILES IDX 12 1 11 2 10 3 9 4 8 5 7 6 6 7 5 8 4 9 3 10 2 11 1 12 13 13
REMARK SMILES IDX 14 14 15 15 16 16 17 17 18 18 19 19 20 20 21 21 22 22 23 23
REMARK SMILES IDX 24 24
REMARK H PARENT
REMARK Flexibility Score: inf
ROOT
ATOM      1  C   UNL     1      17.441   1.317  77.169  1.00  0.00     0.000 C 
ENDROOT
BRANCH   1   2
ATOM      2  C   UNL     1      18.094   2.677  76.855  1.00  0.00     0.000 C 
BRANCH   2   3
ATOM      3  C   UNL     1      18.487   2.852  75.372  1.00  0.00     0.000 C 
BRANCH   3   4
ATOM      4  C   UNL     1      18.021   4.200  74.793  1.00  0.00    -0.000 C 
BRANCH   4   5
ATOM      5  C   UNL     1      17.902   5.290  75.880  1.00  0.00    -0.000 C 
BRANCH   5   6
ATOM      6  C   UNL     1      16.510   5.946  75.954  1.00  0.00    -0.000 C 
BRANCH   6   7
ATOM      7  C   UNL     1      16.093   6.435  77.353  1.00  0.00    -0.000 C 
BRANCH   7   8
ATOM      8  C   UNL     1      17.067   5.989  78.456  1.00  0.00    -0.000 C 
BRANCH   8   9
ATOM      9  C   UNL     1      16.376   5.795  79.819  1.00  0.00    -0.000 C 
BRANCH   9  10
ATOM     10  C   UNL     1      17.076   4.806  80.769  1.00  0.00    -0.000 C 
BRANCH  10  11
ATOM     11  C   UNL     1      18.350   4.197  80.166  1.00  0.00    -0.003 C 
ATOM     12  C   UNL     1      18.483   2.723  80.537  1.00  0.00     0.004 C 
ENDBRANCH  10  11
ENDBRANCH   9  10
ENDBRANCH   8   9
ENDBRANCH   7   8
ENDBRANCH   6   7
ENDBRANCH   5   6
ENDBRANCH   4   5
ENDBRANCH   3   4
ENDBRANCH   2   3
ENDBRANCH   1   2
BRANCH   1  13
ATOM     13  C   UNL     1      15.919   1.363  77.385  1.00  0.00     0.000 C 
BRANCH  13  14
ATOM     14  C   UNL     1      15.334   2.775  77.592  1.00  0.00     0.000 C 
BRANCH  14  15
ATOM     15  C   UNL     1      14.452   2.902  78.853  1.00  0.00     0.000 C 
BRANCH  15  16
ATOM     16  C   UNL     1      14.705   1.768  79.862  1.00  0.00     0.000 C 
BRANCH  16  17
ATOM     17  C   UNL     1      14.411   2.187  81.312  1.00  0.00     0.000 C 
BRANCH  17  18
ATOM     18  C   UNL     1      15.504   1.726  82.291  1.00  0.00     0.000 C 
BRANCH  18  19
ATOM     19  C   UNL     1      15.106   0.464  83.072  1.00  0.00     0.000 C 
BRANCH  19  20
ATOM     20  C   UNL     1      13.597   0.396  83.364  1.00  0.00     0.006 C 
BRANCH  20  21
ATOM     21  C   UNL     1      13.066  -1.044  83.341  1.00  0.00     0.053 C 
BRANCH  21  22
ATOM     22  C   UNL     1      11.642  -1.119  83.797  1.00  0.00     0.041 C 
ATOM     23  O   UNL     1      11.302  -0.631  84.906  1.00  0.00    -0.550 OA
ATOM     24  O   UNL     1      10.693  -1.755  83.006  1.00  0.00    -0.550 OA
ENDBRANCH  21  22
ENDBRANCH  20  21
ENDBRANCH  19  20
ENDBRANCH  18  19
ENDBRANCH  17  18
ENDBRANCH  16  17
ENDBRANCH  15  16
ENDBRANCH  14  15
ENDBRANCH  13  14
ENDBRANCH   1  13
TORSDOF 20
ENDMDL
MODEL 8
REMARK VINA RESULT:    -4.083     12.991     15.158
REMARK INTER + INTRA:         -11.544
REMARK INTER:                  -7.722
REMARK INTRA:                  -3.823
REMARK UNBOUND:                -2.688
REMARK SMILES CCCCCCCCCCCCCCCCCCCCCC(=O)[O-]
REMARK SMILES IDX 12 1 11 2 10 3 9 4 8 5 7 6 6 7 5 8 4 9 3 10 2 11 1 12 13 13
REMARK SMILES IDX 14 14 15 15 16 16 17 17 18 18 19 19 20 20 21 21 22 22 23 23
REMARK SMILES IDX 24 24
REMARK H PARENT
REMARK Flexibility Score: inf
ROOT
ATOM      1  C   UNL     1      14.420   1.818  78.905  1.00  0.00     0.000 C 
ENDROOT
BRANCH   1   2
ATOM      2  C   UNL     1      15.234   2.221  77.660  1.00  0.00     0.000 C 
BRANCH   2   3
ATOM      3  C   UNL     1      16.455   1.315  77.393  1.00  0.00     0.000 C 
BRANCH   3   4
ATOM      4  C   UNL     1      17.770   2.109  77.304  1.00  0.00    -0.000 C 
BRANCH   4   5
ATOM      5  C   UNL     1      18.027   2.653  75.883  1.00  0.00    -0.000 C 
BRANCH   5   6
ATOM      6  C   UNL     1      18.377   4.154  75.844  1.00  0.00    -0.000 C 
BRANCH   6   7
ATOM      7  C   UNL     1      17.374   5.037  75.081  1.00  0.00    -0.000 C 
BRANCH   7   8
ATOM      8  C   UNL     1      16.142   5.407  75.924  1.00  0.00    -0.000 C 
BRANCH   8   9
ATOM      9  C   UNL     1      16.495   6.263  77.155  1.00  0.00    -0.000 C 
BRANCH   9  10
ATOM     10  C   UNL     1      15.662   5.967  78.415  1.00  0.00    -0.000 C 
BRANCH  10  11
ATOM     11  C   UNL     1      16.518   5.839  79.683  1.00  0.00    -0.003 C 
ATOM     12  C   UNL     1      17.864   5.192  79.374  1.00  0.00     0.004 C 
ENDBRANCH  10  11
ENDBRANCH   9  10
ENDBRANCH   8   9
ENDBRANCH   7   8
ENDBRANCH   6   7
ENDBRANCH   5   6
ENDBRANCH   4   5
ENDBRANCH   3   4
ENDBRANCH   2   3
ENDBRANCH   1   2
BRANCH   1  13
ATOM     13  C   UNL     1      14.176   2.953  79.915  1.00  0.00     0.000 C 
BRANCH  13  14
ATOM     14  C   UNL     1      14.867   2.768  81.281  1.00  0.00     0.000 C 
BRANCH  14  15
ATOM     15  C   UNL     1      16.346   2.336  81.176  1.00  0.00     0.000 C 
BRANCH  15  16
ATOM     16  C   UNL     1      16.814   1.548  82.412  1.00  0.00     0.000 C 
BRANCH  16  17
ATOM     17  C   UNL     1      17.260   0.117  82.068  1.00  0.00     0.000 C 
BRANCH  17  18
ATOM     18  C   UNL     1      16.649  -0.390  80.750  1.00  0.00     0.000 C 
BRANCH  18  19
ATOM     19  C   UNL     1      15.589  -1.481  80.970  1.00  0.00     0.000 C 
BRANCH  19  20
ATOM     20  C   UNL     1      14.232  -0.911  81.421  1.00  0.00     0.006 C 
BRANCH  20  21
ATOM     21  C   UNL     1      13.840  -1.393  82.825  1.00  0.00     0.053 C 
BRANCH  21  22
ATOM     22  C   UNL     1      13.147  -0.321  83.608  1.00  0.00     0.041 C 
ATOM     23  O   UNL     1      13.690   0.805  83.762  1.00  0.00    -0.550 OA
ATOM     24  O   UNL     1      11.912  -0.576  84.191  1.00  0.00    -0.550 OA
ENDBRANCH  21  22
ENDBRANCH  20  21
ENDBRANCH  19  20
ENDBRANCH  18  19
ENDBRANCH  17  18
ENDBRANCH  16  17
ENDBRANCH  15  16
ENDBRANCH  14  15
ENDBRANCH  13  14
ENDBRANCH   1  13
TORSDOF 20
ENDMDL
MODEL 9
REMARK VINA RESULT:    -4.052     12.808     14.500
REMARK INTER + INTRA:         -11.477
REMARK INTER:                  -8.004
REMARK INTRA:                  -3.473
REMARK UNBOUND:                -2.688
REMARK SMILES CCCCCCCCCCCCCCCCCCCCCC(=O)[O-]
REMARK SMILES IDX 12 1 11 2 10 3 9 4 8 5 7 6 6 7 5 8 4 9 3 10 2 11 1 12 13 13
REMARK SMILES IDX 14 14 15 15 16 16 17 17 18 18 19 19 20 20 21 21 22 22 23 23
REMARK SMILES IDX 24 24
REMARK H PARENT
REMARK Flexibility Score: inf
ROOT
ATOM      1  C   UNL     1      14.237   1.850  78.884  1.00  0.00     0.000 C 
ENDROOT
BRANCH   1   2
ATOM      2  C   UNL     1      15.009   2.491  77.714  1.00  0.00     0.000 C 
BRANCH   2   3
ATOM      3  C   UNL     1      16.265   1.700  77.288  1.00  0.00     0.000 C 
BRANCH   3   4
ATOM      4  C   UNL     1      17.562   2.507  77.477  1.00  0.00    -0.000 C 
BRANCH   4   5
ATOM      5  C   UNL     1      17.725   3.016  78.926  1.00  0.00    -0.000 C 
BRANCH   5   6
ATOM      6  C   UNL     1      17.843   4.548  79.037  1.00  0.00    -0.000 C 
BRANCH   6   7
ATOM      7  C   UNL     1      16.607   5.256  79.620  1.00  0.00    -0.000 C 
BRANCH   7   8
ATOM      8  C   UNL     1      15.749   5.944  78.543  1.00  0.00    -0.000 C 
BRANCH   8   9
ATOM      9  C   UNL     1      16.544   6.266  77.264  1.00  0.00    -0.000 C 
BRANCH   9  10
ATOM     10  C   UNL     1      16.033   5.573  75.988  1.00  0.00    -0.000 C 
BRANCH  10  11
ATOM     11  C   UNL     1      17.150   5.283  74.976  1.00  0.00    -0.003 C 
ATOM     12  C   UNL     1      18.515   5.667  75.540  1.00  0.00     0.004 C 
ENDBRANCH  10  11
ENDBRANCH   9  10
ENDBRANCH   8   9
ENDBRANCH   7   8
ENDBRANCH   6   7
ENDBRANCH   5   6
ENDBRANCH   4   5
ENDBRANCH   3   4
ENDBRANCH   2   3
ENDBRANCH   1   2
BRANCH   1  13
ATOM     13  C   UNL     1      14.001   2.776  80.089  1.00  0.00     0.000 C 
BRANCH  13  14
ATOM     14  C   UNL     1      14.234   2.122  81.466  1.00  0.00     0.000 C 
BRANCH  14  15
ATOM     15  C   UNL     1      15.725   1.929  81.819  1.00  0.00     0.000 C 
BRANCH  15  16
ATOM     16  C   UNL     1      16.079   0.454  82.075  1.00  0.00     0.000 C 
BRANCH  16  17
ATOM     17  C   UNL     1      14.999  -0.513  81.561  1.00  0.00     0.000 C 
BRANCH  17  18
ATOM     18  C   UNL     1      14.790  -1.714  82.498  1.00  0.00     0.000 C 
BRANCH  18  19
ATOM     19  C   UNL     1      14.139  -1.318  83.833  1.00  0.00     0.000 C 
BRANCH  19  20
ATOM     20  C   UNL     1      12.836  -0.521  83.646  1.00  0.00     0.006 C 
BRANCH  20  21
ATOM     21  C   UNL     1      11.597  -1.336  84.044  1.00  0.00     0.053 C 
BRANCH  21  22
ATOM     22  C   UNL     1      10.873  -1.867  82.846  1.00  0.00     0.041 C 
ATOM     23  O   UNL     1       9.840  -2.574  82.989  1.00  0.00    -0.550 OA
ATOM     24  O   UNL     1      11.355  -1.604  81.570  1.00  0.00    -0.550 OA
ENDBRANCH  21  22
ENDBRANCH  20  21
ENDBRANCH  19  20
ENDBRANCH  18  19
ENDBRANCH  17  18
ENDBRANCH  16  17
ENDBRANCH  15  16
ENDBRANCH  14  15
ENDBRANCH  13  14
ENDBRANCH   1  13
TORSDOF 20
ENDMDL
