MODEL 1
REMARK VINA RESULT:    -4.502      0.000      0.000
REMARK INTER + INTRA:          -4.784
REMARK INTER:                  -4.765
REMARK INTRA:                  -0.019
REMARK UNBOUND:                -0.019
REMARK SMILES O=C([O-])c1cccnc1
REMARK SMILES IDX 4 1 5 2 9 3 6 4 8 5 7 6 2 7 1 8 3 9
REMARK H PARENT
REMARK Flexibility Score: inf
ROOT
ATOM      1  C   UNL     1      22.386 -21.728  32.687  1.00  0.00     0.016 A 
ATOM      2  C   UNL     1      22.189 -20.652  31.807  1.00  0.00     0.013 A 
ATOM      3  C   UNL     1      21.259 -22.318  33.284  1.00  0.00     0.120 A 
ATOM      4  C   UNL     1      20.898 -20.190  31.541  1.00  0.00     0.021 A 
ATOM      5  N   UNL     1      20.011 -21.849  33.008  1.00  0.00    -0.264 NA
ATOM      6  C   UNL     1      19.810 -20.809  32.158  1.00  0.00     0.111 A 
ENDROOT
BRANCH   1   7
ATOM      7  C   UNL     1      23.748 -22.225  32.975  1.00  0.00     0.073 C 
ATOM      8  O   UNL     1      24.111 -22.448  34.162  1.00  0.00    -0.545 OA
ATOM      9  O   UNL     1      24.649 -22.453  31.941  1.00  0.00    -0.545 OA
ENDBRANCH   1   7
TORSDOF 1
ENDMDL
MODEL 2
REMARK VINA RESULT:    -4.500      1.269      1.889
REMARK INTER + INTRA:          -4.783
REMARK INTER:                  -4.764
REMARK INTRA:                  -0.019
REMARK UNBOUND:                -0.019
REMARK SMILES O=C([O-])c1cccnc1
REMARK SMILES IDX 4 1 5 2 9 3 6 4 8 5 7 6 2 7 1 8 3 9
REMARK H PARENT
REMARK Flexibility Score: inf
ROOT
ATOM      1  C   UNL     1      22.269 -22.108  32.986  1.00  0.00     0.016 A 
ATOM      2  C   UNL     1      20.926 -22.385  33.290  1.00  0.00     0.013 A 
ATOM      3  C   UNL     1      22.552 -21.028  32.132  1.00  0.00     0.120 A 
ATOM      4  C   UNL     1      19.908 -21.598  32.748  1.00  0.00     0.021 A 
ATOM      5  N   UNL     1      21.542 -20.276  31.617  1.00  0.00    -0.264 NA
ATOM      6  C   UNL     1      20.240 -20.536  31.904  1.00  0.00     0.111 A 
ENDROOT
BRANCH   1   7
ATOM      7  C   UNL     1      23.355 -22.934  33.555  1.00  0.00     0.073 C 
ATOM      8  O   UNL     1      24.363 -22.392  34.084  1.00  0.00    -0.545 OA
ATOM      9  O   UNL     1      23.281 -24.322  33.513  1.00  0.00    -0.545 OA
ENDBRANCH   1   7
TORSDOF 1
ENDMDL
MODEL 3
REMARK VINA RESULT:    -4.436      1.551      1.916
REMARK INTER + INTRA:          -4.715
REMARK INTER:                  -4.699
REMARK INTRA:                  -0.016
REMARK UNBOUND:                -0.019
REMARK SMILES O=C([O-])c1cccnc1
REMARK SMILES IDX 4 1 5 2 9 3 6 4 8 5 7 6 2 7 1 8 3 9
REMARK H PARENT
REMARK Flexibility Score: inf
ROOT
ATOM      1  C   UNL     1      22.414 -22.837  33.209  1.00  0.00     0.016 A 
ATOM      2  C   UNL     1      21.422 -21.847  33.138  1.00  0.00     0.013 A 
ATOM      3  C   UNL     1      22.013 -24.184  33.248  1.00  0.00     0.120 A 
ATOM      4  C   UNL     1      20.073 -22.206  33.108  1.00  0.00     0.021 A 
ATOM      5  N   UNL     1      20.691 -24.507  33.217  1.00  0.00    -0.264 NA
ATOM      6  C   UNL     1      19.724 -23.557  33.150  1.00  0.00     0.111 A 
ENDROOT
BRANCH   1   7
ATOM      7  C   UNL     1      23.845 -22.468  33.241  1.00  0.00     0.073 C 
ATOM      8  O   UNL     1      24.465 -22.400  34.336  1.00  0.00    -0.545 OA
ATOM      9  O   UNL     1      24.528 -22.191  32.062  1.00  0.00    -0.545 OA
ENDBRANCH   1   7
TORSDOF 1
ENDMDL
MODEL 4
REMARK VINA RESULT:    -4.382      2.796      3.579
REMARK INTER + INTRA:          -4.658
REMARK INTER:                  -4.635
REMARK INTRA:                  -0.023
REMARK UNBOUND:                -0.019
REMARK SMILES O=C([O-])c1cccnc1
REMARK SMILES IDX 4 1 5 2 9 3 6 4 8 5 7 6 2 7 1 8 3 9
REMARK H PARENT
REMARK Flexibility Score: inf
ROOT
ATOM      1  C   UNL     1      21.394 -21.140  32.248  1.00  0.00     0.016 A 
ATOM      2  C   UNL     1      22.740 -20.809  32.024  1.00  0.00     0.013 A 
ATOM      3  C   UNL     1      21.105 -22.298  32.990  1.00  0.00     0.120 A 
ATOM      4  C   UNL     1      23.755 -21.620  32.533  1.00  0.00     0.021 A 
ATOM      5  N   UNL     1      22.114 -23.072  33.476  1.00  0.00    -0.264 NA
ATOM      6  C   UNL     1      23.419 -22.761  33.265  1.00  0.00     0.111 A 
ENDROOT
BRANCH   1   7
ATOM      7  C   UNL     1      20.310 -20.288  31.714  1.00  0.00     0.073 C 
ATOM      8  O   UNL     1      19.132 -20.403  32.147  1.00  0.00    -0.545 OA
ATOM      9  O   UNL     1      20.575 -19.348  30.724  1.00  0.00    -0.545 OA
ENDBRANCH   1   7
TORSDOF 1
ENDMDL
MODEL 5
REMARK VINA RESULT:    -4.240     10.502     11.333
REMARK INTER + INTRA:          -4.507
REMARK INTER:                  -4.489
REMARK INTRA:                  -0.018
REMARK UNBOUND:                -0.019
REMARK SMILES O=C([O-])c1cccnc1
REMARK SMILES IDX 4 1 5 2 9 3 6 4 8 5 7 6 2 7 1 8 3 9
REMARK H PARENT
REMARK Flexibility Score: inf
ROOT
ATOM      1  C   UNL     1      16.222 -13.972  38.001  1.00  0.00     0.016 A 
ATOM      2  C   UNL     1      17.508 -14.457  37.714  1.00  0.00     0.013 A 
ATOM      3  C   UNL     1      15.560 -13.213  37.019  1.00  0.00     0.120 A 
ATOM      4  C   UNL     1      18.102 -14.185  36.480  1.00  0.00     0.021 A 
ATOM      5  N   UNL     1      16.161 -12.963  35.824  1.00  0.00    -0.264 NA
ATOM      6  C   UNL     1      17.405 -13.427  35.538  1.00  0.00     0.111 A 
ENDROOT
BRANCH   1   7
ATOM      7  C   UNL     1      15.584 -14.254  39.304  1.00  0.00     0.073 C 
ATOM      8  O   UNL     1      16.139 -13.901  40.379  1.00  0.00    -0.545 OA
ATOM      9  O   UNL     1      14.362 -14.914  39.361  1.00  0.00    -0.545 OA
ENDBRANCH   1   7
TORSDOF 1
ENDMDL
MODEL 6
REMARK VINA RESULT:    -4.159      2.430      2.916
REMARK INTER + INTRA:          -4.422
REMARK INTER:                  -4.402
REMARK INTRA:                  -0.019
REMARK UNBOUND:                -0.019
REMARK SMILES O=C([O-])c1cccnc1
REMARK SMILES IDX 4 1 5 2 9 3 6 4 8 5 7 6 2 7 1 8 3 9
REMARK H PARENT
REMARK Flexibility Score: inf
ROOT
ATOM      1  C   UNL     1      21.932 -23.938  33.210  1.00  0.00     0.016 A 
ATOM      2  C   UNL     1      20.533 -23.845  33.147  1.00  0.00     0.013 A 
ATOM      3  C   UNL     1      22.681 -22.749  33.226  1.00  0.00     0.120 A 
ATOM      4  C   UNL     1      19.915 -22.594  33.101  1.00  0.00     0.021 A 
ATOM      5  N   UNL     1      22.054 -21.542  33.181  1.00  0.00    -0.264 NA
ATOM      6  C   UNL     1      20.701 -21.441  33.118  1.00  0.00     0.111 A 
ENDROOT
BRANCH   1   7
ATOM      7  C   UNL     1      22.597 -25.258  33.260  1.00  0.00     0.073 C 
ATOM      8  O   UNL     1      22.212 -26.139  34.075  1.00  0.00    -0.545 OA
ATOM      9  O   UNL     1      23.658 -25.544  32.409  1.00  0.00    -0.545 OA
ENDBRANCH   1   7
TORSDOF 1
ENDMDL
MODEL 7
REMARK VINA RESULT:    -4.112      2.787      3.733
REMARK INTER + INTRA:          -4.372
REMARK INTER:                  -4.349
REMARK INTRA:                  -0.023
REMARK UNBOUND:                -0.019
REMARK SMILES O=C([O-])c1cccnc1
REMARK SMILES IDX 4 1 5 2 9 3 6 4 8 5 7 6 2 7 1 8 3 9
REMARK H PARENT
REMARK Flexibility Score: inf
ROOT
ATOM      1  C   UNL     1      20.969 -22.510  32.850  1.00  0.00     0.016 A 
ATOM      2  C   UNL     1      19.749 -23.192  32.983  1.00  0.00     0.013 A 
ATOM      3  C   UNL     1      22.159 -23.214  33.103  1.00  0.00     0.120 A 
ATOM      4  C   UNL     1      19.734 -24.537  33.357  1.00  0.00     0.021 A 
ATOM      5  N   UNL     1      22.117 -24.525  33.466  1.00  0.00    -0.264 NA
ATOM      6  C   UNL     1      20.942 -25.193  33.598  1.00  0.00     0.111 A 
ENDROOT
BRANCH   1   7
ATOM      7  C   UNL     1      20.996 -21.086  32.454  1.00  0.00     0.073 C 
ATOM      8  O   UNL     1      22.065 -20.554  32.049  1.00  0.00    -0.545 OA
ATOM      9  O   UNL     1      19.843 -20.313  32.523  1.00  0.00    -0.545 OA
ENDBRANCH   1   7
TORSDOF 1
ENDMDL
MODEL 8
REMARK VINA RESULT:    -4.090      9.169      9.585
REMARK INTER + INTRA:          -4.349
REMARK INTER:                  -4.331
REMARK INTRA:                  -0.018
REMARK UNBOUND:                -0.019
REMARK SMILES O=C([O-])c1cccnc1
REMARK SMILES IDX 4 1 5 2 9 3 6 4 8 5 7 6 2 7 1 8 3 9
REMARK H PARENT
REMARK Flexibility Score: inf
ROOT
ATOM      1  C   UNL     1      16.580 -15.760  36.974  1.00  0.00     0.016 A 
ATOM      2  C   UNL     1      17.789 -15.154  37.351  1.00  0.00     0.013 A 
ATOM      3  C   UNL     1      15.954 -15.324  35.793  1.00  0.00     0.120 A 
ATOM      4  C   UNL     1      18.344 -14.144  36.562  1.00  0.00     0.021 A 
ATOM      5  N   UNL     1      16.515 -14.338  35.042  1.00  0.00    -0.264 NA
ATOM      6  C   UNL     1      17.684 -13.745  35.398  1.00  0.00     0.111 A 
ENDROOT
BRANCH   1   7
ATOM      7  C   UNL     1      15.984 -16.830  37.802  1.00  0.00     0.073 C 
ATOM      8  O   UNL     1      14.825 -16.700  38.280  1.00  0.00    -0.545 OA
ATOM      9  O   UNL     1      16.695 -17.995  38.065  1.00  0.00    -0.545 OA
ENDBRANCH   1   7
TORSDOF 1
ENDMDL
MODEL 9
REMARK VINA RESULT:    -4.039      3.066      4.222
REMARK INTER + INTRA:          -4.294
REMARK INTER:                  -4.270
REMARK INTRA:                  -0.024
REMARK UNBOUND:                -0.019
REMARK SMILES O=C([O-])c1cccnc1
REMARK SMILES IDX 4 1 5 2 9 3 6 4 8 5 7 6 2 7 1 8 3 9
REMARK H PARENT
REMARK Flexibility Score: inf
ROOT
ATOM      1  C   UNL     1      21.734 -23.093  33.230  1.00  0.00     0.016 A 
ATOM      2  C   UNL     1      22.248 -24.399  33.237  1.00  0.00     0.013 A 
ATOM      3  C   UNL     1      22.638 -22.019  33.312  1.00  0.00     0.120 A 
ATOM      4  C   UNL     1      23.625 -24.611  33.323  1.00  0.00     0.021 A 
ATOM      5  N   UNL     1      23.976 -22.253  33.394  1.00  0.00    -0.264 NA
ATOM      6  C   UNL     1      24.483 -23.513  33.403  1.00  0.00     0.111 A 
ENDROOT
BRANCH   1   7
ATOM      7  C   UNL     1      20.278 -22.856  33.139  1.00  0.00     0.073 C 
ATOM      8  O   UNL     1      19.473 -23.826  33.093  1.00  0.00    -0.545 OA
ATOM      9  O   UNL     1      19.775 -21.561  33.101  1.00  0.00    -0.545 OA
ENDBRANCH   1   7
TORSDOF 1
ENDMDL
