MODEL 1
REMARK VINA RESULT:    -4.314      0.000      0.000
REMARK INTER + INTRA:          -5.669
REMARK INTER:                  -6.079
REMARK INTRA:                   0.409
REMARK UNBOUND:                 0.409
REMARK SMILES CC1=CCC(=C(C)C)C(=O)CC(C)=CCC1
REMARK SMILES IDX 12 1 14 2 13 3 15 4 16 5 2 6 1 7 3 8 11 10 9 11 10 12 5 13
REMARK SMILES IDX 6 14 7 15 8 16 4 17
REMARK H PARENT
REMARK Flexibility Score: 60.00
ROOT
ATOM      1  C   UNL     1     -13.107  12.753 -27.931  1.00  0.00    -0.070 C 
ATOM      2  C   UNL     1     -12.605  13.606 -28.851  1.00  0.00    -0.027 C 
ATOM      3  C   UNL     1     -12.561  12.830 -26.527  1.00  0.00     0.039 C 
ENDROOT
BRANCH   2   4
ATOM      4  C   UNL     1     -12.950  13.619 -30.325  1.00  0.00     0.032 C 
BRANCH   4   5
ATOM      5  C   UNL     1     -14.206  14.438 -30.688  1.00  0.00     0.034 C 
BRANCH   5   6
ATOM      6  C   UNL     1     -15.281  13.611 -31.372  1.00  0.00    -0.077 C 
ATOM      7  C   UNL     1     -15.096  13.290 -32.833  1.00  0.00     0.039 C 
ATOM      8  C   UNL     1     -16.426  13.201 -30.773  1.00  0.00    -0.023 CG0
ATOM      9  G   UNL     1     -16.816  13.391 -29.320  1.00  0.00     0.000 G0
ENDBRANCH   5   6
ENDBRANCH   4   5
ENDBRANCH   2   4
BRANCH   1  10
ATOM     10  C   UNL     1     -14.115  11.672 -28.262  1.00  0.00     0.111 C 
BRANCH  10  11
ATOM     11  C   UNL     1     -15.465  11.970 -27.666  1.00  0.00     0.163 C 
ATOM     12  O   UNL     1     -15.556  12.042 -26.410  1.00  0.00    -0.294 OA
BRANCH  11  13
ATOM     13  C   UNL     1     -16.694  12.121 -28.498  1.00  0.00    -0.002 C 
ATOM     14  C   UNL     1     -17.614  11.113 -28.577  1.00  0.00    -0.069 C 
ATOM     15  C   UNL     1     -18.786  11.170 -29.532  1.00  0.00     0.039 C 
ATOM     16  C   UNL     1     -17.503   9.880 -27.707  1.00  0.00     0.039 C 
BRANCH  13  17
ATOM     17  C   UNL     1     -16.826  13.393 -29.321  1.00  0.00     0.066 CG0
ATOM     18  G   UNL     1     -16.428  13.188 -30.769  1.00  0.00     0.000 G0
ENDBRANCH  13  17
ENDBRANCH  11  13
ENDBRANCH  10  11
ENDBRANCH   1  10
TORSDOF 0
ENDMDL
MODEL 2
REMARK VINA RESULT:    -4.289      1.742      3.527
REMARK INTER + INTRA:          -5.634
REMARK INTER:                  -5.829
REMARK INTRA:                   0.195
REMARK UNBOUND:                 0.409
REMARK SMILES CC1=CCC(=C(C)C)C(=O)CC(C)=CCC1
REMARK SMILES IDX 12 1 14 2 13 3 15 4 16 5 2 6 1 7 3 8 11 10 9 11 10 12 5 13
REMARK SMILES IDX 6 14 7 15 8 16 4 17
REMARK H PARENT
REMARK Flexibility Score: 60.00
ROOT
ATOM      1  C   UNL     1     -14.144  14.153 -30.247  1.00  0.00    -0.070 C 
ATOM      2  C   UNL     1     -12.914  14.081 -29.694  1.00  0.00    -0.027 C 
ATOM      3  C   UNL     1     -14.613  15.494 -30.753  1.00  0.00     0.039 C 
ENDROOT
BRANCH   2   4
ATOM      4  C   UNL     1     -12.307  12.856 -29.045  1.00  0.00     0.032 C 
BRANCH   4   5
ATOM      5  C   UNL     1     -12.833  12.547 -27.627  1.00  0.00     0.034 C 
BRANCH   5   6
ATOM      6  C   UNL     1     -13.330  11.121 -27.472  1.00  0.00    -0.077 C 
ATOM      7  C   UNL     1     -12.321  10.008 -27.601  1.00  0.00     0.039 C 
ATOM      8  C   UNL     1     -14.631  10.780 -27.294  1.00  0.00    -0.023 CG0
ATOM      9  G   UNL     1     -15.806  11.722 -27.120  1.00  0.00     0.000 G0
ENDBRANCH   5   6
ENDBRANCH   4   5
ENDBRANCH   2   4
BRANCH   1  10
ATOM     10  C   UNL     1     -15.103  12.981 -30.297  1.00  0.00     0.111 C 
BRANCH  10  11
ATOM     11  C   UNL     1     -16.180  13.100 -29.251  1.00  0.00     0.163 C 
ATOM     12  O   UNL     1     -16.706  14.232 -29.067  1.00  0.00    -0.294 OA
BRANCH  11  13
ATOM     13  C   UNL     1     -16.596  11.952 -28.394  1.00  0.00    -0.002 C 
ATOM     14  C   UNL     1     -17.686  11.194 -28.720  1.00  0.00    -0.069 C 
ATOM     15  C   UNL     1     -18.226  10.126 -27.794  1.00  0.00     0.039 C 
ATOM     16  C   UNL     1     -18.411  11.387 -30.034  1.00  0.00     0.039 C 
BRANCH  13  17
ATOM     17  C   UNL     1     -15.819  11.727 -27.106  1.00  0.00     0.066 CG0
ATOM     18  G   UNL     1     -14.640  10.794 -27.299  1.00  0.00     0.000 G0
ENDBRANCH  13  17
ENDBRANCH  11  13
ENDBRANCH  10  11
ENDBRANCH   1  10
TORSDOF 0
ENDMDL
MODEL 3
REMARK VINA RESULT:    -4.221      2.335      5.021
REMARK INTER + INTRA:          -5.539
REMARK INTER:                  -5.760
REMARK INTRA:                   0.221
REMARK UNBOUND:                 0.409
REMARK SMILES CC1=CCC(=C(C)C)C(=O)CC(C)=CCC1
REMARK SMILES IDX 12 1 14 2 13 3 15 4 16 5 2 6 1 7 3 8 11 10 9 11 10 12 5 13
REMARK SMILES IDX 6 14 7 15 8 16 4 17
REMARK H PARENT
REMARK Flexibility Score: 60.00
ROOT
ATOM      1  C   UNL     1     -17.134  12.963 -29.363  1.00  0.00    -0.070 C 
ATOM      2  C   UNL     1     -17.132  11.984 -28.433  1.00  0.00    -0.027 C 
ATOM      3  C   UNL     1     -17.202  14.391 -28.883  1.00  0.00     0.039 C 
ENDROOT
BRANCH   2   4
ATOM      4  C   UNL     1     -17.167  10.497 -28.716  1.00  0.00     0.032 C 
BRANCH   4   5
ATOM      5  C   UNL     1     -15.892   9.934 -29.381  1.00  0.00     0.034 C 
BRANCH   5   6
ATOM      6  C   UNL     1     -14.613  10.522 -28.811  1.00  0.00    -0.077 C 
ATOM      7  C   UNL     1     -14.258  10.181 -27.385  1.00  0.00     0.039 C 
ATOM      8  C   UNL     1     -13.806  11.385 -29.476  1.00  0.00    -0.023 CG0
ATOM      9  G   UNL     1     -13.953  11.853 -30.910  1.00  0.00     0.000 G0
ENDBRANCH   5   6
ENDBRANCH   4   5
ENDBRANCH   2   4
BRANCH   1  10
ATOM     10  C   UNL     1     -17.168  12.695 -30.854  1.00  0.00     0.111 C 
BRANCH  10  11
ATOM     11  C   UNL     1     -15.992  13.321 -31.557  1.00  0.00     0.163 C 
ATOM     12  O   UNL     1     -16.196  13.887 -32.665  1.00  0.00    -0.294 OA
BRANCH  11  13
ATOM     13  C   UNL     1     -14.601  13.239 -31.021  1.00  0.00    -0.002 C 
ATOM     14  C   UNL     1     -13.901  14.373 -30.716  1.00  0.00    -0.069 C 
ATOM     15  C   UNL     1     -12.441  14.332 -30.323  1.00  0.00     0.039 C 
ATOM     16  C   UNL     1     -14.558  15.735 -30.759  1.00  0.00     0.039 C 
BRANCH  13  17
ATOM     17  C   UNL     1     -13.974  11.858 -30.923  1.00  0.00     0.066 CG0
ATOM     18  G   UNL     1     -13.807  11.400 -29.488  1.00  0.00     0.000 G0
ENDBRANCH  13  17
ENDBRANCH  11  13
ENDBRANCH  10  11
ENDBRANCH   1  10
TORSDOF 0
ENDMDL
MODEL 4
REMARK VINA RESULT:    -4.135      2.328      3.287
REMARK INTER + INTRA:          -5.418
REMARK INTER:                  -5.891
REMARK INTRA:                   0.473
REMARK UNBOUND:                 0.409
REMARK SMILES CC1=CCC(=C(C)C)C(=O)CC(C)=CCC1
REMARK SMILES IDX 12 1 14 2 13 3 15 4 16 5 2 6 1 7 3 8 11 10 9 11 10 12 5 13
REMARK SMILES IDX 6 14 7 15 8 16 4 17
REMARK H PARENT
REMARK Flexibility Score: 60.00
ROOT
ATOM      1  C   UNL     1     -12.227  11.120 -28.956  1.00  0.00    -0.070 C 
ATOM      2  C   UNL     1     -11.050  11.272 -29.602  1.00  0.00    -0.027 C 
ATOM      3  C   UNL     1     -12.200  10.511 -27.576  1.00  0.00     0.039 C 
ENDROOT
BRANCH   2   4
ATOM      4  C   UNL     1     -10.880  11.769 -31.022  1.00  0.00     0.032 C 
BRANCH   4   5
ATOM      5  C   UNL     1     -11.121  13.282 -31.211  1.00  0.00     0.034 C 
BRANCH   5   6
ATOM      6  C   UNL     1     -11.958  13.604 -32.436  1.00  0.00    -0.077 C 
ATOM      7  C   UNL     1     -11.413  13.205 -33.784  1.00  0.00     0.039 C 
ATOM      8  C   UNL     1     -13.130  14.286 -32.404  1.00  0.00    -0.023 CG0
ATOM      9  G   UNL     1     -13.873  14.768 -31.173  1.00  0.00     0.000 G0
ENDBRANCH   5   6
ENDBRANCH   4   5
ENDBRANCH   2   4
BRANCH   1  10
ATOM     10  C   UNL     1     -13.568  11.441 -29.583  1.00  0.00     0.111 C 
BRANCH  10  11
ATOM     11  C   UNL     1     -13.921  12.897 -29.423  1.00  0.00     0.163 C 
ATOM     12  O   UNL     1     -13.627  13.462 -28.335  1.00  0.00    -0.294 OA
BRANCH  11  13
ATOM     13  C   UNL     1     -14.653  13.665 -30.473  1.00  0.00    -0.002 C 
ATOM     14  C   UNL     1     -15.923  13.314 -30.838  1.00  0.00    -0.069 C 
ATOM     15  C   UNL     1     -16.631  13.969 -32.004  1.00  0.00     0.039 C 
ATOM     16  C   UNL     1     -16.688  12.246 -30.089  1.00  0.00     0.039 C 
BRANCH  13  17
ATOM     17  C   UNL     1     -13.894  14.779 -31.176  1.00  0.00     0.066 CG0
ATOM     18  G   UNL     1     -13.143  14.285 -32.397  1.00  0.00     0.000 G0
ENDBRANCH  13  17
ENDBRANCH  11  13
ENDBRANCH  10  11
ENDBRANCH   1  10
TORSDOF 0
ENDMDL
MODEL 5
REMARK VINA RESULT:    -4.091      2.178      4.151
REMARK INTER + INTRA:          -5.356
REMARK INTER:                  -5.636
REMARK INTRA:                   0.280
REMARK UNBOUND:                 0.409
REMARK SMILES CC1=CCC(=C(C)C)C(=O)CC(C)=CCC1
REMARK SMILES IDX 12 1 14 2 13 3 15 4 16 5 2 6 1 7 3 8 11 10 9 11 10 12 5 13
REMARK SMILES IDX 6 14 7 15 8 16 4 17
REMARK H PARENT
REMARK Flexibility Score: 60.00
ROOT
ATOM      1  C   UNL     1     -16.388  12.696 -31.126  1.00  0.00    -0.070 C 
ATOM      2  C   UNL     1     -16.013  13.514 -32.133  1.00  0.00    -0.027 C 
ATOM      3  C   UNL     1     -17.845  12.677 -30.737  1.00  0.00     0.039 C 
ENDROOT
BRANCH   2   4
ATOM      4  C   UNL     1     -14.593  13.745 -32.602  1.00  0.00     0.032 C 
BRANCH   4   5
ATOM      5  C   UNL     1     -13.724  14.586 -31.643  1.00  0.00     0.034 C 
BRANCH   5   6
ATOM      6  C   UNL     1     -12.351  13.984 -31.399  1.00  0.00    -0.077 C 
ATOM      7  C   UNL     1     -11.459  13.762 -32.595  1.00  0.00     0.039 C 
ATOM      8  C   UNL     1     -11.902  13.571 -30.188  1.00  0.00    -0.023 CG0
ATOM      9  G   UNL     1     -12.611  13.708 -28.855  1.00  0.00     0.000 G0
ENDBRANCH   5   6
ENDBRANCH   4   5
ENDBRANCH   2   4
BRANCH   1  10
ATOM     10  C   UNL     1     -15.408  11.874 -30.314  1.00  0.00     0.111 C 
BRANCH  10  11
ATOM     11  C   UNL     1     -14.951  12.613 -29.083  1.00  0.00     0.163 C 
ATOM     12  O   UNL     1     -15.778  13.371 -28.506  1.00  0.00    -0.294 OA
BRANCH  11  13
ATOM     13  C   UNL     1     -13.554  12.525 -28.567  1.00  0.00    -0.002 C 
ATOM     14  C   UNL     1     -13.157  11.466 -27.799  1.00  0.00    -0.069 C 
ATOM     15  C   UNL     1     -11.800  11.424 -27.132  1.00  0.00     0.039 C 
ATOM     16  C   UNL     1     -14.064  10.275 -27.575  1.00  0.00     0.039 C 
BRANCH  13  17
ATOM     17  C   UNL     1     -12.632  13.699 -28.852  1.00  0.00     0.066 CG0
ATOM     18  G   UNL     1     -11.913  13.560 -30.180  1.00  0.00     0.000 G0
ENDBRANCH  13  17
ENDBRANCH  11  13
ENDBRANCH  10  11
ENDBRANCH   1  10
TORSDOF 0
ENDMDL
MODEL 6
REMARK VINA RESULT:    -3.950      1.820      4.311
REMARK INTER + INTRA:          -5.157
REMARK INTER:                  -5.718
REMARK INTRA:                   0.561
REMARK UNBOUND:                 0.409
REMARK SMILES CC1=CCC(=C(C)C)C(=O)CC(C)=CCC1
REMARK SMILES IDX 12 1 14 2 13 3 15 4 16 5 2 6 1 7 3 8 11 10 9 11 10 12 5 13
REMARK SMILES IDX 6 14 7 15 8 16 4 17
REMARK H PARENT
REMARK Flexibility Score: 60.00
ROOT
ATOM      1  C   UNL     1     -14.947  13.537 -30.601  1.00  0.00    -0.070 C 
ATOM      2  C   UNL     1     -16.246  13.831 -30.377  1.00  0.00    -0.027 C 
ATOM      3  C   UNL     1     -13.941  14.655 -30.491  1.00  0.00     0.039 C 
ENDROOT
BRANCH   2   4
ATOM      4  C   UNL     1     -17.409  12.875 -30.533  1.00  0.00     0.032 C 
BRANCH   4   5
ATOM      5  C   UNL     1     -18.130  12.512 -29.218  1.00  0.00     0.034 C 
BRANCH   5   6
ATOM      6  C   UNL     1     -17.703  11.168 -28.655  1.00  0.00    -0.077 C 
ATOM      7  C   UNL     1     -18.649  10.004 -28.821  1.00  0.00     0.039 C 
ATOM      8  C   UNL     1     -16.560  10.960 -27.956  1.00  0.00    -0.023 CG0
ATOM      9  G   UNL     1     -15.461  11.967 -27.682  1.00  0.00     0.000 G0
ENDBRANCH   5   6
ENDBRANCH   4   5
ENDBRANCH   2   4
BRANCH   1  10
ATOM     10  C   UNL     1     -14.469  12.170 -31.047  1.00  0.00     0.111 C 
BRANCH  10  11
ATOM     11  C   UNL     1     -14.368  11.213 -29.888  1.00  0.00     0.163 C 
ATOM     12  O   UNL     1     -14.492   9.980 -30.125  1.00  0.00    -0.294 OA
BRANCH  11  13
ATOM     13  C   UNL     1     -14.188  11.674 -28.481  1.00  0.00    -0.002 C 
ATOM     14  C   UNL     1     -12.944  11.740 -27.919  1.00  0.00    -0.069 C 
ATOM     15  C   UNL     1     -12.741  12.051 -26.453  1.00  0.00     0.039 C 
ATOM     16  C   UNL     1     -11.697  11.503 -28.744  1.00  0.00     0.039 C 
BRANCH  13  17
ATOM     17  C   UNL     1     -15.447  11.971 -27.680  1.00  0.00     0.066 CG0
ATOM     18  G   UNL     1     -16.552  10.970 -27.952  1.00  0.00     0.000 G0
ENDBRANCH  13  17
ENDBRANCH  11  13
ENDBRANCH  10  11
ENDBRANCH   1  10
TORSDOF 0
ENDMDL
MODEL 7
REMARK VINA RESULT:    -3.874      1.705      4.287
REMARK INTER + INTRA:          -5.049
REMARK INTER:                  -5.504
REMARK INTRA:                   0.455
REMARK UNBOUND:                 0.409
REMARK SMILES CC1=CCC(=C(C)C)C(=O)CC(C)=CCC1
REMARK SMILES IDX 12 1 14 2 13 3 15 4 16 5 2 6 1 7 3 8 11 10 9 11 10 12 5 13
REMARK SMILES IDX 6 14 7 15 8 16 4 17
REMARK H PARENT
REMARK Flexibility Score: 60.00
ROOT
ATOM      1  C   UNL     1     -13.126  11.462 -27.457  1.00  0.00    -0.070 C 
ATOM      2  C   UNL     1     -14.273  10.764 -27.610  1.00  0.00    -0.027 C 
ATOM      3  C   UNL     1     -12.757  11.914 -26.066  1.00  0.00     0.039 C 
ENDROOT
BRANCH   2   4
ATOM      4  C   UNL     1     -14.861  10.310 -28.929  1.00  0.00     0.032 C 
BRANCH   4   5
ATOM      5  C   UNL     1     -16.281  10.840 -29.221  1.00  0.00     0.034 C 
BRANCH   5   6
ATOM      6  C   UNL     1     -16.361  12.356 -29.240  1.00  0.00    -0.077 C 
ATOM      7  C   UNL     1     -17.406  13.016 -28.375  1.00  0.00     0.039 C 
ATOM      8  C   UNL     1     -15.600  13.152 -30.032  1.00  0.00    -0.023 CG0
ATOM      9  G   UNL     1     -14.483  12.717 -30.960  1.00  0.00     0.000 G0
ENDBRANCH   5   6
ENDBRANCH   4   5
ENDBRANCH   2   4
BRANCH   1  10
ATOM     10  C   UNL     1     -12.250  11.887 -28.617  1.00  0.00     0.111 C 
BRANCH  10  11
ATOM     11  C   UNL     1     -12.694  13.207 -29.193  1.00  0.00     0.163 C 
ATOM     12  O   UNL     1     -12.735  14.205 -28.424  1.00  0.00    -0.294 OA
BRANCH  11  13
ATOM     13  C   UNL     1     -13.141  13.353 -30.609  1.00  0.00    -0.002 C 
ATOM     14  C   UNL     1     -12.412  14.092 -31.500  1.00  0.00    -0.069 C 
ATOM     15  C   UNL     1     -12.915  14.390 -32.895  1.00  0.00     0.039 C 
ATOM     16  C   UNL     1     -11.055  14.651 -31.130  1.00  0.00     0.039 C 
BRANCH  13  17
ATOM     17  C   UNL     1     -14.477  12.732 -30.986  1.00  0.00     0.066 CG0
ATOM     18  G   UNL     1     -15.590  13.142 -30.042  1.00  0.00     0.000 G0
ENDBRANCH  13  17
ENDBRANCH  11  13
ENDBRANCH  10  11
ENDBRANCH   1  10
TORSDOF 0
ENDMDL
MODEL 8
REMARK VINA RESULT:    -3.869      2.117      3.790
REMARK INTER + INTRA:          -5.043
REMARK INTER:                  -6.335
REMARK INTRA:                   1.291
REMARK UNBOUND:                 0.409
REMARK SMILES CC1=CCC(=C(C)C)C(=O)CC(C)=CCC1
REMARK SMILES IDX 12 1 14 2 13 3 15 4 16 5 2 6 1 7 3 8 11 10 9 11 10 12 5 13
REMARK SMILES IDX 6 14 7 15 8 16 4 17
REMARK H PARENT
REMARK Flexibility Score: 60.00
ROOT
ATOM      1  C   UNL     1     -13.718  14.647 -30.933  1.00  0.00    -0.070 C 
ATOM      2  C   UNL     1     -12.542  14.540 -30.276  1.00  0.00    -0.027 C 
ATOM      3  C   UNL     1     -14.674  15.728 -30.496  1.00  0.00     0.039 C 
ENDROOT
BRANCH   2   4
ATOM      4  C   UNL     1     -11.499  13.466 -30.500  1.00  0.00     0.032 C 
BRANCH   4   5
ATOM      5  C   UNL     1     -11.706  12.181 -29.671  1.00  0.00     0.034 C 
BRANCH   5   6
ATOM      6  C   UNL     1     -12.825  12.302 -28.652  1.00  0.00    -0.077 C 
ATOM      7  C   UNL     1     -12.477  12.843 -27.287  1.00  0.00     0.039 C 
ATOM      8  C   UNL     1     -14.101  11.894 -28.865  1.00  0.00    -0.023 CG0
ATOM      9  G   UNL     1     -14.680  11.341 -30.152  1.00  0.00     0.000 G0
ENDBRANCH   5   6
ENDBRANCH   4   5
ENDBRANCH   2   4
BRANCH   1  10
ATOM     10  C   UNL     1     -14.157  13.681 -32.014  1.00  0.00     0.111 C 
BRANCH  10  11
ATOM     11  C   UNL     1     -15.546  13.158 -31.760  1.00  0.00     0.163 C 
ATOM     12  O   UNL     1     -16.492  13.627 -32.451  1.00  0.00    -0.294 OA
BRANCH  11  13
ATOM     13  C   UNL     1     -15.845  12.162 -30.690  1.00  0.00    -0.002 C 
ATOM     14  C   UNL     1     -17.098  12.069 -30.151  1.00  0.00    -0.069 C 
ATOM     15  C   UNL     1     -17.394  11.183 -28.961  1.00  0.00     0.039 C 
ATOM     16  C   UNL     1     -18.258  12.853 -30.723  1.00  0.00     0.039 C 
BRANCH  13  17
ATOM     17  C   UNL     1     -14.683  11.333 -30.167  1.00  0.00     0.066 CG0
ATOM     18  G   UNL     1     -14.115  11.886 -28.875  1.00  0.00     0.000 G0
ENDBRANCH  13  17
ENDBRANCH  11  13
ENDBRANCH  10  11
ENDBRANCH   1  10
TORSDOF 0
ENDMDL
MODEL 9
REMARK VINA RESULT:    -3.763      9.349     11.885
REMARK INTER + INTRA:          -4.893
REMARK INTER:                  -5.353
REMARK INTRA:                   0.460
REMARK UNBOUND:                 0.409
REMARK SMILES CC1=CCC(=C(C)C)C(=O)CC(C)=CCC1
REMARK SMILES IDX 12 1 14 2 13 3 15 4 16 5 2 6 1 7 3 8 11 10 9 11 10 12 5 13
REMARK SMILES IDX 6 14 7 15 8 16 4 17
REMARK H PARENT
REMARK Flexibility Score: 60.00
ROOT
ATOM      1  C   UNL     1     -27.226  13.425 -29.996  1.00  0.00    -0.070 C 
ATOM      2  C   UNL     1     -25.918  13.735 -30.132  1.00  0.00    -0.027 C 
ATOM      3  C   UNL     1     -28.211  14.105 -30.914  1.00  0.00     0.039 C 
ENDROOT
BRANCH   2   4
ATOM      4  C   UNL     1     -24.796  13.237 -29.248  1.00  0.00     0.032 C 
BRANCH   4   5
ATOM      5  C   UNL     1     -23.971  12.075 -29.842  1.00  0.00     0.034 C 
BRANCH   5   6
ATOM      6  C   UNL     1     -24.445  10.709 -29.381  1.00  0.00    -0.077 C 
ATOM      7  C   UNL     1     -23.756  10.091 -28.190  1.00  0.00     0.039 C 
ATOM      8  C   UNL     1     -25.401   9.979 -30.009  1.00  0.00    -0.023 CG0
ATOM      9  G   UNL     1     -26.234  10.401 -31.203  1.00  0.00     0.000 G0
ENDBRANCH   5   6
ENDBRANCH   4   5
ENDBRANCH   2   4
BRANCH   1  10
ATOM     10  C   UNL     1     -27.756  12.508 -28.913  1.00  0.00     0.111 C 
BRANCH  10  11
ATOM     11  C   UNL     1     -27.960  11.106 -29.425  1.00  0.00     0.163 C 
ATOM     12  O   UNL     1     -28.331  10.223 -28.603  1.00  0.00    -0.294 OA
BRANCH  11  13
ATOM     13  C   UNL     1     -27.682  10.720 -30.839  1.00  0.00    -0.002 C 
ATOM     14  C   UNL     1     -28.702  10.575 -31.738  1.00  0.00    -0.069 C 
ATOM     15  C   UNL     1     -28.471  10.034 -33.132  1.00  0.00     0.039 C 
ATOM     16  C   UNL     1     -30.123  10.952 -31.380  1.00  0.00     0.039 C 
BRANCH  13  17
ATOM     17  C   UNL     1     -26.240  10.405 -31.204  1.00  0.00     0.066 CG0
ATOM     18  G   UNL     1     -25.421   9.979 -30.002  1.00  0.00     0.000 G0
ENDBRANCH  13  17
ENDBRANCH  11  13
ENDBRANCH  10  11
ENDBRANCH   1  10
TORSDOF 0
ENDMDL
