MODEL 1
REMARK VINA RESULT:    -4.067      0.000      0.000
REMARK INTER + INTRA:          -4.186
REMARK INTER:                  -4.186
REMARK INTRA:                   0.000
REMARK UNBOUND:                 0.000
REMARK SMILES Nc1ncnc2nc[nH]c12
REMARK SMILES IDX 8 1 7 2 6 3 5 4 4 5 3 6 2 7 10 8 9 9 1 11
REMARK H PARENT 9 10 1 12 1 13
REMARK Flexibility Score: inf
ROOT
ATOM      1  C   UNL     1      -9.791  11.016 -28.227  1.00  0.00     0.199 A 
ATOM      2  N   UNL     1      -9.622  12.365 -28.166  1.00  0.00    -0.217 NA
ATOM      3  C   UNL     1      -8.970  12.623 -29.312  1.00  0.00     0.182 A 
ATOM      4  N   UNL     1      -8.555  13.835 -29.750  1.00  0.00    -0.215 NA
ATOM      5  C   UNL     1      -7.902  13.899 -30.951  1.00  0.00     0.226 A 
ATOM      6  N   UNL     1      -7.681  12.760 -31.683  1.00  0.00    -0.217 NA
ATOM      7  C   UNL     1      -8.098  11.537 -31.243  1.00  0.00     0.152 A 
ATOM      8  C   UNL     1      -8.761  11.488 -30.019  1.00  0.00     0.127 A 
ATOM      9  N   UNL     1      -9.275  10.451 -29.348  1.00  0.00    -0.340 N 
ATOM     10  H   UNL     1      -9.283   9.442 -29.612  1.00  0.00     0.168 HD
ENDROOT
BRANCH   7  11
ATOM     11  N   UNL     1      -7.855  10.365 -32.023  1.00  0.00    -0.382 N 
ATOM     12  H   UNL     1      -7.872   9.424 -31.569  1.00  0.00     0.158 HD
ATOM     13  H   UNL     1      -7.660  10.423 -33.046  1.00  0.00     0.158 HD
ENDBRANCH   7  11
TORSDOF 1
ENDMDL
MODEL 2
REMARK VINA RESULT:    -4.049     17.534     19.595
REMARK INTER + INTRA:          -4.167
REMARK INTER:                  -4.167
REMARK INTRA:                   0.000
REMARK UNBOUND:                 0.000
REMARK SMILES Nc1ncnc2nc[nH]c12
REMARK SMILES IDX 8 1 7 2 6 3 5 4 4 5 3 6 2 7 10 8 9 9 1 11
REMARK H PARENT 9 10 1 12 1 13
REMARK Flexibility Score: inf
ROOT
ATOM      1  C   UNL     1     -19.165  13.889 -16.086  1.00  0.00     0.199 A 
ATOM      2  N   UNL     1     -18.733  15.138 -16.411  1.00  0.00    -0.217 NA
ATOM      3  C   UNL     1     -19.112  15.859 -15.342  1.00  0.00     0.182 A 
ATOM      4  N   UNL     1     -18.920  17.185 -15.153  1.00  0.00    -0.215 NA
ATOM      5  C   UNL     1     -19.380  17.744 -13.992  1.00  0.00     0.226 A 
ATOM      6  N   UNL     1     -20.015  16.973 -13.052  1.00  0.00    -0.217 NA
ATOM      7  C   UNL     1     -20.209  15.635 -13.241  1.00  0.00     0.152 A 
ATOM      8  C   UNL     1     -19.736  15.080 -14.428  1.00  0.00     0.127 A 
ATOM      9  N   UNL     1     -19.782  13.821 -14.880  1.00  0.00    -0.340 N 
ATOM     10  H   UNL     1     -20.193  12.978 -14.423  1.00  0.00     0.168 HD
ENDROOT
BRANCH   7  11
ATOM     11  N   UNL     1     -20.874  14.852 -12.249  1.00  0.00    -0.382 N 
ATOM     12  H   UNL     1     -21.036  15.246 -11.295  1.00  0.00     0.158 HD
ATOM     13  H   UNL     1     -21.208  13.885 -12.453  1.00  0.00     0.158 HD
ENDBRANCH   7  11
TORSDOF 1
ENDMDL
MODEL 3
REMARK VINA RESULT:    -4.020     14.436     16.636
REMARK INTER + INTRA:          -4.137
REMARK INTER:                  -4.137
REMARK INTRA:                   0.000
REMARK UNBOUND:                 0.000
REMARK SMILES Nc1ncnc2nc[nH]c12
REMARK SMILES IDX 8 1 7 2 6 3 5 4 4 5 3 6 2 7 10 8 9 9 1 11
REMARK H PARENT 9 10 1 12 1 13
REMARK Flexibility Score: inf
ROOT
ATOM      1  C   UNL     1     -10.245  11.734 -15.923  1.00  0.00     0.199 A 
ATOM      2  N   UNL     1     -10.680  10.444 -15.948  1.00  0.00    -0.217 NA
ATOM      3  C   UNL     1     -10.309   9.994 -14.738  1.00  0.00     0.182 A 
ATOM      4  N   UNL     1     -10.507   8.749 -14.244  1.00  0.00    -0.215 NA
ATOM      5  C   UNL     1     -10.054   8.476 -12.982  1.00  0.00     0.226 A 
ATOM      6  N   UNL     1      -9.421   9.444 -12.246  1.00  0.00    -0.217 NA
ATOM      7  C   UNL     1      -9.220  10.700 -12.742  1.00  0.00     0.152 A 
ATOM      8  C   UNL     1      -9.686  10.963 -14.028  1.00  0.00     0.127 A 
ATOM      9  N   UNL     1      -9.633  12.081 -14.763  1.00  0.00    -0.340 N 
ATOM     10  H   UNL     1      -9.220  13.006 -14.514  1.00  0.00     0.168 HD
ENDROOT
BRANCH   7  11
ATOM     11  N   UNL     1      -8.556  11.692 -11.958  1.00  0.00    -0.382 N 
ATOM     12  H   UNL     1      -7.520  11.653 -11.835  1.00  0.00     0.158 HD
ATOM     13  H   UNL     1      -9.085  12.465 -11.498  1.00  0.00     0.158 HD
ENDBRANCH   7  11
TORSDOF 1
ENDMDL
MODEL 4
REMARK VINA RESULT:    -3.929     15.111     16.761
REMARK INTER + INTRA:          -4.044
REMARK INTER:                  -4.044
REMARK INTRA:                   0.000
REMARK UNBOUND:                 0.000
REMARK SMILES Nc1ncnc2nc[nH]c12
REMARK SMILES IDX 8 1 7 2 6 3 5 4 4 5 3 6 2 7 10 8 9 9 1 11
REMARK H PARENT 9 10 1 12 1 13
REMARK Flexibility Score: inf
ROOT
ATOM      1  C   UNL     1      -9.984   7.608 -12.662  1.00  0.00     0.199 A 
ATOM      2  N   UNL     1     -10.647   7.765 -13.842  1.00  0.00    -0.217 NA
ATOM      3  C   UNL     1     -10.377   9.045 -14.152  1.00  0.00     0.182 A 
ATOM      4  N   UNL     1     -10.802   9.717 -15.247  1.00  0.00    -0.215 NA
ATOM      5  C   UNL     1     -10.422  11.023 -15.391  1.00  0.00     0.226 A 
ATOM      6  N   UNL     1      -9.630  11.625 -14.446  1.00  0.00    -0.217 NA
ATOM      7  C   UNL     1      -9.199  10.948 -13.341  1.00  0.00     0.152 A 
ATOM      8  C   UNL     1      -9.595   9.620 -13.208  1.00  0.00     0.127 A 
ATOM      9  N   UNL     1      -9.333   8.724 -12.249  1.00  0.00    -0.340 N 
ATOM     10  H   UNL     1      -8.763   8.843 -11.383  1.00  0.00     0.168 HD
ENDROOT
BRANCH   7  11
ATOM     11  N   UNL     1      -8.376  11.596 -12.370  1.00  0.00    -0.382 N 
ATOM     12  H   UNL     1      -7.355  11.381 -12.325  1.00  0.00     0.158 HD
ATOM     13  H   UNL     1      -8.771  12.287 -11.696  1.00  0.00     0.158 HD
ENDBRANCH   7  11
TORSDOF 1
ENDMDL
MODEL 5
REMARK VINA RESULT:    -3.906     10.771     11.757
REMARK INTER + INTRA:          -4.020
REMARK INTER:                  -4.020
REMARK INTRA:                   0.000
REMARK UNBOUND:                 0.000
REMARK SMILES Nc1ncnc2nc[nH]c12
REMARK SMILES IDX 8 1 7 2 6 3 5 4 4 5 3 6 2 7 10 8 9 9 1 11
REMARK H PARENT 9 10 1 12 1 13
REMARK Flexibility Score: inf
ROOT
ATOM      1  C   UNL     1     -20.923   8.548 -30.988  1.00  0.00     0.199 A 
ATOM      2  N   UNL     1     -20.176   8.610 -29.852  1.00  0.00    -0.217 NA
ATOM      3  C   UNL     1     -19.855   9.914 -29.793  1.00  0.00     0.182 A 
ATOM      4  N   UNL     1     -19.108  10.519 -28.840  1.00  0.00    -0.215 NA
ATOM      5  C   UNL     1     -18.887  11.865 -28.952  1.00  0.00     0.226 A 
ATOM      6  N   UNL     1     -19.413  12.571 -30.003  1.00  0.00    -0.217 NA
ATOM      7  C   UNL     1     -20.167  11.962 -30.965  1.00  0.00     0.152 A 
ATOM      8  C   UNL     1     -20.382  10.592 -30.838  1.00  0.00     0.127 A 
ATOM      9  N   UNL     1     -21.067   9.743 -31.614  1.00  0.00    -0.340 N 
ATOM     10  H   UNL     1     -21.591   9.940 -32.494  1.00  0.00     0.168 HD
ENDROOT
BRANCH   7  11
ATOM     11  N   UNL     1     -20.703  12.718 -32.052  1.00  0.00    -0.382 N 
ATOM     12  H   UNL     1     -20.340  12.570 -33.020  1.00  0.00     0.158 HD
ATOM     13  H   UNL     1     -21.458  13.422 -31.904  1.00  0.00     0.158 HD
ENDBRANCH   7  11
TORSDOF 1
ENDMDL
MODEL 6
REMARK VINA RESULT:    -3.703     19.896     20.606
REMARK INTER + INTRA:          -3.811
REMARK INTER:                  -3.811
REMARK INTRA:                   0.000
REMARK UNBOUND:                 0.000
REMARK SMILES Nc1ncnc2nc[nH]c12
REMARK SMILES IDX 8 1 7 2 6 3 5 4 4 5 3 6 2 7 10 8 9 9 1 11
REMARK H PARENT 9 10 1 12 1 13
REMARK Flexibility Score: inf
ROOT
ATOM      1  C   UNL     1     -19.270  18.772 -13.726  1.00  0.00     0.199 A 
ATOM      2  N   UNL     1     -17.970  18.440 -13.494  1.00  0.00    -0.217 NA
ATOM      3  C   UNL     1     -18.068  17.153 -13.119  1.00  0.00     0.182 A 
ATOM      4  N   UNL     1     -17.048  16.334 -12.771  1.00  0.00    -0.215 NA
ATOM      5  C   UNL     1     -17.346  15.047 -12.416  1.00  0.00     0.226 A 
ATOM      6  N   UNL     1     -18.645  14.608 -12.419  1.00  0.00    -0.217 NA
ATOM      7  C   UNL     1     -19.675  15.432 -12.770  1.00  0.00     0.152 A 
ATOM      8  C   UNL     1     -19.356  16.740 -13.128  1.00  0.00     0.127 A 
ATOM      9  N   UNL     1     -20.141  17.755 -13.511  1.00  0.00    -0.340 N 
ATOM     10  H   UNL     1     -21.178  17.772 -13.621  1.00  0.00     0.168 HD
ENDROOT
BRANCH   7  11
ATOM     11  N   UNL     1     -21.021  14.953 -12.764  1.00  0.00    -0.382 N 
ATOM     12  H   UNL     1     -21.815  15.629 -12.704  1.00  0.00     0.158 HD
ATOM     13  H   UNL     1     -21.236  13.934 -12.820  1.00  0.00     0.158 HD
ENDBRANCH   7  11
TORSDOF 1
ENDMDL
MODEL 7
REMARK VINA RESULT:    -3.681     10.347     11.429
REMARK INTER + INTRA:          -3.789
REMARK INTER:                  -3.789
REMARK INTRA:                   0.000
REMARK UNBOUND:                 0.000
REMARK SMILES Nc1ncnc2nc[nH]c12
REMARK SMILES IDX 8 1 7 2 6 3 5 4 4 5 3 6 2 7 10 8 9 9 1 11
REMARK H PARENT 9 10 1 12 1 13
REMARK Flexibility Score: inf
ROOT
ATOM      1  C   UNL     1     -18.562  12.544 -28.382  1.00  0.00     0.199 A 
ATOM      2  N   UNL     1     -18.612  11.194 -28.214  1.00  0.00    -0.217 NA
ATOM      3  C   UNL     1     -19.293  10.796 -29.302  1.00  0.00     0.182 A 
ATOM      4  N   UNL     1     -19.623   9.524 -29.627  1.00  0.00    -0.215 NA
ATOM      5  C   UNL     1     -20.324   9.315 -30.783  1.00  0.00     0.226 A 
ATOM      6  N   UNL     1     -20.676  10.371 -31.584  1.00  0.00    -0.217 NA
ATOM      7  C   UNL     1     -20.344  11.655 -31.258  1.00  0.00     0.152 A 
ATOM      8  C   UNL     1     -19.631  11.852 -30.078  1.00  0.00     0.127 A 
ATOM      9  N   UNL     1     -19.176  12.977 -29.512  1.00  0.00    -0.340 N 
ATOM     10  H   UNL     1     -19.267  13.960 -29.850  1.00  0.00     0.168 HD
ENDROOT
BRANCH   7  11
ATOM     11  N   UNL     1     -20.722  12.739 -32.107  1.00  0.00    -0.382 N 
ATOM     12  H   UNL     1     -21.468  12.604 -32.825  1.00  0.00     0.158 HD
ATOM     13  H   UNL     1     -20.269  13.675 -32.028  1.00  0.00     0.158 HD
ENDBRANCH   7  11
TORSDOF 1
ENDMDL
MODEL 8
REMARK VINA RESULT:    -3.670      9.900     10.881
REMARK INTER + INTRA:          -3.778
REMARK INTER:                  -3.778
REMARK INTRA:                   0.000
REMARK UNBOUND:                 0.000
REMARK SMILES Nc1ncnc2nc[nH]c12
REMARK SMILES IDX 8 1 7 2 6 3 5 4 4 5 3 6 2 7 10 8 9 9 1 11
REMARK H PARENT 9 10 1 12 1 13
REMARK Flexibility Score: inf
ROOT
ATOM      1  C   UNL     1      -3.899   4.851 -25.383  1.00  0.00     0.199 A 
ATOM      2  N   UNL     1      -4.105   3.704 -26.087  1.00  0.00    -0.217 NA
ATOM      3  C   UNL     1      -5.278   3.272 -25.592  1.00  0.00     0.182 A 
ATOM      4  N   UNL     1      -5.945   2.152 -25.956  1.00  0.00    -0.215 NA
ATOM      5  C   UNL     1      -7.132   1.877 -25.335  1.00  0.00     0.226 A 
ATOM      6  N   UNL     1      -7.625   2.720 -24.372  1.00  0.00    -0.217 NA
ATOM      7  C   UNL     1      -6.953   3.850 -24.002  1.00  0.00     0.152 A 
ATOM      8  C   UNL     1      -5.746   4.117 -24.644  1.00  0.00     0.127 A 
ATOM      9  N   UNL     1      -4.885   5.130 -24.493  1.00  0.00    -0.340 N 
ATOM     10  H   UNL     1      -4.945   5.947 -23.847  1.00  0.00     0.168 HD
ENDROOT
BRANCH   7  11
ATOM     11  N   UNL     1      -7.485   4.713 -22.996  1.00  0.00    -0.382 N 
ATOM     12  H   UNL     1      -7.225   4.569 -21.995  1.00  0.00     0.158 HD
ATOM     13  H   UNL     1      -8.134   5.494 -23.236  1.00  0.00     0.158 HD
ENDBRANCH   7  11
TORSDOF 1
ENDMDL
MODEL 9
REMARK VINA RESULT:    -3.647      2.266      3.310
REMARK INTER + INTRA:          -3.753
REMARK INTER:                  -3.753
REMARK INTRA:                   0.000
REMARK UNBOUND:                 0.000
REMARK SMILES Nc1ncnc2nc[nH]c12
REMARK SMILES IDX 8 1 7 2 6 3 5 4 4 5 3 6 2 7 10 8 9 9 1 11
REMARK H PARENT 9 10 1 12 1 13
REMARK Flexibility Score: inf
ROOT
ATOM      1  C   UNL     1      -7.611  14.774 -31.374  1.00  0.00     0.199 A 
ATOM      2  N   UNL     1      -8.934  14.966 -31.636  1.00  0.00    -0.217 NA
ATOM      3  C   UNL     1      -9.387  13.706 -31.751  1.00  0.00     0.182 A 
ATOM      4  N   UNL     1     -10.659  13.326 -32.013  1.00  0.00    -0.215 NA
ATOM      5  C   UNL     1     -10.930  11.987 -32.095  1.00  0.00     0.226 A 
ATOM      6  N   UNL     1      -9.932  11.064 -31.912  1.00  0.00    -0.217 NA
ATOM      7  C   UNL     1      -8.648  11.445 -31.647  1.00  0.00     0.152 A 
ATOM      8  C   UNL     1      -8.388  12.811 -31.568  1.00  0.00     0.127 A 
ATOM      9  N   UNL     1      -7.247  13.468 -31.327  1.00  0.00    -0.340 N 
ATOM     10  H   UNL     1      -6.296  13.080 -31.145  1.00  0.00     0.168 HD
ENDROOT
BRANCH   7  11
ATOM     11  N   UNL     1      -7.625  10.465 -31.462  1.00  0.00    -0.382 N 
ATOM     12  H   UNL     1      -6.654  10.656 -31.795  1.00  0.00     0.158 HD
ATOM     13  H   UNL     1      -7.823   9.554 -30.995  1.00  0.00     0.158 HD
ENDBRANCH   7  11
TORSDOF 1
ENDMDL
