MODEL 1
REMARK VINA RESULT:    -5.147      0.000      0.000
REMARK INTER + INTRA:          -8.066
REMARK INTER:                  -7.404
REMARK INTRA:                  -0.662
REMARK UNBOUND:                -0.662
REMARK SMILES O=C(CO)[C@@H](O)[C@H](O)[C@H](O)CO
REMARK SMILES IDX 7 1 9 2 11 3 12 4 10 6 5 8 2 9 1 10 3 11 4 12 6 14 8 16
REMARK H PARENT 12 5 10 7 4 13 6 15 8 17
REMARK Flexibility Score: inf
ROOT
ATOM      1  C   UNL     1      -5.864  18.295  17.408  1.00  0.00     0.181 C 
ENDROOT
BRANCH   1   2
ATOM      2  C   UNL     1      -4.406  18.509  17.904  1.00  0.00     0.171 C 
BRANCH   2   3
ATOM      3  C   UNL     1      -3.811  17.352  18.735  1.00  0.00     0.190 C 
BRANCH   3   4
ATOM      4  O   UNL     1      -4.030  16.111  18.119  1.00  0.00    -0.394 OA
ATOM      5  H   UNL     1      -4.985  16.083  17.850  1.00  0.00     0.210 HD
ENDBRANCH   3   4
ENDBRANCH   2   3
BRANCH   2   6
ATOM      6  O   UNL     1      -3.561  18.814  16.821  1.00  0.00    -0.388 OA
ATOM      7  H   UNL     1      -4.101  19.296  16.142  1.00  0.00     0.211 HD
ENDBRANCH   2   6
ENDBRANCH   1   2
BRANCH   1   8
ATOM      8  C   UNL     1      -6.849  17.912  18.550  1.00  0.00     0.214 C 
BRANCH   8   9
ATOM      9  C   UNL     1      -8.227  18.503  18.311  1.00  0.00     0.189 C 
ATOM     10  O   UNL     1      -8.317  19.579  17.737  1.00  0.00    -0.294 OA
BRANCH   9  11
ATOM     11  C   UNL     1      -9.489  17.833  18.790  1.00  0.00     0.234 C 
BRANCH  11  12
ATOM     12  O   UNL     1      -9.693  16.628  18.104  1.00  0.00    -0.388 OA
ATOM     13  H   UNL     1     -10.675  16.486  18.067  1.00  0.00     0.211 HD
ENDBRANCH  11  12
ENDBRANCH   9  11
ENDBRANCH   8   9
BRANCH   8  14
ATOM     14  O   UNL     1      -6.913  16.520  18.752  1.00  0.00    -0.382 OA
ATOM     15  H   UNL     1      -6.443  16.074  18.002  1.00  0.00     0.211 HD
ENDBRANCH   8  14
ENDBRANCH   1   8
BRANCH   1  16
ATOM     16  O   UNL     1      -5.898  17.349  16.368  1.00  0.00    -0.387 OA
ATOM     17  H   UNL     1      -5.213  17.623  15.703  1.00  0.00     0.211 HD
ENDBRANCH   1  16
TORSDOF 10
ENDMDL
MODEL 2
REMARK VINA RESULT:    -5.111      2.186      5.069
REMARK INTER + INTRA:          -8.014
REMARK INTER:                  -6.586
REMARK INTRA:                  -1.427
REMARK UNBOUND:                -0.662
REMARK SMILES O=C(CO)[C@@H](O)[C@H](O)[C@H](O)CO
REMARK SMILES IDX 7 1 9 2 11 3 12 4 10 6 5 8 2 9 1 10 3 11 4 12 6 14 8 16
REMARK H PARENT 12 5 10 7 4 13 6 15 8 17
REMARK Flexibility Score: inf
ROOT
ATOM      1  C   UNL     1      -9.455  18.627  20.157  1.00  0.00     0.181 C 
ENDROOT
BRANCH   1   2
ATOM      2  C   UNL     1     -10.791  18.258  19.451  1.00  0.00     0.171 C 
BRANCH   2   3
ATOM      3  C   UNL     1     -10.983  16.759  19.137  1.00  0.00     0.190 C 
BRANCH   3   4
ATOM      4  O   UNL     1     -10.037  16.303  18.207  1.00  0.00    -0.394 OA
ATOM      5  H   UNL     1      -9.237  16.019  18.720  1.00  0.00     0.210 HD
ENDBRANCH   3   4
ENDBRANCH   2   3
BRANCH   2   6
ATOM      6  O   UNL     1     -11.884  18.744  20.190  1.00  0.00    -0.388 OA
ATOM      7  H   UNL     1     -11.879  19.735  20.122  1.00  0.00     0.211 HD
ENDBRANCH   2   6
ENDBRANCH   1   2
BRANCH   1   8
ATOM      8  C   UNL     1      -8.387  19.204  19.184  1.00  0.00     0.214 C 
BRANCH   8   9
ATOM      9  C   UNL     1      -6.996  18.705  19.532  1.00  0.00     0.189 C 
ATOM     10  O   UNL     1      -6.405  19.213  20.474  1.00  0.00    -0.294 OA
BRANCH   9  11
ATOM     11  C   UNL     1      -6.299  17.632  18.736  1.00  0.00     0.234 C 
BRANCH  11  12
ATOM     12  O   UNL     1      -7.066  16.460  18.719  1.00  0.00    -0.388 OA
ATOM     13  H   UNL     1      -6.425  15.701  18.719  1.00  0.00     0.211 HD
ENDBRANCH  11  12
ENDBRANCH   9  11
ENDBRANCH   8   9
BRANCH   8  14
ATOM     14  O   UNL     1      -8.704  18.951  17.835  1.00  0.00    -0.382 OA
ATOM     15  H   UNL     1      -8.618  19.800  17.331  1.00  0.00     0.211 HD
ENDBRANCH   8  14
ENDBRANCH   1   8
BRANCH   1  16
ATOM     16  O   UNL     1      -8.951  17.523  20.868  1.00  0.00    -0.387 OA
ATOM     17  H   UNL     1      -8.319  17.879  21.546  1.00  0.00     0.211 HD
ENDBRANCH   1  16
TORSDOF 10
ENDMDL
MODEL 3
REMARK VINA RESULT:    -4.920      1.554      1.828
REMARK INTER + INTRA:          -7.740
REMARK INTER:                  -6.720
REMARK INTRA:                  -1.019
REMARK UNBOUND:                -0.662
REMARK SMILES O=C(CO)[C@@H](O)[C@H](O)[C@H](O)CO
REMARK SMILES IDX 7 1 9 2 11 3 12 4 10 6 5 8 2 9 1 10 3 11 4 12 6 14 8 16
REMARK H PARENT 12 5 10 7 4 13 6 15 8 17
REMARK Flexibility Score: inf
ROOT
ATOM      1  C   UNL     1      -6.435  17.756  18.807  1.00  0.00     0.181 C 
ENDROOT
BRANCH   1   2
ATOM      2  C   UNL     1      -4.981  17.750  19.357  1.00  0.00     0.171 C 
BRANCH   2   3
ATOM      3  C   UNL     1      -3.912  17.177  18.402  1.00  0.00     0.190 C 
BRANCH   3   4
ATOM      4  O   UNL     1      -3.995  15.778  18.318  1.00  0.00    -0.394 OA
ATOM      5  H   UNL     1      -4.895  15.519  18.646  1.00  0.00     0.210 HD
ENDBRANCH   3   4
ENDBRANCH   2   3
BRANCH   2   6
ATOM      6  O   UNL     1      -4.613  19.039  19.780  1.00  0.00    -0.388 OA
ATOM      7  H   UNL     1      -5.385  19.431  20.266  1.00  0.00     0.211 HD
ENDBRANCH   2   6
ENDBRANCH   1   2
BRANCH   1   8
ATOM      8  C   UNL     1      -7.381  18.714  19.587  1.00  0.00     0.214 C 
BRANCH   8   9
ATOM      9  C   UNL     1      -8.773  18.730  18.980  1.00  0.00     0.189 C 
ATOM     10  O   UNL     1      -8.945  19.299  17.912  1.00  0.00    -0.294 OA
BRANCH   9  11
ATOM     11  C   UNL     1      -9.961  18.104  19.664  1.00  0.00     0.234 C 
BRANCH  11  12
ATOM     12  O   UNL     1      -9.700  16.761  19.966  1.00  0.00    -0.388 OA
ATOM     13  H   UNL     1      -9.949  16.236  19.160  1.00  0.00     0.211 HD
ENDBRANCH  11  12
ENDBRANCH   9  11
ENDBRANCH   8   9
BRANCH   8  14
ATOM     14  O   UNL     1      -7.422  18.417  20.963  1.00  0.00    -0.382 OA
ATOM     15  H   UNL     1      -6.554  18.681  21.364  1.00  0.00     0.211 HD
ENDBRANCH   8  14
ENDBRANCH   1   8
BRANCH   1  16
ATOM     16  O   UNL     1      -6.954  16.450  18.768  1.00  0.00    -0.387 OA
ATOM     17  H   UNL     1      -7.111  16.172  19.708  1.00  0.00     0.211 HD
ENDBRANCH   1  16
TORSDOF 10
ENDMDL
MODEL 4
REMARK VINA RESULT:    -4.914      1.791      4.985
REMARK INTER + INTRA:          -7.731
REMARK INTER:                  -7.146
REMARK INTRA:                  -0.585
REMARK UNBOUND:                -0.662
REMARK SMILES O=C(CO)[C@@H](O)[C@H](O)[C@H](O)CO
REMARK SMILES IDX 7 1 9 2 11 3 12 4 10 6 5 8 2 9 1 10 3 11 4 12 6 14 8 16
REMARK H PARENT 12 5 10 7 4 13 6 15 8 17
REMARK Flexibility Score: inf
ROOT
ATOM      1  C   UNL     1      -8.966  18.248  19.826  1.00  0.00     0.181 C 
ENDROOT
BRANCH   1   2
ATOM      2  C   UNL     1     -10.514  18.336  19.715  1.00  0.00     0.171 C 
BRANCH   2   3
ATOM      3  C   UNL     1     -11.201  17.125  19.049  1.00  0.00     0.190 C 
BRANCH   3   4
ATOM      4  O   UNL     1     -10.959  15.941  19.761  1.00  0.00    -0.394 OA
ATOM      5  H   UNL     1     -11.514  15.976  20.584  1.00  0.00     0.210 HD
ENDBRANCH   3   4
ENDBRANCH   2   3
BRANCH   2   6
ATOM      6  O   UNL     1     -11.082  18.583  20.977  1.00  0.00    -0.388 OA
ATOM      7  H   UNL     1     -10.963  19.548  21.179  1.00  0.00     0.211 HD
ENDBRANCH   2   6
ENDBRANCH   1   2
BRANCH   1   8
ATOM      8  C   UNL     1      -8.295  17.637  18.562  1.00  0.00     0.214 C 
BRANCH   8   9
ATOM      9  C   UNL     1      -7.606  18.705  17.731  1.00  0.00     0.189 C 
ATOM     10  O   UNL     1      -8.247  19.686  17.381  1.00  0.00    -0.294 OA
BRANCH   9  11
ATOM     11  C   UNL     1      -6.171  18.586  17.288  1.00  0.00     0.234 C 
BRANCH  11  12
ATOM     12  O   UNL     1      -5.998  17.443  16.496  1.00  0.00    -0.388 OA
ATOM     13  H   UNL     1      -6.269  16.667  17.054  1.00  0.00     0.211 HD
ENDBRANCH  11  12
ENDBRANCH   9  11
ENDBRANCH   8   9
BRANCH   8  14
ATOM     14  O   UNL     1      -7.414  16.586  18.883  1.00  0.00    -0.382 OA
ATOM     15  H   UNL     1      -6.749  16.925  19.535  1.00  0.00     0.211 HD
ENDBRANCH   8  14
ENDBRANCH   1   8
BRANCH   1  16
ATOM     16  O   UNL     1      -8.593  17.549  20.988  1.00  0.00    -0.387 OA
ATOM     17  H   UNL     1      -9.201  16.768  21.064  1.00  0.00     0.211 HD
ENDBRANCH   1  16
TORSDOF 10
ENDMDL
MODEL 5
REMARK VINA RESULT:    -4.868      0.981      4.407
REMARK INTER + INTRA:          -7.665
REMARK INTER:                  -7.017
REMARK INTRA:                  -0.648
REMARK UNBOUND:                -0.662
REMARK SMILES O=C(CO)[C@@H](O)[C@H](O)[C@H](O)CO
REMARK SMILES IDX 7 1 9 2 11 3 12 4 10 6 5 8 2 9 1 10 3 11 4 12 6 14 8 16
REMARK H PARENT 12 5 10 7 4 13 6 15 8 17
REMARK Flexibility Score: inf
ROOT
ATOM      1  C   UNL     1      -6.528  17.779  18.831  1.00  0.00     0.181 C 
ENDROOT
BRANCH   1   2
ATOM      2  C   UNL     1      -7.864  18.572  18.890  1.00  0.00     0.171 C 
BRANCH   2   3
ATOM      3  C   UNL     1      -9.147  17.715  18.853  1.00  0.00     0.190 C 
BRANCH   3   4
ATOM      4  O   UNL     1      -9.219  16.850  19.954  1.00  0.00    -0.394 OA
ATOM      5  H   UNL     1     -10.168  16.574  20.048  1.00  0.00     0.210 HD
ENDBRANCH   3   4
ENDBRANCH   2   3
BRANCH   2   6
ATOM      6  O   UNL     1      -7.879  19.422  20.010  1.00  0.00    -0.388 OA
ATOM      7  H   UNL     1      -8.778  19.841  20.060  1.00  0.00     0.211 HD
ENDBRANCH   2   6
ENDBRANCH   1   2
BRANCH   1   8
ATOM      8  C   UNL     1      -5.609  18.213  17.653  1.00  0.00     0.214 C 
BRANCH   8   9
ATOM      9  C   UNL     1      -4.147  18.209  18.063  1.00  0.00     0.189 C 
ATOM     10  O   UNL     1      -3.443  19.157  17.749  1.00  0.00    -0.294 OA
BRANCH   9  11
ATOM     11  C   UNL     1      -3.520  17.061  18.812  1.00  0.00     0.234 C 
BRANCH  11  12
ATOM     12  O   UNL     1      -3.858  15.842  18.208  1.00  0.00    -0.388 OA
ATOM     13  H   UNL     1      -4.849  15.778  18.233  1.00  0.00     0.211 HD
ENDBRANCH  11  12
ENDBRANCH   9  11
ENDBRANCH   8   9
BRANCH   8  14
ATOM     14  O   UNL     1      -5.823  17.437  16.497  1.00  0.00    -0.382 OA
ATOM     15  H   UNL     1      -6.761  17.116  16.507  1.00  0.00     0.211 HD
ENDBRANCH   8  14
ENDBRANCH   1   8
BRANCH   1  16
ATOM     16  O   UNL     1      -6.777  16.395  18.799  1.00  0.00    -0.387 OA
ATOM     17  H   UNL     1      -7.601  16.236  19.329  1.00  0.00     0.211 HD
ENDBRANCH   1  16
TORSDOF 10
ENDMDL
MODEL 6
REMARK VINA RESULT:    -4.868      2.123      3.090
REMARK INTER + INTRA:          -7.664
REMARK INTER:                  -6.273
REMARK INTRA:                  -1.391
REMARK UNBOUND:                -0.662
REMARK SMILES O=C(CO)[C@@H](O)[C@H](O)[C@H](O)CO
REMARK SMILES IDX 7 1 9 2 11 3 12 4 10 6 5 8 2 9 1 10 3 11 4 12 6 14 8 16
REMARK H PARENT 12 5 10 7 4 13 6 15 8 17
REMARK Flexibility Score: inf
ROOT
ATOM      1  C   UNL     1      -8.420  19.224  19.456  1.00  0.00     0.181 C 
ENDROOT
BRANCH   1   2
ATOM      2  C   UNL     1      -6.950  18.815  19.757  1.00  0.00     0.171 C 
BRANCH   2   3
ATOM      3  C   UNL     1      -6.340  17.776  18.793  1.00  0.00     0.190 C 
BRANCH   3   4
ATOM      4  O   UNL     1      -7.062  16.573  18.810  1.00  0.00    -0.394 OA
ATOM      5  H   UNL     1      -7.701  16.606  18.050  1.00  0.00     0.210 HD
ENDBRANCH   3   4
ENDBRANCH   2   3
BRANCH   2   6
ATOM      6  O   UNL     1      -6.130  19.955  19.826  1.00  0.00    -0.388 OA
ATOM      7  H   UNL     1      -5.357  19.809  19.220  1.00  0.00     0.211 HD
ENDBRANCH   2   6
ENDBRANCH   1   2
BRANCH   1   8
ATOM      8  C   UNL     1      -9.454  18.521  20.382  1.00  0.00     0.214 C 
BRANCH   8   9
ATOM      9  C   UNL     1     -10.701  18.121  19.613  1.00  0.00     0.189 C 
ATOM     10  O   UNL     1     -11.553  18.969  19.387  1.00  0.00    -0.294 OA
BRANCH   9  11
ATOM     11  C   UNL     1     -10.948  16.708  19.152  1.00  0.00     0.234 C 
BRANCH  11  12
ATOM     12  O   UNL     1      -9.975  16.321  18.221  1.00  0.00    -0.388 OA
ATOM     13  H   UNL     1      -9.849  15.342  18.333  1.00  0.00     0.211 HD
ENDBRANCH  11  12
ENDBRANCH   9  11
ENDBRANCH   8   9
BRANCH   8  14
ATOM     14  O   UNL     1      -8.896  17.425  21.067  1.00  0.00    -0.382 OA
ATOM     15  H   UNL     1      -7.958  17.648  21.300  1.00  0.00     0.211 HD
ENDBRANCH   8  14
ENDBRANCH   1   8
BRANCH   1  16
ATOM     16  O   UNL     1      -8.724  19.010  18.099  1.00  0.00    -0.387 OA
ATOM     17  H   UNL     1      -9.392  18.276  18.064  1.00  0.00     0.211 HD
ENDBRANCH   1  16
TORSDOF 10
ENDMDL
MODEL 7
REMARK VINA RESULT:    -4.864      1.210      4.105
REMARK INTER + INTRA:          -7.659
REMARK INTER:                  -6.206
REMARK INTRA:                  -1.453
REMARK UNBOUND:                -0.662
REMARK SMILES O=C(CO)[C@@H](O)[C@H](O)[C@H](O)CO
REMARK SMILES IDX 7 1 9 2 11 3 12 4 10 6 5 8 2 9 1 10 3 11 4 12 6 14 8 16
REMARK H PARENT 12 5 10 7 4 13 6 15 8 17
REMARK Flexibility Score: inf
ROOT
ATOM      1  C   UNL     1      -6.324  19.212  18.108  1.00  0.00     0.181 C 
ENDROOT
BRANCH   1   2
ATOM      2  C   UNL     1      -7.757  18.730  17.745  1.00  0.00     0.171 C 
BRANCH   2   3
ATOM      3  C   UNL     1      -8.389  17.724  18.731  1.00  0.00     0.190 C 
BRANCH   3   4
ATOM      4  O   UNL     1      -7.562  16.606  18.925  1.00  0.00    -0.394 OA
ATOM      5  H   UNL     1      -8.156  15.816  19.013  1.00  0.00     0.210 HD
ENDBRANCH   3   4
ENDBRANCH   2   3
BRANCH   2   6
ATOM      6  O   UNL     1      -8.612  19.831  17.561  1.00  0.00    -0.388 OA
ATOM      7  H   UNL     1      -8.712  20.286  18.437  1.00  0.00     0.211 HD
ENDBRANCH   2   6
ENDBRANCH   1   2
BRANCH   1   8
ATOM      8  C   UNL     1      -5.213  18.517  17.269  1.00  0.00     0.214 C 
BRANCH   8   9
ATOM      9  C   UNL     1      -4.031  18.123  18.137  1.00  0.00     0.189 C 
ATOM     10  O   UNL     1      -3.239  18.987  18.484  1.00  0.00    -0.294 OA
BRANCH   9  11
ATOM     11  C   UNL     1      -3.775  16.698  18.555  1.00  0.00     0.234 C 
BRANCH  11  12
ATOM     12  O   UNL     1      -4.873  16.191  19.262  1.00  0.00    -0.388 OA
ATOM     13  H   UNL     1      -5.002  15.256  18.954  1.00  0.00     0.211 HD
ENDBRANCH  11  12
ENDBRANCH   9  11
ENDBRANCH   8   9
BRANCH   8  14
ATOM     14  O   UNL     1      -5.707  17.418  16.539  1.00  0.00    -0.382 OA
ATOM     15  H   UNL     1      -6.084  17.755  15.686  1.00  0.00     0.211 HD
ENDBRANCH   8  14
ENDBRANCH   1   8
BRANCH   1  16
ATOM     16  O   UNL     1      -6.088  19.064  19.486  1.00  0.00    -0.387 OA
ATOM     17  H   UNL     1      -5.442  18.317  19.591  1.00  0.00     0.211 HD
ENDBRANCH   1  16
TORSDOF 10
ENDMDL
MODEL 8
REMARK VINA RESULT:    -4.731      1.589      4.530
REMARK INTER + INTRA:          -7.468
REMARK INTER:                  -6.725
REMARK INTRA:                  -0.743
REMARK UNBOUND:                -0.662
REMARK SMILES O=C(CO)[C@@H](O)[C@H](O)[C@H](O)CO
REMARK SMILES IDX 7 1 9 2 11 3 12 4 10 6 5 8 2 9 1 10 3 11 4 12 6 14 8 16
REMARK H PARENT 12 5 10 7 4 13 6 15 8 17
REMARK Flexibility Score: inf
ROOT
ATOM      1  C   UNL     1      -7.447  17.917  19.415  1.00  0.00     0.181 C 
ENDROOT
BRANCH   1   2
ATOM      2  C   UNL     1      -8.864  18.110  20.027  1.00  0.00     0.171 C 
BRANCH   2   3
ATOM      3  C   UNL     1     -10.027  17.508  19.210  1.00  0.00     0.190 C 
BRANCH   3   4
ATOM      4  O   UNL     1     -10.318  16.197  19.619  1.00  0.00    -0.394 OA
ATOM      5  H   UNL     1     -11.152  15.925  19.155  1.00  0.00     0.210 HD
ENDBRANCH   3   4
ENDBRANCH   2   3
BRANCH   2   6
ATOM      6  O   UNL     1      -8.896  17.627  21.347  1.00  0.00    -0.388 OA
ATOM      7  H   UNL     1      -8.323  16.818  21.388  1.00  0.00     0.211 HD
ENDBRANCH   2   6
ENDBRANCH   1   2
BRANCH   1   8
ATOM      8  C   UNL     1      -7.026  19.076  18.467  1.00  0.00     0.214 C 
BRANCH   8   9
ATOM      9  C   UNL     1      -5.556  18.982  18.099  1.00  0.00     0.189 C 
ATOM     10  O   UNL     1      -4.718  19.322  18.921  1.00  0.00    -0.294 OA
BRANCH   9  11
ATOM     11  C   UNL     1      -5.090  18.520  16.742  1.00  0.00     0.234 C 
BRANCH  11  12
ATOM     12  O   UNL     1      -5.861  17.436  16.303  1.00  0.00    -0.388 OA
ATOM     13  H   UNL     1      -5.229  16.778  15.911  1.00  0.00     0.211 HD
ENDBRANCH  11  12
ENDBRANCH   9  11
ENDBRANCH   8   9
BRANCH   8  14
ATOM     14  O   UNL     1      -7.841  19.149  17.321  1.00  0.00    -0.382 OA
ATOM     15  H   UNL     1      -8.655  18.605  17.482  1.00  0.00     0.211 HD
ENDBRANCH   8  14
ENDBRANCH   1   8
BRANCH   1  16
ATOM     16  O   UNL     1      -7.354  16.671  18.768  1.00  0.00    -0.387 OA
ATOM     17  H   UNL     1      -8.281  16.336  18.651  1.00  0.00     0.211 HD
ENDBRANCH   1  16
TORSDOF 10
ENDMDL
MODEL 9
REMARK VINA RESULT:    -4.656      1.780      2.483
REMARK INTER + INTRA:          -7.360
REMARK INTER:                  -6.285
REMARK INTRA:                  -1.075
REMARK UNBOUND:                -0.662
REMARK SMILES O=C(CO)[C@@H](O)[C@H](O)[C@H](O)CO
REMARK SMILES IDX 7 1 9 2 11 3 12 4 10 6 5 8 2 9 1 10 3 11 4 12 6 14 8 16
REMARK H PARENT 12 5 10 7 4 13 6 15 8 17
REMARK Flexibility Score: inf
ROOT
ATOM      1  C   UNL     1      -6.349  18.500  20.069  1.00  0.00     0.181 C 
ENDROOT
BRANCH   1   2
ATOM      2  C   UNL     1      -6.238  17.740  18.716  1.00  0.00     0.171 C 
BRANCH   2   3
ATOM      3  C   UNL     1      -4.807  17.578  18.162  1.00  0.00     0.190 C 
BRANCH   3   4
ATOM      4  O   UNL     1      -4.405  16.233  18.162  1.00  0.00    -0.394 OA
ATOM      5  H   UNL     1      -3.429  16.220  18.342  1.00  0.00     0.210 HD
ENDBRANCH   3   4
ENDBRANCH   2   3
BRANCH   2   6
ATOM      6  O   UNL     1      -6.870  16.487  18.806  1.00  0.00    -0.388 OA
ATOM      7  H   UNL     1      -7.280  16.291  17.924  1.00  0.00     0.211 HD
ENDBRANCH   2   6
ENDBRANCH   1   2
BRANCH   1   8
ATOM      8  C   UNL     1      -7.819  18.775  20.498  1.00  0.00     0.214 C 
BRANCH   8   9
ATOM      9  C   UNL     1      -8.587  19.498  19.406  1.00  0.00     0.189 C 
ATOM     10  O   UNL     1      -8.204  20.603  19.047  1.00  0.00    -0.294 OA
BRANCH   9  11
ATOM     11  C   UNL     1      -9.828  18.924  18.774  1.00  0.00     0.234 C 
BRANCH  11  12
ATOM     12  O   UNL     1      -9.564  17.654  18.244  1.00  0.00    -0.388 OA
ATOM     13  H   UNL     1      -9.345  17.066  19.013  1.00  0.00     0.211 HD
ENDBRANCH  11  12
ENDBRANCH   9  11
ENDBRANCH   8   9
BRANCH   8  14
ATOM     14  O   UNL     1      -8.483  17.601  20.905  1.00  0.00    -0.382 OA
ATOM     15  H   UNL     1      -7.931  17.154  21.596  1.00  0.00     0.211 HD
ENDBRANCH   8  14
ENDBRANCH   1   8
BRANCH   1  16
ATOM     16  O   UNL     1      -5.600  19.689  20.030  1.00  0.00    -0.387 OA
ATOM     17  H   UNL     1      -5.798  20.129  19.162  1.00  0.00     0.211 HD
ENDBRANCH   1  16
TORSDOF 10
ENDMDL
