MODEL 1
REMARK VINA RESULT:    -5.028      0.000      0.000
REMARK INTER + INTRA:          -5.322
REMARK INTER:                  -5.322
REMARK INTRA:                   0.000
REMARK UNBOUND:                 0.000
REMARK SMILES Cc1cc(O)c(C)c(C)c1O
REMARK SMILES IDX 1 1 2 2 3 3 4 4 6 5 8 6 10 7 9 8 7 9 11 10 5 12
REMARK H PARENT 11 11 5 13
REMARK Flexibility Score: inf
ROOT
ATOM      1  C   UNL     1     114.567  10.487 -23.826  1.00  0.00     0.048 C 
ATOM      2  C   UNL     1     113.510   9.596 -24.420  1.00  0.00    -0.005 A 
ATOM      3  C   UNL     1     112.590   8.969 -23.573  1.00  0.00     0.053 A 
ATOM      4  C   UNL     1     111.600   8.127 -24.078  1.00  0.00     0.119 A 
ATOM      5  C   UNL     1     111.525   7.873 -25.467  1.00  0.00    -0.003 A 
ATOM      6  C   UNL     1     112.414   8.553 -26.345  1.00  0.00    -0.002 A 
ATOM      7  C   UNL     1     113.421   9.392 -25.813  1.00  0.00     0.121 A 
ATOM      8  C   UNL     1     112.315   8.370 -27.844  1.00  0.00     0.049 C 
ATOM      9  C   UNL     1     110.483   6.907 -25.986  1.00  0.00     0.049 C 
ENDROOT
BRANCH   7  10
ATOM     10  O   UNL     1     114.323  10.013 -26.685  1.00  0.00    -0.507 OA
ATOM     11  H   UNL     1     114.042  10.499 -27.527  1.00  0.00     0.293 HD
ENDBRANCH   7  10
BRANCH   4  12
ATOM     12  O   UNL     1     110.701   7.566 -23.167  1.00  0.00    -0.508 OA
ATOM     13  H   UNL     1     110.356   6.617 -23.232  1.00  0.00     0.293 HD
ENDBRANCH   4  12
TORSDOF 2
ENDMDL
MODEL 2
REMARK VINA RESULT:    -4.997     14.338     16.597
REMARK INTER + INTRA:          -5.289
REMARK INTER:                  -5.289
REMARK INTRA:                   0.000
REMARK UNBOUND:                 0.000
REMARK SMILES Cc1cc(O)c(C)c(C)c1O
REMARK SMILES IDX 1 1 2 2 3 3 4 4 6 5 8 6 10 7 9 8 7 9 11 10 5 12
REMARK H PARENT 11 11 5 13
REMARK Flexibility Score: inf
ROOT
ATOM      1  C   UNL     1     109.428   5.315 -42.304  1.00  0.00     0.048 C 
ATOM      2  C   UNL     1     110.021   6.594 -41.776  1.00  0.00    -0.005 A 
ATOM      3  C   UNL     1     111.022   7.238 -42.512  1.00  0.00     0.053 A 
ATOM      4  C   UNL     1     111.607   8.418 -42.057  1.00  0.00     0.119 A 
ATOM      5  C   UNL     1     111.210   8.976 -40.820  1.00  0.00    -0.003 A 
ATOM      6  C   UNL     1     110.150   8.367 -40.093  1.00  0.00    -0.002 A 
ATOM      7  C   UNL     1     109.578   7.162 -40.563  1.00  0.00     0.121 A 
ATOM      8  C   UNL     1     109.641   8.978 -38.805  1.00  0.00     0.049 C 
ATOM      9  C   UNL     1     111.902  10.224 -40.316  1.00  0.00     0.049 C 
ENDROOT
BRANCH   7  10
ATOM     10  O   UNL     1     108.573   6.544 -39.810  1.00  0.00    -0.507 OA
ATOM     11  H   UNL     1     108.411   6.736 -38.830  1.00  0.00     0.293 HD
ENDBRANCH   7  10
BRANCH   4  12
ATOM     12  O   UNL     1     112.577   9.014 -42.867  1.00  0.00    -0.508 OA
ATOM     13  H   UNL     1     112.517   9.965 -43.207  1.00  0.00     0.293 HD
ENDBRANCH   4  12
TORSDOF 2
ENDMDL
MODEL 3
REMARK VINA RESULT:    -4.628     14.368     15.684
REMARK INTER + INTRA:          -4.899
REMARK INTER:                  -4.899
REMARK INTRA:                   0.000
REMARK UNBOUND:                 0.000
REMARK SMILES Cc1cc(O)c(C)c(C)c1O
REMARK SMILES IDX 1 1 2 2 3 3 4 4 6 5 8 6 10 7 9 8 7 9 11 10 5 12
REMARK H PARENT 11 11 5 13
REMARK Flexibility Score: inf
ROOT
ATOM      1  C   UNL     1     112.890  10.936 -40.789  1.00  0.00     0.048 C 
ATOM      2  C   UNL     1     111.896   9.809 -40.696  1.00  0.00    -0.005 A 
ATOM      3  C   UNL     1     111.096   9.696 -39.555  1.00  0.00     0.053 A 
ATOM      4  C   UNL     1     110.171   8.663 -39.421  1.00  0.00     0.119 A 
ATOM      5  C   UNL     1     110.041   7.690 -40.438  1.00  0.00    -0.003 A 
ATOM      6  C   UNL     1     110.803   7.829 -41.632  1.00  0.00    -0.002 A 
ATOM      7  C   UNL     1     111.747   8.875 -41.743  1.00  0.00     0.121 A 
ATOM      8  C   UNL     1     110.634   6.854 -42.778  1.00  0.00     0.049 C 
ATOM      9  C   UNL     1     109.074   6.542 -40.245  1.00  0.00     0.049 C 
ENDROOT
BRANCH   7  10
ATOM     10  O   UNL     1     112.528   8.969 -42.901  1.00  0.00    -0.507 OA
ATOM     11  H   UNL     1     113.157   9.740 -43.090  1.00  0.00     0.293 HD
ENDBRANCH   7  10
BRANCH   4  12
ATOM     12  O   UNL     1     109.389   8.640 -38.263  1.00  0.00    -0.508 OA
ATOM     13  H   UNL     1     109.315   9.417 -37.620  1.00  0.00     0.293 HD
ENDBRANCH   4  12
TORSDOF 2
ENDMDL
MODEL 4
REMARK VINA RESULT:    -4.626      1.213      4.313
REMARK INTER + INTRA:          -4.896
REMARK INTER:                  -4.896
REMARK INTRA:                   0.000
REMARK UNBOUND:                 0.000
REMARK SMILES Cc1cc(O)c(C)c(C)c1O
REMARK SMILES IDX 1 1 2 2 3 3 4 4 6 5 8 6 10 7 9 8 7 9 11 10 5 12
REMARK H PARENT 11 11 5 13
REMARK Flexibility Score: inf
ROOT
ATOM      1  C   UNL     1     109.839   6.204 -25.529  1.00  0.00     0.048 C 
ATOM      2  C   UNL     1     110.845   7.321 -25.597  1.00  0.00    -0.005 A 
ATOM      3  C   UNL     1     111.239   7.811 -26.846  1.00  0.00     0.053 A 
ATOM      4  C   UNL     1     112.176   8.837 -26.958  1.00  0.00     0.119 A 
ATOM      5  C   UNL     1     112.766   9.388 -25.798  1.00  0.00    -0.003 A 
ATOM      6  C   UNL     1     112.329   8.943 -24.519  1.00  0.00    -0.002 A 
ATOM      7  C   UNL     1     111.388   7.892 -24.426  1.00  0.00     0.121 A 
ATOM      8  C   UNL     1     112.877   9.565 -23.253  1.00  0.00     0.049 C 
ATOM      9  C   UNL     1     113.826  10.457 -25.945  1.00  0.00     0.049 C 
ENDROOT
BRANCH   7  10
ATOM     10  O   UNL     1     111.006   7.428 -23.162  1.00  0.00    -0.507 OA
ATOM     11  H   UNL     1     111.645   7.341 -22.382  1.00  0.00     0.293 HD
ENDBRANCH   7  10
BRANCH   4  12
ATOM     12  O   UNL     1     112.491   9.289 -28.242  1.00  0.00    -0.508 OA
ATOM     13  H   UNL     1     112.145   8.858 -29.090  1.00  0.00     0.293 HD
ENDBRANCH   4  12
TORSDOF 2
ENDMDL
MODEL 5
REMARK VINA RESULT:    -4.600      1.456      3.548
REMARK INTER + INTRA:          -4.869
REMARK INTER:                  -4.869
REMARK INTRA:                   0.000
REMARK UNBOUND:                 0.000
REMARK SMILES Cc1cc(O)c(C)c(C)c1O
REMARK SMILES IDX 1 1 2 2 3 3 4 4 6 5 8 6 10 7 9 8 7 9 11 10 5 12
REMARK H PARENT 11 11 5 13
REMARK Flexibility Score: inf
ROOT
ATOM      1  C   UNL     1     112.637   9.358 -23.754  1.00  0.00     0.048 C 
ATOM      2  C   UNL     1     111.967   8.541 -24.826  1.00  0.00    -0.005 A 
ATOM      3  C   UNL     1     112.275   8.789 -26.167  1.00  0.00     0.053 A 
ATOM      4  C   UNL     1     111.671   8.065 -27.194  1.00  0.00     0.119 A 
ATOM      5  C   UNL     1     110.711   7.072 -26.891  1.00  0.00    -0.003 A 
ATOM      6  C   UNL     1     110.435   6.766 -25.530  1.00  0.00    -0.002 A 
ATOM      7  C   UNL     1     111.046   7.521 -24.503  1.00  0.00     0.121 A 
ATOM      8  C   UNL     1     109.474   5.656 -25.164  1.00  0.00     0.049 C 
ATOM      9  C   UNL     1     110.023   6.341 -28.023  1.00  0.00     0.049 C 
ENDROOT
BRANCH   7  10
ATOM     10  O   UNL     1     110.726   7.245 -23.169  1.00  0.00    -0.507 OA
ATOM     11  H   UNL     1     109.802   6.969 -22.861  1.00  0.00     0.293 HD
ENDBRANCH   7  10
BRANCH   4  12
ATOM     12  O   UNL     1     112.058   8.354 -28.505  1.00  0.00    -0.508 OA
ATOM     13  H   UNL     1     113.008   8.575 -28.774  1.00  0.00     0.293 HD
ENDBRANCH   4  12
TORSDOF 2
ENDMDL
MODEL 6
REMARK VINA RESULT:    -4.437      1.256      3.264
REMARK INTER + INTRA:          -4.697
REMARK INTER:                  -4.697
REMARK INTRA:                   0.000
REMARK UNBOUND:                 0.000
REMARK SMILES Cc1cc(O)c(C)c(C)c1O
REMARK SMILES IDX 1 1 2 2 3 3 4 4 6 5 8 6 10 7 9 8 7 9 11 10 5 12
REMARK H PARENT 11 11 5 13
REMARK Flexibility Score: inf
ROOT
ATOM      1  C   UNL     1     110.407   6.722 -27.976  1.00  0.00     0.048 C 
ATOM      2  C   UNL     1     111.097   7.387 -26.815  1.00  0.00    -0.005 A 
ATOM      3  C   UNL     1     110.594   7.201 -25.524  1.00  0.00     0.053 A 
ATOM      4  C   UNL     1     111.194   7.806 -24.421  1.00  0.00     0.119 A 
ATOM      5  C   UNL     1     112.319   8.645 -24.596  1.00  0.00    -0.003 A 
ATOM      6  C   UNL     1     112.879   8.792 -25.896  1.00  0.00    -0.002 A 
ATOM      7  C   UNL     1     112.247   8.182 -27.005  1.00  0.00     0.121 A 
ATOM      8  C   UNL     1     114.129   9.616 -26.113  1.00  0.00     0.049 C 
ATOM      9  C   UNL     1     112.916   9.341 -23.393  1.00  0.00     0.049 C 
ENDROOT
BRANCH   7  10
ATOM     10  O   UNL     1     112.778   8.379 -28.285  1.00  0.00    -0.507 OA
ATOM     11  H   UNL     1     112.763   9.269 -28.766  1.00  0.00     0.293 HD
ENDBRANCH   7  10
BRANCH   4  12
ATOM     12  O   UNL     1     110.648   7.544 -23.161  1.00  0.00    -0.508 OA
ATOM     13  H   UNL     1     109.798   7.016 -23.017  1.00  0.00     0.293 HD
ENDBRANCH   4  12
TORSDOF 2
ENDMDL
MODEL 7
REMARK VINA RESULT:    -4.397      1.876      3.425
REMARK INTER + INTRA:          -4.654
REMARK INTER:                  -4.654
REMARK INTRA:                   0.000
REMARK UNBOUND:                 0.000
REMARK SMILES Cc1cc(O)c(C)c(C)c1O
REMARK SMILES IDX 1 1 2 2 3 3 4 4 6 5 8 6 10 7 9 8 7 9 11 10 5 12
REMARK H PARENT 11 11 5 13
REMARK Flexibility Score: inf
ROOT
ATOM      1  C   UNL     1     110.825   7.498 -24.128  1.00  0.00     0.048 C 
ATOM      2  C   UNL     1     112.015   8.328 -24.528  1.00  0.00    -0.005 A 
ATOM      3  C   UNL     1     112.641   9.132 -23.571  1.00  0.00     0.053 A 
ATOM      4  C   UNL     1     113.739   9.925 -23.898  1.00  0.00     0.119 A 
ATOM      5  C   UNL     1     114.228   9.946 -25.225  1.00  0.00    -0.003 A 
ATOM      6  C   UNL     1     113.642   9.086 -26.194  1.00  0.00    -0.002 A 
ATOM      7  C   UNL     1     112.519   8.300 -25.846  1.00  0.00     0.121 A 
ATOM      8  C   UNL     1     114.188   9.019 -27.604  1.00  0.00     0.049 C 
ATOM      9  C   UNL     1     115.382  10.861 -25.572  1.00  0.00     0.049 C 
ENDROOT
BRANCH   7  10
ATOM     10  O   UNL     1     111.918   7.497 -26.824  1.00  0.00    -0.507 OA
ATOM     11  H   UNL     1     111.531   7.861 -27.685  1.00  0.00     0.293 HD
ENDBRANCH   7  10
BRANCH   4  12
ATOM     12  O   UNL     1     114.325  10.675 -22.875  1.00  0.00    -0.508 OA
ATOM     13  H   UNL     1     114.434  10.341 -21.927  1.00  0.00     0.293 HD
ENDBRANCH   4  12
TORSDOF 2
ENDMDL
MODEL 8
REMARK VINA RESULT:    -4.396     13.094     15.586
REMARK INTER + INTRA:          -4.653
REMARK INTER:                  -4.653
REMARK INTRA:                   0.000
REMARK UNBOUND:                 0.000
REMARK SMILES Cc1cc(O)c(C)c(C)c1O
REMARK SMILES IDX 1 1 2 2 3 3 4 4 6 5 8 6 10 7 9 8 7 9 11 10 5 12
REMARK H PARENT 11 11 5 13
REMARK Flexibility Score: inf
ROOT
ATOM      1  C   UNL     1     110.427   6.903 -42.766  1.00  0.00     0.048 C 
ATOM      2  C   UNL     1     111.040   7.576 -41.567  1.00  0.00    -0.005 A 
ATOM      3  C   UNL     1     110.684   7.143 -40.285  1.00  0.00     0.053 A 
ATOM      4  C   UNL     1     111.217   7.744 -39.146  1.00  0.00     0.119 A 
ATOM      5  C   UNL     1     112.119   8.826 -39.270  1.00  0.00    -0.003 A 
ATOM      6  C   UNL     1     112.538   9.234 -40.567  1.00  0.00    -0.002 A 
ATOM      7  C   UNL     1     111.975   8.623 -41.711  1.00  0.00     0.121 A 
ATOM      8  C   UNL     1     113.562  10.335 -40.741  1.00  0.00     0.049 C 
ATOM      9  C   UNL     1     112.637   9.503 -38.021  1.00  0.00     0.049 C 
ENDROOT
BRANCH   7  10
ATOM     10  O   UNL     1     112.356   9.070 -42.982  1.00  0.00    -0.507 OA
ATOM     11  H   UNL     1     111.736   9.566 -43.609  1.00  0.00     0.293 HD
ENDBRANCH   7  10
BRANCH   4  12
ATOM     12  O   UNL     1     110.834   7.231 -37.904  1.00  0.00    -0.508 OA
ATOM     13  H   UNL     1     110.493   7.803 -37.142  1.00  0.00     0.293 HD
ENDBRANCH   4  12
TORSDOF 2
ENDMDL
MODEL 9
REMARK VINA RESULT:    -4.241     13.201     15.585
REMARK INTER + INTRA:          -4.489
REMARK INTER:                  -4.489
REMARK INTRA:                   0.000
REMARK UNBOUND:                 0.000
REMARK SMILES Cc1cc(O)c(C)c(C)c1O
REMARK SMILES IDX 1 1 2 2 3 3 4 4 6 5 8 6 10 7 9 8 7 9 11 10 5 12
REMARK H PARENT 11 11 5 13
REMARK Flexibility Score: inf
ROOT
ATOM      1  C   UNL     1     112.071  10.076 -38.150  1.00  0.00     0.048 C 
ATOM      2  C   UNL     1     111.623   9.235 -39.316  1.00  0.00    -0.005 A 
ATOM      3  C   UNL     1     112.199   9.448 -40.572  1.00  0.00     0.053 A 
ATOM      4  C   UNL     1     111.808   8.701 -41.682  1.00  0.00     0.119 A 
ATOM      5  C   UNL     1     110.796   7.722 -41.558  1.00  0.00    -0.003 A 
ATOM      6  C   UNL     1     110.246   7.452 -40.273  1.00  0.00    -0.002 A 
ATOM      7  C   UNL     1     110.645   8.230 -39.162  1.00  0.00     0.121 A 
ATOM      8  C   UNL     1     109.219   6.357 -40.084  1.00  0.00     0.049 C 
ATOM      9  C   UNL     1     110.343   6.967 -42.788  1.00  0.00     0.049 C 
ENDROOT
BRANCH   7  10
ATOM     10  O   UNL     1     110.057   7.989 -37.914  1.00  0.00    -0.507 OA
ATOM     11  H   UNL     1     109.106   8.247 -37.685  1.00  0.00     0.293 HD
ENDBRANCH   7  10
BRANCH   4  12
ATOM     12  O   UNL     1     112.456   8.955 -42.894  1.00  0.00    -0.508 OA
ATOM     13  H   UNL     1     111.975   9.223 -43.742  1.00  0.00     0.293 HD
ENDBRANCH   4  12
TORSDOF 2
ENDMDL
