MODEL 1
REMARK VINA RESULT:     5.251      0.000      0.000
REMARK INTER + INTRA:           8.738
REMARK INTER:                   8.014
REMARK INTRA:                   0.724
REMARK UNBOUND:                 0.724
REMARK SMILES CC(=O)CCC=C(C)CCC=C(C)CCC=C(C)C
REMARK SMILES IDX 10 1 11 2 12 3 13 4 14 5 15 6 16 7 18 8 17 9 19 10 9 11 7 12
REMARK SMILES IDX 6 13 8 14 5 15 4 16 2 17 3 18 1 19
REMARK H PARENT
REMARK Flexibility Score: inf
ROOT
ATOM      1  C   UNL     1      10.768  13.422  -1.249  1.00  0.00     0.032 C 
ENDROOT
BRANCH   1   2
ATOM      2  C   UNL     1      10.674  14.539  -2.257  1.00  0.00    -0.028 C 
ATOM      3  C   UNL     1      10.785  14.372  -3.594  1.00  0.00    -0.077 C 
ATOM      4  C   UNL     1      11.111  13.029  -4.207  1.00  0.00     0.039 C 
BRANCH   3   5
ATOM      5  C   UNL     1      10.586  15.568  -4.504  1.00  0.00     0.034 C 
BRANCH   5   6
ATOM      6  C   UNL     1      11.671  15.646  -5.589  1.00  0.00     0.032 C 
BRANCH   6   7
ATOM      7  C   UNL     1      12.285  17.023  -5.671  1.00  0.00    -0.028 C 
ATOM      8  C   UNL     1      14.090  16.313  -7.255  1.00  0.00     0.039 C 
ATOM      9  C   UNL     1      13.350  17.345  -6.438  1.00  0.00    -0.080 C 
ATOM     10  C   UNL     1      13.813  18.779  -6.454  1.00  0.00     0.039 C 
ENDBRANCH   6   7
ENDBRANCH   5   6
ENDBRANCH   3   5
ENDBRANCH   1   2
BRANCH   1  11
ATOM     11  C   UNL     1      12.155  13.404  -0.595  1.00  0.00     0.034 C 
BRANCH  11  12
ATOM     12  C   UNL     1      12.033  13.389   0.915  1.00  0.00    -0.077 C 
ATOM     13  C   UNL     1      10.948  13.861   1.572  1.00  0.00    -0.028 C 
ATOM     14  C   UNL     1      13.202  12.894   1.727  1.00  0.00     0.039 C 
BRANCH  13  15
ATOM     15  C   UNL     1       9.699  14.384   0.906  1.00  0.00     0.035 C 
BRANCH  15  16
ATOM     16  C   UNL     1       8.990  15.403   1.804  1.00  0.00     0.079 C 
BRANCH  16  17
ATOM     17  C   UNL     1       9.639  16.756   1.687  1.00  0.00     0.130 C 
ATOM     18  O   UNL     1       8.948  17.735   1.445  1.00  0.00    -0.300 OA
ATOM     19  C   UNL     1      11.115  16.935   1.878  1.00  0.00     0.087 C 
ENDBRANCH  16  17
ENDBRANCH  15  16
ENDBRANCH  13  15
ENDBRANCH  11  12
ENDBRANCH   1  11
TORSDOF 9
ENDMDL
MODEL 2
REMARK VINA RESULT:     6.215      2.372      7.140
REMARK INTER + INTRA:          10.209
REMARK INTER:                   9.925
REMARK INTRA:                   0.284
REMARK UNBOUND:                 0.724
REMARK SMILES CC(=O)CCC=C(C)CCC=C(C)CCC=C(C)C
REMARK SMILES IDX 10 1 11 2 12 3 13 4 14 5 15 6 16 7 18 8 17 9 19 10 9 11 7 12
REMARK SMILES IDX 6 13 8 14 5 15 4 16 2 17 3 18 1 19
REMARK H PARENT
REMARK Flexibility Score: inf
ROOT
ATOM      1  C   UNL     1      10.015  14.063  -1.977  1.00  0.00     0.032 C 
ENDROOT
BRANCH   1   2
ATOM      2  C   UNL     1      10.366  13.664  -0.566  1.00  0.00    -0.028 C 
ATOM      3  C   UNL     1      11.587  13.235  -0.175  1.00  0.00    -0.077 C 
ATOM      4  C   UNL     1      12.714  13.027  -1.161  1.00  0.00     0.039 C 
BRANCH   3   5
ATOM      5  C   UNL     1      11.831  12.947   1.293  1.00  0.00     0.034 C 
BRANCH   5   6
ATOM      6  C   UNL     1      11.892  14.236   2.125  1.00  0.00     0.032 C 
BRANCH   6   7
ATOM      7  C   UNL     1      10.609  15.028   2.028  1.00  0.00    -0.028 C 
ATOM      8  C   UNL     1      11.780  17.205   1.627  1.00  0.00     0.039 C 
ATOM      9  C   UNL     1      10.542  16.353   1.774  1.00  0.00    -0.080 C 
ATOM     10  C   UNL     1       9.182  16.992   1.653  1.00  0.00     0.039 C 
ENDBRANCH   6   7
ENDBRANCH   5   6
ENDBRANCH   3   5
ENDBRANCH   1   2
BRANCH   1  11
ATOM     11  C   UNL     1      11.240  14.651  -2.689  1.00  0.00     0.034 C 
BRANCH  11  12
ATOM     12  C   UNL     1      11.175  14.375  -4.177  1.00  0.00    -0.077 C 
ATOM     13  C   UNL     1      11.485  15.301  -5.114  1.00  0.00    -0.028 C 
ATOM     14  C   UNL     1      10.673  13.031  -4.640  1.00  0.00     0.039 C 
BRANCH  13  15
ATOM     15  C   UNL     1      12.004  16.686  -4.815  1.00  0.00     0.035 C 
BRANCH  15  16
ATOM     16  C   UNL     1      12.133  17.508  -6.101  1.00  0.00     0.079 C 
BRANCH  16  17
ATOM     17  C   UNL     1      13.558  17.516  -6.587  1.00  0.00     0.130 C 
ATOM     18  O   UNL     1      14.238  18.520  -6.436  1.00  0.00    -0.300 OA
ATOM     19  C   UNL     1      14.169  16.313  -7.239  1.00  0.00     0.087 C 
ENDBRANCH  16  17
ENDBRANCH  15  16
ENDBRANCH  13  15
ENDBRANCH  11  12
ENDBRANCH   1  11
TORSDOF 9
ENDMDL
MODEL 3
REMARK VINA RESULT:     8.003      2.507      7.149
REMARK INTER + INTRA:          12.938
REMARK INTER:                  12.046
REMARK INTRA:                   0.892
REMARK UNBOUND:                 0.724
REMARK SMILES CC(=O)CCC=C(C)CCC=C(C)CCC=C(C)C
REMARK SMILES IDX 10 1 11 2 12 3 13 4 14 5 15 6 16 7 18 8 17 9 19 10 9 11 7 12
REMARK SMILES IDX 6 13 8 14 5 15 4 16 2 17 3 18 1 19
REMARK H PARENT
REMARK Flexibility Score: inf
ROOT
ATOM      1  C   UNL     1      11.936  12.985  -1.080  1.00  0.00     0.032 C 
ENDROOT
BRANCH   1   2
ATOM      2  C   UNL     1      10.948  13.499  -0.064  1.00  0.00    -0.028 C 
ATOM      3  C   UNL     1      11.248  13.762   1.228  1.00  0.00    -0.077 C 
ATOM      4  C   UNL     1      12.615  13.472   1.804  1.00  0.00     0.039 C 
BRANCH   3   5
ATOM      5  C   UNL     1      10.182  14.357   2.125  1.00  0.00     0.034 C 
BRANCH   5   6
ATOM      6  C   UNL     1       8.818  14.426   1.421  1.00  0.00     0.032 C 
BRANCH   6   7
ATOM      7  C   UNL     1       8.016  15.626   1.867  1.00  0.00    -0.028 C 
ATOM      8  C   UNL     1       9.682  17.280   0.993  1.00  0.00     0.039 C 
ATOM      9  C   UNL     1       8.375  16.911   1.654  1.00  0.00    -0.080 C 
ATOM     10  C   UNL     1       7.441  18.002   2.112  1.00  0.00     0.039 C 
ENDBRANCH   6   7
ENDBRANCH   5   6
ENDBRANCH   3   5
ENDBRANCH   1   2
BRANCH   1  11
ATOM     11  C   UNL     1      12.180  14.035  -2.171  1.00  0.00     0.034 C 
BRANCH  11  12
ATOM     12  C   UNL     1      10.867  14.608  -2.663  1.00  0.00    -0.077 C 
ATOM     13  C   UNL     1      10.742  15.259  -3.843  1.00  0.00    -0.028 C 
ATOM     14  C   UNL     1       9.658  14.513  -1.767  1.00  0.00     0.039 C 
BRANCH  13  15
ATOM     15  C   UNL     1      11.851  15.434  -4.850  1.00  0.00     0.035 C 
BRANCH  15  16
ATOM     16  C   UNL     1      11.597  16.661  -5.732  1.00  0.00     0.079 C 
BRANCH  16  17
ATOM     17  C   UNL     1      12.862  17.086  -6.429  1.00  0.00     0.130 C 
ATOM     18  O   UNL     1      13.302  16.407  -7.345  1.00  0.00    -0.300 OA
ATOM     19  C   UNL     1      13.589  18.337  -6.035  1.00  0.00     0.087 C 
ENDBRANCH  16  17
ENDBRANCH  15  16
ENDBRANCH  13  15
ENDBRANCH  11  12
ENDBRANCH   1  11
TORSDOF 9
ENDMDL
