MODEL 1
REMARK VINA RESULT:    -3.105      0.000      0.000
REMARK INTER + INTRA:          -9.509
REMARK INTER:                  -6.736
REMARK INTRA:                  -2.773
REMARK UNBOUND:                -2.773
REMARK SMILES CCCCCCCCCCCCCCCCCCCCCC(=O)[O-]
REMARK SMILES IDX 12 1 11 2 10 3 9 4 8 5 7 6 6 7 5 8 4 9 3 10 2 11 1 12 13 13
REMARK SMILES IDX 14 14 15 15 16 16 17 17 18 18 19 19 20 20 21 21 22 22 23 23
REMARK SMILES IDX 24 24
REMARK H PARENT
REMARK Flexibility Score: inf
ROOT
ATOM      1  C   UNL     1       6.396  -8.127   3.956  1.00  0.00     0.000 C 
ENDROOT
BRANCH   1   2
ATOM      2  C   UNL     1       7.037  -8.259   5.348  1.00  0.00     0.000 C 
BRANCH   2   3
ATOM      3  C   UNL     1       5.990  -8.295   6.477  1.00  0.00     0.000 C 
BRANCH   3   4
ATOM      4  C   UNL     1       6.176  -9.517   7.403  1.00  0.00    -0.000 C 
BRANCH   4   5
ATOM      5  C   UNL     1       5.777  -9.251   8.866  1.00  0.00    -0.000 C 
BRANCH   5   6
ATOM      6  C   UNL     1       6.615  -8.141   9.522  1.00  0.00    -0.000 C 
BRANCH   6   7
ATOM      7  C   UNL     1       8.045  -8.595   9.871  1.00  0.00    -0.000 C 
BRANCH   7   8
ATOM      8  C   UNL     1       9.000  -8.739   8.670  1.00  0.00    -0.000 C 
BRANCH   8   9
ATOM      9  C   UNL     1       9.924  -7.531   8.416  1.00  0.00    -0.000 C 
BRANCH   9  10
ATOM     10  C   UNL     1       9.373  -6.194   8.957  1.00  0.00    -0.000 C 
BRANCH  10  11
ATOM     11  C   UNL     1       8.507  -5.452   7.926  1.00  0.00    -0.003 C 
ATOM     12  C   UNL     1       7.492  -4.541   8.613  1.00  0.00     0.004 C 
ENDBRANCH  10  11
ENDBRANCH   9  10
ENDBRANCH   8   9
ENDBRANCH   7   8
ENDBRANCH   6   7
ENDBRANCH   5   6
ENDBRANCH   4   5
ENDBRANCH   3   4
ENDBRANCH   2   3
ENDBRANCH   1   2
BRANCH   1  13
ATOM     13  C   UNL     1       4.955  -8.664   3.919  1.00  0.00     0.000 C 
BRANCH  13  14
ATOM     14  C   UNL     1       4.884 -10.135   3.473  1.00  0.00     0.000 C 
BRANCH  14  15
ATOM     15  C   UNL     1       4.409 -11.119   4.561  1.00  0.00     0.000 C 
BRANCH  15  16
ATOM     16  C   UNL     1       3.025 -10.810   5.173  1.00  0.00     0.000 C 
BRANCH  16  17
ATOM     17  C   UNL     1       2.988 -10.749   6.711  1.00  0.00     0.000 C 
BRANCH  17  18
ATOM     18  C   UNL     1       2.198  -9.539   7.243  1.00  0.00     0.000 C 
BRANCH  18  19
ATOM     19  C   UNL     1       1.626  -9.775   8.650  1.00  0.00     0.000 C 
BRANCH  19  20
ATOM     20  C   UNL     1       1.392  -8.470   9.428  1.00  0.00     0.006 C 
BRANCH  20  21
ATOM     21  C   UNL     1       2.699  -7.955  10.040  1.00  0.00     0.053 C 
BRANCH  21  22
ATOM     22  C   UNL     1       2.741  -6.459  10.004  1.00  0.00     0.041 C 
ATOM     23  O   UNL     1       1.683  -5.798   9.828  1.00  0.00    -0.550 OA
ATOM     24  O   UNL     1       3.959  -5.796  10.102  1.00  0.00    -0.550 OA
ENDBRANCH  21  22
ENDBRANCH  20  21
ENDBRANCH  19  20
ENDBRANCH  18  19
ENDBRANCH  17  18
ENDBRANCH  16  17
ENDBRANCH  15  16
ENDBRANCH  14  15
ENDBRANCH  13  14
ENDBRANCH   1  13
TORSDOF 20
ENDMDL
MODEL 2
REMARK VINA RESULT:    -3.072     16.737     19.058
REMARK INTER + INTRA:          -9.438
REMARK INTER:                  -6.577
REMARK INTRA:                  -2.861
REMARK UNBOUND:                -2.773
REMARK SMILES CCCCCCCCCCCCCCCCCCCCCC(=O)[O-]
REMARK SMILES IDX 12 1 11 2 10 3 9 4 8 5 7 6 6 7 5 8 4 9 3 10 2 11 1 12 13 13
REMARK SMILES IDX 14 14 15 15 16 16 17 17 18 18 19 19 20 20 21 21 22 22 23 23
REMARK SMILES IDX 24 24
REMARK H PARENT
REMARK Flexibility Score: inf
ROOT
ATOM      1  C   UNL     1      -5.306  -6.295  -7.062  1.00  0.00     0.000 C 
ENDROOT
BRANCH   1   2
ATOM      2  C   UNL     1      -5.684  -7.707  -6.581  1.00  0.00     0.000 C 
BRANCH   2   3
ATOM      3  C   UNL     1      -4.608  -8.753  -6.925  1.00  0.00     0.000 C 
BRANCH   3   4
ATOM      4  C   UNL     1      -4.886 -10.116  -6.254  1.00  0.00    -0.000 C 
BRANCH   4   5
ATOM      5  C   UNL     1      -5.741 -11.066  -7.112  1.00  0.00    -0.000 C 
BRANCH   5   6
ATOM      6  C   UNL     1      -6.120 -10.462  -8.474  1.00  0.00    -0.000 C 
BRANCH   6   7
ATOM      7  C   UNL     1      -5.381 -11.125  -9.652  1.00  0.00    -0.000 C 
BRANCH   7   8
ATOM      8  C   UNL     1      -4.055 -10.451 -10.057  1.00  0.00    -0.000 C 
BRANCH   8   9
ATOM      9  C   UNL     1      -2.786 -11.081  -9.452  1.00  0.00    -0.000 C 
BRANCH   9  10
ATOM     10  C   UNL     1      -1.727 -10.051  -9.002  1.00  0.00    -0.000 C 
BRANCH  10  11
ATOM     11  C   UNL     1      -0.291 -10.512  -9.299  1.00  0.00    -0.003 C 
ATOM     12  C   UNL     1       0.657  -9.321  -9.415  1.00  0.00     0.004 C 
ENDBRANCH  10  11
ENDBRANCH   9  10
ENDBRANCH   8   9
ENDBRANCH   7   8
ENDBRANCH   6   7
ENDBRANCH   5   6
ENDBRANCH   4   5
ENDBRANCH   3   4
ENDBRANCH   2   3
ENDBRANCH   1   2
BRANCH   1  13
ATOM     13  C   UNL     1      -6.409  -5.651  -7.917  1.00  0.00     0.000 C 
BRANCH  13  14
ATOM     14  C   UNL     1      -7.488  -6.661  -8.348  1.00  0.00     0.000 C 
BRANCH  14  15
ATOM     15  C   UNL     1      -8.923  -6.301  -7.910  1.00  0.00     0.000 C 
BRANCH  15  16
ATOM     16  C   UNL     1      -9.967  -7.425  -8.080  1.00  0.00     0.000 C 
BRANCH  16  17
ATOM     17  C   UNL     1      -9.392  -8.798  -8.477  1.00  0.00     0.000 C 
BRANCH  17  18
ATOM     18  C   UNL     1      -9.489  -9.837  -7.346  1.00  0.00     0.000 C 
BRANCH  18  19
ATOM     19  C   UNL     1      -9.545  -9.192  -5.951  1.00  0.00     0.000 C 
BRANCH  19  20
ATOM     20  C   UNL     1      -8.810 -10.016  -4.881  1.00  0.00     0.006 C 
BRANCH  20  21
ATOM     21  C   UNL     1      -7.905  -9.123  -4.025  1.00  0.00     0.053 C 
BRANCH  21  22
ATOM     22  C   UNL     1      -7.264  -9.920  -2.933  1.00  0.00     0.041 C 
ATOM     23  O   UNL     1      -6.013  -9.895  -2.778  1.00  0.00    -0.550 OA
ATOM     24  O   UNL     1      -8.041 -10.740  -2.123  1.00  0.00    -0.550 OA
ENDBRANCH  21  22
ENDBRANCH  20  21
ENDBRANCH  19  20
ENDBRANCH  18  19
ENDBRANCH  17  18
ENDBRANCH  16  17
ENDBRANCH  15  16
ENDBRANCH  14  15
ENDBRANCH  13  14
ENDBRANCH   1  13
TORSDOF 20
ENDMDL
MODEL 3
REMARK VINA RESULT:    -3.039      1.733      6.048
REMARK INTER + INTRA:          -9.365
REMARK INTER:                  -6.465
REMARK INTRA:                  -2.900
REMARK UNBOUND:                -2.773
REMARK SMILES CCCCCCCCCCCCCCCCCCCCCC(=O)[O-]
REMARK SMILES IDX 12 1 11 2 10 3 9 4 8 5 7 6 6 7 5 8 4 9 3 10 2 11 1 12 13 13
REMARK SMILES IDX 14 14 15 15 16 16 17 17 18 18 19 19 20 20 21 21 22 22 23 23
REMARK SMILES IDX 24 24
REMARK H PARENT
REMARK Flexibility Score: inf
ROOT
ATOM      1  C   UNL     1       5.015  -8.576   3.536  1.00  0.00     0.000 C 
ENDROOT
BRANCH   1   2
ATOM      2  C   UNL     1       4.854 -10.024   3.043  1.00  0.00     0.000 C 
BRANCH   2   3
ATOM      3  C   UNL     1       4.084 -10.905   4.045  1.00  0.00     0.000 C 
BRANCH   3   4
ATOM      4  C   UNL     1       4.874 -11.123   5.354  1.00  0.00    -0.000 C 
BRANCH   4   5
ATOM      5  C   UNL     1       4.021 -10.962   6.626  1.00  0.00    -0.000 C 
BRANCH   5   6
ATOM      6  C   UNL     1       3.245  -9.635   6.661  1.00  0.00    -0.000 C 
BRANCH   6   7
ATOM      7  C   UNL     1       3.827  -8.625   7.669  1.00  0.00    -0.000 C 
BRANCH   7   8
ATOM      8  C   UNL     1       2.940  -8.338   8.896  1.00  0.00    -0.000 C 
BRANCH   8   9
ATOM      9  C   UNL     1       2.838  -9.488   9.917  1.00  0.00    -0.000 C 
BRANCH   9  10
ATOM     10  C   UNL     1       1.436 -10.129  10.001  1.00  0.00    -0.000 C 
BRANCH  10  11
ATOM     11  C   UNL     1       0.424  -9.463   9.055  1.00  0.00    -0.003 C 
ATOM     12  C   UNL     1      -0.921  -9.253   9.746  1.00  0.00     0.004 C 
ENDBRANCH  10  11
ENDBRANCH   9  10
ENDBRANCH   8   9
ENDBRANCH   7   8
ENDBRANCH   6   7
ENDBRANCH   5   6
ENDBRANCH   4   5
ENDBRANCH   3   4
ENDBRANCH   2   3
ENDBRANCH   1   2
BRANCH   1  13
ATOM     13  C   UNL     1       6.452  -8.263   3.983  1.00  0.00     0.000 C 
BRANCH  13  14
ATOM     14  C   UNL     1       6.530  -7.818   5.454  1.00  0.00     0.000 C 
BRANCH  14  15
ATOM     15  C   UNL     1       7.737  -8.376   6.235  1.00  0.00     0.000 C 
BRANCH  15  16
ATOM     16  C   UNL     1       7.389  -9.363   7.371  1.00  0.00     0.000 C 
BRANCH  16  17
ATOM     17  C   UNL     1       8.360  -9.355   8.566  1.00  0.00     0.000 C 
BRANCH  17  18
ATOM     18  C   UNL     1       9.491  -8.322   8.411  1.00  0.00     0.000 C 
BRANCH  18  19
ATOM     19  C   UNL     1       9.825  -7.605   9.729  1.00  0.00     0.000 C 
BRANCH  19  20
ATOM     20  C   UNL     1       9.699  -6.077   9.628  1.00  0.00     0.006 C 
BRANCH  20  21
ATOM     21  C   UNL     1       9.197  -5.657   8.242  1.00  0.00     0.053 C 
BRANCH  21  22
ATOM     22  C   UNL     1       7.810  -5.103   8.331  1.00  0.00     0.041 C 
ATOM     23  O   UNL     1       7.612  -3.864   8.208  1.00  0.00    -0.550 OA
ATOM     24  O   UNL     1       6.742  -5.946   8.612  1.00  0.00    -0.550 OA
ENDBRANCH  21  22
ENDBRANCH  20  21
ENDBRANCH  19  20
ENDBRANCH  18  19
ENDBRANCH  17  18
ENDBRANCH  16  17
ENDBRANCH  15  16
ENDBRANCH  14  15
ENDBRANCH  13  14
ENDBRANCH   1  13
TORSDOF 20
ENDMDL
MODEL 4
REMARK VINA RESULT:    -2.899      1.579      5.583
REMARK INTER + INTRA:          -9.061
REMARK INTER:                  -6.287
REMARK INTRA:                  -2.774
REMARK UNBOUND:                -2.773
REMARK SMILES CCCCCCCCCCCCCCCCCCCCCC(=O)[O-]
REMARK SMILES IDX 12 1 11 2 10 3 9 4 8 5 7 6 6 7 5 8 4 9 3 10 2 11 1 12 13 13
REMARK SMILES IDX 14 14 15 15 16 16 17 17 18 18 19 19 20 20 21 21 22 22 23 23
REMARK SMILES IDX 24 24
REMARK H PARENT
REMARK Flexibility Score: inf
ROOT
ATOM      1  C   UNL     1       5.156  -8.543   3.798  1.00  0.00     0.000 C 
ENDROOT
BRANCH   1   2
ATOM      2  C   UNL     1       4.962  -9.925   3.153  1.00  0.00     0.000 C 
BRANCH   2   3
ATOM      3  C   UNL     1       4.634 -11.017   4.188  1.00  0.00     0.000 C 
BRANCH   3   4
ATOM      4  C   UNL     1       3.167 -10.946   4.664  1.00  0.00    -0.000 C 
BRANCH   4   5
ATOM      5  C   UNL     1       3.009 -11.009   6.195  1.00  0.00    -0.000 C 
BRANCH   5   6
ATOM      6  C   UNL     1       1.788 -10.225   6.702  1.00  0.00    -0.000 C 
BRANCH   6   7
ATOM      7  C   UNL     1       1.258 -10.746   8.051  1.00  0.00    -0.000 C 
BRANCH   7   8
ATOM      8  C   UNL     1       1.726  -9.957   9.290  1.00  0.00    -0.000 C 
BRANCH   8   9
ATOM      9  C   UNL     1       1.113  -8.553   9.446  1.00  0.00    -0.000 C 
BRANCH   9  10
ATOM     10  C   UNL     1       2.095  -7.401   9.142  1.00  0.00    -0.000 C 
BRANCH  10  11
ATOM     11  C   UNL     1       3.564  -7.851   9.185  1.00  0.00    -0.003 C 
ATOM     12  C   UNL     1       4.429  -6.839   9.933  1.00  0.00     0.004 C 
ENDBRANCH  10  11
ENDBRANCH   9  10
ENDBRANCH   8   9
ENDBRANCH   7   8
ENDBRANCH   6   7
ENDBRANCH   5   6
ENDBRANCH   4   5
ENDBRANCH   3   4
ENDBRANCH   2   3
ENDBRANCH   1   2
BRANCH   1  13
ATOM     13  C   UNL     1       6.634  -8.232   4.087  1.00  0.00     0.000 C 
BRANCH  13  14
ATOM     14  C   UNL     1       6.865  -7.746   5.529  1.00  0.00     0.000 C 
BRANCH  14  15
ATOM     15  C   UNL     1       5.918  -8.362   6.579  1.00  0.00     0.000 C 
BRANCH  15  16
ATOM     16  C   UNL     1       6.295  -9.782   7.055  1.00  0.00     0.000 C 
BRANCH  16  17
ATOM     17  C   UNL     1       7.641  -9.888   7.796  1.00  0.00     0.000 C 
BRANCH  17  18
ATOM     18  C   UNL     1       7.740  -8.929   8.996  1.00  0.00     0.000 C 
BRANCH  18  19
ATOM     19  C   UNL     1       9.029  -8.091   8.982  1.00  0.00     0.000 C 
BRANCH  19  20
ATOM     20  C   UNL     1       8.848  -6.704   9.619  1.00  0.00     0.006 C 
BRANCH  20  21
ATOM     21  C   UNL     1       9.144  -5.591   8.608  1.00  0.00     0.053 C 
BRANCH  21  22
ATOM     22  C   UNL     1       7.920  -4.766   8.361  1.00  0.00     0.041 C 
ATOM     23  O   UNL     1       6.830  -5.322   8.057  1.00  0.00    -0.550 OA
ATOM     24  O   UNL     1       7.996  -3.379   8.407  1.00  0.00    -0.550 OA
ENDBRANCH  21  22
ENDBRANCH  20  21
ENDBRANCH  19  20
ENDBRANCH  18  19
ENDBRANCH  17  18
ENDBRANCH  16  17
ENDBRANCH  15  16
ENDBRANCH  14  15
ENDBRANCH  13  14
ENDBRANCH   1  13
TORSDOF 20
ENDMDL
MODEL 5
REMARK VINA RESULT:    -2.825      2.062      2.337
REMARK INTER + INTRA:          -8.902
REMARK INTER:                  -6.607
REMARK INTRA:                  -2.295
REMARK UNBOUND:                -2.773
REMARK SMILES CCCCCCCCCCCCCCCCCCCCCC(=O)[O-]
REMARK SMILES IDX 12 1 11 2 10 3 9 4 8 5 7 6 6 7 5 8 4 9 3 10 2 11 1 12 13 13
REMARK SMILES IDX 14 14 15 15 16 16 17 17 18 18 19 19 20 20 21 21 22 22 23 23
REMARK SMILES IDX 24 24
REMARK H PARENT
REMARK Flexibility Score: inf
ROOT
ATOM      1  C   UNL     1       6.359  -8.054   3.788  1.00  0.00     0.000 C 
ENDROOT
BRANCH   1   2
ATOM      2  C   UNL     1       7.191  -8.234   5.069  1.00  0.00     0.000 C 
BRANCH   2   3
ATOM      3  C   UNL     1       6.318  -8.534   6.301  1.00  0.00     0.000 C 
BRANCH   3   4
ATOM      4  C   UNL     1       6.728  -9.849   6.999  1.00  0.00    -0.000 C 
BRANCH   4   5
ATOM      5  C   UNL     1       6.171  -9.992   8.427  1.00  0.00    -0.000 C 
BRANCH   5   6
ATOM      6  C   UNL     1       6.500  -8.784   9.320  1.00  0.00    -0.000 C 
BRANCH   6   7
ATOM      7  C   UNL     1       7.912  -8.856   9.932  1.00  0.00    -0.000 C 
BRANCH   7   8
ATOM      8  C   UNL     1       9.072  -8.756   8.921  1.00  0.00    -0.000 C 
BRANCH   8   9
ATOM      9  C   UNL     1       9.621  -7.334   8.690  1.00  0.00    -0.000 C 
BRANCH   9  10
ATOM     10  C   UNL     1       8.714  -6.213   9.242  1.00  0.00    -0.000 C 
BRANCH  10  11
ATOM     11  C   UNL     1       7.916  -5.502   8.137  1.00  0.00    -0.003 C 
ATOM     12  C   UNL     1       7.892  -3.992   8.360  1.00  0.00     0.004 C 
ENDBRANCH  10  11
ENDBRANCH   9  10
ENDBRANCH   8   9
ENDBRANCH   7   8
ENDBRANCH   6   7
ENDBRANCH   5   6
ENDBRANCH   4   5
ENDBRANCH   3   4
ENDBRANCH   2   3
ENDBRANCH   1   2
BRANCH   1  13
ATOM     13  C   UNL     1       4.952  -8.662   3.911  1.00  0.00     0.000 C 
BRANCH  13  14
ATOM     14  C   UNL     1       4.884 -10.105   3.383  1.00  0.00     0.000 C 
BRANCH  14  15
ATOM     15  C   UNL     1       4.260 -11.123   4.360  1.00  0.00     0.000 C 
BRANCH  15  16
ATOM     16  C   UNL     1       3.047 -10.607   5.165  1.00  0.00     0.000 C 
BRANCH  16  17
ATOM     17  C   UNL     1       3.240 -10.574   6.692  1.00  0.00     0.000 C 
BRANCH  17  18
ATOM     18  C   UNL     1       2.343  -9.534   7.386  1.00  0.00     0.000 C 
BRANCH  18  19
ATOM     19  C   UNL     1       2.266  -9.737   8.908  1.00  0.00     0.000 C 
BRANCH  19  20
ATOM     20  C   UNL     1       0.948 -10.385   9.359  1.00  0.00     0.006 C 
BRANCH  20  21
ATOM     21  C   UNL     1      -0.086  -9.321   9.741  1.00  0.00     0.053 C 
BRANCH  21  22
ATOM     22  C   UNL     1      -1.375  -9.557   9.016  1.00  0.00     0.041 C 
ATOM     23  O   UNL     1      -1.437 -10.414   8.093  1.00  0.00    -0.550 OA
ATOM     24  O   UNL     1      -2.492  -8.787   9.318  1.00  0.00    -0.550 OA
ENDBRANCH  21  22
ENDBRANCH  20  21
ENDBRANCH  19  20
ENDBRANCH  18  19
ENDBRANCH  17  18
ENDBRANCH  16  17
ENDBRANCH  15  16
ENDBRANCH  14  15
ENDBRANCH  13  14
ENDBRANCH   1  13
TORSDOF 20
ENDMDL
MODEL 6
REMARK VINA RESULT:    -2.757      2.320      3.407
REMARK INTER + INTRA:          -8.754
REMARK INTER:                  -6.180
REMARK INTRA:                  -2.574
REMARK UNBOUND:                -2.773
REMARK SMILES CCCCCCCCCCCCCCCCCCCCCC(=O)[O-]
REMARK SMILES IDX 12 1 11 2 10 3 9 4 8 5 7 6 6 7 5 8 4 9 3 10 2 11 1 12 13 13
REMARK SMILES IDX 14 14 15 15 16 16 17 17 18 18 19 19 20 20 21 21 22 22 23 23
REMARK SMILES IDX 24 24
REMARK H PARENT
REMARK Flexibility Score: inf
ROOT
ATOM      1  C   UNL     1       6.416  -8.786   5.252  1.00  0.00     0.000 C 
ENDROOT
BRANCH   1   2
ATOM      2  C   UNL     1       6.345  -7.489   6.077  1.00  0.00     0.000 C 
BRANCH   2   3
ATOM      3  C   UNL     1       7.514  -7.359   7.071  1.00  0.00     0.000 C 
BRANCH   3   4
ATOM      4  C   UNL     1       7.521  -5.990   7.785  1.00  0.00    -0.000 C 
BRANCH   4   5
ATOM      5  C   UNL     1       6.736  -5.979   9.110  1.00  0.00    -0.000 C 
BRANCH   5   6
ATOM      6  C   UNL     1       7.246  -7.024  10.115  1.00  0.00    -0.000 C 
BRANCH   6   7
ATOM      7  C   UNL     1       8.782  -7.149  10.125  1.00  0.00    -0.000 C 
BRANCH   7   8
ATOM      8  C   UNL     1       9.330  -8.543   9.763  1.00  0.00    -0.000 C 
BRANCH   8   9
ATOM      9  C   UNL     1       8.319  -9.699   9.887  1.00  0.00    -0.000 C 
BRANCH   9  10
ATOM     10  C   UNL     1       8.276 -10.631   8.657  1.00  0.00    -0.000 C 
BRANCH  10  11
ATOM     11  C   UNL     1       6.842 -10.984   8.233  1.00  0.00    -0.003 C 
ATOM     12  C   UNL     1       5.817 -10.184   9.033  1.00  0.00     0.004 C 
ENDBRANCH  10  11
ENDBRANCH   9  10
ENDBRANCH   8   9
ENDBRANCH   7   8
ENDBRANCH   6   7
ENDBRANCH   5   6
ENDBRANCH   4   5
ENDBRANCH   3   4
ENDBRANCH   2   3
ENDBRANCH   1   2
BRANCH   1  13
ATOM     13  C   UNL     1       5.671  -8.672   3.913  1.00  0.00     0.000 C 
BRANCH  13  14
ATOM     14  C   UNL     1       4.573  -9.739   3.755  1.00  0.00     0.000 C 
BRANCH  14  15
ATOM     15  C   UNL     1       4.508 -10.775   4.896  1.00  0.00     0.000 C 
BRANCH  15  16
ATOM     16  C   UNL     1       3.280 -10.658   5.824  1.00  0.00     0.000 C 
BRANCH  16  17
ATOM     17  C   UNL     1       3.274  -9.427   6.750  1.00  0.00     0.000 C 
BRANCH  17  18
ATOM     18  C   UNL     1       2.009  -9.343   7.623  1.00  0.00     0.000 C 
BRANCH  18  19
ATOM     19  C   UNL     1       2.042 -10.316   8.812  1.00  0.00     0.000 C 
BRANCH  19  20
ATOM     20  C   UNL     1       0.643 -10.636   9.363  1.00  0.00     0.006 C 
BRANCH  20  21
ATOM     21  C   UNL     1      -0.211  -9.368   9.464  1.00  0.00     0.053 C 
BRANCH  21  22
ATOM     22  C   UNL     1      -1.615  -9.645   9.025  1.00  0.00     0.041 C 
ATOM     23  O   UNL     1      -2.540  -8.837   9.309  1.00  0.00    -0.550 OA
ATOM     24  O   UNL     1      -1.913 -10.825   8.354  1.00  0.00    -0.550 OA
ENDBRANCH  21  22
ENDBRANCH  20  21
ENDBRANCH  19  20
ENDBRANCH  18  19
ENDBRANCH  17  18
ENDBRANCH  16  17
ENDBRANCH  15  16
ENDBRANCH  14  15
ENDBRANCH  13  14
ENDBRANCH   1  13
TORSDOF 20
ENDMDL
MODEL 7
REMARK VINA RESULT:    -2.735      1.330      2.204
REMARK INTER + INTRA:          -8.706
REMARK INTER:                  -5.934
REMARK INTRA:                  -2.772
REMARK UNBOUND:                -2.773
REMARK SMILES CCCCCCCCCCCCCCCCCCCCCC(=O)[O-]
REMARK SMILES IDX 12 1 11 2 10 3 9 4 8 5 7 6 6 7 5 8 4 9 3 10 2 11 1 12 13 13
REMARK SMILES IDX 14 14 15 15 16 16 17 17 18 18 19 19 20 20 21 21 22 22 23 23
REMARK SMILES IDX 24 24
REMARK H PARENT
REMARK Flexibility Score: inf
ROOT
ATOM      1  C   UNL     1       5.365  -8.484   6.098  1.00  0.00     0.000 C 
ENDROOT
BRANCH   1   2
ATOM      2  C   UNL     1       6.756  -7.829   6.062  1.00  0.00     0.000 C 
BRANCH   2   3
ATOM      3  C   UNL     1       7.881  -8.814   6.432  1.00  0.00     0.000 C 
BRANCH   3   4
ATOM      4  C   UNL     1       7.617  -9.519   7.780  1.00  0.00    -0.000 C 
BRANCH   4   5
ATOM      5  C   UNL     1       8.606  -9.121   8.890  1.00  0.00    -0.000 C 
BRANCH   5   6
ATOM      6  C   UNL     1       7.918  -8.451  10.091  1.00  0.00    -0.000 C 
BRANCH   6   7
ATOM      7  C   UNL     1       6.393  -8.323   9.915  1.00  0.00    -0.000 C 
BRANCH   7   8
ATOM      8  C   UNL     1       5.829  -6.898  10.086  1.00  0.00    -0.000 C 
BRANCH   8   9
ATOM      9  C   UNL     1       6.871  -5.766  10.007  1.00  0.00    -0.000 C 
BRANCH   9  10
ATOM     10  C   UNL     1       7.132  -5.251   8.575  1.00  0.00    -0.000 C 
BRANCH  10  11
ATOM     11  C   UNL     1       8.615  -5.333   8.179  1.00  0.00    -0.003 C 
ATOM     12  C   UNL     1       9.520  -5.225   9.404  1.00  0.00     0.004 C 
ENDBRANCH  10  11
ENDBRANCH   9  10
ENDBRANCH   8   9
ENDBRANCH   7   8
ENDBRANCH   6   7
ENDBRANCH   5   6
ENDBRANCH   4   5
ENDBRANCH   3   4
ENDBRANCH   2   3
ENDBRANCH   1   2
BRANCH   1  13
ATOM     13  C   UNL     1       5.209  -9.589   5.041  1.00  0.00     0.000 C 
BRANCH  13  14
ATOM     14  C   UNL     1       5.044 -10.986   5.665  1.00  0.00     0.000 C 
BRANCH  14  15
ATOM     15  C   UNL     1       3.852 -11.125   6.634  1.00  0.00     0.000 C 
BRANCH  15  16
ATOM     16  C   UNL     1       2.674 -10.161   6.375  1.00  0.00     0.000 C 
BRANCH  16  17
ATOM     17  C   UNL     1       1.274 -10.792   6.488  1.00  0.00     0.000 C 
BRANCH  17  18
ATOM     18  C   UNL     1       0.853 -11.057   7.945  1.00  0.00     0.000 C 
BRANCH  18  19
ATOM     19  C   UNL     1      -0.345 -10.199   8.382  1.00  0.00     0.000 C 
BRANCH  19  20
ATOM     20  C   UNL     1      -0.073  -9.401   9.667  1.00  0.00     0.006 C 
BRANCH  20  21
ATOM     21  C   UNL     1       1.430  -9.172   9.864  1.00  0.00     0.053 C 
BRANCH  21  22
ATOM     22  C   UNL     1       1.798  -7.766   9.506  1.00  0.00     0.041 C 
ATOM     23  O   UNL     1       2.734  -7.541   8.693  1.00  0.00    -0.550 OA
ATOM     24  O   UNL     1       1.147  -6.701  10.118  1.00  0.00    -0.550 OA
ENDBRANCH  21  22
ENDBRANCH  20  21
ENDBRANCH  19  20
ENDBRANCH  18  19
ENDBRANCH  17  18
ENDBRANCH  16  17
ENDBRANCH  15  16
ENDBRANCH  14  15
ENDBRANCH  13  14
ENDBRANCH   1  13
TORSDOF 20
ENDMDL
MODEL 8
REMARK VINA RESULT:    -2.691      2.283      3.483
REMARK INTER + INTRA:          -8.610
REMARK INTER:                  -6.151
REMARK INTRA:                  -2.460
REMARK UNBOUND:                -2.773
REMARK SMILES CCCCCCCCCCCCCCCCCCCCCC(=O)[O-]
REMARK SMILES IDX 12 1 11 2 10 3 9 4 8 5 7 6 6 7 5 8 4 9 3 10 2 11 1 12 13 13
REMARK SMILES IDX 14 14 15 15 16 16 17 17 18 18 19 19 20 20 21 21 22 22 23 23
REMARK SMILES IDX 24 24
REMARK H PARENT
REMARK Flexibility Score: inf
ROOT
ATOM      1  C   UNL     1       4.735 -10.802   3.946  1.00  0.00     0.000 C 
ENDROOT
BRANCH   1   2
ATOM      2  C   UNL     1       4.216  -9.483   3.347  1.00  0.00     0.000 C 
BRANCH   2   3
ATOM      3  C   UNL     1       5.351  -8.485   3.050  1.00  0.00     0.000 C 
BRANCH   3   4
ATOM      4  C   UNL     1       6.524  -8.625   4.045  1.00  0.00    -0.000 C 
BRANCH   4   5
ATOM      5  C   UNL     1       6.337  -7.813   5.340  1.00  0.00    -0.000 C 
BRANCH   5   6
ATOM      6  C   UNL     1       7.319  -8.224   6.449  1.00  0.00    -0.000 C 
BRANCH   6   7
ATOM      7  C   UNL     1       6.986  -7.588   7.812  1.00  0.00    -0.000 C 
BRANCH   7   8
ATOM      8  C   UNL     1       7.655  -8.256   9.030  1.00  0.00    -0.000 C 
BRANCH   8   9
ATOM      9  C   UNL     1       9.075  -7.754   9.357  1.00  0.00    -0.000 C 
BRANCH   9  10
ATOM     10  C   UNL     1       9.121  -6.311   9.903  1.00  0.00    -0.000 C 
BRANCH  10  11
ATOM     11  C   UNL     1       9.632  -5.301   8.863  1.00  0.00    -0.003 C 
ATOM     12  C   UNL     1       8.475  -4.550   8.208  1.00  0.00     0.004 C 
ENDBRANCH  10  11
ENDBRANCH   9  10
ENDBRANCH   8   9
ENDBRANCH   7   8
ENDBRANCH   6   7
ENDBRANCH   5   6
ENDBRANCH   4   5
ENDBRANCH   3   4
ENDBRANCH   2   3
ENDBRANCH   1   2
BRANCH   1  13
ATOM     13  C   UNL     1       4.091 -11.124   5.304  1.00  0.00     0.000 C 
BRANCH  13  14
ATOM     14  C   UNL     1       5.110 -11.125   6.456  1.00  0.00     0.000 C 
BRANCH  14  15
ATOM     15  C   UNL     1       4.644 -10.397   7.734  1.00  0.00     0.000 C 
BRANCH  15  16
ATOM     16  C   UNL     1       3.786  -9.135   7.498  1.00  0.00     0.000 C 
BRANCH  16  17
ATOM     17  C   UNL     1       2.920  -8.700   8.695  1.00  0.00     0.000 C 
BRANCH  17  18
ATOM     18  C   UNL     1       2.729  -9.819   9.734  1.00  0.00     0.000 C 
BRANCH  18  19
ATOM     19  C   UNL     1       1.322 -10.436   9.690  1.00  0.00     0.000 C 
BRANCH  19  20
ATOM     20  C   UNL     1       0.298  -9.543   8.971  1.00  0.00     0.006 C 
BRANCH  20  21
ATOM     21  C   UNL     1      -0.697 -10.386   8.167  1.00  0.00     0.053 C 
BRANCH  21  22
ATOM     22  C   UNL     1      -0.308 -10.421   6.722  1.00  0.00     0.041 C 
ATOM     23  O   UNL     1      -1.029 -11.028   5.884  1.00  0.00    -0.550 OA
ATOM     24  O   UNL     1       0.884  -9.837   6.309  1.00  0.00    -0.550 OA
ENDBRANCH  21  22
ENDBRANCH  20  21
ENDBRANCH  19  20
ENDBRANCH  18  19
ENDBRANCH  17  18
ENDBRANCH  16  17
ENDBRANCH  15  16
ENDBRANCH  14  15
ENDBRANCH  13  14
ENDBRANCH   1  13
TORSDOF 20
ENDMDL
MODEL 9
REMARK VINA RESULT:    -0.825     16.236     19.482
REMARK INTER + INTRA:          -4.562
REMARK INTER:                  -2.389
REMARK INTRA:                  -2.173
REMARK UNBOUND:                -2.773
REMARK SMILES CCCCCCCCCCCCCCCCCCCCCC(=O)[O-]
REMARK SMILES IDX 12 1 11 2 10 3 9 4 8 5 7 6 6 7 5 8 4 9 3 10 2 11 1 12 13 13
REMARK SMILES IDX 14 14 15 15 16 16 17 17 18 18 19 19 20 20 21 21 22 22 23 23
REMARK SMILES IDX 24 24
REMARK H PARENT
REMARK Flexibility Score: inf
ROOT
ATOM      1  C   UNL     1      -4.639 -10.374  -8.047  1.00  0.00     0.000 C 
ENDROOT
BRANCH   1   2
ATOM      2  C   UNL     1      -3.799  -9.289  -7.351  1.00  0.00     0.000 C 
BRANCH   2   3
ATOM      3  C   UNL     1      -4.045  -9.238  -5.832  1.00  0.00     0.000 C 
BRANCH   3   4
ATOM      4  C   UNL     1      -5.291 -10.050  -5.416  1.00  0.00    -0.000 C 
BRANCH   4   5
ATOM      5  C   UNL     1      -6.395  -9.199  -4.762  1.00  0.00    -0.000 C 
BRANCH   5   6
ATOM      6  C   UNL     1      -7.776  -9.875  -4.807  1.00  0.00    -0.000 C 
BRANCH   6   7
ATOM      7  C   UNL     1      -8.900  -8.981  -4.251  1.00  0.00    -0.000 C 
BRANCH   7   8
ATOM      8  C   UNL     1      -9.695  -9.581  -3.074  1.00  0.00    -0.000 C 
BRANCH   8   9
ATOM      9  C   UNL     1      -9.297 -11.016  -2.676  1.00  0.00    -0.000 C 
BRANCH   9  10
ATOM     10  C   UNL     1      -8.394 -11.094  -1.426  1.00  0.00    -0.000 C 
BRANCH  10  11
ATOM     11  C   UNL     1      -9.200 -11.125  -0.118  1.00  0.00    -0.003 C 
ATOM     12  C   UNL     1      -8.325 -10.753   1.077  1.00  0.00     0.004 C 
ENDBRANCH  10  11
ENDBRANCH   9  10
ENDBRANCH   8   9
ENDBRANCH   7   8
ENDBRANCH   6   7
ENDBRANCH   5   6
ENDBRANCH   4   5
ENDBRANCH   3   4
ENDBRANCH   2   3
ENDBRANCH   1   2
BRANCH   1  13
ATOM     13  C   UNL     1      -5.224  -9.896  -9.386  1.00  0.00     0.000 C 
BRANCH  13  14
ATOM     14  C   UNL     1      -6.335 -10.822  -9.910  1.00  0.00     0.000 C 
BRANCH  14  15
ATOM     15  C   UNL     1      -7.764 -10.256  -9.779  1.00  0.00     0.000 C 
BRANCH  15  16
ATOM     16  C   UNL     1      -8.316 -10.185  -8.339  1.00  0.00     0.000 C 
BRANCH  16  17
ATOM     17  C   UNL     1      -9.780  -9.722  -8.221  1.00  0.00     0.000 C 
BRANCH  17  18
ATOM     18  C   UNL     1     -10.072  -8.448  -9.035  1.00  0.00     0.000 C 
BRANCH  18  19
ATOM     19  C   UNL     1      -9.431  -7.192  -8.423  1.00  0.00     0.000 C 
BRANCH  19  20
ATOM     20  C   UNL     1      -8.575  -6.406  -9.429  1.00  0.00     0.006 C 
BRANCH  20  21
ATOM     21  C   UNL     1      -7.092  -6.453  -9.044  1.00  0.00     0.053 C 
BRANCH  21  22
ATOM     22  C   UNL     1      -6.863  -5.739  -7.749  1.00  0.00     0.041 C 
ATOM     23  O   UNL     1      -7.639  -4.813  -7.388  1.00  0.00    -0.550 OA
ATOM     24  O   UNL     1      -5.757  -6.052  -6.969  1.00  0.00    -0.550 OA
ENDBRANCH  21  22
ENDBRANCH  20  21
ENDBRANCH  19  20
ENDBRANCH  18  19
ENDBRANCH  17  18
ENDBRANCH  16  17
ENDBRANCH  15  16
ENDBRANCH  14  15
ENDBRANCH  13  14
ENDBRANCH   1  13
TORSDOF 20
ENDMDL
