MODEL 1
REMARK VINA RESULT:    -4.248      0.000      0.000
REMARK INTER + INTRA:          -8.896
REMARK INTER:                  -7.973
REMARK INTRA:                  -0.923
REMARK UNBOUND:                -0.923
REMARK SMILES CCCCCCCCCCCCCC=CC=CC(=O)OC
REMARK SMILES IDX 9 1 8 2 7 3 6 4 5 5 4 6 3 7 2 8 1 9 10 10 11 11 12 12 13 13
REMARK SMILES IDX 14 14 15 15 16 16 17 17 18 18 19 19 20 20 21 21
REMARK H PARENT
REMARK Flexibility Score: inf
ROOT
ATOM      1  C   UNL     1       6.879  -5.693 -12.753  1.00  0.00     0.000 C 
ENDROOT
BRANCH   1   2
ATOM      2  C   UNL     1       5.892  -6.868 -12.637  1.00  0.00     0.000 C 
BRANCH   2   3
ATOM      3  C   UNL     1       6.080  -7.677 -11.340  1.00  0.00     0.000 C 
BRANCH   3   4
ATOM      4  C   UNL     1       5.244  -8.972 -11.248  1.00  0.00    -0.000 C 
BRANCH   4   5
ATOM      5  C   UNL     1       3.909  -8.844 -10.494  1.00  0.00    -0.000 C 
BRANCH   5   6
ATOM      6  C   UNL     1       3.832  -7.580  -9.624  1.00  0.00    -0.000 C 
BRANCH   6   7
ATOM      7  C   UNL     1       2.489  -6.861  -9.808  1.00  0.00    -0.000 C 
BRANCH   7   8
ATOM      8  C   UNL     1       1.353  -7.868 -10.015  1.00  0.00    -0.003 C 
ATOM      9  C   UNL     1      -0.007  -7.223  -9.761  1.00  0.00     0.004 C 
ENDBRANCH   7   8
ENDBRANCH   6   7
ENDBRANCH   5   6
ENDBRANCH   4   5
ENDBRANCH   3   4
ENDBRANCH   2   3
ENDBRANCH   1   2
BRANCH   1  10
ATOM     10  C   UNL     1       8.190  -6.090 -13.446  1.00  0.00     0.000 C 
BRANCH  10  11
ATOM     11  C   UNL     1       9.053  -4.878 -13.826  1.00  0.00     0.000 C 
BRANCH  11  12
ATOM     12  C   UNL     1       8.203  -3.596 -13.870  1.00  0.00     0.004 C 
BRANCH  12  13
ATOM     13  C   UNL     1       9.067  -2.342 -14.064  1.00  0.00     0.027 C 
BRANCH  13  14
ATOM     14  C   UNL     1       8.234  -1.104 -14.266  1.00  0.00    -0.027 C 
ATOM     15  C   UNL     1       8.377  -0.282 -15.313  1.00  0.00    -0.004 C 
BRANCH  15  16
ATOM     16  C   UNL     1       9.411  -0.454 -16.360  1.00  0.00     0.007 C 
ATOM     17  C   UNL     1       9.568   0.393 -17.390  1.00  0.00     0.093 C 
BRANCH  17  18
ATOM     18  C   UNL     1       8.726   1.583 -17.610  1.00  0.00     0.330 C 
ATOM     19  O   UNL     1       7.595   1.433 -18.140  1.00  0.00    -0.247 OA
BRANCH  18  20
ATOM     20  O   UNL     1       9.152   2.875 -17.286  1.00  0.00    -0.466 OA
ATOM     21  C   UNL     1       8.645   3.626 -16.186  1.00  0.00     0.282 C 
ENDBRANCH  18  20
ENDBRANCH  17  18
ENDBRANCH  15  16
ENDBRANCH  13  14
ENDBRANCH  12  13
ENDBRANCH  11  12
ENDBRANCH  10  11
ENDBRANCH   1  10
TORSDOF 15
ENDMDL
MODEL 2
REMARK VINA RESULT:    -3.890      4.352     10.461
REMARK INTER + INTRA:          -8.224
REMARK INTER:                  -7.279
REMARK INTRA:                  -0.945
REMARK UNBOUND:                -0.923
REMARK SMILES CCCCCCCCCCCCCC=CC=CC(=O)OC
REMARK SMILES IDX 9 1 8 2 7 3 6 4 5 5 4 6 3 7 2 8 1 9 10 10 11 11 12 12 13 13
REMARK SMILES IDX 14 14 15 15 16 16 17 17 18 18 19 19 20 20 21 21
REMARK H PARENT
REMARK Flexibility Score: inf
ROOT
ATOM      1  C   UNL     1       5.258  -3.282 -13.294  1.00  0.00     0.000 C 
ENDROOT
BRANCH   1   2
ATOM      2  C   UNL     1       6.026  -1.973 -13.544  1.00  0.00     0.000 C 
BRANCH   2   3
ATOM      3  C   UNL     1       7.499  -2.210 -13.923  1.00  0.00     0.000 C 
BRANCH   3   4
ATOM      4  C   UNL     1       8.316  -0.933 -14.218  1.00  0.00    -0.000 C 
BRANCH   4   5
ATOM      5  C   UNL     1       8.918  -0.846 -15.631  1.00  0.00    -0.000 C 
BRANCH   5   6
ATOM      6  C   UNL     1       8.484   0.417 -16.390  1.00  0.00    -0.000 C 
BRANCH   6   7
ATOM      7  C   UNL     1       9.605   0.927 -17.304  1.00  0.00    -0.000 C 
BRANCH   7   8
ATOM      8  C   UNL     1       9.519   2.446 -17.484  1.00  0.00    -0.003 C 
ATOM      9  C   UNL     1       8.766   3.095 -16.326  1.00  0.00     0.004 C 
ENDBRANCH   7   8
ENDBRANCH   6   7
ENDBRANCH   5   6
ENDBRANCH   4   5
ENDBRANCH   3   4
ENDBRANCH   2   3
ENDBRANCH   1   2
BRANCH   1  10
ATOM     10  C   UNL     1       3.879  -3.294 -13.969  1.00  0.00     0.000 C 
BRANCH  10  11
ATOM     11  C   UNL     1       3.186  -4.661 -13.881  1.00  0.00     0.000 C 
BRANCH  11  12
ATOM     12  C   UNL     1       4.095  -5.771 -14.438  1.00  0.00     0.004 C 
BRANCH  12  13
ATOM     13  C   UNL     1       4.257  -6.931 -13.447  1.00  0.00     0.027 C 
BRANCH  13  14
ATOM     14  C   UNL     1       5.477  -6.770 -12.579  1.00  0.00    -0.027 C 
ATOM     15  C   UNL     1       5.837  -7.655 -11.642  1.00  0.00    -0.004 C 
BRANCH  15  16
ATOM     16  C   UNL     1       5.048  -8.862 -11.302  1.00  0.00     0.007 C 
ATOM     17  C   UNL     1       3.988  -8.844 -10.478  1.00  0.00     0.093 C 
BRANCH  17  18
ATOM     18  C   UNL     1       3.492  -7.629  -9.804  1.00  0.00     0.330 C 
ATOM     19  O   UNL     1       4.003  -7.299  -8.702  1.00  0.00    -0.247 OA
BRANCH  18  20
ATOM     20  O   UNL     1       2.452  -6.853 -10.324  1.00  0.00    -0.466 OA
ATOM     21  C   UNL     1       1.071  -7.140 -10.123  1.00  0.00     0.282 C 
ENDBRANCH  18  20
ENDBRANCH  17  18
ENDBRANCH  15  16
ENDBRANCH  13  14
ENDBRANCH  12  13
ENDBRANCH  11  12
ENDBRANCH  10  11
ENDBRANCH   1  10
TORSDOF 15
ENDMDL
MODEL 3
REMARK VINA RESULT:    -3.785      4.682     11.078
REMARK INTER + INTRA:          -8.028
REMARK INTER:                  -7.438
REMARK INTRA:                  -0.590
REMARK UNBOUND:                -0.923
REMARK SMILES CCCCCCCCCCCCCC=CC=CC(=O)OC
REMARK SMILES IDX 9 1 8 2 7 3 6 4 5 5 4 6 3 7 2 8 1 9 10 10 11 11 12 12 13 13
REMARK SMILES IDX 14 14 15 15 16 16 17 17 18 18 19 19 20 20 21 21
REMARK H PARENT
REMARK Flexibility Score: inf
ROOT
ATOM      1  C   UNL     1       8.223  -3.530 -13.863  1.00  0.00     0.000 C 
ENDROOT
BRANCH   1   2
ATOM      2  C   UNL     1       9.097  -2.282 -14.079  1.00  0.00     0.000 C 
BRANCH   2   3
ATOM      3  C   UNL     1       8.279  -0.978 -14.094  1.00  0.00     0.000 C 
BRANCH   3   4
ATOM      4  C   UNL     1       8.073  -0.348 -15.489  1.00  0.00    -0.000 C 
BRANCH   4   5
ATOM      5  C   UNL     1       9.362  -0.023 -16.264  1.00  0.00    -0.000 C 
BRANCH   5   6
ATOM      6  C   UNL     1       9.109   0.273 -17.750  1.00  0.00    -0.000 C 
BRANCH   6   7
ATOM      7  C   UNL     1       8.631   1.717 -17.954  1.00  0.00    -0.000 C 
BRANCH   7   8
ATOM      8  C   UNL     1       9.417   2.685 -17.064  1.00  0.00    -0.003 C 
ATOM      9  C   UNL     1       8.485   3.464 -16.140  1.00  0.00     0.004 C 
ENDBRANCH   7   8
ENDBRANCH   6   7
ENDBRANCH   5   6
ENDBRANCH   4   5
ENDBRANCH   3   4
ENDBRANCH   2   3
ENDBRANCH   1   2
BRANCH   1  10
ATOM     10  C   UNL     1       9.041  -4.829 -13.860  1.00  0.00     0.000 C 
BRANCH  10  11
ATOM     11  C   UNL     1       8.166  -6.083 -13.717  1.00  0.00     0.000 C 
BRANCH  11  12
ATOM     12  C   UNL     1       7.463  -6.104 -12.348  1.00  0.00     0.004 C 
BRANCH  12  13
ATOM     13  C   UNL     1       6.101  -6.809 -12.413  1.00  0.00     0.027 C 
BRANCH  13  14
ATOM     14  C   UNL     1       5.965  -7.878 -11.362  1.00  0.00    -0.027 C 
ATOM     15  C   UNL     1       4.827  -8.119 -10.699  1.00  0.00    -0.004 C 
BRANCH  15  16
ATOM     16  C   UNL     1       3.589  -7.323 -10.871  1.00  0.00     0.007 C 
ATOM     17  C   UNL     1       2.602  -7.286  -9.963  1.00  0.00     0.093 C 
BRANCH  17  18
ATOM     18  C   UNL     1       2.624  -8.039  -8.695  1.00  0.00     0.330 C 
ATOM     19  O   UNL     1       3.553  -7.815  -7.876  1.00  0.00    -0.247 OA
BRANCH  18  20
ATOM     20  O   UNL     1       1.675  -9.019  -8.386  1.00  0.00    -0.466 OA
ATOM     21  C   UNL     1       0.270  -8.838  -8.536  1.00  0.00     0.282 C 
ENDBRANCH  18  20
ENDBRANCH  17  18
ENDBRANCH  15  16
ENDBRANCH  13  14
ENDBRANCH  12  13
ENDBRANCH  11  12
ENDBRANCH  10  11
ENDBRANCH   1  10
TORSDOF 15
ENDMDL
MODEL 4
REMARK VINA RESULT:    -3.757      0.988      2.248
REMARK INTER + INTRA:          -7.975
REMARK INTER:                  -7.655
REMARK INTRA:                  -0.320
REMARK UNBOUND:                -0.923
REMARK SMILES CCCCCCCCCCCCCC=CC=CC(=O)OC
REMARK SMILES IDX 9 1 8 2 7 3 6 4 5 5 4 6 3 7 2 8 1 9 10 10 11 11 12 12 13 13
REMARK SMILES IDX 14 14 15 15 16 16 17 17 18 18 19 19 20 20 21 21
REMARK H PARENT
REMARK Flexibility Score: inf
ROOT
ATOM      1  C   UNL     1       9.197  -4.914 -13.803  1.00  0.00     0.000 C 
ENDROOT
BRANCH   1   2
ATOM      2  C   UNL     1       8.326  -6.162 -13.574  1.00  0.00     0.000 C 
BRANCH   2   3
ATOM      3  C   UNL     1       7.087  -5.871 -12.708  1.00  0.00     0.000 C 
BRANCH   3   4
ATOM      4  C   UNL     1       6.617  -7.044 -11.819  1.00  0.00    -0.000 C 
BRANCH   4   5
ATOM      5  C   UNL     1       5.142  -7.447 -11.984  1.00  0.00    -0.000 C 
BRANCH   5   6
ATOM      6  C   UNL     1       4.663  -8.421 -10.896  1.00  0.00    -0.000 C 
BRANCH   6   7
ATOM      7  C   UNL     1       3.869  -7.689  -9.807  1.00  0.00    -0.000 C 
BRANCH   7   8
ATOM      8  C   UNL     1       2.647  -6.982 -10.401  1.00  0.00    -0.003 C 
ATOM      9  C   UNL     1       1.352  -7.665  -9.969  1.00  0.00     0.004 C 
ENDBRANCH   7   8
ENDBRANCH   6   7
ENDBRANCH   5   6
ENDBRANCH   4   5
ENDBRANCH   3   4
ENDBRANCH   2   3
ENDBRANCH   1   2
BRANCH   1  10
ATOM     10  C   UNL     1       8.371  -3.622 -13.868  1.00  0.00     0.000 C 
BRANCH  10  11
ATOM     11  C   UNL     1       9.228  -2.382 -14.159  1.00  0.00     0.000 C 
BRANCH  11  12
ATOM     12  C   UNL     1       8.341  -1.142 -14.371  1.00  0.00     0.004 C 
BRANCH  12  13
ATOM     13  C   UNL     1       8.606  -0.472 -15.725  1.00  0.00     0.027 C 
BRANCH  13  14
ATOM     14  C   UNL     1       7.439   0.362 -16.184  1.00  0.00    -0.027 C 
ATOM     15  C   UNL     1       7.337   0.871 -17.418  1.00  0.00    -0.004 C 
BRANCH  15  16
ATOM     16  C   UNL     1       8.384   0.731 -18.457  1.00  0.00     0.007 C 
ATOM     17  C   UNL     1       9.572   1.352 -18.396  1.00  0.00     0.093 C 
BRANCH  17  18
ATOM     18  C   UNL     1       9.972   2.255 -17.301  1.00  0.00     0.330 C 
ATOM     19  O   UNL     1      10.835   1.858 -16.476  1.00  0.00    -0.247 OA
BRANCH  18  20
ATOM     20  O   UNL     1       9.401   3.519 -17.123  1.00  0.00    -0.466 OA
ATOM     21  C   UNL     1       8.632   3.889 -15.981  1.00  0.00     0.282 C 
ENDBRANCH  18  20
ENDBRANCH  17  18
ENDBRANCH  15  16
ENDBRANCH  13  14
ENDBRANCH  12  13
ENDBRANCH  11  12
ENDBRANCH  10  11
ENDBRANCH   1  10
TORSDOF 15
ENDMDL
MODEL 5
REMARK VINA RESULT:    -3.621      3.968     10.526
REMARK INTER + INTRA:          -7.720
REMARK INTER:                  -6.725
REMARK INTRA:                  -0.995
REMARK UNBOUND:                -0.923
REMARK SMILES CCCCCCCCCCCCCC=CC=CC(=O)OC
REMARK SMILES IDX 9 1 8 2 7 3 6 4 5 5 4 6 3 7 2 8 1 9 10 10 11 11 12 12 13 13
REMARK SMILES IDX 14 14 15 15 16 16 17 17 18 18 19 19 20 20 21 21
REMARK H PARENT
REMARK Flexibility Score: inf
ROOT
ATOM      1  C   UNL     1       9.094  -4.976 -13.874  1.00  0.00     0.000 C 
ENDROOT
BRANCH   1   2
ATOM      2  C   UNL     1       9.217  -3.471 -14.167  1.00  0.00     0.000 C 
BRANCH   2   3
ATOM      3  C   UNL     1       7.938  -2.690 -13.815  1.00  0.00     0.000 C 
BRANCH   3   4
ATOM      4  C   UNL     1       7.926  -1.212 -14.265  1.00  0.00    -0.000 C 
BRANCH   4   5
ATOM      5  C   UNL     1       9.212  -0.721 -14.952  1.00  0.00    -0.000 C 
BRANCH   5   6
ATOM      6  C   UNL     1       8.974  -0.234 -16.390  1.00  0.00    -0.000 C 
BRANCH   6   7
ATOM      7  C   UNL     1       8.032   0.976 -16.416  1.00  0.00    -0.000 C 
BRANCH   7   8
ATOM      8  C   UNL     1       8.754   2.223 -16.937  1.00  0.00    -0.003 C 
ATOM      9  C   UNL     1       9.866   1.848 -17.912  1.00  0.00     0.004 C 
ENDBRANCH   7   8
ENDBRANCH   6   7
ENDBRANCH   5   6
ENDBRANCH   4   5
ENDBRANCH   3   4
ENDBRANCH   2   3
ENDBRANCH   1   2
BRANCH   1  10
ATOM     10  C   UNL     1       7.664  -5.389 -13.498  1.00  0.00     0.000 C 
BRANCH  10  11
ATOM     11  C   UNL     1       7.617  -6.342 -12.295  1.00  0.00     0.000 C 
BRANCH  11  12
ATOM     12  C   UNL     1       6.214  -6.955 -12.139  1.00  0.00     0.004 C 
BRANCH  12  13
ATOM     13  C   UNL     1       6.204  -8.118 -11.137  1.00  0.00     0.027 C 
BRANCH  13  14
ATOM     14  C   UNL     1       4.976  -8.978 -11.277  1.00  0.00    -0.027 C 
ATOM     15  C   UNL     1       3.895  -8.851 -10.498  1.00  0.00    -0.004 C 
BRANCH  15  16
ATOM     16  C   UNL     1       3.802  -7.898  -9.368  1.00  0.00     0.007 C 
ATOM     17  C   UNL     1       2.876  -6.928  -9.293  1.00  0.00     0.093 C 
BRANCH  17  18
ATOM     18  C   UNL     1       1.854  -6.687 -10.328  1.00  0.00     0.330 C 
ATOM     19  O   UNL     1       2.167  -6.002 -11.337  1.00  0.00    -0.247 OA
BRANCH  18  20
ATOM     20  O   UNL     1       0.542  -7.158 -10.214  1.00  0.00    -0.466 OA
ATOM     21  C   UNL     1       0.180  -8.329  -9.486  1.00  0.00     0.282 C 
ENDBRANCH  18  20
ENDBRANCH  17  18
ENDBRANCH  15  16
ENDBRANCH  13  14
ENDBRANCH  12  13
ENDBRANCH  11  12
ENDBRANCH  10  11
ENDBRANCH   1  10
TORSDOF 15
ENDMDL
MODEL 6
REMARK VINA RESULT:    -3.617      4.147     10.859
REMARK INTER + INTRA:          -7.713
REMARK INTER:                  -7.335
REMARK INTRA:                  -0.378
REMARK UNBOUND:                -0.923
REMARK SMILES CCCCCCCCCCCCCC=CC=CC(=O)OC
REMARK SMILES IDX 9 1 8 2 7 3 6 4 5 5 4 6 3 7 2 8 1 9 10 10 11 11 12 12 13 13
REMARK SMILES IDX 14 14 15 15 16 16 17 17 18 18 19 19 20 20 21 21
REMARK H PARENT
REMARK Flexibility Score: inf
ROOT
ATOM      1  C   UNL     1       9.041  -2.334 -14.053  1.00  0.00     0.000 C 
ENDROOT
BRANCH   1   2
ATOM      2  C   UNL     1       8.170  -1.142 -14.485  1.00  0.00     0.000 C 
BRANCH   2   3
ATOM      3  C   UNL     1       8.703  -0.442 -15.749  1.00  0.00     0.000 C 
BRANCH   3   4
ATOM      4  C   UNL     1       7.711   0.525 -16.432  1.00  0.00    -0.000 C 
BRANCH   4   5
ATOM      5  C   UNL     1       7.930   0.738 -17.939  1.00  0.00    -0.000 C 
BRANCH   5   6
ATOM      6  C   UNL     1       9.293   1.370 -18.263  1.00  0.00    -0.000 C 
BRANCH   6   7
ATOM      7  C   UNL     1       9.834   2.163 -17.067  1.00  0.00    -0.000 C 
BRANCH   7   8
ATOM      8  C   UNL     1       9.306   3.601 -17.078  1.00  0.00    -0.003 C 
ATOM      9  C   UNL     1       8.599   3.939 -15.769  1.00  0.00     0.004 C 
ENDBRANCH   7   8
ENDBRANCH   6   7
ENDBRANCH   5   6
ENDBRANCH   4   5
ENDBRANCH   3   4
ENDBRANCH   2   3
ENDBRANCH   1   2
BRANCH   1  10
ATOM     10  C   UNL     1       8.215  -3.597 -13.769  1.00  0.00     0.000 C 
BRANCH  10  11
ATOM     11  C   UNL     1       9.062  -4.877 -13.787  1.00  0.00     0.000 C 
BRANCH  11  12
ATOM     12  C   UNL     1       8.169  -6.123 -13.645  1.00  0.00     0.004 C 
BRANCH  12  13
ATOM     13  C   UNL     1       7.031  -5.902 -12.640  1.00  0.00     0.027 C 
BRANCH  13  14
ATOM     14  C   UNL     1       5.735  -6.511 -13.107  1.00  0.00    -0.027 C 
ATOM     15  C   UNL     1       4.957  -7.273 -12.329  1.00  0.00    -0.004 C 
BRANCH  15  16
ATOM     16  C   UNL     1       5.306  -7.661 -10.943  1.00  0.00     0.007 C 
ATOM     17  C   UNL     1       4.394  -7.840  -9.974  1.00  0.00     0.093 C 
BRANCH  17  18
ATOM     18  C   UNL     1       2.943  -7.660 -10.168  1.00  0.00     0.330 C 
ATOM     19  O   UNL     1       2.500  -6.498 -10.362  1.00  0.00    -0.247 OA
BRANCH  18  20
ATOM     20  O   UNL     1       2.038  -8.725 -10.105  1.00  0.00    -0.466 OA
ATOM     21  C   UNL     1       0.666  -8.579  -9.749  1.00  0.00     0.282 C 
ENDBRANCH  18  20
ENDBRANCH  17  18
ENDBRANCH  15  16
ENDBRANCH  13  14
ENDBRANCH  12  13
ENDBRANCH  11  12
ENDBRANCH  10  11
ENDBRANCH   1  10
TORSDOF 15
ENDMDL
MODEL 7
REMARK VINA RESULT:    -3.438     10.697     13.798
REMARK INTER + INTRA:          -7.375
REMARK INTER:                  -5.921
REMARK INTRA:                  -1.454
REMARK UNBOUND:                -0.923
REMARK SMILES CCCCCCCCCCCCCC=CC=CC(=O)OC
REMARK SMILES IDX 9 1 8 2 7 3 6 4 5 5 4 6 3 7 2 8 1 9 10 10 11 11 12 12 13 13
REMARK SMILES IDX 14 14 15 15 16 16 17 17 18 18 19 19 20 20 21 21
REMARK H PARENT
REMARK Flexibility Score: inf
ROOT
ATOM      1  C   UNL     1       1.422   8.351 -13.849  1.00  0.00     0.000 C 
ENDROOT
BRANCH   1   2
ATOM      2  C   UNL     1       0.709   7.971 -12.540  1.00  0.00     0.000 C 
BRANCH   2   3
ATOM      3  C   UNL     1       1.689   7.574 -11.422  1.00  0.00     0.000 C 
BRANCH   3   4
ATOM      4  C   UNL     1       1.059   7.421 -10.020  1.00  0.00    -0.000 C 
BRANCH   4   5
ATOM      5  C   UNL     1      -0.047   6.358  -9.906  1.00  0.00    -0.000 C 
BRANCH   5   6
ATOM      6  C   UNL     1       0.506   4.929  -9.788  1.00  0.00    -0.000 C 
BRANCH   6   7
ATOM      7  C   UNL     1       0.347   4.164 -11.109  1.00  0.00    -0.000 C 
BRANCH   7   8
ATOM      8  C   UNL     1       1.691   4.034 -11.832  1.00  0.00    -0.003 C 
ATOM      9  C   UNL     1       1.528   4.236 -13.336  1.00  0.00     0.004 C 
ENDBRANCH   7   8
ENDBRANCH   6   7
ENDBRANCH   5   6
ENDBRANCH   4   5
ENDBRANCH   3   4
ENDBRANCH   2   3
ENDBRANCH   1   2
BRANCH   1  10
ATOM     10  C   UNL     1       0.441   8.603 -15.004  1.00  0.00     0.000 C 
BRANCH  10  11
ATOM     11  C   UNL     1       0.472  10.054 -15.505  1.00  0.00     0.000 C 
BRANCH  11  12
ATOM     12  C   UNL     1       1.497  10.218 -16.640  1.00  0.00     0.004 C 
BRANCH  12  13
ATOM     13  C   UNL     1       0.940  11.054 -17.800  1.00  0.00     0.027 C 
BRANCH  13  14
ATOM     14  C   UNL     1      -0.033  10.276 -18.646  1.00  0.00    -0.027 C 
ATOM     15  C   UNL     1       0.178   9.989 -19.936  1.00  0.00    -0.004 C 
BRANCH  15  16
ATOM     16  C   UNL     1       1.356  10.457 -20.702  1.00  0.00     0.007 C 
ATOM     17  C   UNL     1       2.455   9.711 -20.896  1.00  0.00     0.093 C 
BRANCH  17  18
ATOM     18  C   UNL     1       2.627   8.347 -20.362  1.00  0.00     0.330 C 
ATOM     19  O   UNL     1       3.079   8.208 -19.196  1.00  0.00    -0.247 OA
BRANCH  18  20
ATOM     20  O   UNL     1       2.342   7.203 -21.114  1.00  0.00    -0.466 OA
ATOM     21  C   UNL     1       3.335   6.406 -21.754  1.00  0.00     0.282 C 
ENDBRANCH  18  20
ENDBRANCH  17  18
ENDBRANCH  15  16
ENDBRANCH  13  14
ENDBRANCH  12  13
ENDBRANCH  11  12
ENDBRANCH  10  11
ENDBRANCH   1  10
TORSDOF 15
ENDMDL
MODEL 8
REMARK VINA RESULT:    -3.329     12.191     13.981
REMARK INTER + INTRA:          -7.171
REMARK INTER:                  -5.730
REMARK INTRA:                  -1.440
REMARK UNBOUND:                -0.923
REMARK SMILES CCCCCCCCCCCCCC=CC=CC(=O)OC
REMARK SMILES IDX 9 1 8 2 7 3 6 4 5 5 4 6 3 7 2 8 1 9 10 10 11 11 12 12 13 13
REMARK SMILES IDX 14 14 15 15 16 16 17 17 18 18 19 19 20 20 21 21
REMARK H PARENT
REMARK Flexibility Score: inf
ROOT
ATOM      1  C   UNL     1       1.746   8.136 -13.604  1.00  0.00     0.000 C 
ENDROOT
BRANCH   1   2
ATOM      2  C   UNL     1       1.298   7.253 -12.427  1.00  0.00     0.000 C 
BRANCH   2   3
ATOM      3  C   UNL     1       0.429   8.014 -11.409  1.00  0.00     0.000 C 
BRANCH   3   4
ATOM      4  C   UNL     1      -0.125   7.159 -10.249  1.00  0.00    -0.000 C 
BRANCH   4   5
ATOM      5  C   UNL     1       0.610   5.830  -9.999  1.00  0.00    -0.000 C 
BRANCH   5   6
ATOM      6  C   UNL     1       1.537   5.880  -8.774  1.00  0.00    -0.000 C 
BRANCH   6   7
ATOM      7  C   UNL     1       2.944   6.350  -9.163  1.00  0.00    -0.000 C 
BRANCH   7   8
ATOM      8  C   UNL     1       3.440   7.442  -8.211  1.00  0.00    -0.003 C 
ATOM      9  C   UNL     1       2.426   8.577  -8.098  1.00  0.00     0.004 C 
ENDBRANCH   7   8
ENDBRANCH   6   7
ENDBRANCH   5   6
ENDBRANCH   4   5
ENDBRANCH   3   4
ENDBRANCH   2   3
ENDBRANCH   1   2
BRANCH   1  10
ATOM     10  C   UNL     1       0.679   8.240 -14.703  1.00  0.00     0.000 C 
BRANCH  10  11
ATOM     11  C   UNL     1       0.540   9.663 -15.264  1.00  0.00     0.000 C 
BRANCH  11  12
ATOM     12  C   UNL     1       1.561   9.908 -16.389  1.00  0.00     0.004 C 
BRANCH  12  13
ATOM     13  C   UNL     1       0.909  10.536 -17.628  1.00  0.00     0.027 C 
BRANCH  13  14
ATOM     14  C   UNL     1       0.076   9.543 -18.396  1.00  0.00    -0.027 C 
ATOM     15  C   UNL     1       0.293   9.237 -19.681  1.00  0.00    -0.004 C 
BRANCH  15  16
ATOM     16  C   UNL     1       1.331   9.882 -20.518  1.00  0.00     0.007 C 
ATOM     17  C   UNL     1       2.593   9.433 -20.607  1.00  0.00     0.093 C 
BRANCH  17  18
ATOM     18  C   UNL     1       3.099   8.256 -19.876  1.00  0.00     0.330 C 
ATOM     19  O   UNL     1       3.691   8.435 -18.780  1.00  0.00    -0.247 OA
BRANCH  18  20
ATOM     20  O   UNL     1       2.980   6.954 -20.373  1.00  0.00    -0.466 OA
ATOM     21  C   UNL     1       3.221   6.598 -21.731  1.00  0.00     0.282 C 
ENDBRANCH  18  20
ENDBRANCH  17  18
ENDBRANCH  15  16
ENDBRANCH  13  14
ENDBRANCH  12  13
ENDBRANCH  11  12
ENDBRANCH  10  11
ENDBRANCH   1  10
TORSDOF 15
ENDMDL
MODEL 9
REMARK VINA RESULT:    -3.073     12.587     15.923
REMARK INTER + INTRA:          -6.690
REMARK INTER:                  -5.502
REMARK INTRA:                  -1.188
REMARK UNBOUND:                -0.923
REMARK SMILES CCCCCCCCCCCCCC=CC=CC(=O)OC
REMARK SMILES IDX 9 1 8 2 7 3 6 4 5 5 4 6 3 7 2 8 1 9 10 10 11 11 12 12 13 13
REMARK SMILES IDX 14 14 15 15 16 16 17 17 18 18 19 19 20 20 21 21
REMARK H PARENT
REMARK Flexibility Score: inf
ROOT
ATOM      1  C   UNL     1       1.821   9.416 -17.663  1.00  0.00     0.000 C 
ENDROOT
BRANCH   1   2
ATOM      2  C   UNL     1       1.960   9.635 -16.147  1.00  0.00     0.000 C 
BRANCH   2   3
ATOM      3  C   UNL     1       0.644  10.088 -15.488  1.00  0.00     0.000 C 
BRANCH   3   4
ATOM      4  C   UNL     1       0.165   9.213 -14.309  1.00  0.00    -0.000 C 
BRANCH   4   5
ATOM      5  C   UNL     1      -0.008   7.718 -14.624  1.00  0.00    -0.000 C 
BRANCH   5   6
ATOM      6  C   UNL     1       0.550   6.805 -13.521  1.00  0.00    -0.000 C 
BRANCH   6   7
ATOM      7  C   UNL     1       1.554   7.555 -12.637  1.00  0.00    -0.000 C 
BRANCH   7   8
ATOM      8  C   UNL     1       2.538   6.582 -11.979  1.00  0.00    -0.003 C 
ATOM      9  C   UNL     1       2.112   6.248 -10.553  1.00  0.00     0.004 C 
ENDBRANCH   7   8
ENDBRANCH   6   7
ENDBRANCH   5   6
ENDBRANCH   4   5
ENDBRANCH   3   4
ENDBRANCH   2   3
ENDBRANCH   1   2
BRANCH   1  10
ATOM     10  C   UNL     1       0.493   8.744 -18.042  1.00  0.00     0.000 C 
BRANCH  10  11
ATOM     11  C   UNL     1      -0.121   9.321 -19.326  1.00  0.00     0.000 C 
BRANCH  11  12
ATOM     12  C   UNL     1       0.958   9.995 -20.192  1.00  0.00     0.004 C 
BRANCH  12  13
ATOM     13  C   UNL     1       1.435   9.081 -21.329  1.00  0.00     0.027 C 
BRANCH  13  14
ATOM     14  C   UNL     1       2.442   9.760 -22.219  1.00  0.00    -0.027 C 
ATOM     15  C   UNL     1       2.114  10.685 -23.130  1.00  0.00    -0.004 C 
BRANCH  15  16
ATOM     16  C   UNL     1       0.722  11.102 -23.417  1.00  0.00     0.007 C 
ATOM     17  C   UNL     1       0.000  10.616 -24.439  1.00  0.00     0.093 C 
BRANCH  17  18
ATOM     18  C   UNL     1       0.508   9.622 -25.402  1.00  0.00     0.330 C 
ATOM     19  O   UNL     1       0.568   8.415 -25.050  1.00  0.00    -0.247 OA
BRANCH  18  20
ATOM     20  O   UNL     1       0.960   9.974 -26.678  1.00  0.00    -0.466 OA
ATOM     21  C   UNL     1       0.312   9.582 -27.886  1.00  0.00     0.282 C 
ENDBRANCH  18  20
ENDBRANCH  17  18
ENDBRANCH  15  16
ENDBRANCH  13  14
ENDBRANCH  12  13
ENDBRANCH  11  12
ENDBRANCH  10  11
ENDBRANCH   1  10
TORSDOF 15
ENDMDL
