MODEL 1
REMARK VINA RESULT:    -7.278      0.000      0.000
REMARK INTER + INTRA:          -9.094
REMARK INTER:                  -8.767
REMARK INTRA:                  -0.326
REMARK UNBOUND:                -0.326
REMARK SMILES O=c1c(O)c(-c2ccc(O)c(O)c2)oc2cc(O)cc(O)c12
REMARK SMILES IDX 5 1 3 2 2 3 1 4 22 5 20 6 19 7 17 8 16 9 15 10 14 11 6 12
REMARK SMILES IDX 7 13 8 14 9 15 13 16 11 17 10 18 12 20 4 22 21 24 18 26
REMARK H PARENT 10 19 12 21 4 23 21 25 18 27
REMARK Flexibility Score: inf
ROOT
ATOM      1  C   UNL     1      29.581  57.908  -1.233  1.00  0.00     0.180 A 
ATOM      2  C   UNL     1      30.559  58.870  -1.540  1.00  0.00     0.208 A 
ATOM      3  C   UNL     1      30.956  59.034  -2.877  1.00  0.00     0.238 A 
ATOM      4  O   UNL     1      31.883  59.843  -3.134  1.00  0.00    -0.285 OA
ATOM      5  C   UNL     1      30.332  58.275  -3.896  1.00  0.00     0.111 A 
ATOM      6  C   UNL     1      30.624  58.390  -5.290  1.00  0.00     0.134 A 
ATOM      7  C   UNL     1      30.019  57.513  -6.197  1.00  0.00     0.093 A 
ATOM      8  C   UNL     1      29.087  56.567  -5.773  1.00  0.00     0.123 A 
ATOM      9  C   UNL     1      28.753  56.480  -4.420  1.00  0.00     0.094 A 
ATOM     10  C   UNL     1      29.367  57.317  -3.486  1.00  0.00     0.146 A 
ATOM     11  O   UNL     1      29.037  57.188  -2.206  1.00  0.00    -0.452 OA
ENDROOT
BRANCH   1  12
ATOM     12  C   UNL     1      29.121  57.666   0.154  1.00  0.00     0.025 A 
ATOM     13  C   UNL     1      29.703  56.672   0.955  1.00  0.00     0.016 A 
ATOM     14  C   UNL     1      29.236  56.446   2.251  1.00  0.00     0.051 A 
ATOM     15  C   UNL     1      28.174  57.196   2.769  1.00  0.00     0.157 A 
ATOM     16  C   UNL     1      28.040  58.405   0.662  1.00  0.00     0.062 A 
ATOM     17  C   UNL     1      27.565  58.186   1.961  1.00  0.00     0.158 A 
BRANCH  15  18
ATOM     18  O   UNL     1      27.758  56.925   4.074  1.00  0.00    -0.504 OA
ATOM     19  H   UNL     1      28.386  56.840   4.860  1.00  0.00     0.293 HD
ENDBRANCH  15  18
BRANCH  17  20
ATOM     20  O   UNL     1      26.495  58.967   2.403  1.00  0.00    -0.504 OA
ATOM     21  H   UNL     1      26.539  59.584   3.202  1.00  0.00     0.293 HD
ENDBRANCH  17  20
ENDBRANCH   1  12
BRANCH   2  22
ATOM     22  O   UNL     1      31.107  59.663  -0.528  1.00  0.00    -0.502 OA
ATOM     23  H   UNL     1      30.717  60.560  -0.269  1.00  0.00     0.293 HD
ENDBRANCH   2  22
BRANCH   6  24
ATOM     24  O   UNL     1      31.473  59.360  -5.834  1.00  0.00    -0.507 OA
ATOM     25  H   UNL     1      31.858  59.333  -6.765  1.00  0.00     0.293 HD
ENDBRANCH   6  24
BRANCH   8  26
ATOM     26  O   UNL     1      28.492  55.720  -6.706  1.00  0.00    -0.508 OA
ATOM     27  H   UNL     1      27.779  55.053  -6.438  1.00  0.00     0.293 HD
ENDBRANCH   8  26
TORSDOF 6
ENDMDL
MODEL 2
REMARK VINA RESULT:    -7.060     12.481     14.504
REMARK INTER + INTRA:          -8.831
REMARK INTER:                  -8.528
REMARK INTRA:                  -0.304
REMARK UNBOUND:                -0.326
REMARK SMILES O=c1c(O)c(-c2ccc(O)c(O)c2)oc2cc(O)cc(O)c12
REMARK SMILES IDX 5 1 3 2 2 3 1 4 22 5 20 6 19 7 17 8 16 9 15 10 14 11 6 12
REMARK SMILES IDX 7 13 8 14 9 15 13 16 11 17 10 18 12 20 4 22 21 24 18 26
REMARK H PARENT 10 19 12 21 4 23 21 25 18 27
REMARK Flexibility Score: inf
ROOT
ATOM      1  C   UNL     1      40.005  60.058   6.526  1.00  0.00     0.180 A 
ATOM      2  C   UNL     1      38.816  59.383   6.204  1.00  0.00     0.208 A 
ATOM      3  C   UNL     1      38.886  58.051   5.765  1.00  0.00     0.238 A 
ATOM      4  O   UNL     1      37.825  57.477   5.408  1.00  0.00    -0.285 OA
ATOM      5  C   UNL     1      40.139  57.393   5.706  1.00  0.00     0.111 A 
ATOM      6  C   UNL     1      40.324  56.031   5.319  1.00  0.00     0.134 A 
ATOM      7  C   UNL     1      41.621  55.518   5.196  1.00  0.00     0.093 A 
ATOM      8  C   UNL     1      42.736  56.295   5.507  1.00  0.00     0.123 A 
ATOM      9  C   UNL     1      42.565  57.612   5.939  1.00  0.00     0.094 A 
ATOM     10  C   UNL     1      41.286  58.164   6.035  1.00  0.00     0.146 A 
ATOM     11  O   UNL     1      41.168  59.426   6.430  1.00  0.00    -0.452 OA
ENDROOT
BRANCH   1  12
ATOM     12  C   UNL     1      40.014  61.467   6.981  1.00  0.00     0.025 A 
ATOM     13  C   UNL     1      39.744  61.807   8.316  1.00  0.00     0.016 A 
ATOM     14  C   UNL     1      39.735  63.144   8.716  1.00  0.00     0.051 A 
ATOM     15  C   UNL     1      39.980  64.168   7.794  1.00  0.00     0.157 A 
ATOM     16  C   UNL     1      40.239  62.493   6.049  1.00  0.00     0.062 A 
ATOM     17  C   UNL     1      40.232  63.838   6.441  1.00  0.00     0.158 A 
BRANCH  15  18
ATOM     18  O   UNL     1      39.962  65.484   8.259  1.00  0.00    -0.504 OA
ATOM     19  H   UNL     1      40.581  65.839   8.974  1.00  0.00     0.293 HD
ENDBRANCH  15  18
BRANCH  17  20
ATOM     20  O   UNL     1      40.476  64.803   5.462  1.00  0.00    -0.504 OA
ATOM     21  H   UNL     1      41.393  65.165   5.243  1.00  0.00     0.293 HD
ENDBRANCH  17  20
ENDBRANCH   1  12
BRANCH   2  22
ATOM     22  O   UNL     1      37.582  60.026   6.342  1.00  0.00    -0.502 OA
ATOM     23  H   UNL     1      37.171  60.578   5.600  1.00  0.00     0.293 HD
ENDBRANCH   2  22
BRANCH   6  24
ATOM     24  O   UNL     1      39.276  55.138   5.071  1.00  0.00    -0.507 OA
ATOM     25  H   UNL     1      39.186  54.224   5.487  1.00  0.00     0.293 HD
ENDBRANCH   6  24
BRANCH   8  26
ATOM     26  O   UNL     1      44.011  55.747   5.389  1.00  0.00    -0.508 OA
ATOM     27  H   UNL     1      44.151  54.792   5.079  1.00  0.00     0.293 HD
ENDBRANCH   8  26
TORSDOF 6
ENDMDL
MODEL 3
REMARK VINA RESULT:    -6.853     11.744     13.635
REMARK INTER + INTRA:          -8.581
REMARK INTER:                  -8.323
REMARK INTRA:                  -0.258
REMARK UNBOUND:                -0.326
REMARK SMILES O=c1c(O)c(-c2ccc(O)c(O)c2)oc2cc(O)cc(O)c12
REMARK SMILES IDX 5 1 3 2 2 3 1 4 22 5 20 6 19 7 17 8 16 9 15 10 14 11 6 12
REMARK SMILES IDX 7 13 8 14 9 15 13 16 11 17 10 18 12 20 4 22 21 24 18 26
REMARK H PARENT 10 19 12 21 4 23 21 25 18 27
REMARK Flexibility Score: inf
ROOT
ATOM      1  C   UNL     1      39.578  60.975   6.309  1.00  0.00     0.180 A 
ATOM      2  C   UNL     1      39.471  59.964   7.279  1.00  0.00     0.208 A 
ATOM      3  C   UNL     1      38.877  58.741   6.926  1.00  0.00     0.238 A 
ATOM      4  O   UNL     1      38.719  57.868   7.817  1.00  0.00    -0.285 OA
ATOM      5  C   UNL     1      38.448  58.525   5.593  1.00  0.00     0.111 A 
ATOM      6  C   UNL     1      37.873  57.309   5.112  1.00  0.00     0.134 A 
ATOM      7  C   UNL     1      37.388  57.246   3.800  1.00  0.00     0.093 A 
ATOM      8  C   UNL     1      37.513  58.330   2.933  1.00  0.00     0.123 A 
ATOM      9  C   UNL     1      38.122  59.506   3.375  1.00  0.00     0.094 A 
ATOM     10  C   UNL     1      38.582  59.612   4.690  1.00  0.00     0.146 A 
ATOM     11  O   UNL     1      39.136  60.755   5.077  1.00  0.00    -0.452 OA
ENDROOT
BRANCH   1  12
ATOM     12  C   UNL     1      40.177  62.295   6.609  1.00  0.00     0.025 A 
ATOM     13  C   UNL     1      41.475  62.623   6.188  1.00  0.00     0.016 A 
ATOM     14  C   UNL     1      42.028  63.865   6.504  1.00  0.00     0.051 A 
ATOM     15  C   UNL     1      41.304  64.799   7.254  1.00  0.00     0.157 A 
ATOM     16  C   UNL     1      39.457  63.222   7.381  1.00  0.00     0.062 A 
ATOM     17  C   UNL     1      40.002  64.471   7.702  1.00  0.00     0.158 A 
BRANCH  15  18
ATOM     18  O   UNL     1      41.911  66.026   7.532  1.00  0.00    -0.504 OA
ATOM     19  H   UNL     1      42.594  66.466   6.932  1.00  0.00     0.293 HD
ENDBRANCH  15  18
BRANCH  17  20
ATOM     20  O   UNL     1      39.223  65.346   8.463  1.00  0.00    -0.504 OA
ATOM     21  H   UNL     1      39.001  65.202   9.437  1.00  0.00     0.293 HD
ENDBRANCH  17  20
ENDBRANCH   1  12
BRANCH   2  22
ATOM     22  O   UNL     1      39.971  60.169   8.568  1.00  0.00    -0.502 OA
ATOM     23  H   UNL     1      40.691  59.584   8.971  1.00  0.00     0.293 HD
ENDBRANCH   2  22
BRANCH   6  24
ATOM     24  O   UNL     1      37.779  56.135   5.866  1.00  0.00    -0.507 OA
ATOM     25  H   UNL     1      38.273  55.961   6.728  1.00  0.00     0.293 HD
ENDBRANCH   6  24
BRANCH   8  26
ATOM     26  O   UNL     1      37.034  58.227   1.629  1.00  0.00    -0.508 OA
ATOM     27  H   UNL     1      37.605  58.486   0.832  1.00  0.00     0.293 HD
ENDBRANCH   8  26
TORSDOF 6
ENDMDL
MODEL 4
REMARK VINA RESULT:    -6.817      2.200      6.907
REMARK INTER + INTRA:          -8.538
REMARK INTER:                  -8.438
REMARK INTRA:                  -0.100
REMARK UNBOUND:                -0.326
REMARK SMILES O=c1c(O)c(-c2ccc(O)c(O)c2)oc2cc(O)cc(O)c12
REMARK SMILES IDX 5 1 3 2 2 3 1 4 22 5 20 6 19 7 17 8 16 9 15 10 14 11 6 12
REMARK SMILES IDX 7 13 8 14 9 15 13 16 11 17 10 18 12 20 4 22 21 24 18 26
REMARK H PARENT 10 19 12 21 4 23 21 25 18 27
REMARK Flexibility Score: inf
ROOT
ATOM      1  C   UNL     1      30.160  57.820  -3.005  1.00  0.00     0.180 A 
ATOM      2  C   UNL     1      29.259  57.891  -1.929  1.00  0.00     0.208 A 
ATOM      3  C   UNL     1      29.759  58.118  -0.636  1.00  0.00     0.238 A 
ATOM      4  O   UNL     1      28.955  58.107   0.331  1.00  0.00    -0.285 OA
ATOM      5  C   UNL     1      31.147  58.326  -0.443  1.00  0.00     0.111 A 
ATOM      6  C   UNL     1      31.759  58.609   0.816  1.00  0.00     0.134 A 
ATOM      7  C   UNL     1      33.153  58.691   0.903  1.00  0.00     0.093 A 
ATOM      8  C   UNL     1      33.955  58.565  -0.230  1.00  0.00     0.123 A 
ATOM      9  C   UNL     1      33.365  58.343  -1.476  1.00  0.00     0.094 A 
ATOM     10  C   UNL     1      31.978  58.218  -1.589  1.00  0.00     0.146 A 
ATOM     11  O   UNL     1      31.459  57.986  -2.789  1.00  0.00    -0.452 OA
ENDROOT
BRANCH   1  12
ATOM     12  C   UNL     1      29.711  57.569  -4.394  1.00  0.00     0.025 A 
ATOM     13  C   UNL     1      28.966  56.427  -4.727  1.00  0.00     0.016 A 
ATOM     14  C   UNL     1      28.575  56.200  -6.047  1.00  0.00     0.051 A 
ATOM     15  C   UNL     1      28.928  57.097  -7.062  1.00  0.00     0.157 A 
ATOM     16  C   UNL     1      30.086  58.459  -5.412  1.00  0.00     0.062 A 
ATOM     17  C   UNL     1      29.698  58.240  -6.741  1.00  0.00     0.158 A 
BRANCH  15  18
ATOM     18  O   UNL     1      28.501  56.816  -8.361  1.00  0.00    -0.504 OA
ATOM     19  H   UNL     1      27.786  56.139  -8.586  1.00  0.00     0.293 HD
ENDBRANCH  15  18
BRANCH  17  20
ATOM     20  O   UNL     1      30.097  59.175  -7.698  1.00  0.00    -0.504 OA
ATOM     21  H   UNL     1      30.007  59.036  -8.694  1.00  0.00     0.293 HD
ENDBRANCH  17  20
ENDBRANCH   1  12
BRANCH   2  22
ATOM     22  O   UNL     1      27.886  57.759  -2.151  1.00  0.00    -0.502 OA
ATOM     23  H   UNL     1      27.196  57.998  -1.449  1.00  0.00     0.293 HD
ENDBRANCH   2  22
BRANCH   6  24
ATOM     24  O   UNL     1      31.047  58.841   1.998  1.00  0.00    -0.507 OA
ATOM     25  H   UNL     1      30.995  58.202   2.776  1.00  0.00     0.293 HD
ENDBRANCH   6  24
BRANCH   8  26
ATOM     26  O   UNL     1      35.339  58.670  -0.109  1.00  0.00    -0.508 OA
ATOM     27  H   UNL     1      35.832  58.283   0.688  1.00  0.00     0.293 HD
ENDBRANCH   8  26
TORSDOF 6
ENDMDL
MODEL 5
REMARK VINA RESULT:    -6.812      3.503      7.856
REMARK INTER + INTRA:          -8.532
REMARK INTER:                  -8.221
REMARK INTRA:                  -0.312
REMARK UNBOUND:                -0.326
REMARK SMILES O=c1c(O)c(-c2ccc(O)c(O)c2)oc2cc(O)cc(O)c12
REMARK SMILES IDX 5 1 3 2 2 3 1 4 22 5 20 6 19 7 17 8 16 9 15 10 14 11 6 12
REMARK SMILES IDX 7 13 8 14 9 15 13 16 11 17 10 18 12 20 4 22 21 24 18 26
REMARK H PARENT 10 19 12 21 4 23 21 25 18 27
REMARK Flexibility Score: inf
ROOT
ATOM      1  C   UNL     1      29.864  57.281   1.457  1.00  0.00     0.180 A 
ATOM      2  C   UNL     1      28.786  56.482   1.035  1.00  0.00     0.208 A 
ATOM      3  C   UNL     1      28.003  55.830   2.002  1.00  0.00     0.238 A 
ATOM      4  O   UNL     1      27.088  55.060   1.615  1.00  0.00    -0.285 OA
ATOM      5  C   UNL     1      28.272  56.028   3.378  1.00  0.00     0.111 A 
ATOM      6  C   UNL     1      27.515  55.453   4.445  1.00  0.00     0.134 A 
ATOM      7  C   UNL     1      27.939  55.634   5.766  1.00  0.00     0.093 A 
ATOM      8  C   UNL     1      29.051  56.419   6.067  1.00  0.00     0.123 A 
ATOM      9  C   UNL     1      29.766  57.031   5.036  1.00  0.00     0.094 A 
ATOM     10  C   UNL     1      29.391  56.839   3.705  1.00  0.00     0.146 A 
ATOM     11  O   UNL     1      30.111  57.421   2.753  1.00  0.00    -0.452 OA
ENDROOT
BRANCH   1  12
ATOM     12  C   UNL     1      30.744  57.987   0.499  1.00  0.00     0.025 A 
ATOM     13  C   UNL     1      31.989  57.460   0.122  1.00  0.00     0.016 A 
ATOM     14  C   UNL     1      32.811  58.157  -0.765  1.00  0.00     0.051 A 
ATOM     15  C   UNL     1      32.417  59.395  -1.283  1.00  0.00     0.157 A 
ATOM     16  C   UNL     1      30.354  59.240  -0.003  1.00  0.00     0.062 A 
ATOM     17  C   UNL     1      31.172  59.947  -0.894  1.00  0.00     0.158 A 
BRANCH  15  18
ATOM     18  O   UNL     1      33.282  60.038  -2.170  1.00  0.00    -0.504 OA
ATOM     19  H   UNL     1      33.367  59.801  -3.148  1.00  0.00     0.293 HD
ENDBRANCH  15  18
BRANCH  17  20
ATOM     20  O   UNL     1      30.714  61.180  -1.360  1.00  0.00    -0.504 OA
ATOM     21  H   UNL     1      30.775  62.040  -0.834  1.00  0.00     0.293 HD
ENDBRANCH  17  20
ENDBRANCH   1  12
BRANCH   2  22
ATOM     22  O   UNL     1      28.491  56.361  -0.325  1.00  0.00    -0.502 OA
ATOM     23  H   UNL     1      28.693  55.522  -0.853  1.00  0.00     0.293 HD
ENDBRANCH   2  22
BRANCH   6  24
ATOM     24  O   UNL     1      26.336  54.724   4.263  1.00  0.00    -0.507 OA
ATOM     25  H   UNL     1      26.290  53.770   3.940  1.00  0.00     0.293 HD
ENDBRANCH   6  24
BRANCH   8  26
ATOM     26  O   UNL     1      29.433  56.591   7.396  1.00  0.00    -0.508 OA
ATOM     27  H   UNL     1      28.932  57.218   8.014  1.00  0.00     0.293 HD
ENDBRANCH   8  26
TORSDOF 6
ENDMDL
MODEL 6
REMARK VINA RESULT:    -6.734     12.629     14.482
REMARK INTER + INTRA:          -8.438
REMARK INTER:                  -8.107
REMARK INTRA:                  -0.331
REMARK UNBOUND:                -0.326
REMARK SMILES O=c1c(O)c(-c2ccc(O)c(O)c2)oc2cc(O)cc(O)c12
REMARK SMILES IDX 5 1 3 2 2 3 1 4 22 5 20 6 19 7 17 8 16 9 15 10 14 11 6 12
REMARK SMILES IDX 7 13 8 14 9 15 13 16 11 17 10 18 12 20 4 22 21 24 18 26
REMARK H PARENT 10 19 12 21 4 23 21 25 18 27
REMARK Flexibility Score: inf
ROOT
ATOM      1  C   UNL     1      40.662  60.109   6.702  1.00  0.00     0.180 A 
ATOM      2  C   UNL     1      41.890  59.452   6.889  1.00  0.00     0.208 A 
ATOM      3  C   UNL     1      42.010  58.108   6.498  1.00  0.00     0.238 A 
ATOM      4  O   UNL     1      43.088  57.506   6.736  1.00  0.00    -0.285 OA
ATOM      5  C   UNL     1      40.919  57.455   5.874  1.00  0.00     0.111 A 
ATOM      6  C   UNL     1      40.942  56.109   5.397  1.00  0.00     0.134 A 
ATOM      7  C   UNL     1      39.770  55.535   4.893  1.00  0.00     0.093 A 
ATOM      8  C   UNL     1      38.592  56.274   4.789  1.00  0.00     0.123 A 
ATOM      9  C   UNL     1      38.571  57.607   5.202  1.00  0.00     0.094 A 
ATOM     10  C   UNL     1      39.715  58.197   5.744  1.00  0.00     0.146 A 
ATOM     11  O   UNL     1      39.647  59.461   6.144  1.00  0.00    -0.452 OA
ENDROOT
BRANCH   1  12
ATOM     12  C   UNL     1      40.454  61.520   7.101  1.00  0.00     0.025 A 
ATOM     13  C   UNL     1      40.064  61.861   8.406  1.00  0.00     0.016 A 
ATOM     14  C   UNL     1      39.850  63.196   8.752  1.00  0.00     0.051 A 
ATOM     15  C   UNL     1      40.008  64.214   7.806  1.00  0.00     0.157 A 
ATOM     16  C   UNL     1      40.591  62.537   6.143  1.00  0.00     0.062 A 
ATOM     17  C   UNL     1      40.379  63.880   6.481  1.00  0.00     0.158 A 
BRANCH  15  18
ATOM     18  O   UNL     1      39.785  65.530   8.217  1.00  0.00    -0.504 OA
ATOM     19  H   UNL     1      40.345  66.316   7.921  1.00  0.00     0.293 HD
ENDBRANCH  15  18
BRANCH  17  20
ATOM     20  O   UNL     1      40.547  64.838   5.480  1.00  0.00    -0.504 OA
ATOM     21  H   UNL     1      39.848  65.524   5.233  1.00  0.00     0.293 HD
ENDBRANCH  17  20
ENDBRANCH   1  12
BRANCH   2  22
ATOM     22  O   UNL     1      42.979  60.137   7.436  1.00  0.00    -0.502 OA
ATOM     23  H   UNL     1      43.095  61.138   7.339  1.00  0.00     0.293 HD
ENDBRANCH   2  22
BRANCH   6  24
ATOM     24  O   UNL     1      42.088  55.307   5.372  1.00  0.00    -0.507 OA
ATOM     25  H   UNL     1      42.090  54.301   5.420  1.00  0.00     0.293 HD
ENDBRANCH   6  24
BRANCH   8  26
ATOM     26  O   UNL     1      37.448  55.674   4.267  1.00  0.00    -0.508 OA
ATOM     27  H   UNL     1      36.631  55.500   4.841  1.00  0.00     0.293 HD
ENDBRANCH   8  26
TORSDOF 6
ENDMDL
MODEL 7
REMARK VINA RESULT:    -6.731      1.353      2.078
REMARK INTER + INTRA:          -8.434
REMARK INTER:                  -8.207
REMARK INTRA:                  -0.227
REMARK UNBOUND:                -0.326
REMARK SMILES O=c1c(O)c(-c2ccc(O)c(O)c2)oc2cc(O)cc(O)c12
REMARK SMILES IDX 5 1 3 2 2 3 1 4 22 5 20 6 19 7 17 8 16 9 15 10 14 11 6 12
REMARK SMILES IDX 7 13 8 14 9 15 13 16 11 17 10 18 12 20 4 22 21 24 18 26
REMARK H PARENT 10 19 12 21 4 23 21 25 18 27
REMARK Flexibility Score: inf
ROOT
ATOM      1  C   UNL     1      28.616  57.513  -0.217  1.00  0.00     0.180 A 
ATOM      2  C   UNL     1      29.541  58.571  -0.215  1.00  0.00     0.208 A 
ATOM      3  C   UNL     1      30.192  58.909  -1.412  1.00  0.00     0.238 A 
ATOM      4  O   UNL     1      31.072  59.807  -1.386  1.00  0.00    -0.285 OA
ATOM      5  C   UNL     1      29.870  58.222  -2.608  1.00  0.00     0.111 A 
ATOM      6  C   UNL     1      30.435  58.510  -3.888  1.00  0.00     0.134 A 
ATOM      7  C   UNL     1      30.120  57.695  -4.981  1.00  0.00     0.093 A 
ATOM      8  C   UNL     1      29.214  56.643  -4.859  1.00  0.00     0.123 A 
ATOM      9  C   UNL     1      28.614  56.385  -3.625  1.00  0.00     0.094 A 
ATOM     10  C   UNL     1      28.937  57.157  -2.507  1.00  0.00     0.146 A 
ATOM     11  O   UNL     1      28.359  56.865  -1.347  1.00  0.00    -0.452 OA
ENDROOT
BRANCH   1  12
ATOM     12  C   UNL     1      27.901  57.087   1.007  1.00  0.00     0.025 A 
ATOM     13  C   UNL     1      26.541  57.376   1.199  1.00  0.00     0.016 A 
ATOM     14  C   UNL     1      25.895  56.986   2.373  1.00  0.00     0.051 A 
ATOM     15  C   UNL     1      26.591  56.312   3.382  1.00  0.00     0.157 A 
ATOM     16  C   UNL     1      28.608  56.431   2.028  1.00  0.00     0.062 A 
ATOM     17  C   UNL     1      27.969  56.035   3.209  1.00  0.00     0.158 A 
BRANCH  15  18
ATOM     18  O   UNL     1      25.886  55.944   4.529  1.00  0.00    -0.504 OA
ATOM     19  H   UNL     1      25.800  56.526   5.350  1.00  0.00     0.293 HD
ENDBRANCH  15  18
BRANCH  17  20
ATOM     20  O   UNL     1      28.733  55.376   4.174  1.00  0.00    -0.504 OA
ATOM     21  H   UNL     1      29.158  55.835   4.967  1.00  0.00     0.293 HD
ENDBRANCH  17  20
ENDBRANCH   1  12
BRANCH   2  22
ATOM     22  O   UNL     1      29.788  59.287   0.960  1.00  0.00    -0.502 OA
ATOM     23  H   UNL     1      29.071  59.457   1.653  1.00  0.00     0.293 HD
ENDBRANCH   2  22
BRANCH   6  24
ATOM     24  O   UNL     1      31.284  59.593  -4.144  1.00  0.00    -0.507 OA
ATOM     25  H   UNL     1      31.667  59.825  -5.046  1.00  0.00     0.293 HD
ENDBRANCH   6  24
BRANCH   8  26
ATOM     26  O   UNL     1      28.912  55.862  -5.972  1.00  0.00    -0.508 OA
ATOM     27  H   UNL     1      28.165  56.115  -6.610  1.00  0.00     0.293 HD
ENDBRANCH   8  26
TORSDOF 6
ENDMDL
MODEL 8
REMARK VINA RESULT:    -6.697     13.341     15.531
REMARK INTER + INTRA:          -8.394
REMARK INTER:                  -8.102
REMARK INTRA:                  -0.292
REMARK UNBOUND:                -0.326
REMARK SMILES O=c1c(O)c(-c2ccc(O)c(O)c2)oc2cc(O)cc(O)c12
REMARK SMILES IDX 5 1 3 2 2 3 1 4 22 5 20 6 19 7 17 8 16 9 15 10 14 11 6 12
REMARK SMILES IDX 7 13 8 14 9 15 13 16 11 17 10 18 12 20 4 22 21 24 18 26
REMARK H PARENT 10 19 12 21 4 23 21 25 18 27
REMARK Flexibility Score: inf
ROOT
ATOM      1  C   UNL     1      40.757  60.569   6.501  1.00  0.00     0.180 A 
ATOM      2  C   UNL     1      39.924  61.140   7.478  1.00  0.00     0.208 A 
ATOM      3  C   UNL     1      40.033  62.514   7.747  1.00  0.00     0.238 A 
ATOM      4  O   UNL     1      39.337  63.003   8.673  1.00  0.00    -0.285 OA
ATOM      5  C   UNL     1      40.935  63.310   6.999  1.00  0.00     0.111 A 
ATOM      6  C   UNL     1      41.098  64.720   7.156  1.00  0.00     0.134 A 
ATOM      7  C   UNL     1      42.095  65.385   6.434  1.00  0.00     0.093 A 
ATOM      8  C   UNL     1      42.894  64.706   5.515  1.00  0.00     0.123 A 
ATOM      9  C   UNL     1      42.709  63.337   5.313  1.00  0.00     0.094 A 
ATOM     10  C   UNL     1      41.746  62.639   6.046  1.00  0.00     0.146 A 
ATOM     11  O   UNL     1      41.616  61.334   5.839  1.00  0.00    -0.452 OA
ENDROOT
BRANCH   1  12
ATOM     12  C   UNL     1      40.711  59.126   6.171  1.00  0.00     0.025 A 
ATOM     13  C   UNL     1      39.988  58.650   5.067  1.00  0.00     0.016 A 
ATOM     14  C   UNL     1      39.940  57.283   4.791  1.00  0.00     0.051 A 
ATOM     15  C   UNL     1      40.600  56.363   5.614  1.00  0.00     0.157 A 
ATOM     16  C   UNL     1      41.356  58.204   7.012  1.00  0.00     0.062 A 
ATOM     17  C   UNL     1      41.315  56.830   6.743  1.00  0.00     0.158 A 
BRANCH  15  18
ATOM     18  O   UNL     1      40.518  55.010   5.280  1.00  0.00    -0.504 OA
ATOM     19  H   UNL     1      41.060  54.576   4.547  1.00  0.00     0.293 HD
ENDBRANCH  15  18
BRANCH  17  20
ATOM     20  O   UNL     1      41.990  55.975   7.615  1.00  0.00    -0.504 OA
ATOM     21  H   UNL     1      42.016  56.097   8.618  1.00  0.00     0.293 HD
ENDBRANCH  17  20
ENDBRANCH   1  12
BRANCH   2  22
ATOM     22  O   UNL     1      38.986  60.352   8.151  1.00  0.00    -0.502 OA
ATOM     23  H   UNL     1      38.690  60.550   9.099  1.00  0.00     0.293 HD
ENDBRANCH   2  22
BRANCH   6  24
ATOM     24  O   UNL     1      40.294  65.514   7.982  1.00  0.00    -0.507 OA
ATOM     25  H   UNL     1      39.515  66.071   7.667  1.00  0.00     0.293 HD
ENDBRANCH   6  24
BRANCH   8  26
ATOM     26  O   UNL     1      43.867  65.403   4.802  1.00  0.00    -0.508 OA
ATOM     27  H   UNL     1      43.620  66.138   4.149  1.00  0.00     0.293 HD
ENDBRANCH   8  26
TORSDOF 6
ENDMDL
MODEL 9
REMARK VINA RESULT:    -6.605     12.866     14.836
REMARK INTER + INTRA:          -8.282
REMARK INTER:                  -8.035
REMARK INTRA:                  -0.248
REMARK UNBOUND:                -0.326
REMARK SMILES O=c1c(O)c(-c2ccc(O)c(O)c2)oc2cc(O)cc(O)c12
REMARK SMILES IDX 5 1 3 2 2 3 1 4 22 5 20 6 19 7 17 8 16 9 15 10 14 11 6 12
REMARK SMILES IDX 7 13 8 14 9 15 13 16 11 17 10 18 12 20 4 22 21 24 18 26
REMARK H PARENT 10 19 12 21 4 23 21 25 18 27
REMARK Flexibility Score: inf
ROOT
ATOM      1  C   UNL     1      41.195  60.941   6.058  1.00  0.00     0.180 A 
ATOM      2  C   UNL     1      42.079  59.977   6.572  1.00  0.00     0.208 A 
ATOM      3  C   UNL     1      41.726  58.620   6.496  1.00  0.00     0.238 A 
ATOM      4  O   UNL     1      42.487  57.769   7.023  1.00  0.00    -0.285 OA
ATOM      5  C   UNL     1      40.520  58.239   5.857  1.00  0.00     0.111 A 
ATOM      6  C   UNL     1      40.083  56.891   5.683  1.00  0.00     0.134 A 
ATOM      7  C   UNL     1      38.822  56.640   5.130  1.00  0.00     0.093 A 
ATOM      8  C   UNL     1      38.008  57.682   4.688  1.00  0.00     0.123 A 
ATOM      9  C   UNL     1      38.447  59.002   4.803  1.00  0.00     0.094 A 
ATOM     10  C   UNL     1      39.685  59.286   5.385  1.00  0.00     0.146 A 
ATOM     11  O   UNL     1      40.057  60.556   5.495  1.00  0.00    -0.452 OA
ENDROOT
BRANCH   1  12
ATOM     12  C   UNL     1      41.490  62.391   6.116  1.00  0.00     0.025 A 
ATOM     13  C   UNL     1      42.461  62.974   5.288  1.00  0.00     0.016 A 
ATOM     14  C   UNL     1      42.738  64.339   5.377  1.00  0.00     0.051 A 
ATOM     15  C   UNL     1      42.063  65.147   6.299  1.00  0.00     0.157 A 
ATOM     16  C   UNL     1      40.826  63.194   7.057  1.00  0.00     0.062 A 
ATOM     17  C   UNL     1      41.096  64.565   7.154  1.00  0.00     0.158 A 
BRANCH  15  18
ATOM     18  O   UNL     1      42.382  66.505   6.334  1.00  0.00    -0.504 OA
ATOM     19  H   UNL     1      41.699  67.243   6.439  1.00  0.00     0.293 HD
ENDBRANCH  15  18
BRANCH  17  20
ATOM     20  O   UNL     1      40.388  65.303   8.104  1.00  0.00    -0.504 OA
ATOM     21  H   UNL     1      39.571  64.962   8.589  1.00  0.00     0.293 HD
ENDBRANCH  17  20
ENDBRANCH   1  12
BRANCH   2  22
ATOM     22  O   UNL     1      43.300  60.367   7.129  1.00  0.00    -0.502 OA
ATOM     23  H   UNL     1      43.991  59.700   7.447  1.00  0.00     0.293 HD
ENDBRANCH   2  22
BRANCH   6  24
ATOM     24  O   UNL     1      40.854  55.770   6.008  1.00  0.00    -0.507 OA
ATOM     25  H   UNL     1      40.484  54.858   6.227  1.00  0.00     0.293 HD
ENDBRANCH   6  24
BRANCH   8  26
ATOM     26  O   UNL     1      36.766  57.394   4.127  1.00  0.00    -0.508 OA
ATOM     27  H   UNL     1      36.612  57.440   3.127  1.00  0.00     0.293 HD
ENDBRANCH   8  26
TORSDOF 6
ENDMDL
