MODEL 1
REMARK VINA RESULT:    -3.839      0.000      0.000
REMARK INTER + INTRA:          -5.302
REMARK INTER:                  -5.410
REMARK INTRA:                   0.108
REMARK UNBOUND:                 0.108
REMARK SMILES CC1=CCC(=C(C)C)C(=O)CC(C)=CCC1
REMARK SMILES IDX 12 1 14 2 13 3 15 4 16 5 2 6 1 7 3 8 11 10 9 11 10 12 5 13
REMARK SMILES IDX 6 14 7 15 8 16 4 17
REMARK H PARENT
REMARK Flexibility Score: 60.00
ROOT
ATOM      1  C   UNL     1      -8.514  25.549  -9.947  1.00  0.00    -0.070 C 
ATOM      2  C   UNL     1      -9.470  25.590  -8.990  1.00  0.00    -0.027 C 
ATOM      3  C   UNL     1      -8.572  26.565 -11.059  1.00  0.00     0.039 C 
ENDROOT
BRANCH   2   4
ATOM      4  C   UNL     1      -9.501  24.740  -7.743  1.00  0.00     0.032 C 
BRANCH   4   5
ATOM      5  C   UNL     1     -10.360  23.471  -7.836  1.00  0.00     0.034 C 
BRANCH   5   6
ATOM      6  C   UNL     1      -9.784  22.279  -7.095  1.00  0.00    -0.077 C 
ATOM      7  C   UNL     1     -10.013  22.198  -5.606  1.00  0.00     0.039 C 
ATOM      8  C   UNL     1      -9.016  21.314  -7.663  1.00  0.00    -0.023 CG0
ATOM      9  G   UNL     1      -8.742  21.070  -9.134  1.00  0.00     0.000 G0
ENDBRANCH   5   6
ENDBRANCH   4   5
ENDBRANCH   2   4
BRANCH   1  10
ATOM     10  C   UNL     1      -7.440  24.484 -10.006  1.00  0.00     0.111 C 
BRANCH  10  11
ATOM     11  C   UNL     1      -8.012  23.158 -10.440  1.00  0.00     0.163 C 
ATOM     12  O   UNL     1      -8.855  23.135 -11.376  1.00  0.00    -0.294 OA
BRANCH  11  13
ATOM     13  C   UNL     1      -7.623  21.878  -9.793  1.00  0.00    -0.002 C 
ATOM     14  C   UNL     1      -6.355  21.397  -9.926  1.00  0.00    -0.069 C 
ATOM     15  C   UNL     1      -5.964  20.039  -9.393  1.00  0.00     0.039 C 
ATOM     16  C   UNL     1      -5.285  22.227 -10.595  1.00  0.00     0.039 C 
BRANCH  13  17
ATOM     17  C   UNL     1      -8.732  21.069  -9.146  1.00  0.00     0.066 CG0
ATOM     18  G   UNL     1      -9.009  21.324  -7.677  1.00  0.00     0.000 G0
ENDBRANCH  13  17
ENDBRANCH  11  13
ENDBRANCH  10  11
ENDBRANCH   1  10
TORSDOF 0
ENDMDL
MODEL 2
REMARK VINA RESULT:    -3.713      2.010      2.827
REMARK INTER + INTRA:          -5.124
REMARK INTER:                  -5.115
REMARK INTRA:                  -0.009
REMARK UNBOUND:                 0.108
REMARK SMILES CC1=CCC(=C(C)C)C(=O)CC(C)=CCC1
REMARK SMILES IDX 12 1 14 2 13 3 15 4 16 5 2 6 1 7 3 8 11 10 9 11 10 12 5 13
REMARK SMILES IDX 6 14 7 15 8 16 4 17
REMARK H PARENT
REMARK Flexibility Score: 60.00
ROOT
ATOM      1  C   UNL     1      -6.535  23.297 -10.238  1.00  0.00    -0.070 C 
ATOM      2  C   UNL     1      -7.833  23.677 -10.231  1.00  0.00    -0.027 C 
ATOM      3  C   UNL     1      -5.486  24.335  -9.925  1.00  0.00     0.039 C 
ENDROOT
BRANCH   2   4
ATOM      4  C   UNL     1      -9.018  22.756 -10.395  1.00  0.00     0.032 C 
BRANCH   4   5
ATOM      5  C   UNL     1      -9.857  22.533  -9.128  1.00  0.00     0.034 C 
BRANCH   5   6
ATOM      6  C   UNL     1      -9.279  23.181  -7.884  1.00  0.00    -0.077 C 
ATOM      7  C   UNL     1      -9.861  24.501  -7.442  1.00  0.00     0.039 C 
ATOM      8  C   UNL     1      -8.228  22.693  -7.176  1.00  0.00    -0.023 CG0
ATOM      9  G   UNL     1      -7.549  21.343  -7.305  1.00  0.00     0.000 G0
ENDBRANCH   5   6
ENDBRANCH   4   5
ENDBRANCH   2   4
BRANCH   1  10
ATOM     10  C   UNL     1      -6.074  21.909 -10.625  1.00  0.00     0.111 C 
BRANCH  10  11
ATOM     11  C   UNL     1      -6.376  20.912  -9.536  1.00  0.00     0.163 C 
ATOM     12  O   UNL     1      -6.747  19.751  -9.857  1.00  0.00    -0.294 OA
BRANCH  11  13
ATOM     13  C   UNL     1      -6.261  21.255  -8.094  1.00  0.00    -0.002 C 
ATOM     14  C   UNL     1      -5.037  21.341  -7.503  1.00  0.00    -0.069 C 
ATOM     15  C   UNL     1      -4.891  21.558  -6.015  1.00  0.00     0.039 C 
ATOM     16  C   UNL     1      -3.776  21.247  -8.330  1.00  0.00     0.039 C 
BRANCH  13  17
ATOM     17  C   UNL     1      -7.552  21.324  -7.299  1.00  0.00     0.066 CG0
ATOM     18  G   UNL     1      -8.221  22.680  -7.180  1.00  0.00     0.000 G0
ENDBRANCH  13  17
ENDBRANCH  11  13
ENDBRANCH  10  11
ENDBRANCH   1  10
TORSDOF 0
ENDMDL
MODEL 3
REMARK VINA RESULT:    -3.605      3.043      5.047
REMARK INTER + INTRA:          -4.972
REMARK INTER:                  -4.987
REMARK INTRA:                   0.015
REMARK UNBOUND:                 0.108
REMARK SMILES CC1=CCC(=C(C)C)C(=O)CC(C)=CCC1
REMARK SMILES IDX 12 1 14 2 13 3 15 4 16 5 2 6 1 7 3 8 11 10 9 11 10 12 5 13
REMARK SMILES IDX 6 14 7 15 8 16 4 17
REMARK H PARENT
REMARK Flexibility Score: 60.00
ROOT
ATOM      1  C   UNL     1      -5.146  20.237  -8.752  1.00  0.00    -0.070 C 
ATOM      2  C   UNL     1      -6.290  20.107  -9.464  1.00  0.00    -0.027 C 
ATOM      3  C   UNL     1      -4.201  19.063  -8.699  1.00  0.00     0.039 C 
ENDROOT
BRANCH   2   4
ATOM      4  C   UNL     1      -7.287  21.209  -9.731  1.00  0.00     0.032 C 
BRANCH   4   5
ATOM      5  C   UNL     1      -8.667  21.014  -9.086  1.00  0.00     0.034 C 
BRANCH   5   6
ATOM      6  C   UNL     1      -9.112  22.174  -8.215  1.00  0.00    -0.077 C 
ATOM      7  C   UNL     1     -10.118  23.140  -8.791  1.00  0.00     0.039 C 
ATOM      8  C   UNL     1      -8.618  22.448  -6.981  1.00  0.00    -0.023 CG0
ATOM      9  G   UNL     1      -7.718  21.589  -6.113  1.00  0.00     0.000 G0
ENDBRANCH   5   6
ENDBRANCH   4   5
ENDBRANCH   2   4
BRANCH   1  10
ATOM     10  C   UNL     1      -4.808  21.466  -7.936  1.00  0.00     0.111 C 
BRANCH  10  11
ATOM     11  C   UNL     1      -5.198  21.284  -6.491  1.00  0.00     0.163 C 
ATOM     12  O   UNL     1      -4.584  20.430  -5.796  1.00  0.00    -0.294 OA
BRANCH  11  13
ATOM     13  C   UNL     1      -6.290  22.071  -5.861  1.00  0.00    -0.002 C 
ATOM     14  C   UNL     1      -5.998  23.079  -4.993  1.00  0.00    -0.069 C 
ATOM     15  C   UNL     1      -7.082  23.810  -4.237  1.00  0.00     0.039 C 
ATOM     16  C   UNL     1      -4.568  23.518  -4.776  1.00  0.00     0.039 C 
BRANCH  13  17
ATOM     17  C   UNL     1      -7.709  21.586  -6.092  1.00  0.00     0.066 CG0
ATOM     18  G   UNL     1      -8.601  22.445  -6.968  1.00  0.00     0.000 G0
ENDBRANCH  13  17
ENDBRANCH  11  13
ENDBRANCH  10  11
ENDBRANCH   1  10
TORSDOF 0
ENDMDL
MODEL 4
REMARK VINA RESULT:    -3.567      2.155      5.263
REMARK INTER + INTRA:          -4.918
REMARK INTER:                  -4.794
REMARK INTRA:                  -0.124
REMARK UNBOUND:                 0.108
REMARK SMILES CC1=CCC(=C(C)C)C(=O)CC(C)=CCC1
REMARK SMILES IDX 12 1 14 2 13 3 15 4 16 5 2 6 1 7 3 8 11 10 9 11 10 12 5 13
REMARK SMILES IDX 6 14 7 15 8 16 4 17
REMARK H PARENT
REMARK Flexibility Score: 60.00
ROOT
ATOM      1  C   UNL     1      -4.574  20.695  -8.129  1.00  0.00    -0.070 C 
ATOM      2  C   UNL     1      -3.734  21.599  -8.685  1.00  0.00    -0.027 C 
ATOM      3  C   UNL     1      -4.107  19.267  -8.006  1.00  0.00     0.039 C 
ENDROOT
BRANCH   2   4
ATOM      4  C   UNL     1      -3.978  23.086  -8.775  1.00  0.00     0.032 C 
BRANCH   4   5
ATOM      5  C   UNL     1      -4.440  23.592 -10.150  1.00  0.00     0.034 C 
BRANCH   5   6
ATOM      6  C   UNL     1      -5.582  24.588 -10.089  1.00  0.00    -0.077 C 
ATOM      7  C   UNL     1      -5.235  26.047  -9.919  1.00  0.00     0.039 C 
ATOM      8  C   UNL     1      -6.898  24.257 -10.107  1.00  0.00    -0.023 CG0
ATOM      9  G   UNL     1      -7.529  22.910 -10.403  1.00  0.00     0.000 G0
ENDBRANCH   5   6
ENDBRANCH   4   5
ENDBRANCH   2   4
BRANCH   1  10
ATOM     10  C   UNL     1      -5.989  21.025  -7.703  1.00  0.00     0.111 C 
BRANCH  10  11
ATOM     11  C   UNL     1      -6.941  20.942  -8.868  1.00  0.00     0.163 C 
ATOM     12  O   UNL     1      -6.930  19.911  -9.593  1.00  0.00    -0.294 OA
BRANCH  11  13
ATOM     13  C   UNL     1      -7.886  22.041  -9.198  1.00  0.00    -0.002 C 
ATOM     14  C   UNL     1      -9.075  22.146  -8.542  1.00  0.00    -0.069 C 
ATOM     15  C   UNL     1     -10.111  23.169  -8.942  1.00  0.00     0.039 C 
ATOM     16  C   UNL     1      -9.385  21.250  -7.366  1.00  0.00     0.039 C 
BRANCH  13  17
ATOM     17  C   UNL     1      -7.543  22.907 -10.397  1.00  0.00     0.066 CG0
ATOM     18  G   UNL     1      -6.899  24.251 -10.118  1.00  0.00     0.000 G0
ENDBRANCH  13  17
ENDBRANCH  11  13
ENDBRANCH  10  11
ENDBRANCH   1  10
TORSDOF 0
ENDMDL
MODEL 5
REMARK VINA RESULT:    -3.529      1.337      3.745
REMARK INTER + INTRA:          -4.865
REMARK INTER:                  -5.078
REMARK INTRA:                   0.213
REMARK UNBOUND:                 0.108
REMARK SMILES CC1=CCC(=C(C)C)C(=O)CC(C)=CCC1
REMARK SMILES IDX 12 1 14 2 13 3 15 4 16 5 2 6 1 7 3 8 11 10 9 11 10 12 5 13
REMARK SMILES IDX 6 14 7 15 8 16 4 17
REMARK H PARENT
REMARK Flexibility Score: 60.00
ROOT
ATOM      1  C   UNL     1      -6.209  25.230  -9.970  1.00  0.00    -0.070 C 
ATOM      2  C   UNL     1      -5.228  24.390 -10.377  1.00  0.00    -0.027 C 
ATOM      3  C   UNL     1      -6.276  26.603 -10.590  1.00  0.00     0.039 C 
ENDROOT
BRANCH   2   4
ATOM      4  C   UNL     1      -5.081  22.946  -9.963  1.00  0.00     0.032 C 
BRANCH   4   5
ATOM      5  C   UNL     1      -6.065  21.971 -10.625  1.00  0.00     0.034 C 
BRANCH   5   6
ATOM      6  C   UNL     1      -6.670  20.959  -9.670  1.00  0.00    -0.077 C 
ATOM      7  C   UNL     1      -5.759  19.901  -9.097  1.00  0.00     0.039 C 
ATOM      8  C   UNL     1      -7.986  20.893  -9.347  1.00  0.00    -0.023 CG0
ATOM      9  G   UNL     1      -9.086  21.890  -9.658  1.00  0.00     0.000 G0
ENDBRANCH   5   6
ENDBRANCH   4   5
ENDBRANCH   2   4
BRANCH   1  10
ATOM     10  C   UNL     1      -7.187  24.895  -8.865  1.00  0.00     0.111 C 
BRANCH  10  11
ATOM     11  C   UNL     1      -8.480  24.361  -9.426  1.00  0.00     0.163 C 
ATOM     12  O   UNL     1      -9.007  24.948 -10.409  1.00  0.00    -0.294 OA
BRANCH  11  13
ATOM     13  C   UNL     1      -9.161  23.170  -8.853  1.00  0.00    -0.002 C 
ATOM     14  C   UNL     1      -9.672  23.211  -7.592  1.00  0.00    -0.069 C 
ATOM     15  C   UNL     1     -10.252  21.982  -6.933  1.00  0.00     0.039 C 
ATOM     16  C   UNL     1      -9.697  24.506  -6.814  1.00  0.00     0.039 C 
BRANCH  13  17
ATOM     17  C   UNL     1      -9.097  21.886  -9.661  1.00  0.00     0.066 CG0
ATOM     18  G   UNL     1      -7.981  20.915  -9.330  1.00  0.00     0.000 G0
ENDBRANCH  13  17
ENDBRANCH  11  13
ENDBRANCH  10  11
ENDBRANCH   1  10
TORSDOF 0
ENDMDL
MODEL 6
REMARK VINA RESULT:    -3.494      2.055      4.590
REMARK INTER + INTRA:          -4.815
REMARK INTER:                  -5.016
REMARK INTRA:                   0.201
REMARK UNBOUND:                 0.108
REMARK SMILES CC1=CCC(=C(C)C)C(=O)CC(C)=CCC1
REMARK SMILES IDX 12 1 14 2 13 3 15 4 16 5 2 6 1 7 3 8 11 10 9 11 10 12 5 13
REMARK SMILES IDX 6 14 7 15 8 16 4 17
REMARK H PARENT
REMARK Flexibility Score: 60.00
ROOT
ATOM      1  C   UNL     1      -6.089  21.457  -9.883  1.00  0.00    -0.070 C 
ATOM      2  C   UNL     1      -4.941  21.901  -9.322  1.00  0.00    -0.027 C 
ATOM      3  C   UNL     1      -6.583  20.083  -9.506  1.00  0.00     0.039 C 
ENDROOT
BRANCH   2   4
ATOM      4  C   UNL     1      -4.365  23.288  -9.482  1.00  0.00     0.032 C 
BRANCH   4   5
ATOM      5  C   UNL     1      -4.558  24.221  -8.279  1.00  0.00     0.034 C 
BRANCH   5   6
ATOM      6  C   UNL     1      -5.689  25.219  -8.447  1.00  0.00    -0.077 C 
ATOM      7  C   UNL     1      -5.336  26.610  -8.913  1.00  0.00     0.039 C 
ATOM      8  C   UNL     1      -6.988  24.973  -8.140  1.00  0.00    -0.023 CG0
ATOM      9  G   UNL     1      -7.641  23.650  -7.790  1.00  0.00     0.000 G0
ENDBRANCH   5   6
ENDBRANCH   4   5
ENDBRANCH   2   4
BRANCH   1  10
ATOM     10  C   UNL     1      -6.858  22.231 -10.932  1.00  0.00     0.111 C 
BRANCH  10  11
ATOM     11  C   UNL     1      -7.889  23.129 -10.299  1.00  0.00     0.163 C 
ATOM     12  O   UNL     1      -8.344  24.099 -10.963  1.00  0.00    -0.294 OA
BRANCH  11  13
ATOM     13  C   UNL     1      -8.381  22.916  -8.912  1.00  0.00    -0.002 C 
ATOM     14  C   UNL     1      -9.528  22.217  -8.689  1.00  0.00    -0.069 C 
ATOM     15  C   UNL     1     -10.123  22.095  -7.306  1.00  0.00     0.039 C 
ATOM     16  C   UNL     1     -10.233  21.513  -9.825  1.00  0.00     0.039 C 
BRANCH  13  17
ATOM     17  C   UNL     1      -7.653  23.654  -7.804  1.00  0.00     0.066 CG0
ATOM     18  G   UNL     1      -7.000  24.975  -8.163  1.00  0.00     0.000 G0
ENDBRANCH  13  17
ENDBRANCH  11  13
ENDBRANCH  10  11
ENDBRANCH   1  10
TORSDOF 0
ENDMDL
MODEL 7
REMARK VINA RESULT:    -3.493      1.805      4.829
REMARK INTER + INTRA:          -4.815
REMARK INTER:                  -4.707
REMARK INTRA:                  -0.107
REMARK UNBOUND:                 0.108
REMARK SMILES CC1=CCC(=C(C)C)C(=O)CC(C)=CCC1
REMARK SMILES IDX 12 1 14 2 13 3 15 4 16 5 2 6 1 7 3 8 11 10 9 11 10 12 5 13
REMARK SMILES IDX 6 14 7 15 8 16 4 17
REMARK H PARENT
REMARK Flexibility Score: 60.00
ROOT
ATOM      1  C   UNL     1      -6.564  21.241  -9.335  1.00  0.00    -0.070 C 
ATOM      2  C   UNL     1      -6.383  22.036 -10.414  1.00  0.00    -0.027 C 
ATOM      3  C   UNL     1      -6.378  19.754  -9.504  1.00  0.00     0.039 C 
ENDROOT
BRANCH   2   4
ATOM      4  C   UNL     1      -6.403  23.546 -10.406  1.00  0.00     0.032 C 
BRANCH   4   5
ATOM      5  C   UNL     1      -7.776  24.184 -10.659  1.00  0.00     0.034 C 
BRANCH   5   6
ATOM      6  C   UNL     1      -8.096  25.347  -9.739  1.00  0.00    -0.077 C 
ATOM      7  C   UNL     1      -7.417  26.667 -10.010  1.00  0.00     0.039 C 
ATOM      8  C   UNL     1      -8.896  25.269  -8.645  1.00  0.00    -0.023 CG0
ATOM      9  G   UNL     1      -9.801  24.130  -8.217  1.00  0.00     0.000 G0
ENDBRANCH   5   6
ENDBRANCH   4   5
ENDBRANCH   2   4
BRANCH   1  10
ATOM     10  C   UNL     1      -7.027  21.755  -7.989  1.00  0.00     0.111 C 
BRANCH  10  11
ATOM     11  C   UNL     1      -8.526  21.908  -7.951  1.00  0.00     0.163 C 
ATOM     12  O   UNL     1      -9.243  21.028  -8.500  1.00  0.00    -0.294 OA
BRANCH  11  13
ATOM     13  C   UNL     1      -9.188  23.066  -7.296  1.00  0.00    -0.002 C 
ATOM     14  C   UNL     1      -9.373  23.081  -5.947  1.00  0.00    -0.069 C 
ATOM     15  C   UNL     1     -10.157  24.180  -5.268  1.00  0.00     0.039 C 
ATOM     16  C   UNL     1      -8.773  22.002  -5.077  1.00  0.00     0.039 C 
BRANCH  13  17
ATOM     17  C   UNL     1      -9.791  24.119  -8.208  1.00  0.00     0.066 CG0
ATOM     18  G   UNL     1      -8.891  25.262  -8.637  1.00  0.00     0.000 G0
ENDBRANCH  13  17
ENDBRANCH  11  13
ENDBRANCH  10  11
ENDBRANCH   1  10
TORSDOF 0
ENDMDL
MODEL 8
REMARK VINA RESULT:    -3.440      2.478      3.388
REMARK INTER + INTRA:          -4.739
REMARK INTER:                  -4.713
REMARK INTRA:                  -0.026
REMARK UNBOUND:                 0.108
REMARK SMILES CC1=CCC(=C(C)C)C(=O)CC(C)=CCC1
REMARK SMILES IDX 12 1 14 2 13 3 15 4 16 5 2 6 1 7 3 8 11 10 9 11 10 12 5 13
REMARK SMILES IDX 6 14 7 15 8 16 4 17
REMARK H PARENT
REMARK Flexibility Score: 60.00
ROOT
ATOM      1  C   UNL     1      -9.574  22.013  -8.849  1.00  0.00    -0.070 C 
ATOM      2  C   UNL     1      -9.995  21.859  -7.572  1.00  0.00    -0.027 C 
ATOM      3  C   UNL     1     -10.506  21.605  -9.962  1.00  0.00     0.039 C 
ENDROOT
BRANCH   2   4
ATOM      4  C   UNL     1      -9.255  22.325  -6.341  1.00  0.00     0.032 C 
BRANCH   4   5
ATOM      5  C   UNL     1      -8.314  21.288  -5.711  1.00  0.00     0.034 C 
BRANCH   5   6
ATOM      6  C   UNL     1      -6.988  21.859  -5.246  1.00  0.00    -0.077 C 
ATOM      7  C   UNL     1      -6.970  22.635  -3.952  1.00  0.00     0.039 C 
ATOM      8  C   UNL     1      -5.827  21.783  -5.946  1.00  0.00    -0.023 CG0
ATOM      9  G   UNL     1      -5.523  20.963  -7.184  1.00  0.00     0.000 G0
ENDBRANCH   5   6
ENDBRANCH   4   5
ENDBRANCH   2   4
BRANCH   1  10
ATOM     10  C   UNL     1      -8.186  22.491  -9.216  1.00  0.00     0.111 C 
BRANCH  10  11
ATOM     11  C   UNL     1      -7.174  21.381  -9.080  1.00  0.00     0.163 C 
ATOM     12  O   UNL     1      -7.495  20.216  -9.441  1.00  0.00    -0.294 OA
BRANCH  11  13
ATOM     13  C   UNL     1      -5.815  21.612  -8.525  1.00  0.00    -0.002 C 
ATOM     14  C   UNL     1      -4.864  22.239  -9.271  1.00  0.00    -0.069 C 
ATOM     15  C   UNL     1      -3.440  22.372  -8.788  1.00  0.00     0.039 C 
ATOM     16  C   UNL     1      -5.216  22.848 -10.609  1.00  0.00     0.039 C 
BRANCH  13  17
ATOM     17  C   UNL     1      -5.501  20.968  -7.187  1.00  0.00     0.066 CG0
ATOM     18  G   UNL     1      -5.819  21.771  -5.940  1.00  0.00     0.000 G0
ENDBRANCH  13  17
ENDBRANCH  11  13
ENDBRANCH  10  11
ENDBRANCH   1  10
TORSDOF 0
ENDMDL
MODEL 9
REMARK VINA RESULT:    -3.321      1.604      1.923
REMARK INTER + INTRA:          -4.571
REMARK INTER:                  -4.573
REMARK INTRA:                   0.001
REMARK UNBOUND:                 0.108
REMARK SMILES CC1=CCC(=C(C)C)C(=O)CC(C)=CCC1
REMARK SMILES IDX 12 1 14 2 13 3 15 4 16 5 2 6 1 7 3 8 11 10 9 11 10 12 5 13
REMARK SMILES IDX 6 14 7 15 8 16 4 17
REMARK H PARENT
REMARK Flexibility Score: 60.00
ROOT
ATOM      1  C   UNL     1      -7.157  24.513  -8.451  1.00  0.00    -0.070 C 
ATOM      2  C   UNL     1      -8.444  24.369  -8.061  1.00  0.00    -0.027 C 
ATOM      3  C   UNL     1      -6.154  25.004  -7.436  1.00  0.00     0.039 C 
ENDROOT
BRANCH   2   4
ATOM      4  C   UNL     1      -9.553  23.775  -8.897  1.00  0.00     0.032 C 
BRANCH   4   5
ATOM      5  C   UNL     1     -10.032  22.384  -8.457  1.00  0.00     0.034 C 
BRANCH   5   6
ATOM      6  C   UNL     1      -9.254  21.802  -7.292  1.00  0.00    -0.077 C 
ATOM      7  C   UNL     1      -9.862  21.908  -5.916  1.00  0.00     0.039 C 
ATOM      8  C   UNL     1      -8.016  21.253  -7.388  1.00  0.00    -0.023 CG0
ATOM      9  G   UNL     1      -7.236  20.895  -8.639  1.00  0.00     0.000 G0
ENDBRANCH   5   6
ENDBRANCH   4   5
ENDBRANCH   2   4
BRANCH   1  10
ATOM     10  C   UNL     1      -6.686  24.291  -9.872  1.00  0.00     0.111 C 
BRANCH  10  11
ATOM     11  C   UNL     1      -6.510  22.822 -10.163  1.00  0.00     0.163 C 
ATOM     12  O   UNL     1      -6.685  22.408 -11.340  1.00  0.00    -0.294 OA
BRANCH  11  13
ATOM     13  C   UNL     1      -6.150  21.842  -9.104  1.00  0.00    -0.002 C 
ATOM     14  C   UNL     1      -4.857  21.719  -8.693  1.00  0.00    -0.069 C 
ATOM     15  C   UNL     1      -4.437  20.646  -7.717  1.00  0.00     0.039 C 
ATOM     16  C   UNL     1      -3.799  22.677  -9.187  1.00  0.00     0.039 C 
BRANCH  13  17
ATOM     17  C   UNL     1      -7.239  20.889  -8.649  1.00  0.00     0.066 CG0
ATOM     18  G   UNL     1      -8.009  21.264  -7.397  1.00  0.00     0.000 G0
ENDBRANCH  13  17
ENDBRANCH  11  13
ENDBRANCH  10  11
ENDBRANCH   1  10
TORSDOF 0
ENDMDL
