MODEL 1
REMARK VINA RESULT:    -3.654      0.000      0.000
REMARK INTER + INTRA:          -5.114
REMARK INTER:                  -4.615
REMARK INTRA:                  -0.499
REMARK UNBOUND:                -0.499
REMARK SMILES O=C(C=Cc1ccc(O)cc1)c1ccc(O)cc1O
REMARK SMILES IDX 4 1 3 2 5 3 6 4 7 5 8 6 11 7 10 8 9 9 2 11 1 12 12 13 18 14
REMARK SMILES IDX 13 15 17 16 14 17 15 18 19 19 16 21
REMARK H PARENT 9 10 19 20 16 22
REMARK Flexibility Score: inf
ROOT
ATOM      1  C   UNL     1       3.789  -2.725  17.369  1.00  0.00     0.012 C 
ATOM      2  C   UNL     1       4.084  -1.847  18.340  1.00  0.00     0.053 C 
ENDROOT
BRANCH   1   3
ATOM      3  C   UNL     1       3.167  -2.348  16.076  1.00  0.00    -0.025 A 
ATOM      4  C   UNL     1       3.855  -2.429  14.849  1.00  0.00     0.012 A 
ATOM      5  C   UNL     1       3.226  -2.051  13.658  1.00  0.00     0.047 A 
ATOM      6  C   UNL     1       1.911  -1.578  13.675  1.00  0.00     0.115 A 
ATOM      7  C   UNL     1       1.850  -1.856  16.083  1.00  0.00     0.012 A 
ATOM      8  C   UNL     1       1.224  -1.479  14.891  1.00  0.00     0.047 A 
BRANCH   6   9
ATOM      9  O   UNL     1       1.298  -1.207  12.481  1.00  0.00    -0.508 OA
ATOM     10  H   UNL     1       1.784  -1.271  11.593  1.00  0.00     0.293 HD
ENDBRANCH   6   9
ENDBRANCH   1   3
BRANCH   2  11
ATOM     11  C   UNL     1       4.706  -2.243  19.621  1.00  0.00     0.189 C 
ATOM     12  O   UNL     1       3.975  -2.317  20.644  1.00  0.00    -0.289 OA
BRANCH  11  13
ATOM     13  C   UNL     1       6.155  -2.512  19.757  1.00  0.00     0.064 A 
ATOM     14  C   UNL     1       6.697  -3.073  20.937  1.00  0.00     0.130 A 
ATOM     15  C   UNL     1       7.018  -2.155  18.706  1.00  0.00     0.020 A 
ATOM     16  C   UNL     1       8.082  -3.255  21.045  1.00  0.00     0.093 A 
ATOM     17  C   UNL     1       8.396  -2.352  18.822  1.00  0.00     0.047 A 
ATOM     18  C   UNL     1       8.931  -2.899  19.994  1.00  0.00     0.119 A 
BRANCH  14  19
ATOM     19  O   UNL     1       5.893  -3.478  22.004  1.00  0.00    -0.507 OA
ATOM     20  H   UNL     1       5.781  -2.931  22.848  1.00  0.00     0.293 HD
ENDBRANCH  14  19
BRANCH  18  21
ATOM     21  O   UNL     1      10.305  -3.095  20.123  1.00  0.00    -0.508 OA
ATOM     22  H   UNL     1      10.772  -3.872  19.671  1.00  0.00     0.293 HD
ENDBRANCH  18  21
ENDBRANCH  11  13
ENDBRANCH   2  11
TORSDOF 6
ENDMDL
MODEL 2
REMARK VINA RESULT:    -3.624      2.231      2.851
REMARK INTER + INTRA:          -5.076
REMARK INTER:                  -4.370
REMARK INTRA:                  -0.706
REMARK UNBOUND:                -0.499
REMARK SMILES O=C(C=Cc1ccc(O)cc1)c1ccc(O)cc1O
REMARK SMILES IDX 4 1 3 2 5 3 6 4 7 5 8 6 11 7 10 8 9 9 2 11 1 12 12 13 18 14
REMARK SMILES IDX 13 15 17 16 14 17 15 18 19 19 16 21
REMARK H PARENT 9 10 19 20 16 22
REMARK Flexibility Score: inf
ROOT
ATOM      1  C   UNL     1       3.280  -2.565  15.559  1.00  0.00     0.012 C 
ATOM      2  C   UNL     1       3.252  -3.069  16.802  1.00  0.00     0.053 C 
ENDROOT
BRANCH   1   3
ATOM      3  C   UNL     1       2.202  -1.725  14.984  1.00  0.00    -0.025 A 
ATOM      4  C   UNL     1       2.269  -1.183  13.685  1.00  0.00     0.012 A 
ATOM      5  C   UNL     1       1.229  -0.388  13.195  1.00  0.00     0.047 A 
ATOM      6  C   UNL     1       0.114  -0.114  13.992  1.00  0.00     0.115 A 
ATOM      7  C   UNL     1       1.083  -1.430  15.784  1.00  0.00     0.012 A 
ATOM      8  C   UNL     1       0.045  -0.635  15.289  1.00  0.00     0.047 A 
BRANCH   6   9
ATOM      9  O   UNL     1      -0.915   0.678  13.488  1.00  0.00    -0.508 OA
ATOM     10  H   UNL     1      -0.747   1.367  12.763  1.00  0.00     0.293 HD
ENDBRANCH   6   9
ENDBRANCH   1   3
BRANCH   2  11
ATOM     11  C   UNL     1       4.340  -3.902  17.357  1.00  0.00     0.189 C 
ATOM     12  O   UNL     1       4.072  -5.083  17.705  1.00  0.00    -0.289 OA
BRANCH  11  13
ATOM     13  C   UNL     1       5.714  -3.392  17.561  1.00  0.00     0.064 A 
ATOM     14  C   UNL     1       6.827  -3.982  16.917  1.00  0.00     0.130 A 
ATOM     15  C   UNL     1       5.922  -2.326  18.453  1.00  0.00     0.020 A 
ATOM     16  C   UNL     1       8.116  -3.505  17.186  1.00  0.00     0.093 A 
ATOM     17  C   UNL     1       7.212  -1.852  18.704  1.00  0.00     0.047 A 
ATOM     18  C   UNL     1       8.312  -2.443  18.073  1.00  0.00     0.119 A 
BRANCH  14  19
ATOM     19  O   UNL     1       6.686  -5.023  15.997  1.00  0.00    -0.507 OA
ATOM     20  H   UNL     1       7.349  -5.783  15.920  1.00  0.00     0.293 HD
ENDBRANCH  14  19
BRANCH  18  21
ATOM     21  O   UNL     1       9.604  -1.982  18.319  1.00  0.00    -0.508 OA
ATOM     22  H   UNL     1       9.771  -1.064  18.714  1.00  0.00     0.293 HD
ENDBRANCH  18  21
ENDBRANCH  11  13
ENDBRANCH   2  11
TORSDOF 6
ENDMDL
MODEL 3
REMARK VINA RESULT:    -3.617      1.376      7.566
REMARK INTER + INTRA:          -5.068
REMARK INTER:                  -4.611
REMARK INTRA:                  -0.457
REMARK UNBOUND:                -0.499
REMARK SMILES O=C(C=Cc1ccc(O)cc1)c1ccc(O)cc1O
REMARK SMILES IDX 4 1 3 2 5 3 6 4 7 5 8 6 11 7 10 8 9 9 2 11 1 12 12 13 18 14
REMARK SMILES IDX 13 15 17 16 14 17 15 18 19 19 16 21
REMARK H PARENT 9 10 19 20 16 22
REMARK Flexibility Score: inf
ROOT
ATOM      1  C   UNL     1       4.767  -1.960  18.870  1.00  0.00     0.012 C 
ATOM      2  C   UNL     1       4.265  -2.310  17.676  1.00  0.00     0.053 C 
ENDROOT
BRANCH   1   3
ATOM      3  C   UNL     1       6.156  -2.255  19.300  1.00  0.00    -0.025 A 
ATOM      4  C   UNL     1       7.267  -2.085  18.450  1.00  0.00     0.012 A 
ATOM      5  C   UNL     1       8.556  -2.388  18.901  1.00  0.00     0.047 A 
ATOM      6  C   UNL     1       8.754  -2.872  20.197  1.00  0.00     0.115 A 
ATOM      7  C   UNL     1       6.365  -2.758  20.596  1.00  0.00     0.012 A 
ATOM      8  C   UNL     1       7.654  -3.059  21.044  1.00  0.00     0.047 A 
BRANCH   6   9
ATOM      9  O   UNL     1      10.044  -3.168  20.632  1.00  0.00    -0.508 OA
ATOM     10  H   UNL     1      10.756  -2.451  20.704  1.00  0.00     0.293 HD
ENDBRANCH   6   9
ENDBRANCH   1   3
BRANCH   2  11
ATOM     11  C   UNL     1       2.878  -2.004  17.266  1.00  0.00     0.189 C 
ATOM     12  O   UNL     1       2.011  -1.837  18.165  1.00  0.00    -0.289 OA
BRANCH  11  13
ATOM     13  C   UNL     1       2.460  -1.930  15.849  1.00  0.00     0.064 A 
ATOM     14  C   UNL     1       1.156  -1.526  15.479  1.00  0.00     0.130 A 
ATOM     15  C   UNL     1       3.368  -2.318  14.847  1.00  0.00     0.020 A 
ATOM     16  C   UNL     1       0.786  -1.529  14.129  1.00  0.00     0.093 A 
ATOM     17  C   UNL     1       2.991  -2.305  13.503  1.00  0.00     0.047 A 
ATOM     18  C   UNL     1       1.697  -1.914  13.141  1.00  0.00     0.119 A 
BRANCH  14  19
ATOM     19  O   UNL     1       0.217  -1.100  16.420  1.00  0.00    -0.507 OA
ATOM     20  H   UNL     1      -0.780  -1.118  16.251  1.00  0.00     0.293 HD
ENDBRANCH  14  19
BRANCH  18  21
ATOM     21  O   UNL     1       1.307  -1.902  11.803  1.00  0.00    -0.508 OA
ATOM     22  H   UNL     1       0.329  -1.877  11.538  1.00  0.00     0.293 HD
ENDBRANCH  18  21
ENDBRANCH  11  13
ENDBRANCH   2  11
TORSDOF 6
ENDMDL
MODEL 4
REMARK VINA RESULT:    -3.586      2.165      7.997
REMARK INTER + INTRA:          -5.029
REMARK INTER:                  -4.622
REMARK INTRA:                  -0.407
REMARK UNBOUND:                -0.499
REMARK SMILES O=C(C=Cc1ccc(O)cc1)c1ccc(O)cc1O
REMARK SMILES IDX 4 1 3 2 5 3 6 4 7 5 8 6 11 7 10 8 9 9 2 11 1 12 12 13 18 14
REMARK SMILES IDX 13 15 17 16 14 17 15 18 19 19 16 21
REMARK H PARENT 9 10 19 20 16 22
REMARK Flexibility Score: inf
ROOT
ATOM      1  C   UNL     1       4.362  -3.306  16.766  1.00  0.00     0.012 C 
ATOM      2  C   UNL     1       3.633  -2.365  16.146  1.00  0.00     0.053 C 
ENDROOT
BRANCH   1   3
ATOM      3  C   UNL     1       5.669  -3.041  17.415  1.00  0.00    -0.025 A 
ATOM      4  C   UNL     1       5.817  -2.138  18.487  1.00  0.00     0.012 A 
ATOM      5  C   UNL     1       7.075  -1.916  19.057  1.00  0.00     0.047 A 
ATOM      6  C   UNL     1       8.200  -2.581  18.564  1.00  0.00     0.115 A 
ATOM      7  C   UNL     1       6.811  -3.693  16.916  1.00  0.00     0.012 A 
ATOM      8  C   UNL     1       8.066  -3.469  17.490  1.00  0.00     0.047 A 
BRANCH   6   9
ATOM      9  O   UNL     1       9.445  -2.351  19.144  1.00  0.00    -0.508 OA
ATOM     10  H   UNL     1      10.226  -1.999  18.601  1.00  0.00     0.293 HD
ENDBRANCH   6   9
ENDBRANCH   1   3
BRANCH   2  11
ATOM     11  C   UNL     1       2.330  -2.650  15.507  1.00  0.00     0.189 C 
ATOM     12  O   UNL     1       1.954  -3.849  15.422  1.00  0.00    -0.289 OA
BRANCH  11  13
ATOM     13  C   UNL     1       1.476  -1.591  14.926  1.00  0.00     0.064 A 
ATOM     14  C   UNL     1       1.795  -0.970  13.696  1.00  0.00     0.130 A 
ATOM     15  C   UNL     1       0.344  -1.157  15.640  1.00  0.00     0.020 A 
ATOM     16  C   UNL     1       0.990   0.070  13.215  1.00  0.00     0.093 A 
ATOM     17  C   UNL     1      -0.457  -0.127  15.144  1.00  0.00     0.047 A 
ATOM     18  C   UNL     1      -0.133   0.492  13.931  1.00  0.00     0.119 A 
BRANCH  14  19
ATOM     19  O   UNL     1       2.886  -1.373  12.923  1.00  0.00    -0.507 OA
ATOM     20  H   UNL     1       3.142  -2.343  12.796  1.00  0.00     0.293 HD
ENDBRANCH  14  19
BRANCH  18  21
ATOM     21  O   UNL     1      -0.923   1.524  13.427  1.00  0.00    -0.508 OA
ATOM     22  H   UNL     1      -0.523   2.420  13.176  1.00  0.00     0.293 HD
ENDBRANCH  18  21
ENDBRANCH  11  13
ENDBRANCH   2  11
TORSDOF 6
ENDMDL
MODEL 5
REMARK VINA RESULT:    -3.504      1.890      7.951
REMARK INTER + INTRA:          -4.925
REMARK INTER:                  -4.417
REMARK INTRA:                  -0.508
REMARK UNBOUND:                -0.499
REMARK SMILES O=C(C=Cc1ccc(O)cc1)c1ccc(O)cc1O
REMARK SMILES IDX 4 1 3 2 5 3 6 4 7 5 8 6 11 7 10 8 9 9 2 11 1 12 12 13 18 14
REMARK SMILES IDX 13 15 17 16 14 17 15 18 19 19 16 21
REMARK H PARENT 9 10 19 20 16 22
REMARK Flexibility Score: inf
ROOT
ATOM      1  C   UNL     1       4.702  -2.122  17.762  1.00  0.00     0.012 C 
ATOM      2  C   UNL     1       4.041  -2.952  16.940  1.00  0.00     0.053 C 
ENDROOT
BRANCH   1   3
ATOM      3  C   UNL     1       4.966  -2.415  19.191  1.00  0.00    -0.025 A 
ATOM      4  C   UNL     1       3.950  -2.419  20.168  1.00  0.00     0.012 A 
ATOM      5  C   UNL     1       4.254  -2.690  21.506  1.00  0.00     0.047 A 
ATOM      6  C   UNL     1       5.572  -2.951  21.890  1.00  0.00     0.115 A 
ATOM      7  C   UNL     1       6.291  -2.663  19.592  1.00  0.00     0.012 A 
ATOM      8  C   UNL     1       6.591  -2.935  20.930  1.00  0.00     0.047 A 
BRANCH   6   9
ATOM      9  O   UNL     1       5.859  -3.222  23.226  1.00  0.00    -0.508 OA
ATOM     10  H   UNL     1       5.139  -3.523  23.872  1.00  0.00     0.293 HD
ENDBRANCH   6   9
ENDBRANCH   1   3
BRANCH   2  11
ATOM     11  C   UNL     1       3.791  -2.642  15.516  1.00  0.00     0.189 C 
ATOM     12  O   UNL     1       4.665  -2.969  14.669  1.00  0.00    -0.289 OA
BRANCH  11  13
ATOM     13  C   UNL     1       2.580  -1.928  15.053  1.00  0.00     0.064 A 
ATOM     14  C   UNL     1       2.474  -1.423  13.736  1.00  0.00     0.130 A 
ATOM     15  C   UNL     1       1.530  -1.704  15.961  1.00  0.00     0.020 A 
ATOM     16  C   UNL     1       1.334  -0.701  13.361  1.00  0.00     0.093 A 
ATOM     17  C   UNL     1       0.394  -0.993  15.570  1.00  0.00     0.047 A 
ATOM     18  C   UNL     1       0.295  -0.486  14.270  1.00  0.00     0.119 A 
BRANCH  14  19
ATOM     19  O   UNL     1       3.467  -1.637  12.778  1.00  0.00    -0.507 OA
ATOM     20  H   UNL     1       3.261  -1.843  11.809  1.00  0.00     0.293 HD
ENDBRANCH  14  19
BRANCH  18  21
ATOM     21  O   UNL     1      -0.832   0.230  13.870  1.00  0.00    -0.508 OA
ATOM     22  H   UNL     1      -0.889   0.655  12.952  1.00  0.00     0.293 HD
ENDBRANCH  18  21
ENDBRANCH  11  13
ENDBRANCH   2  11
TORSDOF 6
ENDMDL
MODEL 6
REMARK VINA RESULT:    -3.498      7.583      9.111
REMARK INTER + INTRA:          -4.917
REMARK INTER:                  -4.188
REMARK INTRA:                  -0.729
REMARK UNBOUND:                -0.499
REMARK SMILES O=C(C=Cc1ccc(O)cc1)c1ccc(O)cc1O
REMARK SMILES IDX 4 1 3 2 5 3 6 4 7 5 8 6 11 7 10 8 9 9 2 11 1 12 12 13 18 14
REMARK SMILES IDX 13 15 17 16 14 17 15 18 19 19 16 21
REMARK H PARENT 9 10 19 20 16 22
REMARK Flexibility Score: inf
ROOT
ATOM      1  C   UNL     1       1.633   4.714  13.317  1.00  0.00     0.012 C 
ATOM      2  C   UNL     1       1.717   5.793  14.111  1.00  0.00     0.053 C 
ENDROOT
BRANCH   1   3
ATOM      3  C   UNL     1       0.434   3.846  13.230  1.00  0.00    -0.025 A 
ATOM      4  C   UNL     1       0.498   2.444  13.361  1.00  0.00     0.012 A 
ATOM      5  C   UNL     1      -0.662   1.669  13.259  1.00  0.00     0.047 A 
ATOM      6  C   UNL     1      -1.897   2.277  13.017  1.00  0.00     0.115 A 
ATOM      7  C   UNL     1      -0.811   4.445  12.970  1.00  0.00     0.012 A 
ATOM      8  C   UNL     1      -1.969   3.668  12.870  1.00  0.00     0.047 A 
BRANCH   6   9
ATOM      9  O   UNL     1      -3.043   1.492  12.920  1.00  0.00    -0.508 OA
ATOM     10  H   UNL     1      -3.199   0.703  13.537  1.00  0.00     0.293 HD
ENDBRANCH   6   9
ENDBRANCH   1   3
BRANCH   2  11
ATOM     11  C   UNL     1       2.921   6.648  14.181  1.00  0.00     0.189 C 
ATOM     12  O   UNL     1       2.826   7.847  13.808  1.00  0.00    -0.289 OA
BRANCH  11  13
ATOM     13  C   UNL     1       4.237   6.141  14.628  1.00  0.00     0.064 A 
ATOM     14  C   UNL     1       5.397   6.283  13.832  1.00  0.00     0.130 A 
ATOM     15  C   UNL     1       4.326   5.458  15.854  1.00  0.00     0.020 A 
ATOM     16  C   UNL     1       6.609   5.735  14.269  1.00  0.00     0.093 A 
ATOM     17  C   UNL     1       5.543   4.925  16.284  1.00  0.00     0.047 A 
ATOM     18  C   UNL     1       6.687   5.059  15.490  1.00  0.00     0.119 A 
BRANCH  14  19
ATOM     19  O   UNL     1       5.385   6.976  12.620  1.00  0.00    -0.507 OA
ATOM     20  H   UNL     1       5.948   7.799  12.450  1.00  0.00     0.293 HD
ENDBRANCH  14  19
BRANCH  18  21
ATOM     21  O   UNL     1       7.907   4.528  15.905  1.00  0.00    -0.508 OA
ATOM     22  H   UNL     1       8.287   3.688  15.486  1.00  0.00     0.293 HD
ENDBRANCH  18  21
ENDBRANCH  11  13
ENDBRANCH   2  11
TORSDOF 6
ENDMDL
MODEL 7
REMARK VINA RESULT:    -3.487      2.142      3.023
REMARK INTER + INTRA:          -4.904
REMARK INTER:                  -4.271
REMARK INTRA:                  -0.633
REMARK UNBOUND:                -0.499
REMARK SMILES O=C(C=Cc1ccc(O)cc1)c1ccc(O)cc1O
REMARK SMILES IDX 4 1 3 2 5 3 6 4 7 5 8 6 11 7 10 8 9 9 2 11 1 12 12 13 18 14
REMARK SMILES IDX 13 15 17 16 14 17 15 18 19 19 16 21
REMARK H PARENT 9 10 19 20 16 22
REMARK Flexibility Score: inf
ROOT
ATOM      1  C   UNL     1       4.423  -2.523  17.549  1.00  0.00     0.012 C 
ATOM      2  C   UNL     1       5.304  -2.006  18.420  1.00  0.00     0.053 C 
ENDROOT
BRANCH   1   3
ATOM      3  C   UNL     1       3.055  -1.989  17.343  1.00  0.00    -0.025 A 
ATOM      4  C   UNL     1       2.383  -2.075  16.108  1.00  0.00     0.012 A 
ATOM      5  C   UNL     1       1.097  -1.544  15.963  1.00  0.00     0.047 A 
ATOM      6  C   UNL     1       0.468  -0.915  17.041  1.00  0.00     0.115 A 
ATOM      7  C   UNL     1       2.420  -1.340  18.417  1.00  0.00     0.012 A 
ATOM      8  C   UNL     1       1.134  -0.812  18.269  1.00  0.00     0.047 A 
BRANCH   6   9
ATOM      9  O   UNL     1      -0.814  -0.394  16.882  1.00  0.00    -0.508 OA
ATOM     10  H   UNL     1      -1.635  -0.988  16.909  1.00  0.00     0.293 HD
ENDBRANCH   6   9
ENDBRANCH   1   3
BRANCH   2  11
ATOM     11  C   UNL     1       6.664  -2.552  18.608  1.00  0.00     0.189 C 
ATOM     12  O   UNL     1       7.314  -2.906  17.588  1.00  0.00    -0.289 OA
BRANCH  11  13
ATOM     13  C   UNL     1       7.274  -2.739  19.943  1.00  0.00     0.064 A 
ATOM     14  C   UNL     1       8.675  -2.698  20.132  1.00  0.00     0.130 A 
ATOM     15  C   UNL     1       6.441  -3.013  21.043  1.00  0.00     0.020 A 
ATOM     16  C   UNL     1       9.211  -2.940  21.403  1.00  0.00     0.093 A 
ATOM     17  C   UNL     1       6.988  -3.241  22.307  1.00  0.00     0.047 A 
ATOM     18  C   UNL     1       8.375  -3.209  22.489  1.00  0.00     0.119 A 
BRANCH  14  19
ATOM     19  O   UNL     1       9.555  -2.401  19.089  1.00  0.00    -0.507 OA
ATOM     20  H   UNL     1      10.228  -1.646  19.134  1.00  0.00     0.293 HD
ENDBRANCH  14  19
BRANCH  18  21
ATOM     21  O   UNL     1       8.932  -3.441  23.746  1.00  0.00    -0.508 OA
ATOM     22  H   UNL     1       9.468  -2.727  24.225  1.00  0.00     0.293 HD
ENDBRANCH  18  21
ENDBRANCH  11  13
ENDBRANCH   2  11
TORSDOF 6
ENDMDL
MODEL 8
REMARK VINA RESULT:    -3.394      7.552     11.461
REMARK INTER + INTRA:          -4.785
REMARK INTER:                  -4.180
REMARK INTRA:                  -0.606
REMARK UNBOUND:                -0.499
REMARK SMILES O=C(C=Cc1ccc(O)cc1)c1ccc(O)cc1O
REMARK SMILES IDX 4 1 3 2 5 3 6 4 7 5 8 6 11 7 10 8 9 9 2 11 1 12 12 13 18 14
REMARK SMILES IDX 13 15 17 16 14 17 15 18 19 19 16 21
REMARK H PARENT 9 10 19 20 16 22
REMARK Flexibility Score: inf
ROOT
ATOM      1  C   UNL     1       4.146   5.427  15.582  1.00  0.00     0.012 C 
ATOM      2  C   UNL     1       2.928   5.728  15.107  1.00  0.00     0.053 C 
ENDROOT
BRANCH   1   3
ATOM      3  C   UNL     1       4.437   5.187  17.016  1.00  0.00    -0.025 A 
ATOM      4  C   UNL     1       3.425   5.116  17.996  1.00  0.00     0.012 A 
ATOM      5  C   UNL     1       3.754   4.898  19.338  1.00  0.00     0.047 A 
ATOM      6  C   UNL     1       5.090   4.758  19.723  1.00  0.00     0.115 A 
ATOM      7  C   UNL     1       5.778   5.061  17.418  1.00  0.00     0.012 A 
ATOM      8  C   UNL     1       6.102   4.842  18.760  1.00  0.00     0.047 A 
BRANCH   6   9
ATOM      9  O   UNL     1       5.401   4.540  21.064  1.00  0.00    -0.508 OA
ATOM     10  H   UNL     1       4.704   4.644  21.793  1.00  0.00     0.293 HD
ENDBRANCH   6   9
ENDBRANCH   1   3
BRANCH   2  11
ATOM     11  C   UNL     1       2.660   5.961  13.672  1.00  0.00     0.189 C 
ATOM     12  O   UNL     1       3.505   6.613  13.003  1.00  0.00    -0.289 OA
BRANCH  11  13
ATOM     13  C   UNL     1       1.422   5.500  13.004  1.00  0.00     0.064 A 
ATOM     14  C   UNL     1       1.460   4.783  11.786  1.00  0.00     0.130 A 
ATOM     15  C   UNL     1       0.178   5.826  13.571  1.00  0.00     0.020 A 
ATOM     16  C   UNL     1       0.262   4.419  11.159  1.00  0.00     0.093 A 
ATOM     17  C   UNL     1      -1.010   5.447  12.942  1.00  0.00     0.047 A 
ATOM     18  C   UNL     1      -0.970   4.746  11.731  1.00  0.00     0.119 A 
BRANCH  14  19
ATOM     19  O   UNL     1       2.662   4.402  11.186  1.00  0.00    -0.507 OA
ATOM     20  H   UNL     1       3.567   4.601  11.591  1.00  0.00     0.293 HD
ENDBRANCH  14  19
BRANCH  18  21
ATOM     21  O   UNL     1      -2.149   4.367  11.091  1.00  0.00    -0.508 OA
ATOM     22  H   UNL     1      -2.903   5.026  10.940  1.00  0.00     0.293 HD
ENDBRANCH  18  21
ENDBRANCH  11  13
ENDBRANCH   2  11
TORSDOF 6
ENDMDL
MODEL 9
REMARK VINA RESULT:    -3.380      1.964      8.302
REMARK INTER + INTRA:          -4.768
REMARK INTER:                  -4.068
REMARK INTRA:                  -0.700
REMARK UNBOUND:                -0.499
REMARK SMILES O=C(C=Cc1ccc(O)cc1)c1ccc(O)cc1O
REMARK SMILES IDX 4 1 3 2 5 3 6 4 7 5 8 6 11 7 10 8 9 9 2 11 1 12 12 13 18 14
REMARK SMILES IDX 13 15 17 16 14 17 15 18 19 19 16 21
REMARK H PARENT 9 10 19 20 16 22
REMARK Flexibility Score: inf
ROOT
ATOM      1  C   UNL     1       3.516  -2.671  15.638  1.00  0.00     0.012 C 
ATOM      2  C   UNL     1       4.030  -2.323  14.448  1.00  0.00     0.053 C 
ENDROOT
BRANCH   1   3
ATOM      3  C   UNL     1       4.288  -2.661  16.905  1.00  0.00    -0.025 A 
ATOM      4  C   UNL     1       5.539  -3.296  17.038  1.00  0.00     0.012 A 
ATOM      5  C   UNL     1       6.221  -3.267  18.259  1.00  0.00     0.047 A 
ATOM      6  C   UNL     1       5.664  -2.615  19.363  1.00  0.00     0.115 A 
ATOM      7  C   UNL     1       3.729  -2.023  18.026  1.00  0.00     0.012 A 
ATOM      8  C   UNL     1       4.414  -1.995  19.244  1.00  0.00     0.047 A 
BRANCH   6   9
ATOM      9  O   UNL     1       6.356  -2.593  20.571  1.00  0.00    -0.508 OA
ATOM     10  H   UNL     1       6.958  -1.817  20.823  1.00  0.00     0.293 HD
ENDBRANCH   6   9
ENDBRANCH   1   3
BRANCH   2  11
ATOM     11  C   UNL     1       3.242  -2.336  13.198  1.00  0.00     0.189 C 
ATOM     12  O   UNL     1       3.794  -2.761  12.147  1.00  0.00    -0.289 OA
BRANCH  11  13
ATOM     13  C   UNL     1       1.853  -1.833  13.121  1.00  0.00     0.064 A 
ATOM     14  C   UNL     1       0.797  -2.640  12.636  1.00  0.00     0.130 A 
ATOM     15  C   UNL     1       1.586  -0.504  13.494  1.00  0.00     0.020 A 
ATOM     16  C   UNL     1      -0.491  -2.102  12.525  1.00  0.00     0.093 A 
ATOM     17  C   UNL     1       0.295   0.017  13.389  1.00  0.00     0.047 A 
ATOM     18  C   UNL     1      -0.746  -0.780  12.900  1.00  0.00     0.119 A 
BRANCH  14  19
ATOM     19  O   UNL     1       0.988  -3.976  12.279  1.00  0.00    -0.507 OA
ATOM     20  H   UNL     1       1.617  -4.264  11.540  1.00  0.00     0.293 HD
ENDBRANCH  14  19
BRANCH  18  21
ATOM     21  O   UNL     1      -2.039  -0.270  12.786  1.00  0.00    -0.508 OA
ATOM     22  H   UNL     1      -2.292   0.623  13.193  1.00  0.00     0.293 HD
ENDBRANCH  18  21
ENDBRANCH  11  13
ENDBRANCH   2  11
TORSDOF 6
ENDMDL
