MODEL 1
REMARK VINA RESULT:    -3.482      0.000      0.000
REMARK INTER + INTRA:          -7.570
REMARK INTER:                  -6.129
REMARK INTRA:                  -1.442
REMARK UNBOUND:                -1.442
REMARK SMILES CCCCCCCCCCCCCCC(=O)[O-]
REMARK SMILES IDX 9 1 10 2 11 3 12 4 13 5 14 6 15 7 16 8 17 9 8 10 7 11 6 12
REMARK SMILES IDX 5 13 4 14 3 15 2 16 1 17
REMARK H PARENT
REMARK Flexibility Score: inf
ROOT
ATOM      1  C   UNL     1      21.045   7.701  39.619  1.00  0.00     0.000 C 
ENDROOT
BRANCH   1   2
ATOM      2  C   UNL     1      21.794   9.029  39.776  1.00  0.00     0.000 C 
BRANCH   2   3
ATOM      3  C   UNL     1      22.845   9.203  38.673  1.00  0.00     0.000 C 
BRANCH   3   4
ATOM      4  C   UNL     1      22.240   9.881  37.438  1.00  0.00     0.000 C 
BRANCH   4   5
ATOM      5  C   UNL     1      22.523   9.067  36.169  1.00  0.00     0.006 C 
BRANCH   5   6
ATOM      6  C   UNL     1      21.224   8.545  35.549  1.00  0.00     0.053 C 
BRANCH   6   7
ATOM      7  C   UNL     1      21.006   7.112  35.920  1.00  0.00     0.041 C 
ATOM      8  O   UNL     1      21.927   6.453  36.471  1.00  0.00    -0.550 OA
ATOM      9  O   UNL     1      19.803   6.491  35.613  1.00  0.00    -0.550 OA
ENDBRANCH   6   7
ENDBRANCH   5   6
ENDBRANCH   4   5
ENDBRANCH   3   4
ENDBRANCH   2   3
ENDBRANCH   1   2
BRANCH   1  10
ATOM     10  C   UNL     1      19.525   7.926  39.594  1.00  0.00     0.000 C 
BRANCH  10  11
ATOM     11  C   UNL     1      19.135   9.258  38.935  1.00  0.00    -0.000 C 
BRANCH  11  12
ATOM     12  C   UNL     1      18.110  10.051  39.761  1.00  0.00    -0.000 C 
BRANCH  12  13
ATOM     13  C   UNL     1      18.330   9.833  41.264  1.00  0.00    -0.000 C 
BRANCH  13  14
ATOM     14  C   UNL     1      17.053   9.308  41.936  1.00  0.00    -0.000 C 
BRANCH  14  15
ATOM     15  C   UNL     1      16.033   8.760  40.924  1.00  0.00    -0.000 C 
BRANCH  15  16
ATOM     16  C   UNL     1      14.861   8.035  41.600  1.00  0.00    -0.003 C 
ATOM     17  C   UNL     1      13.552   8.300  40.861  1.00  0.00     0.004 C 
ENDBRANCH  15  16
ENDBRANCH  14  15
ENDBRANCH  13  14
ENDBRANCH  12  13
ENDBRANCH  11  12
ENDBRANCH  10  11
ENDBRANCH   1  10
TORSDOF 13
ENDMDL
MODEL 2
REMARK VINA RESULT:    -3.480      1.515      3.470
REMARK INTER + INTRA:          -7.567
REMARK INTER:                  -6.091
REMARK INTRA:                  -1.475
REMARK UNBOUND:                -1.442
REMARK SMILES CCCCCCCCCCCCCCC(=O)[O-]
REMARK SMILES IDX 9 1 10 2 11 3 12 4 13 5 14 6 15 7 16 8 17 9 8 10 7 11 6 12
REMARK SMILES IDX 5 13 4 14 3 15 2 16 1 17
REMARK H PARENT
REMARK Flexibility Score: inf
ROOT
ATOM      1  C   UNL     1      22.436   9.116  36.983  1.00  0.00     0.000 C 
ENDROOT
BRANCH   1   2
ATOM      2  C   UNL     1      21.643  10.107  36.123  1.00  0.00     0.000 C 
BRANCH   2   3
ATOM      3  C   UNL     1      20.564   9.386  35.306  1.00  0.00     0.000 C 
BRANCH   3   4
ATOM      4  C   UNL     1      20.614   7.872  35.541  1.00  0.00     0.000 C 
BRANCH   4   5
ATOM      5  C   UNL     1      19.320   7.199  35.069  1.00  0.00     0.006 C 
BRANCH   5   6
ATOM      6  C   UNL     1      19.566   5.733  34.699  1.00  0.00     0.053 C 
BRANCH   6   7
ATOM      7  C   UNL     1      20.835   5.596  33.920  1.00  0.00     0.041 C 
ATOM      8  O   UNL     1      20.901   6.021  32.736  1.00  0.00    -0.550 OA
ATOM      9  O   UNL     1      21.930   4.955  34.483  1.00  0.00    -0.550 OA
ENDBRANCH   6   7
ENDBRANCH   5   6
ENDBRANCH   4   5
ENDBRANCH   3   4
ENDBRANCH   2   3
ENDBRANCH   1   2
BRANCH   1  10
ATOM     10  C   UNL     1      22.762   9.719  38.358  1.00  0.00     0.000 C 
BRANCH  10  11
ATOM     11  C   UNL     1      22.089   8.961  39.513  1.00  0.00    -0.000 C 
BRANCH  11  12
ATOM     12  C   UNL     1      21.452   7.638  39.060  1.00  0.00    -0.000 C 
BRANCH  12  13
ATOM     13  C   UNL     1      19.949   7.620  39.365  1.00  0.00    -0.000 C 
BRANCH  13  14
ATOM     14  C   UNL     1      19.264   8.886  38.831  1.00  0.00    -0.000 C 
BRANCH  14  15
ATOM     15  C   UNL     1      18.633   9.735  39.947  1.00  0.00    -0.000 C 
BRANCH  15  16
ATOM     16  C   UNL     1      17.104   9.820  39.832  1.00  0.00    -0.003 C 
ATOM     17  C   UNL     1      16.425   8.953  40.890  1.00  0.00     0.004 C 
ENDBRANCH  15  16
ENDBRANCH  14  15
ENDBRANCH  13  14
ENDBRANCH  12  13
ENDBRANCH  11  12
ENDBRANCH  10  11
ENDBRANCH   1  10
TORSDOF 13
ENDMDL
MODEL 3
REMARK VINA RESULT:    -3.393      3.487      5.152
REMARK INTER + INTRA:          -7.413
REMARK INTER:                  -5.664
REMARK INTRA:                  -1.749
REMARK UNBOUND:                -1.442
REMARK SMILES CCCCCCCCCCCCCCC(=O)[O-]
REMARK SMILES IDX 9 1 10 2 11 3 12 4 13 5 14 6 15 7 16 8 17 9 8 10 7 11 6 12
REMARK SMILES IDX 5 13 4 14 3 15 2 16 1 17
REMARK H PARENT
REMARK Flexibility Score: inf
ROOT
ATOM      1  C   UNL     1      21.387  10.123  36.067  1.00  0.00     0.000 C 
ENDROOT
BRANCH   1   2
ATOM      2  C   UNL     1      20.539   9.194  35.190  1.00  0.00     0.000 C 
BRANCH   2   3
ATOM      3  C   UNL     1      19.631   8.304  36.049  1.00  0.00     0.000 C 
BRANCH   3   4
ATOM      4  C   UNL     1      19.817   6.824  35.694  1.00  0.00     0.000 C 
BRANCH   4   5
ATOM      5  C   UNL     1      21.303   6.469  35.570  1.00  0.00     0.006 C 
BRANCH   5   6
ATOM      6  C   UNL     1      21.515   5.332  34.567  1.00  0.00     0.053 C 
BRANCH   6   7
ATOM      7  C   UNL     1      21.360   5.834  33.166  1.00  0.00     0.041 C 
ATOM      8  O   UNL     1      22.085   6.774  32.746  1.00  0.00    -0.550 OA
ATOM      9  O   UNL     1      20.381   5.299  32.341  1.00  0.00    -0.550 OA
ENDBRANCH   6   7
ENDBRANCH   5   6
ENDBRANCH   4   5
ENDBRANCH   3   4
ENDBRANCH   2   3
ENDBRANCH   1   2
BRANCH   1  10
ATOM     10  C   UNL     1      21.115   9.873  37.558  1.00  0.00     0.000 C 
BRANCH  10  11
ATOM     11  C   UNL     1      22.382   9.486  38.335  1.00  0.00    -0.000 C 
BRANCH  11  12
ATOM     12  C   UNL     1      22.072   8.726  39.634  1.00  0.00    -0.000 C 
BRANCH  12  13
ATOM     13  C   UNL     1      20.808   7.870  39.482  1.00  0.00    -0.000 C 
BRANCH  13  14
ATOM     14  C   UNL     1      21.096   6.400  39.818  1.00  0.00    -0.000 C 
BRANCH  14  15
ATOM     15  C   UNL     1      22.166   5.781  38.903  1.00  0.00    -0.000 C 
BRANCH  15  16
ATOM     16  C   UNL     1      22.311   4.266  39.105  1.00  0.00    -0.003 C 
ATOM     17  C   UNL     1      23.090   3.955  40.381  1.00  0.00     0.004 C 
ENDBRANCH  15  16
ENDBRANCH  14  15
ENDBRANCH  13  14
ENDBRANCH  12  13
ENDBRANCH  11  12
ENDBRANCH  10  11
ENDBRANCH   1  10
TORSDOF 13
ENDMDL
MODEL 4
REMARK VINA RESULT:    -3.365      2.779      4.871
REMARK INTER + INTRA:          -7.364
REMARK INTER:                  -5.255
REMARK INTRA:                  -2.109
REMARK UNBOUND:                -1.442
REMARK SMILES CCCCCCCCCCCCCCC(=O)[O-]
REMARK SMILES IDX 9 1 10 2 11 3 12 4 13 5 14 6 15 7 16 8 17 9 8 10 7 11 6 12
REMARK SMILES IDX 5 13 4 14 3 15 2 16 1 17
REMARK H PARENT
REMARK Flexibility Score: inf
ROOT
ATOM      1  C   UNL     1      20.091   8.821  35.572  1.00  0.00     0.000 C 
ENDROOT
BRANCH   1   2
ATOM      2  C   UNL     1      20.745   7.594  34.926  1.00  0.00     0.000 C 
BRANCH   2   3
ATOM      3  C   UNL     1      20.411   6.317  35.707  1.00  0.00     0.000 C 
BRANCH   3   4
ATOM      4  C   UNL     1      21.679   5.511  36.014  1.00  0.00     0.000 C 
BRANCH   4   5
ATOM      5  C   UNL     1      21.340   4.212  36.754  1.00  0.00     0.006 C 
BRANCH   5   6
ATOM      6  C   UNL     1      22.206   4.051  38.008  1.00  0.00     0.053 C 
BRANCH   6   7
ATOM      7  C   UNL     1      21.349   3.991  39.232  1.00  0.00     0.041 C 
ATOM      8  O   UNL     1      20.178   3.531  39.163  1.00  0.00    -0.550 OA
ATOM      9  O   UNL     1      21.824   4.487  40.438  1.00  0.00    -0.550 OA
ENDBRANCH   6   7
ENDBRANCH   5   6
ENDBRANCH   4   5
ENDBRANCH   3   4
ENDBRANCH   2   3
ENDBRANCH   1   2
BRANCH   1  10
ATOM     10  C   UNL     1      21.154   9.802  36.090  1.00  0.00     0.000 C 
BRANCH  10  11
ATOM     11  C   UNL     1      22.306   9.094  36.821  1.00  0.00    -0.000 C 
BRANCH  11  12
ATOM     12  C   UNL     1      22.731   9.825  38.104  1.00  0.00    -0.000 C 
BRANCH  12  13
ATOM     13  C   UNL     1      22.298   9.043  39.351  1.00  0.00    -0.000 C 
BRANCH  13  14
ATOM     14  C   UNL     1      21.719   7.674  38.968  1.00  0.00    -0.000 C 
BRANCH  14  15
ATOM     15  C   UNL     1      20.204   7.581  39.214  1.00  0.00    -0.000 C 
BRANCH  15  16
ATOM     16  C   UNL     1      19.632   8.851  39.859  1.00  0.00    -0.003 C 
ATOM     17  C   UNL     1      18.667   9.560  38.913  1.00  0.00     0.004 C 
ENDBRANCH  15  16
ENDBRANCH  14  15
ENDBRANCH  13  14
ENDBRANCH  12  13
ENDBRANCH  11  12
ENDBRANCH  10  11
ENDBRANCH   1  10
TORSDOF 13
ENDMDL
MODEL 5
REMARK VINA RESULT:    -3.364     10.417     12.395
REMARK INTER + INTRA:          -7.363
REMARK INTER:                  -5.046
REMARK INTRA:                  -2.317
REMARK UNBOUND:                -1.442
REMARK SMILES CCCCCCCCCCCCCCC(=O)[O-]
REMARK SMILES IDX 9 1 10 2 11 3 12 4 13 5 14 6 15 7 16 8 17 9 8 10 7 11 6 12
REMARK SMILES IDX 5 13 4 14 3 15 2 16 1 17
REMARK H PARENT
REMARK Flexibility Score: inf
ROOT
ATOM      1  C   UNL     1      11.106   7.252  32.968  1.00  0.00     0.000 C 
ENDROOT
BRANCH   1   2
ATOM      2  C   UNL     1      10.580   5.929  33.536  1.00  0.00     0.000 C 
BRANCH   2   3
ATOM      3  C   UNL     1      11.678   4.858  33.547  1.00  0.00     0.000 C 
BRANCH   3   4
ATOM      4  C   UNL     1      12.857   5.271  32.658  1.00  0.00     0.000 C 
BRANCH   4   5
ATOM      5  C   UNL     1      13.125   4.217  31.576  1.00  0.00     0.006 C 
BRANCH   5   6
ATOM      6  C   UNL     1      14.183   4.706  30.582  1.00  0.00     0.053 C 
BRANCH   6   7
ATOM      7  C   UNL     1      13.669   4.609  29.181  1.00  0.00     0.041 C 
ATOM      8  O   UNL     1      13.567   5.643  28.469  1.00  0.00    -0.550 OA
ATOM      9  O   UNL     1      13.255   3.383  28.677  1.00  0.00    -0.550 OA
ENDBRANCH   6   7
ENDBRANCH   5   6
ENDBRANCH   4   5
ENDBRANCH   3   4
ENDBRANCH   2   3
ENDBRANCH   1   2
BRANCH   1  10
ATOM     10  C   UNL     1      10.181   7.780  31.860  1.00  0.00     0.000 C 
BRANCH  10  11
ATOM     11  C   UNL     1       9.527   6.653  31.047  1.00  0.00    -0.000 C 
BRANCH  11  12
ATOM     12  C   UNL     1      10.199   6.441  29.681  1.00  0.00    -0.000 C 
BRANCH  12  13
ATOM     13  C   UNL     1      10.070   4.982  29.225  1.00  0.00    -0.000 C 
BRANCH  13  14
ATOM     14  C   UNL     1       9.753   4.061  30.412  1.00  0.00    -0.000 C 
BRANCH  14  15
ATOM     15  C   UNL     1       9.973   2.575  30.084  1.00  0.00    -0.000 C 
BRANCH  15  16
ATOM     16  C   UNL     1       9.725   1.661  31.292  1.00  0.00    -0.003 C 
ATOM     17  C   UNL     1       8.942   2.390  32.381  1.00  0.00     0.004 C 
ENDBRANCH  15  16
ENDBRANCH  14  15
ENDBRANCH  13  14
ENDBRANCH  12  13
ENDBRANCH  11  12
ENDBRANCH  10  11
ENDBRANCH   1  10
TORSDOF 13
ENDMDL
MODEL 6
REMARK VINA RESULT:    -3.339      2.971      6.881
REMARK INTER + INTRA:          -7.318
REMARK INTER:                  -5.687
REMARK INTRA:                  -1.631
REMARK UNBOUND:                -1.442
REMARK SMILES CCCCCCCCCCCCCCC(=O)[O-]
REMARK SMILES IDX 9 1 10 2 11 3 12 4 13 5 14 6 15 7 16 8 17 9 8 10 7 11 6 12
REMARK SMILES IDX 5 13 4 14 3 15 2 16 1 17
REMARK H PARENT
REMARK Flexibility Score: inf
ROOT
ATOM      1  C   UNL     1      22.373   9.419  36.379  1.00  0.00     0.000 C 
ENDROOT
BRANCH   1   2
ATOM      2  C   UNL     1      22.751   9.419  37.865  1.00  0.00     0.000 C 
BRANCH   2   3
ATOM      3  C   UNL     1      21.500   9.371  38.751  1.00  0.00     0.000 C 
BRANCH   3   4
ATOM      4  C   UNL     1      21.281   7.964  39.320  1.00  0.00     0.000 C 
BRANCH   4   5
ATOM      5  C   UNL     1      19.815   7.752  39.714  1.00  0.00     0.006 C 
BRANCH   5   6
ATOM      6  C   UNL     1      18.959   8.959  39.320  1.00  0.00     0.053 C 
BRANCH   6   7
ATOM      7  C   UNL     1      18.112   9.398  40.473  1.00  0.00     0.041 C 
ATOM      8  O   UNL     1      16.857   9.404  40.372  1.00  0.00    -0.550 OA
ATOM      9  O   UNL     1      18.710   9.848  41.643  1.00  0.00    -0.550 OA
ENDBRANCH   6   7
ENDBRANCH   5   6
ENDBRANCH   4   5
ENDBRANCH   3   4
ENDBRANCH   2   3
ENDBRANCH   1   2
BRANCH   1  10
ATOM     10  C   UNL     1      20.904   9.828  36.185  1.00  0.00     0.000 C 
BRANCH  10  11
ATOM     11  C   UNL     1      20.144   8.877  35.248  1.00  0.00    -0.000 C 
BRANCH  11  12
ATOM     12  C   UNL     1      19.746   7.561  35.935  1.00  0.00    -0.000 C 
BRANCH  12  13
ATOM     13  C   UNL     1      20.561   6.385  35.382  1.00  0.00    -0.000 C 
BRANCH  13  14
ATOM     14  C   UNL     1      21.272   6.773  34.078  1.00  0.00    -0.000 C 
BRANCH  14  15
ATOM     15  C   UNL     1      20.990   5.786  32.933  1.00  0.00    -0.000 C 
BRANCH  15  16
ATOM     16  C   UNL     1      22.274   5.197  32.331  1.00  0.00    -0.003 C 
ATOM     17  C   UNL     1      22.894   4.163  33.268  1.00  0.00     0.004 C 
ENDBRANCH  15  16
ENDBRANCH  14  15
ENDBRANCH  13  14
ENDBRANCH  12  13
ENDBRANCH  11  12
ENDBRANCH  10  11
ENDBRANCH   1  10
TORSDOF 13
ENDMDL
MODEL 7
REMARK VINA RESULT:    -3.320      2.520      4.867
REMARK INTER + INTRA:          -7.286
REMARK INTER:                  -5.294
REMARK INTRA:                  -1.992
REMARK UNBOUND:                -1.442
REMARK SMILES CCCCCCCCCCCCCCC(=O)[O-]
REMARK SMILES IDX 9 1 10 2 11 3 12 4 13 5 14 6 15 7 16 8 17 9 8 10 7 11 6 12
REMARK SMILES IDX 5 13 4 14 3 15 2 16 1 17
REMARK H PARENT
REMARK Flexibility Score: inf
ROOT
ATOM      1  C   UNL     1      19.717   7.074  40.571  1.00  0.00     0.000 C 
ENDROOT
BRANCH   1   2
ATOM      2  C   UNL     1      20.632   5.919  40.144  1.00  0.00     0.000 C 
BRANCH   2   3
ATOM      3  C   UNL     1      21.415   6.279  38.875  1.00  0.00     0.000 C 
BRANCH   3   4
ATOM      4  C   UNL     1      20.929   5.457  37.676  1.00  0.00     0.000 C 
BRANCH   4   5
ATOM      5  C   UNL     1      21.709   5.819  36.407  1.00  0.00     0.006 C 
BRANCH   5   6
ATOM      6  C   UNL     1      21.353   4.876  35.253  1.00  0.00     0.053 C 
BRANCH   6   7
ATOM      7  C   UNL     1      21.795   5.457  33.948  1.00  0.00     0.041 C 
ATOM      8  O   UNL     1      22.496   4.774  33.155  1.00  0.00    -0.550 OA
ATOM      9  O   UNL     1      21.477   6.770  33.628  1.00  0.00    -0.550 OA
ENDBRANCH   6   7
ENDBRANCH   5   6
ENDBRANCH   4   5
ENDBRANCH   3   4
ENDBRANCH   2   3
ENDBRANCH   1   2
BRANCH   1  10
ATOM     10  C   UNL     1      20.169   8.397  39.935  1.00  0.00     0.000 C 
BRANCH  10  11
ATOM     11  C   UNL     1      18.989   9.274  39.490  1.00  0.00    -0.000 C 
BRANCH  11  12
ATOM     12  C   UNL     1      19.147   9.796  38.054  1.00  0.00    -0.000 C 
BRANCH  12  13
ATOM     13  C   UNL     1      19.247   8.636  37.055  1.00  0.00    -0.000 C 
BRANCH  13  14
ATOM     14  C   UNL     1      20.019   9.059  35.796  1.00  0.00    -0.000 C 
BRANCH  14  15
ATOM     15  C   UNL     1      21.111  10.099  36.093  1.00  0.00    -0.000 C 
BRANCH  15  16
ATOM     16  C   UNL     1      22.453   9.455  36.471  1.00  0.00    -0.003 C 
ATOM     17  C   UNL     1      22.753   9.644  37.956  1.00  0.00     0.004 C 
ENDBRANCH  15  16
ENDBRANCH  14  15
ENDBRANCH  13  14
ENDBRANCH  12  13
ENDBRANCH  11  12
ENDBRANCH  10  11
ENDBRANCH   1  10
TORSDOF 13
ENDMDL
MODEL 8
REMARK VINA RESULT:    -3.279      8.808     12.780
REMARK INTER + INTRA:          -7.213
REMARK INTER:                  -6.078
REMARK INTRA:                  -1.135
REMARK UNBOUND:                -1.442
REMARK SMILES CCCCCCCCCCCCCCC(=O)[O-]
REMARK SMILES IDX 9 1 10 2 11 3 12 4 13 5 14 6 15 7 16 8 17 9 8 10 7 11 6 12
REMARK SMILES IDX 5 13 4 14 3 15 2 16 1 17
REMARK H PARENT
REMARK Flexibility Score: inf
ROOT
ATOM      1  C   UNL     1      21.802   4.208  27.690  1.00  0.00     0.000 C 
ENDROOT
BRANCH   1   2
ATOM      2  C   UNL     1      21.740   2.731  28.096  1.00  0.00     0.000 C 
BRANCH   2   3
ATOM      3  C   UNL     1      22.988   2.325  28.890  1.00  0.00     0.000 C 
BRANCH   3   4
ATOM      4  C   UNL     1      22.613   1.844  30.297  1.00  0.00     0.000 C 
BRANCH   4   5
ATOM      5  C   UNL     1      21.608   2.797  30.955  1.00  0.00     0.006 C 
BRANCH   5   6
ATOM      6  C   UNL     1      22.303   3.723  31.958  1.00  0.00     0.053 C 
BRANCH   6   7
ATOM      7  C   UNL     1      21.712   5.096  31.898  1.00  0.00     0.041 C 
ATOM      8  O   UNL     1      20.506   5.281  32.210  1.00  0.00    -0.550 OA
ATOM      9  O   UNL     1      22.479   6.163  31.450  1.00  0.00    -0.550 OA
ENDBRANCH   6   7
ENDBRANCH   5   6
ENDBRANCH   4   5
ENDBRANCH   3   4
ENDBRANCH   2   3
ENDBRANCH   1   2
BRANCH   1  10
ATOM     10  C   UNL     1      23.157   4.545  27.048  1.00  0.00     0.000 C 
BRANCH  10  11
ATOM     11  C   UNL     1      23.133   5.874  26.278  1.00  0.00    -0.000 C 
BRANCH  11  12
ATOM     12  C   UNL     1      24.534   6.329  25.839  1.00  0.00    -0.000 C 
BRANCH  12  13
ATOM     13  C   UNL     1      25.562   6.093  26.952  1.00  0.00    -0.000 C 
BRANCH  13  14
ATOM     14  C   UNL     1      26.272   7.401  27.331  1.00  0.00    -0.000 C 
BRANCH  14  15
ATOM     15  C   UNL     1      25.456   8.256  28.314  1.00  0.00    -0.000 C 
BRANCH  15  16
ATOM     16  C   UNL     1      24.935   9.552  27.678  1.00  0.00    -0.003 C 
ATOM     17  C   UNL     1      23.423   9.495  27.476  1.00  0.00     0.004 C 
ENDBRANCH  15  16
ENDBRANCH  14  15
ENDBRANCH  13  14
ENDBRANCH  12  13
ENDBRANCH  11  12
ENDBRANCH  10  11
ENDBRANCH   1  10
TORSDOF 13
ENDMDL
MODEL 9
REMARK VINA RESULT:    -3.265      3.750      5.650
REMARK INTER + INTRA:          -7.188
REMARK INTER:                  -5.316
REMARK INTRA:                  -1.872
REMARK UNBOUND:                -1.442
REMARK SMILES CCCCCCCCCCCCCCC(=O)[O-]
REMARK SMILES IDX 9 1 10 2 11 3 12 4 13 5 14 6 15 7 16 8 17 9 8 10 7 11 6 12
REMARK SMILES IDX 5 13 4 14 3 15 2 16 1 17
REMARK H PARENT
REMARK Flexibility Score: inf
ROOT
ATOM      1  C   UNL     1      21.589   6.245  35.774  1.00  0.00     0.000 C 
ENDROOT
BRANCH   1   2
ATOM      2  C   UNL     1      21.965   4.876  36.355  1.00  0.00     0.000 C 
BRANCH   2   3
ATOM      3  C   UNL     1      21.430   3.739  35.476  1.00  0.00     0.000 C 
BRANCH   3   4
ATOM      4  C   UNL     1      22.490   3.277  34.469  1.00  0.00     0.000 C 
BRANCH   4   5
ATOM      5  C   UNL     1      21.876   3.074  33.079  1.00  0.00     0.006 C 
BRANCH   5   6
ATOM      6  C   UNL     1      22.456   4.072  32.071  1.00  0.00     0.053 C 
BRANCH   6   7
ATOM      7  C   UNL     1      21.767   5.395  32.190  1.00  0.00     0.041 C 
ATOM      8  O   UNL     1      22.442   6.451  32.311  1.00  0.00    -0.550 OA
ATOM      9  O   UNL     1      20.381   5.456  32.217  1.00  0.00    -0.550 OA
ENDBRANCH   6   7
ENDBRANCH   5   6
ENDBRANCH   4   5
ENDBRANCH   3   4
ENDBRANCH   2   3
ENDBRANCH   1   2
BRANCH   1  10
ATOM     10  C   UNL     1      20.066   6.377  35.622  1.00  0.00     0.000 C 
BRANCH  10  11
ATOM     11  C   UNL     1      19.616   7.831  35.407  1.00  0.00    -0.000 C 
BRANCH  11  12
ATOM     12  C   UNL     1      19.550   8.631  36.717  1.00  0.00    -0.000 C 
BRANCH  12  13
ATOM     13  C   UNL     1      20.510   9.826  36.680  1.00  0.00    -0.000 C 
BRANCH  13  14
ATOM     14  C   UNL     1      21.838   9.487  37.371  1.00  0.00    -0.000 C 
BRANCH  14  15
ATOM     15  C   UNL     1      21.654   9.082  38.843  1.00  0.00    -0.000 C 
BRANCH  15  16
ATOM     16  C   UNL     1      22.237   7.695  39.151  1.00  0.00    -0.003 C 
ATOM     17  C   UNL     1      21.133   6.702  39.505  1.00  0.00     0.004 C 
ENDBRANCH  15  16
ENDBRANCH  14  15
ENDBRANCH  13  14
ENDBRANCH  12  13
ENDBRANCH  11  12
ENDBRANCH  10  11
ENDBRANCH   1  10
TORSDOF 13
ENDMDL
