MODEL 1
REMARK VINA RESULT:    -4.851      0.000      0.000
REMARK INTER + INTRA:          -5.551
REMARK INTER:                  -5.418
REMARK INTRA:                  -0.133
REMARK UNBOUND:                -0.133
REMARK SMILES O=C([O-])c1ccccc1C(=O)[O-]
REMARK SMILES IDX 4 1 9 2 5 3 8 4 6 5 7 6 2 7 1 8 3 9 10 10 11 11 12 12
REMARK H PARENT
REMARK Flexibility Score: inf
ROOT
ATOM      1  C   UNL     1      35.220  18.992  11.702  1.00  0.00     0.006 A 
ATOM      2  C   UNL     1      35.665  18.861  10.358  1.00  0.00     0.006 A 
ATOM      3  C   UNL     1      34.208  19.924  12.000  1.00  0.00     0.010 A 
ATOM      4  C   UNL     1      35.038  19.620   9.352  1.00  0.00     0.010 A 
ATOM      5  C   UNL     1      33.616  20.682  10.989  1.00  0.00     0.001 A 
ATOM      6  C   UNL     1      34.022  20.522   9.666  1.00  0.00     0.001 A 
ENDROOT
BRANCH   1   7
ATOM      7  C   UNL     1      35.723  18.140  12.805  1.00  0.00     0.072 C 
ATOM      8  O   UNL     1      35.084  17.118  13.172  1.00  0.00    -0.545 OA
ATOM      9  O   UNL     1      36.875  18.500  13.494  1.00  0.00    -0.545 OA
ENDBRANCH   1   7
BRANCH   2  10
ATOM     10  C   UNL     1      36.815  18.009   9.975  1.00  0.00     0.072 C 
ATOM     11  O   UNL     1      37.903  18.535   9.619  1.00  0.00    -0.545 OA
ATOM     12  O   UNL     1      36.733  16.625  10.064  1.00  0.00    -0.545 OA
ENDBRANCH   2  10
TORSDOF 2
ENDMDL
MODEL 2
REMARK VINA RESULT:    -4.835      0.374      3.006
REMARK INTER + INTRA:          -5.533
REMARK INTER:                  -5.336
REMARK INTRA:                  -0.197
REMARK UNBOUND:                -0.133
REMARK SMILES O=C([O-])c1ccccc1C(=O)[O-]
REMARK SMILES IDX 4 1 9 2 5 3 8 4 6 5 7 6 2 7 1 8 3 9 10 10 11 11 12 12
REMARK H PARENT
REMARK Flexibility Score: inf
ROOT
ATOM      1  C   UNL     1      35.906  18.683  10.300  1.00  0.00     0.006 A 
ATOM      2  C   UNL     1      35.315  18.879  11.580  1.00  0.00     0.006 A 
ATOM      3  C   UNL     1      35.356  19.341   9.185  1.00  0.00     0.010 A 
ATOM      4  C   UNL     1      34.238  19.777  11.706  1.00  0.00     0.010 A 
ATOM      5  C   UNL     1      34.273  20.209   9.330  1.00  0.00     0.001 A 
ATOM      6  C   UNL     1      33.724  20.436  10.590  1.00  0.00     0.001 A 
ENDROOT
BRANCH   1   7
ATOM      7  C   UNL     1      37.124  17.867  10.092  1.00  0.00     0.072 C 
ATOM      8  O   UNL     1      37.046  16.618   9.946  1.00  0.00    -0.545 OA
ATOM      9  O   UNL     1      38.378  18.466  10.123  1.00  0.00    -0.545 OA
ENDBRANCH   1   7
BRANCH   2  10
ATOM     10  C   UNL     1      35.738  18.123  12.781  1.00  0.00     0.072 C 
ATOM     11  O   UNL     1      35.107  17.093  13.137  1.00  0.00    -0.545 OA
ATOM     12  O   UNL     1      36.871  18.499  13.493  1.00  0.00    -0.545 OA
ENDBRANCH   2  10
TORSDOF 2
ENDMDL
MODEL 3
REMARK VINA RESULT:    -4.823      1.518      3.442
REMARK INTER + INTRA:          -5.520
REMARK INTER:                  -5.291
REMARK INTRA:                  -0.229
REMARK UNBOUND:                -0.133
REMARK SMILES O=C([O-])c1ccccc1C(=O)[O-]
REMARK SMILES IDX 4 1 9 2 5 3 8 4 6 5 7 6 2 7 1 8 3 9 10 10 11 11 12 12
REMARK H PARENT
REMARK Flexibility Score: inf
ROOT
ATOM      1  C   UNL     1      36.898  18.529   9.540  1.00  0.00     0.006 A 
ATOM      2  C   UNL     1      36.548  18.253  10.891  1.00  0.00     0.006 A 
ATOM      3  C   UNL     1      35.977  19.205   8.719  1.00  0.00     0.010 A 
ATOM      4  C   UNL     1      35.317  18.720  11.388  1.00  0.00     0.010 A 
ATOM      5  C   UNL     1      34.752  19.639   9.228  1.00  0.00     0.001 A 
ATOM      6  C   UNL     1      34.428  19.408  10.563  1.00  0.00     0.001 A 
ENDROOT
BRANCH   1   7
ATOM      7  C   UNL     1      38.224  18.200   8.968  1.00  0.00     0.072 C 
ATOM      8  O   UNL     1      38.398  17.136   8.316  1.00  0.00    -0.545 OA
ATOM      9  O   UNL     1      39.312  19.032   9.203  1.00  0.00    -0.545 OA
ENDBRANCH   1   7
BRANCH   2  10
ATOM     10  C   UNL     1      37.394  17.429  11.785  1.00  0.00     0.072 C 
ATOM     11  O   UNL     1      37.210  16.185  11.864  1.00  0.00    -0.545 OA
ATOM     12  O   UNL     1      38.442  18.001  12.497  1.00  0.00    -0.545 OA
ENDBRANCH   2  10
TORSDOF 2
ENDMDL
MODEL 4
REMARK VINA RESULT:    -4.809      1.351      1.776
REMARK INTER + INTRA:          -5.504
REMARK INTER:                  -5.276
REMARK INTRA:                  -0.228
REMARK UNBOUND:                -0.133
REMARK SMILES O=C([O-])c1ccccc1C(=O)[O-]
REMARK SMILES IDX 4 1 9 2 5 3 8 4 6 5 7 6 2 7 1 8 3 9 10 10 11 11 12 12
REMARK H PARENT
REMARK Flexibility Score: inf
ROOT
ATOM      1  C   UNL     1      36.312  18.324  11.165  1.00  0.00     0.006 A 
ATOM      2  C   UNL     1      36.587  18.670   9.813  1.00  0.00     0.006 A 
ATOM      3  C   UNL     1      35.121  18.780  11.760  1.00  0.00     0.010 A 
ATOM      4  C   UNL     1      35.630  19.405   9.087  1.00  0.00     0.010 A 
ATOM      5  C   UNL     1      34.198  19.527  11.027  1.00  0.00     0.001 A 
ATOM      6  C   UNL     1      34.446  19.828   9.690  1.00  0.00     0.001 A 
ENDROOT
BRANCH   1   7
ATOM      7  C   UNL     1      37.191  17.441  11.966  1.00  0.00     0.072 C 
ATOM      8  O   UNL     1      38.129  17.920  12.656  1.00  0.00    -0.545 OA
ATOM      9  O   UNL     1      37.032  16.061  11.909  1.00  0.00    -0.545 OA
ENDBRANCH   1   7
BRANCH   2  10
ATOM     10  C   UNL     1      37.873  18.353   9.152  1.00  0.00     0.072 C 
ATOM     11  O   UNL     1      38.830  19.171   9.199  1.00  0.00    -0.545 OA
ATOM     12  O   UNL     1      38.065  17.126   8.526  1.00  0.00    -0.545 OA
ENDBRANCH   2  10
TORSDOF 2
ENDMDL
MODEL 5
REMARK VINA RESULT:    -4.768      1.622      2.912
REMARK INTER + INTRA:          -5.458
REMARK INTER:                  -5.263
REMARK INTRA:                  -0.195
REMARK UNBOUND:                -0.133
REMARK SMILES O=C([O-])c1ccccc1C(=O)[O-]
REMARK SMILES IDX 4 1 9 2 5 3 8 4 6 5 7 6 2 7 1 8 3 9 10 10 11 11 12 12
REMARK H PARENT
REMARK Flexibility Score: inf
ROOT
ATOM      1  C   UNL     1      35.520  18.771  10.460  1.00  0.00     0.006 A 
ATOM      2  C   UNL     1      36.789  18.129  10.515  1.00  0.00     0.006 A 
ATOM      3  C   UNL     1      35.099  19.352   9.250  1.00  0.00     0.010 A 
ATOM      4  C   UNL     1      37.560  18.036   9.341  1.00  0.00     0.010 A 
ATOM      5  C   UNL     1      35.891  19.268   8.104  1.00  0.00     0.001 A 
ATOM      6  C   UNL     1      37.113  18.601   8.147  1.00  0.00     0.001 A 
ENDROOT
BRANCH   1   7
ATOM      7  C   UNL     1      34.580  18.797  11.605  1.00  0.00     0.072 C 
ATOM      8  O   UNL     1      34.384  19.860  12.252  1.00  0.00    -0.545 OA
ATOM      9  O   UNL     1      33.954  17.628  12.021  1.00  0.00    -0.545 OA
ENDBRANCH   1   7
BRANCH   2  10
ATOM     10  C   UNL     1      37.370  17.613  11.775  1.00  0.00     0.072 C 
ATOM     11  O   UNL     1      37.376  16.375  12.011  1.00  0.00    -0.545 OA
ATOM     12  O   UNL     1      37.974  18.474  12.683  1.00  0.00    -0.545 OA
ENDBRANCH   2  10
TORSDOF 2
ENDMDL
MODEL 6
REMARK VINA RESULT:    -4.723      1.601      3.045
REMARK INTER + INTRA:          -5.408
REMARK INTER:                  -5.218
REMARK INTRA:                  -0.191
REMARK UNBOUND:                -0.133
REMARK SMILES O=C([O-])c1ccccc1C(=O)[O-]
REMARK SMILES IDX 4 1 9 2 5 3 8 4 6 5 7 6 2 7 1 8 3 9 10 10 11 11 12 12
REMARK H PARENT
REMARK Flexibility Score: inf
ROOT
ATOM      1  C   UNL     1      36.689  18.132  10.567  1.00  0.00     0.006 A 
ATOM      2  C   UNL     1      35.439  18.811  10.574  1.00  0.00     0.006 A 
ATOM      3  C   UNL     1      37.423  18.061   9.368  1.00  0.00     0.010 A 
ATOM      4  C   UNL     1      35.000  19.448   9.398  1.00  0.00     0.010 A 
ATOM      5  C   UNL     1      36.957  18.682   8.209  1.00  0.00     0.001 A 
ATOM      6  C   UNL     1      35.754  19.384   8.227  1.00  0.00     0.001 A 
ENDROOT
BRANCH   1   7
ATOM      7  C   UNL     1      37.297  17.550  11.786  1.00  0.00     0.072 C 
ATOM      8  O   UNL     1      37.251  16.310  12.000  1.00  0.00    -0.545 OA
ATOM      9  O   UNL     1      37.868  18.379  12.745  1.00  0.00    -0.545 OA
ENDBRANCH   1   7
BRANCH   2  10
ATOM     10  C   UNL     1      34.538  18.817  11.749  1.00  0.00     0.072 C 
ATOM     11  O   UNL     1      34.319  19.888  12.375  1.00  0.00    -0.545 OA
ATOM     12  O   UNL     1      33.873  17.660  12.140  1.00  0.00    -0.545 OA
ENDBRANCH   2  10
TORSDOF 2
ENDMDL
MODEL 7
REMARK VINA RESULT:    -4.658      6.955      8.332
REMARK INTER + INTRA:          -5.335
REMARK INTER:                  -5.105
REMARK INTRA:                  -0.230
REMARK UNBOUND:                -0.133
REMARK SMILES O=C([O-])c1ccccc1C(=O)[O-]
REMARK SMILES IDX 4 1 9 2 5 3 8 4 6 5 7 6 2 7 1 8 3 9 10 10 11 11 12 12
REMARK H PARENT
REMARK Flexibility Score: inf
ROOT
ATOM      1  C   UNL     1      31.696  13.273  14.920  1.00  0.00     0.006 A 
ATOM      2  C   UNL     1      31.307  14.642  14.909  1.00  0.00     0.006 A 
ATOM      3  C   UNL     1      33.062  12.951  15.029  1.00  0.00     0.010 A 
ATOM      4  C   UNL     1      32.291  15.634  15.073  1.00  0.00     0.010 A 
ATOM      5  C   UNL     1      34.023  13.954  15.168  1.00  0.00     0.001 A 
ATOM      6  C   UNL     1      33.637  15.292  15.202  1.00  0.00     0.001 A 
ENDROOT
BRANCH   1   7
ATOM      7  C   UNL     1      30.722  12.158  14.892  1.00  0.00     0.072 C 
ATOM      8  O   UNL     1      30.354  11.652  13.799  1.00  0.00    -0.545 OA
ATOM      9  O   UNL     1      30.151  11.701  16.074  1.00  0.00    -0.545 OA
ENDBRANCH   1   7
BRANCH   2  10
ATOM     10  C   UNL     1      29.913  15.075  14.660  1.00  0.00     0.072 C 
ATOM     11  O   UNL     1      29.500  15.237  13.481  1.00  0.00    -0.545 OA
ATOM     12  O   UNL     1      29.024  15.245  15.715  1.00  0.00    -0.545 OA
ENDBRANCH   2  10
TORSDOF 2
ENDMDL
MODEL 8
REMARK VINA RESULT:    -4.626      1.295      1.888
REMARK INTER + INTRA:          -5.300
REMARK INTER:                  -5.223
REMARK INTRA:                  -0.077
REMARK UNBOUND:                -0.133
REMARK SMILES O=C([O-])c1ccccc1C(=O)[O-]
REMARK SMILES IDX 4 1 9 2 5 3 8 4 6 5 7 6 2 7 1 8 3 9 10 10 11 11 12 12
REMARK H PARENT
REMARK Flexibility Score: inf
ROOT
ATOM      1  C   UNL     1      35.737  18.416  11.053  1.00  0.00     0.006 A 
ATOM      2  C   UNL     1      35.642  19.144   9.834  1.00  0.00     0.006 A 
ATOM      3  C   UNL     1      34.856  18.725  12.105  1.00  0.00     0.010 A 
ATOM      4  C   UNL     1      34.627  20.109   9.691  1.00  0.00     0.010 A 
ATOM      5  C   UNL     1      33.872  19.701  11.949  1.00  0.00     0.001 A 
ATOM      6  C   UNL     1      33.749  20.383  10.740  1.00  0.00     0.001 A 
ENDROOT
BRANCH   1   7
ATOM      7  C   UNL     1      36.681  17.291  11.247  1.00  0.00     0.072 C 
ATOM      8  O   UNL     1      36.457  16.165  10.728  1.00  0.00    -0.545 OA
ATOM      9  O   UNL     1      37.794  17.447  12.065  1.00  0.00    -0.545 OA
ENDBRANCH   1   7
BRANCH   2  10
ATOM     10  C   UNL     1      36.613  18.983   8.728  1.00  0.00     0.072 C 
ATOM     11  O   UNL     1      36.209  18.727   7.562  1.00  0.00    -0.545 OA
ATOM     12  O   UNL     1      37.972  19.175   8.943  1.00  0.00    -0.545 OA
ENDBRANCH   2  10
TORSDOF 2
ENDMDL
MODEL 9
REMARK VINA RESULT:    -4.595      1.465      3.263
REMARK INTER + INTRA:          -5.265
REMARK INTER:                  -5.093
REMARK INTRA:                  -0.172
REMARK UNBOUND:                -0.133
REMARK SMILES O=C([O-])c1ccccc1C(=O)[O-]
REMARK SMILES IDX 4 1 9 2 5 3 8 4 6 5 7 6 2 7 1 8 3 9 10 10 11 11 12 12
REMARK H PARENT
REMARK Flexibility Score: inf
ROOT
ATOM      1  C   UNL     1      34.904  19.458   9.541  1.00  0.00     0.006 A 
ATOM      2  C   UNL     1      35.405  18.853  10.728  1.00  0.00     0.006 A 
ATOM      3  C   UNL     1      33.864  20.401   9.641  1.00  0.00     0.010 A 
ATOM      4  C   UNL     1      34.892  19.262  11.973  1.00  0.00     0.010 A 
ATOM      5  C   UNL     1      33.355  20.774  10.885  1.00  0.00     0.001 A 
ATOM      6  C   UNL     1      33.877  20.215  12.050  1.00  0.00     0.001 A 
ENDROOT
BRANCH   1   7
ATOM      7  C   UNL     1      35.474  19.194   8.200  1.00  0.00     0.072 C 
ATOM      8  O   UNL     1      34.812  18.567   7.331  1.00  0.00    -0.545 OA
ATOM      9  O   UNL     1      36.777  19.579   7.908  1.00  0.00    -0.545 OA
ENDBRANCH   1   7
BRANCH   2  10
ATOM     10  C   UNL     1      36.398  17.754  10.708  1.00  0.00     0.072 C 
ATOM     11  O   UNL     1      36.017  16.557  10.606  1.00  0.00    -0.545 OA
ATOM     12  O   UNL     1      37.760  18.029  10.735  1.00  0.00    -0.545 OA
ENDBRANCH   2  10
TORSDOF 2
ENDMDL
