MODEL 1
REMARK VINA RESULT:    -6.190      0.000      0.000
REMARK INTER + INTRA:         -13.037
REMARK INTER:                 -11.619
REMARK INTRA:                  -1.419
REMARK UNBOUND:                -1.419
REMARK SMILES CCCCCCCCC=CCCCCCCCC(=O)[O-]
REMARK SMILES IDX 10 1 9 2 11 3 12 4 13 5 14 6 15 7 16 8 17 9 18 10 19 11
REMARK SMILES IDX 20 12 8 13 7 14 6 15 5 16 4 17 3 18 2 19 1 20
REMARK H PARENT
REMARK Flexibility Score: inf
ROOT
ATOM      1  C   UNL     1       0.123  44.854  -0.961  1.00  0.00    -0.031 C 
ATOM      2  C   UNL     1       0.756  44.679   0.208  1.00  0.00    -0.031 C 
ENDROOT
BRANCH   1   3
ATOM      3  C   UNL     1      -1.365  45.075  -1.002  1.00  0.00     0.027 C 
BRANCH   3   4
ATOM      4  C   UNL     1      -1.796  46.137   0.018  1.00  0.00     0.004 C 
BRANCH   4   5
ATOM      5  C   UNL     1      -2.987  45.676   0.886  1.00  0.00     0.000 C 
BRANCH   5   6
ATOM      6  C   UNL     1      -2.762  44.319   1.577  1.00  0.00     0.000 C 
BRANCH   6   7
ATOM      7  C   UNL     1      -1.935  44.379   2.876  1.00  0.00     0.000 C 
BRANCH   7   8
ATOM      8  C   UNL     1      -2.733  44.755   4.142  1.00  0.00     0.006 C 
BRANCH   8   9
ATOM      9  C   UNL     1      -1.946  45.587   5.167  1.00  0.00     0.053 C 
BRANCH   9  10
ATOM     10  C   UNL     1      -2.711  45.779   6.440  1.00  0.00     0.041 C 
ATOM     11  O   UNL     1      -3.953  45.570   6.471  1.00  0.00    -0.550 OA
ATOM     12  O   UNL     1      -2.059  46.221   7.584  1.00  0.00    -0.550 OA
ENDBRANCH   9  10
ENDBRANCH   8   9
ENDBRANCH   7   8
ENDBRANCH   6   7
ENDBRANCH   5   6
ENDBRANCH   4   5
ENDBRANCH   3   4
ENDBRANCH   1   3
BRANCH   2  13
ATOM     13  C   UNL     1       2.243  44.457   0.277  1.00  0.00     0.027 C 
BRANCH  13  14
ATOM     14  C   UNL     1       2.888  45.174   1.472  1.00  0.00     0.004 C 
BRANCH  14  15
ATOM     15  C   UNL     1       1.882  45.437   2.602  1.00  0.00     0.000 C 
BRANCH  15  16
ATOM     16  C   UNL     1       2.506  46.306   3.703  1.00  0.00     0.000 C 
BRANCH  16  17
ATOM     17  C   UNL     1       3.999  46.009   3.915  1.00  0.00    -0.000 C 
BRANCH  17  18
ATOM     18  C   UNL     1       4.240  44.650   4.595  1.00  0.00    -0.000 C 
BRANCH  18  19
ATOM     19  C   UNL     1       3.874  44.665   6.087  1.00  0.00    -0.003 C 
ATOM     20  C   UNL     1       4.371  43.425   6.830  1.00  0.00     0.004 C 
ENDBRANCH  18  19
ENDBRANCH  17  18
ENDBRANCH  16  17
ENDBRANCH  15  16
ENDBRANCH  14  15
ENDBRANCH  13  14
ENDBRANCH   2  13
TORSDOF 15
ENDMDL
MODEL 2
REMARK VINA RESULT:    -6.106      3.131      6.171
REMARK INTER + INTRA:         -12.879
REMARK INTER:                 -11.680
REMARK INTRA:                  -1.200
REMARK UNBOUND:                -1.419
REMARK SMILES CCCCCCCCC=CCCCCCCCC(=O)[O-]
REMARK SMILES IDX 10 1 9 2 11 3 12 4 13 5 14 6 15 7 16 8 17 9 18 10 19 11
REMARK SMILES IDX 20 12 8 13 7 14 6 15 5 16 4 17 3 18 2 19 1 20
REMARK H PARENT
REMARK Flexibility Score: inf
ROOT
ATOM      1  C   UNL     1      -2.504  45.523   5.311  1.00  0.00    -0.031 C 
ATOM      2  C   UNL     1      -2.772  44.512   4.472  1.00  0.00    -0.031 C 
ENDROOT
BRANCH   1   3
ATOM      3  C   UNL     1      -3.078  45.539   6.701  1.00  0.00     0.027 C 
BRANCH   3   4
ATOM      4  C   UNL     1      -2.055  46.064   7.718  1.00  0.00     0.004 C 
BRANCH   4   5
ATOM      5  C   UNL     1      -0.833  46.723   7.042  1.00  0.00     0.000 C 
BRANCH   5   6
ATOM      6  C   UNL     1      -0.482  48.110   7.612  1.00  0.00     0.000 C 
BRANCH   6   7
ATOM      7  C   UNL     1       0.924  48.223   8.231  1.00  0.00     0.000 C 
BRANCH   7   8
ATOM      8  C   UNL     1       0.952  48.600   9.728  1.00  0.00     0.006 C 
BRANCH   8   9
ATOM      9  C   UNL     1       1.686  47.591  10.625  1.00  0.00     0.053 C 
BRANCH   9  10
ATOM     10  C   UNL     1       0.749  46.590  11.227  1.00  0.00     0.041 C 
ATOM     11  O   UNL     1       0.513  46.605  12.464  1.00  0.00    -0.550 OA
ATOM     12  O   UNL     1       0.160  45.619  10.426  1.00  0.00    -0.550 OA
ENDBRANCH   9  10
ENDBRANCH   8   9
ENDBRANCH   7   8
ENDBRANCH   6   7
ENDBRANCH   5   6
ENDBRANCH   4   5
ENDBRANCH   3   4
ENDBRANCH   1   3
BRANCH   2  13
ATOM     13  C   UNL     1      -2.209  44.471   3.076  1.00  0.00     0.027 C 
BRANCH  13  14
ATOM     14  C   UNL     1      -1.432  45.747   2.721  1.00  0.00     0.004 C 
BRANCH  14  15
ATOM     15  C   UNL     1      -1.496  46.065   1.220  1.00  0.00     0.000 C 
BRANCH  15  16
ATOM     16  C   UNL     1      -1.286  44.797   0.380  1.00  0.00     0.000 C 
BRANCH  16  17
ATOM     17  C   UNL     1       0.160  44.650  -0.118  1.00  0.00    -0.000 C 
BRANCH  17  18
ATOM     18  C   UNL     1       1.115  44.148   0.979  1.00  0.00    -0.000 C 
BRANCH  18  19
ATOM     19  C   UNL     1       2.457  44.896   0.978  1.00  0.00    -0.003 C 
ATOM     20  C   UNL     1       2.942  45.240   2.387  1.00  0.00     0.004 C 
ENDBRANCH  18  19
ENDBRANCH  17  18
ENDBRANCH  16  17
ENDBRANCH  15  16
ENDBRANCH  14  15
ENDBRANCH  13  14
ENDBRANCH   2  13
TORSDOF 15
ENDMDL
MODEL 3
REMARK VINA RESULT:    -6.014      2.456      4.051
REMARK INTER + INTRA:         -12.707
REMARK INTER:                 -11.173
REMARK INTRA:                  -1.534
REMARK UNBOUND:                -1.419
REMARK SMILES CCCCCCCCC=CCCCCCCCC(=O)[O-]
REMARK SMILES IDX 10 1 9 2 11 3 12 4 13 5 14 6 15 7 16 8 17 9 18 10 19 11
REMARK SMILES IDX 20 12 8 13 7 14 6 15 5 16 4 17 3 18 2 19 1 20
REMARK H PARENT
REMARK Flexibility Score: inf
ROOT
ATOM      1  C   UNL     1       2.387  45.133   2.163  1.00  0.00    -0.031 C 
ATOM      2  C   UNL     1       3.250  45.976   2.748  1.00  0.00    -0.031 C 
ENDROOT
BRANCH   1   3
ATOM      3  C   UNL     1       2.655  44.596   0.784  1.00  0.00     0.027 C 
BRANCH   3   4
ATOM      4  C   UNL     1       1.392  44.646  -0.087  1.00  0.00     0.004 C 
BRANCH   4   5
ATOM      5  C   UNL     1       0.101  44.413   0.729  1.00  0.00     0.000 C 
BRANCH   5   6
ATOM      6  C   UNL     1      -1.018  45.424   0.421  1.00  0.00     0.000 C 
BRANCH   6   7
ATOM      7  C   UNL     1      -1.783  45.945   1.653  1.00  0.00     0.000 C 
BRANCH   7   8
ATOM      8  C   UNL     1      -1.584  45.120   2.942  1.00  0.00     0.006 C 
BRANCH   8   9
ATOM      9  C   UNL     1      -2.811  44.301   3.371  1.00  0.00     0.053 C 
BRANCH   9  10
ATOM     10  C   UNL     1      -3.058  44.390   4.845  1.00  0.00     0.041 C 
ATOM     11  O   UNL     1      -3.223  45.511   5.394  1.00  0.00    -0.550 OA
ATOM     12  O   UNL     1      -3.071  43.236   5.619  1.00  0.00    -0.550 OA
ENDBRANCH   9  10
ENDBRANCH   8   9
ENDBRANCH   7   8
ENDBRANCH   6   7
ENDBRANCH   5   6
ENDBRANCH   4   5
ENDBRANCH   3   4
ENDBRANCH   1   3
BRANCH   2  13
ATOM     13  C   UNL     1       3.005  46.526   4.128  1.00  0.00     0.027 C 
BRANCH  13  14
ATOM     14  C   UNL     1       1.531  46.423   4.547  1.00  0.00     0.004 C 
BRANCH  14  15
ATOM     15  C   UNL     1       1.327  46.750   6.033  1.00  0.00     0.000 C 
BRANCH  15  16
ATOM     16  C   UNL     1      -0.167  46.789   6.387  1.00  0.00     0.000 C 
BRANCH  16  17
ATOM     17  C   UNL     1      -0.422  47.272   7.824  1.00  0.00    -0.000 C 
BRANCH  17  18
ATOM     18  C   UNL     1       0.597  48.331   8.281  1.00  0.00    -0.000 C 
BRANCH  18  19
ATOM     19  C   UNL     1       0.794  48.337   9.804  1.00  0.00    -0.003 C 
ATOM     20  C   UNL     1       0.290  47.057  10.470  1.00  0.00     0.004 C 
ENDBRANCH  18  19
ENDBRANCH  17  18
ENDBRANCH  16  17
ENDBRANCH  15  16
ENDBRANCH  14  15
ENDBRANCH  13  14
ENDBRANCH   2  13
TORSDOF 15
ENDMDL
MODEL 4
REMARK VINA RESULT:    -5.990      2.576      4.900
REMARK INTER + INTRA:         -12.661
REMARK INTER:                 -11.344
REMARK INTRA:                  -1.317
REMARK UNBOUND:                -1.419
REMARK SMILES CCCCCCCCC=CCCCCCCCC(=O)[O-]
REMARK SMILES IDX 10 1 9 2 11 3 12 4 13 5 14 6 15 7 16 8 17 9 18 10 19 11
REMARK SMILES IDX 20 12 8 13 7 14 6 15 5 16 4 17 3 18 2 19 1 20
REMARK H PARENT
REMARK Flexibility Score: inf
ROOT
ATOM      1  C   UNL     1      -2.693  44.115   3.572  1.00  0.00    -0.031 C 
ATOM      2  C   UNL     1      -1.792  44.742   2.802  1.00  0.00    -0.031 C 
ENDROOT
BRANCH   1   3
ATOM      3  C   UNL     1      -3.123  44.706   4.887  1.00  0.00     0.027 C 
BRANCH   3   4
ATOM      4  C   UNL     1      -2.052  45.653   5.446  1.00  0.00     0.004 C 
BRANCH   4   5
ATOM      5  C   UNL     1      -2.506  46.363   6.739  1.00  0.00     0.000 C 
BRANCH   5   6
ATOM      6  C   UNL     1      -1.381  46.545   7.775  1.00  0.00     0.000 C 
BRANCH   6   7
ATOM      7  C   UNL     1      -0.168  47.357   7.283  1.00  0.00     0.000 C 
BRANCH   7   8
ATOM      8  C   UNL     1       0.393  48.375   8.299  1.00  0.00     0.006 C 
BRANCH   8   9
ATOM      9  C   UNL     1       1.430  47.797   9.274  1.00  0.00     0.053 C 
BRANCH   9  10
ATOM     10  C   UNL     1       0.818  46.817  10.227  1.00  0.00     0.041 C 
ATOM     11  O   UNL     1       1.207  45.619  10.241  1.00  0.00    -0.550 OA
ATOM     12  O   UNL     1      -0.205  47.218  11.077  1.00  0.00    -0.550 OA
ENDBRANCH   9  10
ENDBRANCH   8   9
ENDBRANCH   7   8
ENDBRANCH   6   7
ENDBRANCH   5   6
ENDBRANCH   4   5
ENDBRANCH   3   4
ENDBRANCH   1   3
BRANCH   2  13
ATOM     13  C   UNL     1      -1.346  44.172   1.482  1.00  0.00     0.027 C 
BRANCH  13  14
ATOM     14  C   UNL     1      -0.357  45.092   0.751  1.00  0.00     0.004 C 
BRANCH  14  15
ATOM     15  C   UNL     1       0.748  44.302   0.034  1.00  0.00     0.000 C 
BRANCH  15  16
ATOM     16  C   UNL     1       2.139  44.784   0.471  1.00  0.00     0.000 C 
BRANCH  16  17
ATOM     17  C   UNL     1       2.341  44.709   1.992  1.00  0.00    -0.000 C 
BRANCH  17  18
ATOM     18  C   UNL     1       3.274  45.814   2.520  1.00  0.00    -0.000 C 
BRANCH  18  19
ATOM     19  C   UNL     1       2.736  46.477   3.797  1.00  0.00    -0.003 C 
ATOM     20  C   UNL     1       1.209  46.462   3.872  1.00  0.00     0.004 C 
ENDBRANCH  18  19
ENDBRANCH  17  18
ENDBRANCH  16  17
ENDBRANCH  15  16
ENDBRANCH  14  15
ENDBRANCH  13  14
ENDBRANCH   2  13
TORSDOF 15
ENDMDL
MODEL 5
REMARK VINA RESULT:    -5.962      1.420      3.280
REMARK INTER + INTRA:         -12.609
REMARK INTER:                 -11.369
REMARK INTRA:                  -1.240
REMARK UNBOUND:                -1.419
REMARK SMILES CCCCCCCCC=CCCCCCCCC(=O)[O-]
REMARK SMILES IDX 10 1 9 2 11 3 12 4 13 5 14 6 15 7 16 8 17 9 18 10 19 11
REMARK SMILES IDX 20 12 8 13 7 14 6 15 5 16 4 17 3 18 2 19 1 20
REMARK H PARENT
REMARK Flexibility Score: inf
ROOT
ATOM      1  C   UNL     1       2.920  44.822   1.925  1.00  0.00    -0.031 C 
ATOM      2  C   UNL     1       2.585  45.657   2.920  1.00  0.00    -0.031 C 
ENDROOT
BRANCH   1   3
ATOM      3  C   UNL     1       2.139  44.808   0.640  1.00  0.00     0.027 C 
BRANCH   3   4
ATOM      4  C   UNL     1       0.795  44.088   0.815  1.00  0.00     0.004 C 
BRANCH   4   5
ATOM      5  C   UNL     1      -0.383  44.876   0.203  1.00  0.00     0.000 C 
BRANCH   5   6
ATOM      6  C   UNL     1      -1.341  45.475   1.250  1.00  0.00     0.000 C 
BRANCH   6   7
ATOM      7  C   UNL     1      -1.240  44.852   2.656  1.00  0.00     0.000 C 
BRANCH   7   8
ATOM      8  C   UNL     1      -1.704  45.765   3.810  1.00  0.00     0.006 C 
BRANCH   8   9
ATOM      9  C   UNL     1      -2.611  45.076   4.842  1.00  0.00     0.053 C 
BRANCH   9  10
ATOM     10  C   UNL     1      -2.467  45.678   6.205  1.00  0.00     0.041 C 
ATOM     11  O   UNL     1      -1.335  45.738   6.756  1.00  0.00    -0.550 OA
ATOM     12  O   UNL     1      -3.587  46.144   6.883  1.00  0.00    -0.550 OA
ENDBRANCH   9  10
ENDBRANCH   8   9
ENDBRANCH   7   8
ENDBRANCH   6   7
ENDBRANCH   5   6
ENDBRANCH   4   5
ENDBRANCH   3   4
ENDBRANCH   1   3
BRANCH   2  13
ATOM     13  C   UNL     1       3.351  45.691   4.215  1.00  0.00     0.027 C 
BRANCH  13  14
ATOM     14  C   UNL     1       4.535  44.712   4.222  1.00  0.00     0.004 C 
BRANCH  14  15
ATOM     15  C   UNL     1       5.114  44.513   5.630  1.00  0.00     0.000 C 
BRANCH  15  16
ATOM     16  C   UNL     1       4.001  44.214   6.645  1.00  0.00     0.000 C 
BRANCH  16  17
ATOM     17  C   UNL     1       4.208  42.877   7.374  1.00  0.00    -0.000 C 
BRANCH  17  18
ATOM     18  C   UNL     1       5.696  42.532   7.563  1.00  0.00    -0.000 C 
BRANCH  18  19
ATOM     19  C   UNL     1       5.907  41.337   8.506  1.00  0.00    -0.003 C 
ATOM     20  C   UNL     1       5.000  41.389   9.736  1.00  0.00     0.004 C 
ENDBRANCH  18  19
ENDBRANCH  17  18
ENDBRANCH  16  17
ENDBRANCH  15  16
ENDBRANCH  14  15
ENDBRANCH  13  14
ENDBRANCH   2  13
TORSDOF 15
ENDMDL
MODEL 6
REMARK VINA RESULT:    -5.954      2.645      6.124
REMARK INTER + INTRA:         -12.595
REMARK INTER:                 -11.401
REMARK INTRA:                  -1.193
REMARK UNBOUND:                -1.419
REMARK SMILES CCCCCCCCC=CCCCCCCCC(=O)[O-]
REMARK SMILES IDX 10 1 9 2 11 3 12 4 13 5 14 6 15 7 16 8 17 9 18 10 19 11
REMARK SMILES IDX 20 12 8 13 7 14 6 15 5 16 4 17 3 18 2 19 1 20
REMARK H PARENT
REMARK Flexibility Score: inf
ROOT
ATOM      1  C   UNL     1       0.416  44.902   1.214  1.00  0.00    -0.031 C 
ATOM      2  C   UNL     1      -0.582  44.007   1.245  1.00  0.00    -0.031 C 
ENDROOT
BRANCH   1   3
ATOM      3  C   UNL     1       1.798  44.495   0.781  1.00  0.00     0.027 C 
BRANCH   3   4
ATOM      4  C   UNL     1       2.873  45.275   1.551  1.00  0.00     0.004 C 
BRANCH   4   5
ATOM      5  C   UNL     1       2.479  45.530   3.022  1.00  0.00     0.000 C 
BRANCH   5   6
ATOM      6  C   UNL     1       3.667  45.914   3.924  1.00  0.00     0.000 C 
BRANCH   6   7
ATOM      7  C   UNL     1       4.706  44.797   4.144  1.00  0.00     0.000 C 
BRANCH   7   8
ATOM      8  C   UNL     1       5.122  44.570   5.612  1.00  0.00     0.006 C 
BRANCH   8   9
ATOM      9  C   UNL     1       3.947  44.394   6.587  1.00  0.00     0.053 C 
BRANCH   9  10
ATOM     10  C   UNL     1       4.267  43.422   7.681  1.00  0.00     0.041 C 
ATOM     11  O   UNL     1       3.447  42.515   7.983  1.00  0.00    -0.550 OA
ATOM     12  O   UNL     1       5.457  43.538   8.389  1.00  0.00    -0.550 OA
ENDBRANCH   9  10
ENDBRANCH   8   9
ENDBRANCH   7   8
ENDBRANCH   6   7
ENDBRANCH   5   6
ENDBRANCH   4   5
ENDBRANCH   3   4
ENDBRANCH   1   3
BRANCH   2  13
ATOM     13  C   UNL     1      -1.974  44.389   1.673  1.00  0.00     0.027 C 
BRANCH  13  14
ATOM     14  C   UNL     1      -2.379  43.730   3.000  1.00  0.00     0.004 C 
BRANCH  14  15
ATOM     15  C   UNL     1      -2.477  44.748   4.146  1.00  0.00     0.000 C 
BRANCH  15  16
ATOM     16  C   UNL     1      -3.355  44.209   5.286  1.00  0.00     0.000 C 
BRANCH  16  17
ATOM     17  C   UNL     1      -3.160  44.984   6.599  1.00  0.00    -0.000 C 
BRANCH  17  18
ATOM     18  C   UNL     1      -2.468  46.342   6.386  1.00  0.00    -0.000 C 
BRANCH  18  19
ATOM     19  C   UNL     1      -1.166  46.470   7.193  1.00  0.00    -0.003 C 
ATOM     20  C   UNL     1       0.053  46.729   6.308  1.00  0.00     0.004 C 
ENDBRANCH  18  19
ENDBRANCH  17  18
ENDBRANCH  16  17
ENDBRANCH  15  16
ENDBRANCH  14  15
ENDBRANCH  13  14
ENDBRANCH   2  13
TORSDOF 15
ENDMDL
MODEL 7
REMARK VINA RESULT:    -5.908      6.013      8.841
REMARK INTER + INTRA:         -12.507
REMARK INTER:                 -11.110
REMARK INTRA:                  -1.396
REMARK UNBOUND:                -1.419
REMARK SMILES CCCCCCCCC=CCCCCCCCC(=O)[O-]
REMARK SMILES IDX 10 1 9 2 11 3 12 4 13 5 14 6 15 7 16 8 17 9 18 10 19 11
REMARK SMILES IDX 20 12 8 13 7 14 6 15 5 16 4 17 3 18 2 19 1 20
REMARK H PARENT
REMARK Flexibility Score: inf
ROOT
ATOM      1  C   UNL     1       1.374  44.084  -3.209  1.00  0.00    -0.031 C 
ATOM      2  C   UNL     1       0.650  45.108  -2.734  1.00  0.00    -0.031 C 
ENDROOT
BRANCH   1   3
ATOM      3  C   UNL     1       2.786  44.298  -3.682  1.00  0.00     0.027 C 
BRANCH   3   4
ATOM      4  C   UNL     1       3.801  43.861  -2.616  1.00  0.00     0.004 C 
BRANCH   4   5
ATOM      5  C   UNL     1       5.253  44.222  -2.997  1.00  0.00     0.000 C 
BRANCH   5   6
ATOM      6  C   UNL     1       5.496  44.295  -4.516  1.00  0.00     0.000 C 
BRANCH   6   7
ATOM      7  C   UNL     1       6.208  45.572  -5.001  1.00  0.00     0.000 C 
BRANCH   7   8
ATOM      8  C   UNL     1       7.749  45.522  -4.946  1.00  0.00     0.006 C 
BRANCH   8   9
ATOM      9  C   UNL     1       8.404  46.753  -4.300  1.00  0.00     0.053 C 
BRANCH   9  10
ATOM     10  C   UNL     1       8.362  46.689  -2.804  1.00  0.00     0.041 C 
ATOM     11  O   UNL     1       8.459  45.581  -2.214  1.00  0.00    -0.550 OA
ATOM     12  O   UNL     1       8.184  47.850  -2.062  1.00  0.00    -0.550 OA
ENDBRANCH   9  10
ENDBRANCH   8   9
ENDBRANCH   7   8
ENDBRANCH   6   7
ENDBRANCH   5   6
ENDBRANCH   4   5
ENDBRANCH   3   4
ENDBRANCH   1   3
BRANCH   2  13
ATOM     13  C   UNL     1      -0.764  44.920  -2.254  1.00  0.00     0.027 C 
BRANCH  13  14
ATOM     14  C   UNL     1      -0.992  45.518  -0.857  1.00  0.00     0.004 C 
BRANCH  14  15
ATOM     15  C   UNL     1      -0.764  44.488   0.259  1.00  0.00     0.000 C 
BRANCH  15  16
ATOM     16  C   UNL     1       0.431  44.886   1.138  1.00  0.00     0.000 C 
BRANCH  16  17
ATOM     17  C   UNL     1       1.777  44.447   0.540  1.00  0.00    -0.000 C 
BRANCH  17  18
ATOM     18  C   UNL     1       2.969  44.804   1.445  1.00  0.00    -0.000 C 
BRANCH  18  19
ATOM     19  C   UNL     1       2.531  45.466   2.760  1.00  0.00    -0.003 C 
ATOM     20  C   UNL     1       3.578  46.435   3.311  1.00  0.00     0.004 C 
ENDBRANCH  18  19
ENDBRANCH  17  18
ENDBRANCH  16  17
ENDBRANCH  15  16
ENDBRANCH  14  15
ENDBRANCH  13  14
ENDBRANCH   2  13
TORSDOF 15
ENDMDL
MODEL 8
REMARK VINA RESULT:    -5.784      5.844      8.289
REMARK INTER + INTRA:         -12.275
REMARK INTER:                 -11.421
REMARK INTRA:                  -0.854
REMARK UNBOUND:                -1.419
REMARK SMILES CCCCCCCCC=CCCCCCCCC(=O)[O-]
REMARK SMILES IDX 10 1 9 2 11 3 12 4 13 5 14 6 15 7 16 8 17 9 18 10 19 11
REMARK SMILES IDX 20 12 8 13 7 14 6 15 5 16 4 17 3 18 2 19 1 20
REMARK H PARENT
REMARK Flexibility Score: inf
ROOT
ATOM      1  C   UNL     1       0.516  44.911  -2.265  1.00  0.00    -0.031 C 
ATOM      2  C   UNL     1       0.467  44.480  -0.997  1.00  0.00    -0.031 C 
ENDROOT
BRANCH   1   3
ATOM      3  C   UNL     1       1.593  44.430  -3.199  1.00  0.00     0.027 C 
BRANCH   3   4
ATOM      4  C   UNL     1       2.957  44.385  -2.496  1.00  0.00     0.004 C 
BRANCH   4   5
ATOM      5  C   UNL     1       3.588  42.976  -2.516  1.00  0.00     0.000 C 
BRANCH   5   6
ATOM      6  C   UNL     1       5.127  42.986  -2.568  1.00  0.00     0.000 C 
BRANCH   6   7
ATOM      7  C   UNL     1       5.755  44.328  -2.991  1.00  0.00     0.000 C 
BRANCH   7   8
ATOM      8  C   UNL     1       5.887  44.537  -4.515  1.00  0.00     0.006 C 
BRANCH   8   9
ATOM      9  C   UNL     1       7.252  45.076  -4.968  1.00  0.00     0.053 C 
BRANCH   9  10
ATOM     10  C   UNL     1       7.822  46.055  -3.989  1.00  0.00     0.041 C 
ATOM     11  O   UNL     1       7.323  47.206  -3.880  1.00  0.00    -0.550 OA
ATOM     12  O   UNL     1       8.926  45.708  -3.220  1.00  0.00    -0.550 OA
ENDBRANCH   9  10
ENDBRANCH   8   9
ENDBRANCH   7   8
ENDBRANCH   6   7
ENDBRANCH   5   6
ENDBRANCH   4   5
ENDBRANCH   3   4
ENDBRANCH   1   3
BRANCH   2  13
ATOM     13  C   UNL     1      -0.601  44.946  -0.043  1.00  0.00     0.027 C 
BRANCH  13  14
ATOM     14  C   UNL     1      -0.184  44.785   1.427  1.00  0.00     0.004 C 
BRANCH  14  15
ATOM     15  C   UNL     1      -0.854  45.827   2.336  1.00  0.00     0.000 C 
BRANCH  15  16
ATOM     16  C   UNL     1       0.148  46.395   3.351  1.00  0.00     0.000 C 
BRANCH  16  17
ATOM     17  C   UNL     1       1.601  46.009   3.029  1.00  0.00    -0.000 C 
BRANCH  17  18
ATOM     18  C   UNL     1       2.562  46.299   4.195  1.00  0.00    -0.000 C 
BRANCH  18  19
ATOM     19  C   UNL     1       4.012  45.910   3.872  1.00  0.00    -0.003 C 
ATOM     20  C   UNL     1       4.459  44.640   4.597  1.00  0.00     0.004 C 
ENDBRANCH  18  19
ENDBRANCH  17  18
ENDBRANCH  16  17
ENDBRANCH  15  16
ENDBRANCH  14  15
ENDBRANCH  13  14
ENDBRANCH   2  13
TORSDOF 15
ENDMDL
MODEL 9
REMARK VINA RESULT:    -5.728      3.676      7.885
REMARK INTER + INTRA:         -12.170
REMARK INTER:                 -10.917
REMARK INTRA:                  -1.253
REMARK UNBOUND:                -1.419
REMARK SMILES CCCCCCCCC=CCCCCCCCC(=O)[O-]
REMARK SMILES IDX 10 1 9 2 11 3 12 4 13 5 14 6 15 7 16 8 17 9 18 10 19 11
REMARK SMILES IDX 20 12 8 13 7 14 6 15 5 16 4 17 3 18 2 19 1 20
REMARK H PARENT
REMARK Flexibility Score: inf
ROOT
ATOM      1  C   UNL     1       3.566  44.234  10.624  1.00  0.00    -0.031 C 
ATOM      2  C   UNL     1       4.207  43.894   9.496  1.00  0.00    -0.031 C 
ENDROOT
BRANCH   1   3
ATOM      3  C   UNL     1       3.880  45.528  11.324  1.00  0.00     0.027 C 
BRANCH   3   4
ATOM      4  C   UNL     1       2.807  45.868  12.368  1.00  0.00     0.004 C 
BRANCH   4   5
ATOM      5  C   UNL     1       1.587  46.586  11.751  1.00  0.00     0.000 C 
BRANCH   5   6
ATOM      6  C   UNL     1       1.813  48.089  11.501  1.00  0.00     0.000 C 
BRANCH   6   7
ATOM      7  C   UNL     1       1.788  48.513  10.020  1.00  0.00     0.000 C 
BRANCH   7   8
ATOM      8  C   UNL     1       1.213  47.462   9.048  1.00  0.00     0.006 C 
BRANCH   8   9
ATOM      9  C   UNL     1       0.213  48.020   8.023  1.00  0.00     0.053 C 
BRANCH   9  10
ATOM     10  C   UNL     1      -0.536  46.932   7.319  1.00  0.00     0.041 C 
ATOM     11  O   UNL     1      -0.412  46.779   6.075  1.00  0.00    -0.550 OA
ATOM     12  O   UNL     1      -1.397  46.106   8.031  1.00  0.00    -0.550 OA
ENDBRANCH   9  10
ENDBRANCH   8   9
ENDBRANCH   7   8
ENDBRANCH   6   7
ENDBRANCH   5   6
ENDBRANCH   4   5
ENDBRANCH   3   4
ENDBRANCH   1   3
BRANCH   2  13
ATOM     13  C   UNL     1       3.911  42.606   8.775  1.00  0.00     0.027 C 
BRANCH  13  14
ATOM     14  C   UNL     1       4.395  42.626   7.318  1.00  0.00     0.004 C 
BRANCH  14  15
ATOM     15  C   UNL     1       4.037  43.939   6.606  1.00  0.00     0.000 C 
BRANCH  15  16
ATOM     16  C   UNL     1       5.153  44.362   5.640  1.00  0.00     0.000 C 
BRANCH  16  17
ATOM     17  C   UNL     1       4.613  44.814   4.274  1.00  0.00    -0.000 C 
BRANCH  17  18
ATOM     18  C   UNL     1       3.372  45.715   4.398  1.00  0.00    -0.000 C 
BRANCH  18  19
ATOM     19  C   UNL     1       2.686  45.960   3.045  1.00  0.00    -0.003 C 
ATOM     20  C   UNL     1       2.978  44.857   2.027  1.00  0.00     0.004 C 
ENDBRANCH  18  19
ENDBRANCH  17  18
ENDBRANCH  16  17
ENDBRANCH  15  16
ENDBRANCH  14  15
ENDBRANCH  13  14
ENDBRANCH   2  13
TORSDOF 15
ENDMDL
