MODEL 1
REMARK VINA RESULT:    -5.482      0.000      0.000
REMARK INTER + INTRA:          -8.478
REMARK INTER:                  -7.405
REMARK INTRA:                  -1.073
REMARK UNBOUND:                -1.073
REMARK SMILES O=c1c(-c2ccc(O)cc2)coc2c([C@H]3O[C@@H](CO)[C@@H](O)[C@H](O)[C@H]3O)c(O)ccc12
REMARK SMILES IDX 3 1 11 2 12 3 13 4 30 5 2 6 1 7 29 8 28 9 26 10 14 11 4 12
REMARK SMILES IDX 5 13 6 14 7 15 10 16 9 17 8 18 15 20 24 21 16 22 22 23 17 24
REMARK SMILES IDX 20 25 25 26 23 28 18 30 19 31 21 33 27 35
REMARK H PARENT 8 19 25 27 23 29 19 32 21 34 27 36
REMARK Flexibility Score: inf
ROOT
ATOM      1  C   UNL     1      -7.783  24.518  -9.520  1.00  0.00     0.065 A 
ATOM      2  C   UNL     1      -6.847  24.744  -8.513  1.00  0.00     0.208 A 
ATOM      3  O   UNL     1      -6.005  23.799  -8.133  1.00  0.00    -0.463 OA
ATOM      4  C   UNL     1      -6.042  22.554  -8.614  1.00  0.00     0.147 A 
ATOM      5  C   UNL     1      -6.987  22.228  -9.619  1.00  0.00     0.066 A 
ATOM      6  C   UNL     1      -7.860  23.242 -10.098  1.00  0.00     0.200 A 
ATOM      7  O   UNL     1      -8.725  22.992 -10.986  1.00  0.00    -0.288 OA
ATOM      8  C   UNL     1      -7.136  20.863 -10.001  1.00  0.00     0.020 A 
ATOM      9  C   UNL     1      -6.269  19.897  -9.485  1.00  0.00     0.047 A 
ATOM     10  C   UNL     1      -5.248  20.237  -8.573  1.00  0.00     0.125 A 
ATOM     11  C   UNL     1      -5.155  21.567  -8.066  1.00  0.00     0.069 A 
ENDROOT
BRANCH   1  12
ATOM     12  C   UNL     1      -8.661  25.624  -9.940  1.00  0.00    -0.011 A 
ATOM     13  C   UNL     1      -9.740  26.019  -9.129  1.00  0.00     0.013 A 
ATOM     14  C   UNL     1     -10.445  27.186  -9.437  1.00  0.00     0.047 A 
ATOM     15  C   UNL     1     -10.093  27.947 -10.567  1.00  0.00     0.115 A 
ATOM     16  C   UNL     1      -8.299  26.383 -11.057  1.00  0.00     0.013 A 
ATOM     17  C   UNL     1      -9.010  27.535 -11.371  1.00  0.00     0.047 A 
BRANCH  15  18
ATOM     18  O   UNL     1     -10.786  29.121 -10.893  1.00  0.00    -0.508 OA
ATOM     19  H   UNL     1     -11.756  29.194 -10.643  1.00  0.00     0.293 HD
ENDBRANCH  15  18
ENDBRANCH   1  12
BRANCH  11  20
ATOM     20  C   UNL     1      -4.196  22.065  -6.985  1.00  0.00     0.188 C 
ATOM     21  C   UNL     1      -3.083  22.985  -7.594  1.00  0.00     0.179 C 
ATOM     22  O   UNL     1      -3.630  21.036  -6.150  1.00  0.00    -0.362 OA
ATOM     23  C   UNL     1      -2.341  23.667  -6.430  1.00  0.00     0.177 C 
ATOM     24  C   UNL     1      -2.922  21.658  -5.056  1.00  0.00     0.176 C 
ATOM     25  C   UNL     1      -1.751  22.576  -5.491  1.00  0.00     0.177 C 
BRANCH  21  26
ATOM     26  O   UNL     1      -2.155  22.260  -8.361  1.00  0.00    -0.387 OA
ATOM     27  H   UNL     1      -1.298  22.204  -7.853  1.00  0.00     0.211 HD
ENDBRANCH  21  26
BRANCH  23  28
ATOM     28  O   UNL     1      -3.227  24.559  -5.732  1.00  0.00    -0.387 OA
ATOM     29  H   UNL     1      -2.831  24.635  -4.820  1.00  0.00     0.211 HD
ENDBRANCH  23  28
BRANCH  24  30
ATOM     30  C   UNL     1      -2.631  20.663  -3.932  1.00  0.00     0.191 C 
BRANCH  30  31
ATOM     31  O   UNL     1      -1.601  19.749  -4.279  1.00  0.00    -0.394 OA
ATOM     32  H   UNL     1      -1.845  19.261  -5.114  1.00  0.00     0.210 HD
ENDBRANCH  30  31
ENDBRANCH  24  30
BRANCH  25  33
ATOM     33  O   UNL     1      -0.697  21.920  -6.156  1.00  0.00    -0.388 OA
ATOM     34  H   UNL     1      -1.096  21.155  -6.651  1.00  0.00     0.211 HD
ENDBRANCH  25  33
ENDBRANCH  11  20
BRANCH  10  35
ATOM     35  O   UNL     1      -4.339  19.232  -8.224  1.00  0.00    -0.507 OA
ATOM     36  H   UNL     1      -4.528  18.524  -7.514  1.00  0.00     0.293 HD
ENDBRANCH  10  35
TORSDOF 9
ENDMDL
MODEL 2
REMARK VINA RESULT:    -5.311      3.014      7.166
REMARK INTER + INTRA:          -8.247
REMARK INTER:                  -7.692
REMARK INTRA:                  -0.555
REMARK UNBOUND:                -1.073
REMARK SMILES O=c1c(-c2ccc(O)cc2)coc2c([C@H]3O[C@@H](CO)[C@@H](O)[C@H](O)[C@H]3O)c(O)ccc12
REMARK SMILES IDX 3 1 11 2 12 3 13 4 30 5 2 6 1 7 29 8 28 9 26 10 14 11 4 12
REMARK SMILES IDX 5 13 6 14 7 15 10 16 9 17 8 18 15 20 24 21 16 22 22 23 17 24
REMARK SMILES IDX 20 25 25 26 23 28 18 30 19 31 21 33 27 35
REMARK H PARENT 8 19 25 27 23 29 19 32 21 34 27 36
REMARK Flexibility Score: inf
ROOT
ATOM      1  C   UNL     1      -2.519  23.805  -9.390  1.00  0.00     0.065 A 
ATOM      2  C   UNL     1      -3.832  23.812  -9.857  1.00  0.00     0.208 A 
ATOM      3  O   UNL     1      -4.812  23.269  -9.156  1.00  0.00    -0.463 OA
ATOM      4  C   UNL     1      -4.612  22.610  -8.012  1.00  0.00     0.147 A 
ATOM      5  C   UNL     1      -3.299  22.526  -7.482  1.00  0.00     0.066 A 
ATOM      6  C   UNL     1      -2.235  23.160  -8.177  1.00  0.00     0.200 A 
ATOM      7  O   UNL     1      -1.048  23.102  -7.746  1.00  0.00    -0.288 OA
ATOM      8  C   UNL     1      -3.068  21.679  -6.360  1.00  0.00     0.020 A 
ATOM      9  C   UNL     1      -4.145  21.058  -5.723  1.00  0.00     0.047 A 
ATOM     10  C   UNL     1      -5.469  21.234  -6.175  1.00  0.00     0.125 A 
ATOM     11  C   UNL     1      -5.724  21.964  -7.375  1.00  0.00     0.069 A 
ENDROOT
BRANCH   1  12
ATOM     12  C   UNL     1      -1.475  24.472 -10.188  1.00  0.00    -0.011 A 
ATOM     13  C   UNL     1      -0.621  23.716 -11.010  1.00  0.00     0.013 A 
ATOM     14  C   UNL     1       0.233  24.368 -11.905  1.00  0.00     0.047 A 
ATOM     15  C   UNL     1       0.254  25.774 -11.965  1.00  0.00     0.115 A 
ATOM     16  C   UNL     1      -1.467  25.869 -10.252  1.00  0.00     0.013 A 
ATOM     17  C   UNL     1      -0.607  26.516 -11.131  1.00  0.00     0.047 A 
BRANCH  15  18
ATOM     18  O   UNL     1       1.100  26.447 -12.857  1.00  0.00    -0.508 OA
ATOM     19  H   UNL     1       1.153  26.127 -13.808  1.00  0.00     0.293 HD
ENDBRANCH  15  18
ENDBRANCH   1  12
BRANCH  11  20
ATOM     20  C   UNL     1      -7.077  22.137  -8.065  1.00  0.00     0.188 C 
ATOM     21  C   UNL     1      -7.404  20.912  -8.986  1.00  0.00     0.179 C 
ATOM     22  O   UNL     1      -7.251  23.384  -8.764  1.00  0.00    -0.362 OA
ATOM     23  C   UNL     1      -8.879  21.019  -9.414  1.00  0.00     0.177 C 
ATOM     24  C   UNL     1      -8.629  23.498  -9.181  1.00  0.00     0.176 C 
ATOM     25  C   UNL     1      -9.103  22.376 -10.140  1.00  0.00     0.177 C 
BRANCH  21  26
ATOM     26  O   UNL     1      -6.598  20.884 -10.138  1.00  0.00    -0.387 OA
ATOM     27  H   UNL     1      -6.963  21.539 -10.796  1.00  0.00     0.211 HD
ENDBRANCH  21  26
BRANCH  23  28
ATOM     28  O   UNL     1      -9.738  20.870  -8.271  1.00  0.00    -0.387 OA
ATOM     29  H   UNL     1      -9.147  20.485  -7.567  1.00  0.00     0.211 HD
ENDBRANCH  23  28
BRANCH  24  30
ATOM     30  C   UNL     1      -8.984  24.933  -9.577  1.00  0.00     0.191 C 
BRANCH  30  31
ATOM     31  O   UNL     1      -8.993  25.113 -10.985  1.00  0.00    -0.394 OA
ATOM     32  H   UNL     1      -9.437  24.336 -11.425  1.00  0.00     0.210 HD
ENDBRANCH  30  31
ENDBRANCH  24  30
BRANCH  25  33
ATOM     33  O   UNL     1      -8.446  22.343 -11.386  1.00  0.00    -0.388 OA
ATOM     34  H   UNL     1      -7.633  22.910 -11.302  1.00  0.00     0.211 HD
ENDBRANCH  25  33
ENDBRANCH  11  20
BRANCH  10  35
ATOM     35  O   UNL     1      -6.493  20.692  -5.391  1.00  0.00    -0.507 OA
ATOM     36  H   UNL     1      -6.688  19.692  -5.331  1.00  0.00     0.293 HD
ENDBRANCH  10  35
TORSDOF 9
ENDMDL
MODEL 3
REMARK VINA RESULT:    -5.292      1.318      2.479
REMARK INTER + INTRA:          -8.221
REMARK INTER:                  -7.982
REMARK INTRA:                  -0.239
REMARK UNBOUND:                -1.073
REMARK SMILES O=c1c(-c2ccc(O)cc2)coc2c([C@H]3O[C@@H](CO)[C@@H](O)[C@H](O)[C@H]3O)c(O)ccc12
REMARK SMILES IDX 3 1 11 2 12 3 13 4 30 5 2 6 1 7 29 8 28 9 26 10 14 11 4 12
REMARK SMILES IDX 5 13 6 14 7 15 10 16 9 17 8 18 15 20 24 21 16 22 22 23 17 24
REMARK SMILES IDX 20 25 25 26 23 28 18 30 19 31 21 33 27 35
REMARK H PARENT 8 19 25 27 23 29 19 32 21 34 27 36
REMARK Flexibility Score: inf
ROOT
ATOM      1  C   UNL     1      -6.371  24.136  -9.606  1.00  0.00     0.065 A 
ATOM      2  C   UNL     1      -5.470  24.214  -8.546  1.00  0.00     0.208 A 
ATOM      3  O   UNL     1      -4.862  23.136  -8.081  1.00  0.00    -0.463 OA
ATOM      4  C   UNL     1      -5.123  21.904  -8.524  1.00  0.00     0.147 A 
ATOM      5  C   UNL     1      -6.054  21.730  -9.579  1.00  0.00     0.066 A 
ATOM      6  C   UNL     1      -6.672  22.877 -10.147  1.00  0.00     0.200 A 
ATOM      7  O   UNL     1      -7.516  22.767 -11.082  1.00  0.00    -0.288 OA
ATOM      8  C   UNL     1      -6.455  20.408  -9.926  1.00  0.00     0.020 A 
ATOM      9  C   UNL     1      -5.834  19.311  -9.323  1.00  0.00     0.047 A 
ATOM     10  C   UNL     1      -4.821  19.478  -8.357  1.00  0.00     0.125 A 
ATOM     11  C   UNL     1      -4.490  20.785  -7.887  1.00  0.00     0.069 A 
ENDROOT
BRANCH   1  12
ATOM     12  C   UNL     1      -6.979  25.376 -10.118  1.00  0.00    -0.011 A 
ATOM     13  C   UNL     1      -6.202  26.302 -10.835  1.00  0.00     0.013 A 
ATOM     14  C   UNL     1      -6.826  27.375 -11.480  1.00  0.00     0.047 A 
ATOM     15  C   UNL     1      -8.220  27.540 -11.391  1.00  0.00     0.115 A 
ATOM     16  C   UNL     1      -8.367  25.528 -10.035  1.00  0.00     0.013 A 
ATOM     17  C   UNL     1      -8.984  26.603 -10.665  1.00  0.00     0.047 A 
BRANCH  15  18
ATOM     18  O   UNL     1      -8.866  28.606 -12.032  1.00  0.00    -0.508 OA
ATOM     19  H   UNL     1      -9.284  28.447 -12.932  1.00  0.00     0.293 HD
ENDBRANCH  15  18
ENDBRANCH   1  12
BRANCH  11  20
ATOM     20  C   UNL     1      -3.515  21.126  -6.760  1.00  0.00     0.188 C 
ATOM     21  C   UNL     1      -4.254  21.229  -5.382  1.00  0.00     0.179 C 
ATOM     22  O   UNL     1      -2.683  22.278  -7.000  1.00  0.00    -0.362 OA
ATOM     23  C   UNL     1      -3.188  21.289  -4.273  1.00  0.00     0.177 C 
ATOM     24  C   UNL     1      -1.681  22.355  -5.963  1.00  0.00     0.176 C 
ATOM     25  C   UNL     1      -2.252  22.505  -4.530  1.00  0.00     0.177 C 
BRANCH  21  26
ATOM     26  O   UNL     1      -5.061  22.377  -5.298  1.00  0.00    -0.387 OA
ATOM     27  H   UNL     1      -4.775  22.908  -4.503  1.00  0.00     0.211 HD
ENDBRANCH  21  26
BRANCH  23  28
ATOM     28  O   UNL     1      -2.460  20.050  -4.218  1.00  0.00    -0.387 OA
ATOM     29  H   UNL     1      -2.959  19.501  -3.551  1.00  0.00     0.211 HD
ENDBRANCH  23  28
BRANCH  24  30
ATOM     30  C   UNL     1      -0.540  23.298  -6.348  1.00  0.00     0.191 C 
BRANCH  30  31
ATOM     31  O   UNL     1       0.376  22.691  -7.248  1.00  0.00    -0.394 OA
ATOM     32  H   UNL     1       1.012  22.109  -6.745  1.00  0.00     0.210 HD
ENDBRANCH  30  31
ENDBRANCH  24  30
BRANCH  25  33
ATOM     33  O   UNL     1      -2.971  23.694  -4.298  1.00  0.00    -0.388 OA
ATOM     34  H   UNL     1      -2.340  24.450  -4.446  1.00  0.00     0.211 HD
ENDBRANCH  25  33
ENDBRANCH  11  20
BRANCH  10  35
ATOM     35  O   UNL     1      -4.158  18.328  -7.915  1.00  0.00    -0.507 OA
ATOM     36  H   UNL     1      -3.174  18.314  -7.645  1.00  0.00     0.293 HD
ENDBRANCH  10  35
TORSDOF 9
ENDMDL
MODEL 4
REMARK VINA RESULT:    -5.246      3.956      6.904
REMARK INTER + INTRA:          -8.159
REMARK INTER:                  -6.828
REMARK INTRA:                  -1.331
REMARK UNBOUND:                -1.073
REMARK SMILES O=c1c(-c2ccc(O)cc2)coc2c([C@H]3O[C@@H](CO)[C@@H](O)[C@H](O)[C@H]3O)c(O)ccc12
REMARK SMILES IDX 3 1 11 2 12 3 13 4 30 5 2 6 1 7 29 8 28 9 26 10 14 11 4 12
REMARK SMILES IDX 5 13 6 14 7 15 10 16 9 17 8 18 15 20 24 21 16 22 22 23 17 24
REMARK SMILES IDX 20 25 25 26 23 28 18 30 19 31 21 33 27 35
REMARK H PARENT 8 19 25 27 23 29 19 32 21 34 27 36
REMARK Flexibility Score: inf
ROOT
ATOM      1  C   UNL     1      -4.139  27.215 -10.278  1.00  0.00     0.065 A 
ATOM      2  C   UNL     1      -4.188  25.889  -9.854  1.00  0.00     0.208 A 
ATOM      3  O   UNL     1      -5.339  25.262  -9.690  1.00  0.00    -0.463 OA
ATOM      4  C   UNL     1      -6.523  25.863  -9.832  1.00  0.00     0.147 A 
ATOM      5  C   UNL     1      -6.565  27.224 -10.230  1.00  0.00     0.066 A 
ATOM      6  C   UNL     1      -5.344  27.905 -10.481  1.00  0.00     0.200 A 
ATOM      7  O   UNL     1      -5.335  29.121 -10.827  1.00  0.00    -0.288 OA
ATOM      8  C   UNL     1      -7.818  27.903 -10.210  1.00  0.00     0.020 A 
ATOM      9  C   UNL     1      -8.990  27.194  -9.934  1.00  0.00     0.047 A 
ATOM     10  C   UNL     1      -8.966  25.813  -9.655  1.00  0.00     0.125 A 
ATOM     11  C   UNL     1      -7.720  25.129  -9.532  1.00  0.00     0.069 A 
ENDROOT
BRANCH   1  12
ATOM     12  C   UNL     1      -2.827  27.848 -10.494  1.00  0.00    -0.011 A 
ATOM     13  C   UNL     1      -2.049  28.259  -9.398  1.00  0.00     0.013 A 
ATOM     14  C   UNL     1      -0.731  28.677  -9.603  1.00  0.00     0.047 A 
ATOM     15  C   UNL     1      -0.194  28.711 -10.903  1.00  0.00     0.115 A 
ATOM     16  C   UNL     1      -2.295  27.868 -11.788  1.00  0.00     0.013 A 
ATOM     17  C   UNL     1      -0.990  28.298 -11.992  1.00  0.00     0.047 A 
BRANCH  15  18
ATOM     18  O   UNL     1       1.125  29.125 -11.132  1.00  0.00    -0.508 OA
ATOM     19  H   UNL     1       1.809  28.976 -10.411  1.00  0.00     0.293 HD
ENDBRANCH  15  18
ENDBRANCH   1  12
BRANCH  11  20
ATOM     20  C   UNL     1      -7.517  23.674  -9.110  1.00  0.00     0.188 C 
ATOM     21  C   UNL     1      -7.480  22.722 -10.355  1.00  0.00     0.179 C 
ATOM     22  O   UNL     1      -8.434  23.195  -8.107  1.00  0.00    -0.362 OA
ATOM     23  C   UNL     1      -6.995  21.340  -9.883  1.00  0.00     0.177 C 
ATOM     24  C   UNL     1      -7.999  21.894  -7.659  1.00  0.00     0.176 C 
ATOM     25  C   UNL     1      -7.949  20.816  -8.771  1.00  0.00     0.177 C 
BRANCH  21  26
ATOM     26  O   UNL     1      -8.745  22.580 -10.951  1.00  0.00    -0.387 OA
ATOM     27  H   UNL     1      -9.442  22.799 -10.272  1.00  0.00     0.211 HD
ENDBRANCH  21  26
BRANCH  23  28
ATOM     28  O   UNL     1      -5.632  21.421  -9.430  1.00  0.00    -0.387 OA
ATOM     29  H   UNL     1      -5.541  22.354  -9.090  1.00  0.00     0.211 HD
ENDBRANCH  23  28
BRANCH  24  30
ATOM     30  C   UNL     1      -8.675  21.493  -6.346  1.00  0.00     0.191 C 
BRANCH  30  31
ATOM     31  O   UNL     1      -9.936  20.876  -6.560  1.00  0.00    -0.394 OA
ATOM     32  H   UNL     1     -10.207  20.365  -5.748  1.00  0.00     0.210 HD
ENDBRANCH  30  31
ENDBRANCH  24  30
BRANCH  25  33
ATOM     33  O   UNL     1      -9.194  20.499  -9.348  1.00  0.00    -0.388 OA
ATOM     34  H   UNL     1      -9.469  21.282  -9.897  1.00  0.00     0.211 HD
ENDBRANCH  25  33
ENDBRANCH  11  20
BRANCH  10  35
ATOM     35  O   UNL     1     -10.199  25.160  -9.534  1.00  0.00    -0.507 OA
ATOM     36  H   UNL     1     -10.539  24.758  -8.661  1.00  0.00     0.293 HD
ENDBRANCH  10  35
TORSDOF 9
ENDMDL
MODEL 5
REMARK VINA RESULT:    -5.225      1.694      8.208
REMARK INTER + INTRA:          -8.130
REMARK INTER:                  -6.783
REMARK INTRA:                  -1.348
REMARK UNBOUND:                -1.073
REMARK SMILES O=c1c(-c2ccc(O)cc2)coc2c([C@H]3O[C@@H](CO)[C@@H](O)[C@H](O)[C@H]3O)c(O)ccc12
REMARK SMILES IDX 3 1 11 2 12 3 13 4 30 5 2 6 1 7 29 8 28 9 26 10 14 11 4 12
REMARK SMILES IDX 5 13 6 14 7 15 10 16 9 17 8 18 15 20 24 21 16 22 22 23 17 24
REMARK SMILES IDX 20 25 25 26 23 28 18 30 19 31 21 33 27 35
REMARK H PARENT 8 19 25 27 23 29 19 32 21 34 27 36
REMARK Flexibility Score: inf
ROOT
ATOM      1  C   UNL     1      -4.298  22.568  -7.171  1.00  0.00     0.065 A 
ATOM      2  C   UNL     1      -5.065  23.696  -6.890  1.00  0.00     0.208 A 
ATOM      3  O   UNL     1      -6.121  24.009  -7.620  1.00  0.00    -0.463 OA
ATOM      4  C   UNL     1      -6.478  23.330  -8.713  1.00  0.00     0.147 A 
ATOM      5  C   UNL     1      -5.732  22.185  -9.091  1.00  0.00     0.066 A 
ATOM      6  C   UNL     1      -4.632  21.784  -8.286  1.00  0.00     0.200 A 
ATOM      7  O   UNL     1      -3.932  20.776  -8.592  1.00  0.00    -0.288 OA
ATOM      8  C   UNL     1      -6.010  21.571 -10.347  1.00  0.00     0.020 A 
ATOM      9  C   UNL     1      -7.089  22.016 -11.115  1.00  0.00     0.047 A 
ATOM     10  C   UNL     1      -7.909  23.079 -10.686  1.00  0.00     0.125 A 
ATOM     11  C   UNL     1      -7.579  23.804  -9.501  1.00  0.00     0.069 A 
ENDROOT
BRANCH   1  12
ATOM     12  C   UNL     1      -3.163  22.239  -6.292  1.00  0.00    -0.011 A 
ATOM     13  C   UNL     1      -3.264  21.183  -5.369  1.00  0.00     0.013 A 
ATOM     14  C   UNL     1      -2.125  20.755  -4.681  1.00  0.00     0.047 A 
ATOM     15  C   UNL     1      -0.889  21.394  -4.891  1.00  0.00     0.115 A 
ATOM     16  C   UNL     1      -1.935  22.871  -6.515  1.00  0.00     0.013 A 
ATOM     17  C   UNL     1      -0.807  22.454  -5.818  1.00  0.00     0.047 A 
BRANCH  15  18
ATOM     18  O   UNL     1       0.265  20.981  -4.213  1.00  0.00    -0.508 OA
ATOM     19  H   UNL     1       0.311  21.107  -3.217  1.00  0.00     0.293 HD
ENDBRANCH  15  18
ENDBRANCH   1  12
BRANCH  11  20
ATOM     20  C   UNL     1      -8.285  25.053  -8.972  1.00  0.00     0.188 C 
ATOM     21  C   UNL     1      -9.555  24.675  -8.136  1.00  0.00     0.179 C 
ATOM     22  O   UNL     1      -8.585  26.053  -9.965  1.00  0.00    -0.362 OA
ATOM     23  C   UNL     1     -10.040  25.943  -7.409  1.00  0.00     0.177 C 
ATOM     24  C   UNL     1      -9.050  27.247  -9.301  1.00  0.00     0.176 C 
ATOM     25  C   UNL     1     -10.337  27.052  -8.459  1.00  0.00     0.177 C 
BRANCH  21  26
ATOM     26  O   UNL     1     -10.597  24.189  -8.945  1.00  0.00    -0.387 OA
ATOM     27  H   UNL     1     -10.582  23.192  -8.915  1.00  0.00     0.211 HD
ENDBRANCH  21  26
BRANCH  23  28
ATOM     28  O   UNL     1      -9.064  26.363  -6.441  1.00  0.00    -0.387 OA
ATOM     29  H   UNL     1      -8.398  26.881  -6.972  1.00  0.00     0.211 HD
ENDBRANCH  23  28
BRANCH  24  30
ATOM     30  C   UNL     1      -9.019  28.461 -10.232  1.00  0.00     0.191 C 
BRANCH  30  31
ATOM     31  O   UNL     1     -10.021  28.392 -11.236  1.00  0.00    -0.394 OA
ATOM     32  H   UNL     1     -10.867  28.799 -10.900  1.00  0.00     0.210 HD
ENDBRANCH  30  31
ENDBRANCH  24  30
BRANCH  25  33
ATOM     33  O   UNL     1     -11.481  26.691  -9.196  1.00  0.00    -0.388 OA
ATOM     34  H   UNL     1     -11.203  25.982  -9.837  1.00  0.00     0.211 HD
ENDBRANCH  25  33
ENDBRANCH  11  20
BRANCH  10  35
ATOM     35  O   UNL     1      -9.049  23.360 -11.448  1.00  0.00    -0.507 OA
ATOM     36  H   UNL     1      -9.050  23.394 -12.467  1.00  0.00     0.293 HD
ENDBRANCH  10  35
TORSDOF 9
ENDMDL
MODEL 6
REMARK VINA RESULT:    -4.999      1.392      1.686
REMARK INTER + INTRA:          -7.825
REMARK INTER:                  -6.680
REMARK INTRA:                  -1.145
REMARK UNBOUND:                -1.073
REMARK SMILES O=c1c(-c2ccc(O)cc2)coc2c([C@H]3O[C@@H](CO)[C@@H](O)[C@H](O)[C@H]3O)c(O)ccc12
REMARK SMILES IDX 3 1 11 2 12 3 13 4 30 5 2 6 1 7 29 8 28 9 26 10 14 11 4 12
REMARK SMILES IDX 5 13 6 14 7 15 10 16 9 17 8 18 15 20 24 21 16 22 22 23 17 24
REMARK SMILES IDX 20 25 25 26 23 28 18 30 19 31 21 33 27 35
REMARK H PARENT 8 19 25 27 23 29 19 32 21 34 27 36
REMARK Flexibility Score: inf
ROOT
ATOM      1  C   UNL     1      -7.507  24.966  -9.810  1.00  0.00     0.065 A 
ATOM      2  C   UNL     1      -6.298  25.425  -9.290  1.00  0.00     0.208 A 
ATOM      3  O   UNL     1      -5.308  24.593  -9.016  1.00  0.00    -0.463 OA
ATOM      4  C   UNL     1      -5.418  23.267  -9.131  1.00  0.00     0.147 A 
ATOM      5  C   UNL     1      -6.627  22.712  -9.621  1.00  0.00     0.066 A 
ATOM      6  C   UNL     1      -7.685  23.586  -9.991  1.00  0.00     0.200 A 
ATOM      7  O   UNL     1      -8.784  23.134 -10.422  1.00  0.00    -0.288 OA
ATOM      8  C   UNL     1      -6.798  21.298  -9.577  1.00  0.00     0.020 A 
ATOM      9  C   UNL     1      -5.736  20.480  -9.184  1.00  0.00     0.047 A 
ATOM     10  C   UNL     1      -4.490  21.022  -8.809  1.00  0.00     0.125 A 
ATOM     11  C   UNL     1      -4.325  22.437  -8.711  1.00  0.00     0.069 A 
ENDROOT
BRANCH   1  12
ATOM     12  C   UNL     1      -8.555  25.943 -10.147  1.00  0.00    -0.011 A 
ATOM     13  C   UNL     1      -9.598  26.205  -9.241  1.00  0.00     0.013 A 
ATOM     14  C   UNL     1     -10.475  27.267  -9.482  1.00  0.00     0.047 A 
ATOM     15  C   UNL     1     -10.329  28.054 -10.639  1.00  0.00     0.115 A 
ATOM     16  C   UNL     1      -8.398  26.730 -11.293  1.00  0.00     0.013 A 
ATOM     17  C   UNL     1      -9.279  27.777 -11.539  1.00  0.00     0.047 A 
BRANCH  15  18
ATOM     18  O   UNL     1     -11.195  29.125 -10.900  1.00  0.00    -0.508 OA
ATOM     19  H   UNL     1     -11.587  29.215 -11.821  1.00  0.00     0.293 HD
ENDBRANCH  15  18
ENDBRANCH   1  12
BRANCH  11  20
ATOM     20  C   UNL     1      -3.089  23.176  -8.199  1.00  0.00     0.188 C 
ATOM     21  C   UNL     1      -2.096  23.497  -9.368  1.00  0.00     0.179 C 
ATOM     22  O   UNL     1      -2.415  22.546  -7.092  1.00  0.00    -0.362 OA
ATOM     23  C   UNL     1      -1.033  24.476  -8.835  1.00  0.00     0.177 C 
ATOM     24  C   UNL     1      -1.408  23.448  -6.584  1.00  0.00     0.176 C 
ATOM     25  C   UNL     1      -0.315  23.833  -7.613  1.00  0.00     0.177 C 
BRANCH  21  26
ATOM     26  O   UNL     1      -1.451  22.344  -9.848  1.00  0.00    -0.387 OA
ATOM     27  H   UNL     1      -2.141  21.646 -10.029  1.00  0.00     0.211 HD
ENDBRANCH  21  26
BRANCH  23  28
ATOM     28  O   UNL     1      -1.643  25.735  -8.502  1.00  0.00    -0.387 OA
ATOM     29  H   UNL     1      -1.808  25.677  -7.521  1.00  0.00     0.211 HD
ENDBRANCH  23  28
BRANCH  24  30
ATOM     30  C   UNL     1      -0.923  23.029  -5.195  1.00  0.00     0.191 C 
BRANCH  30  31
ATOM     31  O   UNL     1      -1.787  22.077  -4.591  1.00  0.00    -0.394 OA
ATOM     32  H   UNL     1      -2.465  22.543  -4.026  1.00  0.00     0.210 HD
ENDBRANCH  30  31
ENDBRANCH  24  30
BRANCH  25  33
ATOM     33  O   UNL     1       0.483  22.763  -8.062  1.00  0.00    -0.388 OA
ATOM     34  H   UNL     1       1.156  22.582  -7.351  1.00  0.00     0.211 HD
ENDBRANCH  25  33
ENDBRANCH  11  20
BRANCH  10  35
ATOM     35  O   UNL     1      -3.443  20.124  -8.571  1.00  0.00    -0.507 OA
ATOM     36  H   UNL     1      -3.196  19.781  -7.642  1.00  0.00     0.293 HD
ENDBRANCH  10  35
TORSDOF 9
ENDMDL
MODEL 7
REMARK VINA RESULT:    -4.782      2.422      2.825
REMARK INTER + INTRA:          -7.533
REMARK INTER:                  -6.308
REMARK INTRA:                  -1.224
REMARK UNBOUND:                -1.073
REMARK SMILES O=c1c(-c2ccc(O)cc2)coc2c([C@H]3O[C@@H](CO)[C@@H](O)[C@H](O)[C@H]3O)c(O)ccc12
REMARK SMILES IDX 3 1 11 2 12 3 13 4 30 5 2 6 1 7 29 8 28 9 26 10 14 11 4 12
REMARK SMILES IDX 5 13 6 14 7 15 10 16 9 17 8 18 15 20 24 21 16 22 22 23 17 24
REMARK SMILES IDX 20 25 25 26 23 28 18 30 19 31 21 33 27 35
REMARK H PARENT 8 19 25 27 23 29 19 32 21 34 27 36
REMARK Flexibility Score: inf
ROOT
ATOM      1  C   UNL     1      -7.895  23.916  -6.527  1.00  0.00     0.065 A 
ATOM      2  C   UNL     1      -6.741  23.948  -5.747  1.00  0.00     0.208 A 
ATOM      3  O   UNL     1      -5.687  23.210  -6.049  1.00  0.00    -0.463 OA
ATOM      4  C   UNL     1      -5.677  22.331  -7.054  1.00  0.00     0.147 A 
ATOM      5  C   UNL     1      -6.824  22.210  -7.879  1.00  0.00     0.066 A 
ATOM      6  C   UNL     1      -7.947  23.040  -7.621  1.00  0.00     0.200 A 
ATOM      7  O   UNL     1      -8.995  22.957  -8.325  1.00  0.00    -0.288 OA
ATOM      8  C   UNL     1      -6.869  21.154  -8.834  1.00  0.00     0.020 A 
ATOM      9  C   UNL     1      -5.746  20.347  -9.036  1.00  0.00     0.047 A 
ATOM     10  C   UNL     1      -4.560  20.541  -8.300  1.00  0.00     0.125 A 
ATOM     11  C   UNL     1      -4.523  21.499  -7.242  1.00  0.00     0.069 A 
ENDROOT
BRANCH   1  12
ATOM     12  C   UNL     1      -9.020  24.799  -6.173  1.00  0.00    -0.011 A 
ATOM     13  C   UNL     1      -9.783  24.547  -5.019  1.00  0.00     0.013 A 
ATOM     14  C   UNL     1     -10.718  25.493  -4.589  1.00  0.00     0.047 A 
ATOM     15  C   UNL     1     -10.912  26.679  -5.320  1.00  0.00     0.115 A 
ATOM     16  C   UNL     1      -9.200  25.981  -6.898  1.00  0.00     0.013 A 
ATOM     17  C   UNL     1     -10.141  26.914  -6.477  1.00  0.00     0.047 A 
BRANCH  15  18
ATOM     18  O   UNL     1     -11.843  27.641  -4.906  1.00  0.00    -0.508 OA
ATOM     19  H   UNL     1     -12.161  27.625  -3.953  1.00  0.00     0.293 HD
ENDBRANCH  15  18
ENDBRANCH   1  12
BRANCH  11  20
ATOM     20  C   UNL     1      -3.365  21.740  -6.272  1.00  0.00     0.188 C 
ATOM     21  C   UNL     1      -2.430  22.889  -6.780  1.00  0.00     0.179 C 
ATOM     22  O   UNL     1      -2.612  20.564  -5.916  1.00  0.00    -0.362 OA
ATOM     23  C   UNL     1      -1.471  23.264  -5.635  1.00  0.00     0.177 C 
ATOM     24  C   UNL     1      -1.701  20.899  -4.848  1.00  0.00     0.176 C 
ATOM     25  C   UNL     1      -0.670  22.001  -5.206  1.00  0.00     0.177 C 
BRANCH  21  26
ATOM     26  O   UNL     1      -1.671  22.501  -7.898  1.00  0.00    -0.387 OA
ATOM     27  H   UNL     1      -1.828  23.160  -8.632  1.00  0.00     0.211 HD
ENDBRANCH  21  26
BRANCH  23  28
ATOM     28  O   UNL     1      -2.208  23.834  -4.539  1.00  0.00    -0.387 OA
ATOM     29  H   UNL     1      -3.162  23.651  -4.763  1.00  0.00     0.211 HD
ENDBRANCH  23  28
BRANCH  24  30
ATOM     30  C   UNL     1      -1.154  19.648  -4.158  1.00  0.00     0.191 C 
BRANCH  30  31
ATOM     31  O   UNL     1      -0.473  18.791  -5.064  1.00  0.00    -0.394 OA
ATOM     32  H   UNL     1      -1.067  18.568  -5.833  1.00  0.00     0.210 HD
ENDBRANCH  30  31
ENDBRANCH  24  30
BRANCH  25  33
ATOM     33  O   UNL     1       0.232  21.660  -6.233  1.00  0.00    -0.388 OA
ATOM     34  H   UNL     1       1.000  22.289  -6.166  1.00  0.00     0.211 HD
ENDBRANCH  25  33
ENDBRANCH  11  20
BRANCH  10  35
ATOM     35  O   UNL     1      -3.443  19.784  -8.670  1.00  0.00    -0.507 OA
ATOM     36  H   UNL     1      -3.082  19.006  -8.117  1.00  0.00     0.293 HD
ENDBRANCH  10  35
TORSDOF 9
ENDMDL
MODEL 8
REMARK VINA RESULT:    -4.700      3.250      7.089
REMARK INTER + INTRA:          -7.421
REMARK INTER:                  -6.544
REMARK INTRA:                  -0.877
REMARK UNBOUND:                -1.073
REMARK SMILES O=c1c(-c2ccc(O)cc2)coc2c([C@H]3O[C@@H](CO)[C@@H](O)[C@H](O)[C@H]3O)c(O)ccc12
REMARK SMILES IDX 3 1 11 2 12 3 13 4 30 5 2 6 1 7 29 8 28 9 26 10 14 11 4 12
REMARK SMILES IDX 5 13 6 14 7 15 10 16 9 17 8 18 15 20 24 21 16 22 22 23 17 24
REMARK SMILES IDX 20 25 25 26 23 28 18 30 19 31 21 33 27 35
REMARK H PARENT 8 19 25 27 23 29 19 32 21 34 27 36
REMARK Flexibility Score: inf
ROOT
ATOM      1  C   UNL     1      -3.283  24.633  -6.739  1.00  0.00     0.065 A 
ATOM      2  C   UNL     1      -4.664  24.807  -6.790  1.00  0.00     0.208 A 
ATOM      3  O   UNL     1      -5.465  23.836  -7.193  1.00  0.00    -0.463 OA
ATOM      4  C   UNL     1      -5.015  22.666  -7.654  1.00  0.00     0.147 A 
ATOM      5  C   UNL     1      -3.619  22.418  -7.669  1.00  0.00     0.066 A 
ATOM      6  C   UNL     1      -2.737  23.417  -7.177  1.00  0.00     0.200 A 
ATOM      7  O   UNL     1      -1.485  23.242  -7.181  1.00  0.00    -0.288 OA
ATOM      8  C   UNL     1      -3.140  21.244  -8.320  1.00  0.00     0.020 A 
ATOM      9  C   UNL     1      -4.047  20.300  -8.810  1.00  0.00     0.047 A 
ATOM     10  C   UNL     1      -5.439  20.487  -8.691  1.00  0.00     0.125 A 
ATOM     11  C   UNL     1      -5.955  21.710  -8.167  1.00  0.00     0.069 A 
ENDROOT
BRANCH   1  12
ATOM     12  C   UNL     1      -2.444  25.732  -6.232  1.00  0.00    -0.011 A 
ATOM     13  C   UNL     1      -2.016  25.738  -4.892  1.00  0.00     0.013 A 
ATOM     14  C   UNL     1      -1.067  26.675  -4.473  1.00  0.00     0.047 A 
ATOM     15  C   UNL     1      -0.561  27.623  -5.380  1.00  0.00     0.115 A 
ATOM     16  C   UNL     1      -1.936  26.666  -7.142  1.00  0.00     0.013 A 
ATOM     17  C   UNL     1      -1.003  27.606  -6.720  1.00  0.00     0.047 A 
BRANCH  15  18
ATOM     18  O   UNL     1       0.392  28.570  -4.982  1.00  0.00    -0.508 OA
ATOM     19  H   UNL     1       1.243  28.248  -4.554  1.00  0.00     0.293 HD
ENDBRANCH  15  18
ENDBRANCH   1  12
BRANCH  11  20
ATOM     20  C   UNL     1      -7.426  22.119  -8.091  1.00  0.00     0.188 C 
ATOM     21  C   UNL     1      -7.950  22.080  -6.615  1.00  0.00     0.179 C 
ATOM     22  O   UNL     1      -8.306  21.406  -8.982  1.00  0.00    -0.362 OA
ATOM     23  C   UNL     1      -9.327  22.767  -6.580  1.00  0.00     0.177 C 
ATOM     24  C   UNL     1      -9.606  22.032  -8.956  1.00  0.00     0.176 C 
ATOM     25  C   UNL     1     -10.287  22.038  -7.563  1.00  0.00     0.177 C 
BRANCH  21  26
ATOM     26  O   UNL     1      -8.086  20.766  -6.135  1.00  0.00    -0.387 OA
ATOM     27  H   UNL     1      -8.404  20.186  -6.883  1.00  0.00     0.211 HD
ENDBRANCH  21  26
BRANCH  23  28
ATOM     28  O   UNL     1      -9.191  24.164  -6.894  1.00  0.00    -0.387 OA
ATOM     29  H   UNL     1      -9.528  24.240  -7.829  1.00  0.00     0.211 HD
ENDBRANCH  23  28
BRANCH  24  30
ATOM     30  C   UNL     1     -10.470  21.592 -10.139  1.00  0.00     0.191 C 
BRANCH  30  31
ATOM     31  O   UNL     1      -9.922  22.001 -11.383  1.00  0.00    -0.394 OA
ATOM     32  H   UNL     1     -10.308  22.879 -11.654  1.00  0.00     0.210 HD
ENDBRANCH  30  31
ENDBRANCH  24  30
BRANCH  25  33
ATOM     33  O   UNL     1     -10.591  20.763  -7.045  1.00  0.00    -0.388 OA
ATOM     34  H   UNL     1     -11.344  20.401  -7.586  1.00  0.00     0.211 HD
ENDBRANCH  25  33
ENDBRANCH  11  20
BRANCH  10  35
ATOM     35  O   UNL     1      -6.265  19.425  -9.078  1.00  0.00    -0.507 OA
ATOM     36  H   UNL     1      -6.083  18.838  -9.892  1.00  0.00     0.293 HD
ENDBRANCH  10  35
TORSDOF 9
ENDMDL
MODEL 9
REMARK VINA RESULT:    -4.559      3.674      7.171
REMARK INTER + INTRA:          -7.231
REMARK INTER:                  -6.000
REMARK INTRA:                  -1.231
REMARK UNBOUND:                -1.073
REMARK SMILES O=c1c(-c2ccc(O)cc2)coc2c([C@H]3O[C@@H](CO)[C@@H](O)[C@H](O)[C@H]3O)c(O)ccc12
REMARK SMILES IDX 3 1 11 2 12 3 13 4 30 5 2 6 1 7 29 8 28 9 26 10 14 11 4 12
REMARK SMILES IDX 5 13 6 14 7 15 10 16 9 17 8 18 15 20 24 21 16 22 22 23 17 24
REMARK SMILES IDX 20 25 25 26 23 28 18 30 19 31 21 33 27 35
REMARK H PARENT 8 19 25 27 23 29 19 32 21 34 27 36
REMARK Flexibility Score: inf
ROOT
ATOM      1  C   UNL     1      -4.586  26.372  -8.926  1.00  0.00     0.065 A 
ATOM      2  C   UNL     1      -4.941  25.186  -8.287  1.00  0.00     0.208 A 
ATOM      3  O   UNL     1      -6.200  24.790  -8.222  1.00  0.00    -0.463 OA
ATOM      4  C   UNL     1      -7.219  25.524  -8.679  1.00  0.00     0.147 A 
ATOM      5  C   UNL     1      -6.949  26.762  -9.315  1.00  0.00     0.066 A 
ATOM      6  C   UNL     1      -5.600  27.181  -9.461  1.00  0.00     0.200 A 
ATOM      7  O   UNL     1      -5.315  28.284 -10.011  1.00  0.00    -0.288 OA
ATOM      8  C   UNL     1      -8.043  27.615  -9.642  1.00  0.00     0.020 A 
ATOM      9  C   UNL     1      -9.354  27.167  -9.458  1.00  0.00     0.047 A 
ATOM     10  C   UNL     1      -9.628  25.886  -8.936  1.00  0.00     0.125 A 
ATOM     11  C   UNL     1      -8.561  25.060  -8.472  1.00  0.00     0.069 A 
ENDROOT
BRANCH   1  12
ATOM     12  C   UNL     1      -3.162  26.737  -9.013  1.00  0.00    -0.011 A 
ATOM     13  C   UNL     1      -2.544  27.439  -7.963  1.00  0.00     0.013 A 
ATOM     14  C   UNL     1      -1.157  27.610  -7.967  1.00  0.00     0.047 A 
ATOM     15  C   UNL     1      -0.385  27.104  -9.030  1.00  0.00     0.115 A 
ATOM     16  C   UNL     1      -2.399  26.222 -10.066  1.00  0.00     0.013 A 
ATOM     17  C   UNL     1      -1.022  26.405 -10.077  1.00  0.00     0.047 A 
BRANCH  15  18
ATOM     18  O   UNL     1       1.007  27.262  -9.054  1.00  0.00    -0.508 OA
ATOM     19  H   UNL     1       1.417  28.006  -8.516  1.00  0.00     0.293 HD
ENDBRANCH  15  18
ENDBRANCH   1  12
BRANCH  11  20
ATOM     20  C   UNL     1      -8.696  23.710  -7.768  1.00  0.00     0.188 C 
ATOM     21  C   UNL     1      -9.151  22.592  -8.767  1.00  0.00     0.179 C 
ATOM     22  O   UNL     1      -9.510  23.719  -6.579  1.00  0.00    -0.362 OA
ATOM     23  C   UNL     1      -8.989  21.231  -8.064  1.00  0.00     0.177 C 
ATOM     24  C   UNL     1      -9.377  22.446  -5.911  1.00  0.00     0.176 C 
ATOM     25  C   UNL     1      -9.831  21.228  -6.756  1.00  0.00     0.177 C 
BRANCH  21  26
ATOM     26  O   UNL     1     -10.492  22.744  -9.158  1.00  0.00    -0.387 OA
ATOM     27  H   UNL     1     -10.628  23.683  -9.465  1.00  0.00     0.211 HD
ENDBRANCH  21  26
BRANCH  23  28
ATOM     28  O   UNL     1      -7.598  20.967  -7.812  1.00  0.00    -0.387 OA
ATOM     29  H   UNL     1      -7.141  21.219  -8.661  1.00  0.00     0.211 HD
ENDBRANCH  23  28
BRANCH  24  30
ATOM     30  C   UNL     1      -9.887  22.508  -4.470  1.00  0.00     0.191 C 
BRANCH  30  31
ATOM     31  O   UNL     1     -11.247  22.114  -4.366  1.00  0.00    -0.394 OA
ATOM     32  H   UNL     1     -11.738  22.741  -3.765  1.00  0.00     0.210 HD
ENDBRANCH  30  31
ENDBRANCH  24  30
BRANCH  25  33
ATOM     33  O   UNL     1     -11.199  21.215  -7.092  1.00  0.00    -0.388 OA
ATOM     34  H   UNL     1     -11.491  20.263  -7.086  1.00  0.00     0.211 HD
ENDBRANCH  25  33
ENDBRANCH  11  20
BRANCH  10  35
ATOM     35  O   UNL     1     -10.964  25.470  -8.923  1.00  0.00    -0.507 OA
ATOM     36  H   UNL     1     -11.752  26.110  -8.822  1.00  0.00     0.293 HD
ENDBRANCH  10  35
TORSDOF 9
ENDMDL
