MODEL 1
REMARK VINA RESULT:    -3.597      0.000      0.000
REMARK INTER + INTRA:          -4.349
REMARK INTER:                  -4.228
REMARK INTRA:                  -0.121
REMARK UNBOUND:                -0.121
REMARK SMILES O=C([O-])CCC(=O)[O-]
REMARK SMILES IDX 4 1 2 2 1 3 3 4 5 5 6 6 7 7 8 8
REMARK H PARENT
REMARK Flexibility Score: inf
ROOT
ATOM      1  C   UNL     1       2.384  -3.840  -5.231  1.00  0.00     0.059 C 
ENDROOT
BRANCH   1   2
ATOM      2  C   UNL     1       1.019  -3.756  -4.618  1.00  0.00     0.042 C 
ATOM      3  O   UNL     1       0.781  -4.325  -3.521  1.00  0.00    -0.550 OA
ATOM      4  O   UNL     1       0.022  -3.016  -5.241  1.00  0.00    -0.550 OA
ENDBRANCH   1   2
BRANCH   1   5
ATOM      5  C   UNL     1       3.053  -2.463  -5.310  1.00  0.00     0.059 C 
BRANCH   5   6
ATOM      6  C   UNL     1       3.227  -2.013  -6.727  1.00  0.00     0.042 C 
ATOM      7  O   UNL     1       2.287  -2.149  -7.555  1.00  0.00    -0.550 OA
ATOM      8  O   UNL     1       4.441  -1.481  -7.145  1.00  0.00    -0.550 OA
ENDBRANCH   5   6
ENDBRANCH   1   5
TORSDOF 3
ENDMDL
MODEL 2
REMARK VINA RESULT:    -3.594      0.055      3.983
REMARK INTER + INTRA:          -4.345
REMARK INTER:                  -4.226
REMARK INTRA:                  -0.118
REMARK UNBOUND:                -0.121
REMARK SMILES O=C([O-])CCC(=O)[O-]
REMARK SMILES IDX 4 1 2 2 1 3 3 4 5 5 6 6 7 7 8 8
REMARK H PARENT
REMARK Flexibility Score: inf
ROOT
ATOM      1  C   UNL     1       3.060  -2.399  -5.302  1.00  0.00     0.059 C 
ENDROOT
BRANCH   1   2
ATOM      2  C   UNL     1       3.236  -2.021  -6.741  1.00  0.00     0.042 C 
ATOM      3  O   UNL     1       2.284  -2.155  -7.553  1.00  0.00    -0.550 OA
ATOM      4  O   UNL     1       4.441  -1.484  -7.175  1.00  0.00    -0.550 OA
ENDBRANCH   1   2
BRANCH   1   5
ATOM      5  C   UNL     1       2.443  -3.795  -5.157  1.00  0.00     0.059 C 
BRANCH   5   6
ATOM      6  C   UNL     1       1.065  -3.732  -4.575  1.00  0.00     0.042 C 
ATOM      7  O   UNL     1       0.803  -4.336  -3.502  1.00  0.00    -0.550 OA
ATOM      8  O   UNL     1       0.059  -3.040  -5.239  1.00  0.00    -0.550 OA
ENDBRANCH   5   6
ENDBRANCH   1   5
TORSDOF 3
ENDMDL
MODEL 3
REMARK VINA RESULT:    -3.568      0.084      1.148
REMARK INTER + INTRA:          -4.315
REMARK INTER:                  -4.198
REMARK INTRA:                  -0.117
REMARK UNBOUND:                -0.121
REMARK SMILES O=C([O-])CCC(=O)[O-]
REMARK SMILES IDX 4 1 2 2 1 3 3 4 5 5 6 6 7 7 8 8
REMARK H PARENT
REMARK Flexibility Score: inf
ROOT
ATOM      1  C   UNL     1       2.455  -3.795  -5.149  1.00  0.00     0.059 C 
ENDROOT
BRANCH   1   2
ATOM      2  C   UNL     1       1.065  -3.751  -4.591  1.00  0.00     0.042 C 
ATOM      3  O   UNL     1       0.797  -4.334  -3.508  1.00  0.00    -0.550 OA
ATOM      4  O   UNL     1       0.075  -3.032  -5.249  1.00  0.00    -0.550 OA
ENDBRANCH   1   2
BRANCH   1   5
ATOM      5  C   UNL     1       3.047  -2.389  -5.299  1.00  0.00     0.059 C 
BRANCH   5   6
ATOM      6  C   UNL     1       3.244  -2.024  -6.738  1.00  0.00     0.042 C 
ATOM      7  O   UNL     1       4.336  -1.528  -7.122  1.00  0.00    -0.550 OA
ATOM      8  O   UNL     1       2.207  -2.193  -7.647  1.00  0.00    -0.550 OA
ENDBRANCH   5   6
ENDBRANCH   1   5
TORSDOF 3
ENDMDL
MODEL 4
REMARK VINA RESULT:    -3.478      1.546      4.402
REMARK INTER + INTRA:          -4.209
REMARK INTER:                  -4.172
REMARK INTRA:                  -0.037
REMARK UNBOUND:                -0.121
REMARK SMILES O=C([O-])CCC(=O)[O-]
REMARK SMILES IDX 4 1 2 2 1 3 3 4 5 5 6 6 7 7 8 8
REMARK H PARENT
REMARK Flexibility Score: inf
ROOT
ATOM      1  C   UNL     1       3.728  -1.988  -7.009  1.00  0.00     0.059 C 
ENDROOT
BRANCH   1   2
ATOM      2  C   UNL     1       5.208  -2.144  -7.183  1.00  0.00     0.042 C 
ATOM      3  O   UNL     1       5.979  -1.173  -6.962  1.00  0.00    -0.550 OA
ATOM      4  O   UNL     1       5.738  -3.374  -7.552  1.00  0.00    -0.550 OA
ENDBRANCH   1   2
BRANCH   1   5
ATOM      5  C   UNL     1       3.339  -1.914  -5.529  1.00  0.00     0.059 C 
BRANCH   5   6
ATOM      6  C   UNL     1       2.300  -2.935  -5.179  1.00  0.00     0.042 C 
ATOM      7  O   UNL     1       2.516  -3.770  -4.263  1.00  0.00    -0.550 OA
ATOM      8  O   UNL     1       1.109  -2.989  -5.894  1.00  0.00    -0.550 OA
ENDBRANCH   5   6
ENDBRANCH   1   5
TORSDOF 3
ENDMDL
MODEL 5
REMARK VINA RESULT:    -3.387      1.697      2.309
REMARK INTER + INTRA:          -4.102
REMARK INTER:                  -4.073
REMARK INTRA:                  -0.029
REMARK UNBOUND:                -0.121
REMARK SMILES O=C([O-])CCC(=O)[O-]
REMARK SMILES IDX 4 1 2 2 1 3 3 4 5 5 6 6 7 7 8 8
REMARK H PARENT
REMARK Flexibility Score: inf
ROOT
ATOM      1  C   UNL     1       3.433  -2.062  -5.817  1.00  0.00     0.059 C 
ENDROOT
BRANCH   1   2
ATOM      2  C   UNL     1       2.340  -2.912  -5.244  1.00  0.00     0.042 C 
ATOM      3  O   UNL     1       2.555  -3.619  -4.225  1.00  0.00    -0.550 OA
ATOM      4  O   UNL     1       1.073  -2.892  -5.814  1.00  0.00    -0.550 OA
ENDBRANCH   1   2
BRANCH   1   5
ATOM      5  C   UNL     1       4.035  -2.692  -7.077  1.00  0.00     0.059 C 
BRANCH   5   6
ATOM      6  C   UNL     1       5.496  -2.386  -7.204  1.00  0.00     0.042 C 
ATOM      7  O   UNL     1       6.302  -3.283  -7.565  1.00  0.00    -0.550 OA
ATOM      8  O   UNL     1       5.972  -1.120  -6.885  1.00  0.00    -0.550 OA
ENDBRANCH   5   6
ENDBRANCH   1   5
TORSDOF 3
ENDMDL
MODEL 6
REMARK VINA RESULT:    -3.387      1.187      3.734
REMARK INTER + INTRA:          -4.102
REMARK INTER:                  -3.915
REMARK INTRA:                  -0.187
REMARK UNBOUND:                -0.121
REMARK SMILES O=C([O-])CCC(=O)[O-]
REMARK SMILES IDX 4 1 2 2 1 3 3 4 5 5 6 6 7 7 8 8
REMARK H PARENT
REMARK Flexibility Score: inf
ROOT
ATOM      1  C   UNL     1       2.732  -4.054  -5.848  1.00  0.00     0.059 C 
ENDROOT
BRANCH   1   2
ATOM      2  C   UNL     1       2.908  -2.566  -5.881  1.00  0.00     0.042 C 
ATOM      3  O   UNL     1       2.558  -1.909  -6.896  1.00  0.00    -0.550 OA
ATOM      4  O   UNL     1       3.424  -1.903  -4.776  1.00  0.00    -0.550 OA
ENDBRANCH   1   2
BRANCH   1   5
ATOM      5  C   UNL     1       1.259  -4.450  -5.994  1.00  0.00     0.059 C 
BRANCH   5   6
ATOM      6  C   UNL     1       0.420  -3.875  -4.896  1.00  0.00     0.042 C 
ATOM      7  O   UNL     1      -0.498  -3.055  -5.163  1.00  0.00    -0.550 OA
ATOM      8  O   UNL     1       0.678  -4.213  -3.573  1.00  0.00    -0.550 OA
ENDBRANCH   5   6
ENDBRANCH   1   5
TORSDOF 3
ENDMDL
MODEL 7
REMARK VINA RESULT:    -3.175      2.453      3.633
REMARK INTER + INTRA:          -3.853
REMARK INTER:                  -3.745
REMARK INTRA:                  -0.108
REMARK UNBOUND:                -0.121
REMARK SMILES O=C([O-])CCC(=O)[O-]
REMARK SMILES IDX 4 1 2 2 1 3 3 4 5 5 6 6 7 7 8 8
REMARK H PARENT
REMARK Flexibility Score: inf
ROOT
ATOM      1  C   UNL     1      -0.301  -4.815  -5.848  1.00  0.00     0.059 C 
ENDROOT
BRANCH   1   2
ATOM      2  C   UNL     1      -0.992  -3.540  -6.225  1.00  0.00     0.042 C 
ATOM      3  O   UNL     1      -1.169  -3.249  -7.437  1.00  0.00    -0.550 OA
ATOM      4  O   UNL     1      -1.473  -2.692  -5.236  1.00  0.00    -0.550 OA
ENDBRANCH   1   2
BRANCH   1   5
ATOM      5  C   UNL     1       1.216  -4.626  -5.747  1.00  0.00     0.059 C 
BRANCH   5   6
ATOM      6  C   UNL     1       1.613  -4.034  -4.430  1.00  0.00     0.042 C 
ATOM      7  O   UNL     1       2.692  -3.394  -4.323  1.00  0.00    -0.550 OA
ATOM      8  O   UNL     1       0.810  -4.223  -3.312  1.00  0.00    -0.550 OA
ENDBRANCH   5   6
ENDBRANCH   1   5
TORSDOF 3
ENDMDL
MODEL 8
REMARK VINA RESULT:    -3.058      3.798      5.358
REMARK INTER + INTRA:          -3.715
REMARK INTER:                  -3.677
REMARK INTRA:                  -0.038
REMARK UNBOUND:                -0.121
REMARK SMILES O=C([O-])CCC(=O)[O-]
REMARK SMILES IDX 4 1 2 2 1 3 3 4 5 5 6 6 7 7 8 8
REMARK H PARENT
REMARK Flexibility Score: inf
ROOT
ATOM      1  C   UNL     1      -1.022  -7.169  -3.617  1.00  0.00     0.059 C 
ENDROOT
BRANCH   1   2
ATOM      2  C   UNL     1      -2.378  -7.471  -3.054  1.00  0.00     0.042 C 
ATOM      3  O   UNL     1      -3.411  -7.274  -3.746  1.00  0.00    -0.550 OA
ATOM      4  O   UNL     1      -2.497  -8.008  -1.778  1.00  0.00    -0.550 OA
ENDBRANCH   1   2
BRANCH   1   5
ATOM      5  C   UNL     1      -1.070  -5.995  -4.601  1.00  0.00     0.059 C 
BRANCH   5   6
ATOM      6  C   UNL     1       0.193  -5.191  -4.563  1.00  0.00     0.042 C 
ATOM      7  O   UNL     1       0.940  -5.136  -5.575  1.00  0.00    -0.550 OA
ATOM      8  O   UNL     1       0.565  -4.535  -3.396  1.00  0.00    -0.550 OA
ENDBRANCH   5   6
ENDBRANCH   1   5
TORSDOF 3
ENDMDL
MODEL 9
REMARK VINA RESULT:    -2.953      4.170      6.783
REMARK INTER + INTRA:          -3.591
REMARK INTER:                  -3.532
REMARK INTRA:                  -0.060
REMARK UNBOUND:                -0.121
REMARK SMILES O=C([O-])CCC(=O)[O-]
REMARK SMILES IDX 4 1 2 2 1 3 3 4 5 5 6 6 7 7 8 8
REMARK H PARENT
REMARK Flexibility Score: inf
ROOT
ATOM      1  C   UNL     1      -0.607  -7.108  -3.896  1.00  0.00     0.059 C 
ENDROOT
BRANCH   1   2
ATOM      2  C   UNL     1      -0.062  -5.767  -4.284  1.00  0.00     0.042 C 
ATOM      3  O   UNL     1       0.272  -4.938  -3.398  1.00  0.00    -0.550 OA
ATOM      4  O   UNL     1       0.112  -5.449  -5.625  1.00  0.00    -0.550 OA
ENDBRANCH   1   2
BRANCH   1   5
ATOM      5  C   UNL     1      -2.090  -7.240  -4.260  1.00  0.00     0.059 C 
BRANCH   5   6
ATOM      6  C   UNL     1      -2.937  -7.480  -3.048  1.00  0.00     0.042 C 
ATOM      7  O   UNL     1      -4.188  -7.361  -3.116  1.00  0.00    -0.550 OA
ATOM      8  O   UNL     1      -2.340  -7.797  -1.834  1.00  0.00    -0.550 OA
ENDBRANCH   5   6
ENDBRANCH   1   5
TORSDOF 3
ENDMDL
