MODEL 1
REMARK VINA RESULT:    -2.446      0.000      0.000
REMARK INTER + INTRA:          -2.966
REMARK INTER:                  -2.875
REMARK INTRA:                  -0.091
REMARK UNBOUND:                -0.091
REMARK SMILES O=C([O-])CCC(=O)[O-]
REMARK SMILES IDX 4 1 2 2 1 3 3 4 5 5 6 6 7 7 8 8
REMARK H PARENT
REMARK Flexibility Score: inf
ROOT
ATOM      1  C   UNL     1       9.243 -18.737  17.996  1.00  0.00     0.059 C 
ENDROOT
BRANCH   1   2
ATOM      2  C   UNL     1       8.096 -19.510  18.572  1.00  0.00     0.042 C 
ATOM      3  O   UNL     1       8.275 -20.678  19.006  1.00  0.00    -0.550 OA
ATOM      4  O   UNL     1       6.822 -18.956  18.592  1.00  0.00    -0.550 OA
ENDBRANCH   1   2
BRANCH   1   5
ATOM      5  C   UNL     1      10.592 -19.306  18.450  1.00  0.00     0.059 C 
BRANCH   5   6
ATOM      6  C   UNL     1      11.198 -18.487  19.548  1.00  0.00     0.042 C 
ATOM      7  O   UNL     1      10.698 -17.373  19.857  1.00  0.00    -0.550 OA
ATOM      8  O   UNL     1      12.338 -18.935  20.203  1.00  0.00    -0.550 OA
ENDBRANCH   5   6
ENDBRANCH   1   5
TORSDOF 3
ENDMDL
MODEL 2
REMARK VINA RESULT:    -2.444      0.080      3.840
REMARK INTER + INTRA:          -2.964
REMARK INTER:                  -2.874
REMARK INTRA:                  -0.090
REMARK UNBOUND:                -0.091
REMARK SMILES O=C([O-])CCC(=O)[O-]
REMARK SMILES IDX 4 1 2 2 1 3 3 4 5 5 6 6 7 7 8 8
REMARK H PARENT
REMARK Flexibility Score: inf
ROOT
ATOM      1  C   UNL     1      10.597 -19.325  18.433  1.00  0.00     0.059 C 
ENDROOT
BRANCH   1   2
ATOM      2  C   UNL     1      11.230 -18.507  19.517  1.00  0.00     0.042 C 
ATOM      3  O   UNL     1      12.249 -18.933  20.120  1.00  0.00    -0.550 OA
ATOM      4  O   UNL     1      10.670 -17.290  19.889  1.00  0.00    -0.550 OA
ENDBRANCH   1   2
BRANCH   1   5
ATOM      5  C   UNL     1       9.270 -18.715  17.968  1.00  0.00     0.059 C 
BRANCH   5   6
ATOM      6  C   UNL     1       8.095 -19.459  18.524  1.00  0.00     0.042 C 
ATOM      7  O   UNL     1       8.234 -20.634  18.955  1.00  0.00    -0.550 OA
ATOM      8  O   UNL     1       6.836 -18.870  18.527  1.00  0.00    -0.550 OA
ENDBRANCH   5   6
ENDBRANCH   1   5
TORSDOF 3
ENDMDL
MODEL 3
REMARK VINA RESULT:    -2.400      0.177      3.615
REMARK INTER + INTRA:          -2.912
REMARK INTER:                  -2.815
REMARK INTRA:                  -0.096
REMARK UNBOUND:                -0.091
REMARK SMILES O=C([O-])CCC(=O)[O-]
REMARK SMILES IDX 4 1 2 2 1 3 3 4 5 5 6 6 7 7 8 8
REMARK H PARENT
REMARK Flexibility Score: inf
ROOT
ATOM      1  C   UNL     1      10.501 -19.240  18.283  1.00  0.00     0.059 C 
ENDROOT
BRANCH   1   2
ATOM      2  C   UNL     1      11.095 -18.469  19.422  1.00  0.00     0.042 C 
ATOM      3  O   UNL     1      12.093 -18.922  20.042  1.00  0.00    -0.550 OA
ATOM      4  O   UNL     1      10.522 -17.269  19.825  1.00  0.00    -0.550 OA
ENDBRANCH   1   2
BRANCH   1   5
ATOM      5  C   UNL     1       9.134 -18.680  17.875  1.00  0.00     0.059 C 
BRANCH   5   6
ATOM      6  C   UNL     1       8.012 -19.445  18.507  1.00  0.00     0.042 C 
ATOM      7  O   UNL     1       6.873 -18.920  18.624  1.00  0.00    -0.550 OA
ATOM      8  O   UNL     1       8.234 -20.723  19.005  1.00  0.00    -0.550 OA
ENDBRANCH   5   6
ENDBRANCH   1   5
TORSDOF 3
ENDMDL
MODEL 4
REMARK VINA RESULT:    -2.334      1.454      1.811
REMARK INTER + INTRA:          -2.834
REMARK INTER:                  -2.735
REMARK INTRA:                  -0.099
REMARK UNBOUND:                -0.091
REMARK SMILES O=C([O-])CCC(=O)[O-]
REMARK SMILES IDX 4 1 2 2 1 3 3 4 5 5 6 6 7 7 8 8
REMARK H PARENT
REMARK Flexibility Score: inf
ROOT
ATOM      1  C   UNL     1       8.046 -19.497  18.475  1.00  0.00     0.059 C 
ENDROOT
BRANCH   1   2
ATOM      2  C   UNL     1       6.932 -18.496  18.500  1.00  0.00     0.042 C 
ATOM      3  O   UNL     1       7.065 -17.384  17.925  1.00  0.00    -0.550 OA
ATOM      4  O   UNL     1       5.760 -18.775  19.193  1.00  0.00    -0.550 OA
ENDBRANCH   1   2
BRANCH   1   5
ATOM      5  C   UNL     1       9.355 -18.872  17.978  1.00  0.00     0.059 C 
BRANCH   5   6
ATOM      6  C   UNL     1      10.373 -18.778  19.072  1.00  0.00     0.042 C 
ATOM      7  O   UNL     1      10.065 -18.274  20.184  1.00  0.00    -0.550 OA
ATOM      8  O   UNL     1      11.675 -19.210  18.850  1.00  0.00    -0.550 OA
ENDBRANCH   5   6
ENDBRANCH   1   5
TORSDOF 3
ENDMDL
MODEL 5
REMARK VINA RESULT:    -2.313      1.388      3.855
REMARK INTER + INTRA:          -2.809
REMARK INTER:                  -2.719
REMARK INTRA:                  -0.091
REMARK UNBOUND:                -0.091
REMARK SMILES O=C([O-])CCC(=O)[O-]
REMARK SMILES IDX 4 1 2 2 1 3 3 4 5 5 6 6 7 7 8 8
REMARK H PARENT
REMARK Flexibility Score: inf
ROOT
ATOM      1  C   UNL     1       9.474 -18.914  18.009  1.00  0.00     0.059 C 
ENDROOT
BRANCH   1   2
ATOM      2  C   UNL     1      10.508 -18.830  19.090  1.00  0.00     0.042 C 
ATOM      3  O   UNL     1      11.689 -19.203  18.867  1.00  0.00    -0.550 OA
ATOM      4  O   UNL     1      10.157 -18.377  20.357  1.00  0.00    -0.550 OA
ENDBRANCH   1   2
BRANCH   1   5
ATOM      5  C   UNL     1       8.162 -19.514  18.528  1.00  0.00     0.059 C 
BRANCH   5   6
ATOM      6  C   UNL     1       7.050 -18.511  18.511  1.00  0.00     0.042 C 
ATOM      7  O   UNL     1       5.940 -18.786  19.038  1.00  0.00    -0.550 OA
ATOM      8  O   UNL     1       7.225 -17.288  17.875  1.00  0.00    -0.550 OA
ENDBRANCH   5   6
ENDBRANCH   1   5
TORSDOF 3
ENDMDL
MODEL 6
REMARK VINA RESULT:    -2.301      7.884      9.875
REMARK INTER + INTRA:          -2.795
REMARK INTER:                  -2.679
REMARK INTRA:                  -0.117
REMARK UNBOUND:                -0.091
REMARK SMILES O=C([O-])CCC(=O)[O-]
REMARK SMILES IDX 4 1 2 2 1 3 3 4 5 5 6 6 7 7 8 8
REMARK H PARENT
REMARK Flexibility Score: inf
ROOT
ATOM      1  C   UNL     1      -0.562 -19.649  18.347  1.00  0.00     0.059 C 
ENDROOT
BRANCH   1   2
ATOM      2  C   UNL     1      -1.804 -20.124  19.037  1.00  0.00     0.042 C 
ATOM      3  O   UNL     1      -2.935 -19.897  18.534  1.00  0.00    -0.550 OA
ATOM      4  O   UNL     1      -1.714 -20.785  20.257  1.00  0.00    -0.550 OA
ENDBRANCH   1   2
BRANCH   1   5
ATOM      5  C   UNL     1       0.612 -20.608  18.575  1.00  0.00     0.059 C 
BRANCH   5   6
ATOM      6  C   UNL     1       1.709 -19.961  19.363  1.00  0.00     0.042 C 
ATOM      7  O   UNL     1       2.747 -19.546  18.783  1.00  0.00    -0.550 OA
ATOM      8  O   UNL     1       1.604 -19.854  20.744  1.00  0.00    -0.550 OA
ENDBRANCH   5   6
ENDBRANCH   1   5
TORSDOF 3
ENDMDL
MODEL 7
REMARK VINA RESULT:    -2.242      2.015      2.990
REMARK INTER + INTRA:          -2.727
REMARK INTER:                  -2.605
REMARK INTRA:                  -0.122
REMARK UNBOUND:                -0.091
REMARK SMILES O=C([O-])CCC(=O)[O-]
REMARK SMILES IDX 4 1 2 2 1 3 3 4 5 5 6 6 7 7 8 8
REMARK H PARENT
REMARK Flexibility Score: inf
ROOT
ATOM      1  C   UNL     1       6.966 -18.953  19.467  1.00  0.00     0.059 C 
ENDROOT
BRANCH   1   2
ATOM      2  C   UNL     1       5.711 -18.332  18.935  1.00  0.00     0.042 C 
ATOM      3  O   UNL     1       4.592 -18.848  19.188  1.00  0.00    -0.550 OA
ATOM      4  O   UNL     1       5.781 -17.204  18.125  1.00  0.00    -0.550 OA
ENDBRANCH   1   2
BRANCH   1   5
ATOM      5  C   UNL     1       7.891 -19.414  18.335  1.00  0.00     0.059 C 
BRANCH   5   6
ATOM      6  C   UNL     1       9.164 -18.625  18.305  1.00  0.00     0.042 C 
ATOM      7  O   UNL     1      10.272 -19.213  18.183  1.00  0.00    -0.550 OA
ATOM      8  O   UNL     1       9.131 -17.244  18.453  1.00  0.00    -0.550 OA
ENDBRANCH   5   6
ENDBRANCH   1   5
TORSDOF 3
ENDMDL
MODEL 8
REMARK VINA RESULT:    -2.230      2.094      2.888
REMARK INTER + INTRA:          -2.712
REMARK INTER:                  -2.568
REMARK INTRA:                  -0.143
REMARK UNBOUND:                -0.091
REMARK SMILES O=C([O-])CCC(=O)[O-]
REMARK SMILES IDX 4 1 2 2 1 3 3 4 5 5 6 6 7 7 8 8
REMARK H PARENT
REMARK Flexibility Score: inf
ROOT
ATOM      1  C   UNL     1       8.113 -20.600  19.161  1.00  0.00     0.059 C 
ENDROOT
BRANCH   1   2
ATOM      2  C   UNL     1       7.889 -20.222  20.593  1.00  0.00     0.042 C 
ATOM      3  O   UNL     1       6.723 -20.020  21.020  1.00  0.00    -0.550 OA
ATOM      4  O   UNL     1       8.973 -20.056  21.447  1.00  0.00    -0.550 OA
ENDBRANCH   1   2
BRANCH   1   5
ATOM      5  C   UNL     1       7.983 -19.387  18.231  1.00  0.00     0.059 C 
BRANCH   5   6
ATOM      6  C   UNL     1       9.228 -18.553  18.233  1.00  0.00     0.042 C 
ATOM      7  O   UNL     1      10.356 -19.098  18.106  1.00  0.00    -0.550 OA
ATOM      8  O   UNL     1       9.144 -17.179  18.417  1.00  0.00    -0.550 OA
ENDBRANCH   5   6
ENDBRANCH   1   5
TORSDOF 3
ENDMDL
MODEL 9
REMARK VINA RESULT:    -2.217      8.673     11.206
REMARK INTER + INTRA:          -2.696
REMARK INTER:                  -2.573
REMARK INTRA:                  -0.123
REMARK UNBOUND:                -0.091
REMARK SMILES O=C([O-])CCC(=O)[O-]
REMARK SMILES IDX 4 1 2 2 1 3 3 4 5 5 6 6 7 7 8 8
REMARK H PARENT
REMARK Flexibility Score: inf
ROOT
ATOM      1  C   UNL     1      -0.116 -19.731  20.313  1.00  0.00     0.059 C 
ENDROOT
BRANCH   1   2
ATOM      2  C   UNL     1       0.969 -20.213  19.399  1.00  0.00     0.042 C 
ATOM      3  O   UNL     1       2.156 -19.830  19.568  1.00  0.00    -0.550 OA
ATOM      4  O   UNL     1       0.662 -21.053  18.335  1.00  0.00    -0.550 OA
ENDBRANCH   1   2
BRANCH   1   5
ATOM      5  C   UNL     1      -1.048 -20.874  20.734  1.00  0.00     0.059 C 
BRANCH   5   6
ATOM      6  C   UNL     1      -2.441 -20.667  20.225  1.00  0.00     0.042 C 
ATOM      7  O   UNL     1      -2.647 -20.485  18.997  1.00  0.00    -0.550 OA
ATOM      8  O   UNL     1      -3.509 -20.635  21.114  1.00  0.00    -0.550 OA
ENDBRANCH   5   6
ENDBRANCH   1   5
TORSDOF 3
ENDMDL
