MODEL 1
REMARK VINA RESULT:    -4.117      0.000      0.000
REMARK INTER + INTRA:          -7.151
REMARK INTER:                  -6.283
REMARK INTRA:                  -0.867
REMARK UNBOUND:                -0.867
REMARK SMILES O=C([O-])CCCCCCCCC(=O)[O-]
REMARK SMILES IDX 7 1 6 2 5 3 4 4 2 5 1 6 3 7 8 8 9 9 10 10 11 11 12 12 13 13
REMARK SMILES IDX 14 14
REMARK H PARENT
REMARK Flexibility Score: inf
ROOT
ATOM      1  C   UNL     1     -15.029 -11.947  20.480  1.00  0.00     0.000 C 
ENDROOT
BRANCH   1   2
ATOM      2  C   UNL     1     -15.002 -13.372  19.905  1.00  0.00     0.000 C 
BRANCH   2   3
ATOM      3  C   UNL     1     -13.832 -13.596  18.935  1.00  0.00     0.006 C 
BRANCH   3   4
ATOM      4  C   UNL     1     -13.046 -12.308  18.654  1.00  0.00     0.053 C 
BRANCH   4   5
ATOM      5  C   UNL     1     -11.603 -12.620  18.411  1.00  0.00     0.041 C 
ATOM      6  O   UNL     1     -11.164 -12.711  17.234  1.00  0.00    -0.550 OA
ATOM      7  O   UNL     1     -10.732 -12.764  19.483  1.00  0.00    -0.550 OA
ENDBRANCH   4   5
ENDBRANCH   3   4
ENDBRANCH   2   3
ENDBRANCH   1   2
BRANCH   1   8
ATOM      8  C   UNL     1     -15.064 -11.927  22.019  1.00  0.00     0.000 C 
BRANCH   8   9
ATOM      9  C   UNL     1     -14.982 -13.314  22.689  1.00  0.00     0.000 C 
BRANCH   9  10
ATOM     10  C   UNL     1     -13.635 -13.635  23.369  1.00  0.00     0.006 C 
BRANCH  10  11
ATOM     11  C   UNL     1     -12.794 -14.696  22.642  1.00  0.00     0.053 C 
BRANCH  11  12
ATOM     12  C   UNL     1     -13.549 -15.975  22.450  1.00  0.00     0.041 C 
ATOM     13  O   UNL     1     -13.958 -16.625  23.449  1.00  0.00    -0.550 OA
ATOM     14  O   UNL     1     -13.771 -16.470  21.171  1.00  0.00    -0.550 OA
ENDBRANCH  11  12
ENDBRANCH  10  11
ENDBRANCH   9  10
ENDBRANCH   8   9
ENDBRANCH   1   8
TORSDOF 9
ENDMDL
MODEL 2
REMARK VINA RESULT:    -3.978      0.962      5.234
REMARK INTER + INTRA:          -6.937
REMARK INTER:                  -6.156
REMARK INTRA:                  -0.782
REMARK UNBOUND:                -0.867
REMARK SMILES O=C([O-])CCCCCCCCC(=O)[O-]
REMARK SMILES IDX 7 1 6 2 5 3 4 4 2 5 1 6 3 7 8 8 9 9 10 10 11 11 12 12 13 13
REMARK SMILES IDX 14 14
REMARK H PARENT
REMARK Flexibility Score: inf
ROOT
ATOM      1  C   UNL     1     -14.863 -12.341  21.918  1.00  0.00     0.000 C 
ENDROOT
BRANCH   1   2
ATOM      2  C   UNL     1     -15.000 -13.397  23.028  1.00  0.00     0.000 C 
BRANCH   2   3
ATOM      3  C   UNL     1     -13.651 -13.752  23.673  1.00  0.00     0.006 C 
BRANCH   3   4
ATOM      4  C   UNL     1     -12.805 -14.684  22.796  1.00  0.00     0.053 C 
BRANCH   4   5
ATOM      5  C   UNL     1     -13.546 -15.954  22.519  1.00  0.00     0.041 C 
ATOM      6  O   UNL     1     -13.977 -16.657  23.471  1.00  0.00    -0.550 OA
ATOM      7  O   UNL     1     -13.802 -16.338  21.209  1.00  0.00    -0.550 OA
ENDBRANCH   4   5
ENDBRANCH   3   4
ENDBRANCH   2   3
ENDBRANCH   1   2
BRANCH   1   8
ATOM      8  C   UNL     1     -15.055 -12.932  20.509  1.00  0.00     0.000 C 
BRANCH   8   9
ATOM      9  C   UNL     1     -13.986 -12.517  19.478  1.00  0.00     0.000 C 
BRANCH   9  10
ATOM     10  C   UNL     1     -12.720 -13.399  19.457  1.00  0.00     0.006 C 
BRANCH  10  11
ATOM     11  C   UNL     1     -11.416 -12.631  19.190  1.00  0.00     0.053 C 
BRANCH  11  12
ATOM     12  C   UNL     1     -11.319 -12.167  17.768  1.00  0.00     0.041 C 
ATOM     13  O   UNL     1     -10.960 -12.968  16.865  1.00  0.00    -0.550 OA
ATOM     14  O   UNL     1     -11.590 -10.843  17.447  1.00  0.00    -0.550 OA
ENDBRANCH  11  12
ENDBRANCH  10  11
ENDBRANCH   9  10
ENDBRANCH   8   9
ENDBRANCH   1   8
TORSDOF 9
ENDMDL
MODEL 3
REMARK VINA RESULT:    -3.810      2.297      2.991
REMARK INTER + INTRA:          -6.682
REMARK INTER:                  -6.033
REMARK INTRA:                  -0.649
REMARK UNBOUND:                -0.867
REMARK SMILES O=C([O-])CCCCCCCCC(=O)[O-]
REMARK SMILES IDX 7 1 6 2 5 3 4 4 2 5 1 6 3 7 8 8 9 9 10 10 11 11 12 12 13 13
REMARK SMILES IDX 14 14
REMARK H PARENT
REMARK Flexibility Score: inf
ROOT
ATOM      1  C   UNL     1     -12.632 -14.774  19.234  1.00  0.00     0.000 C 
ENDROOT
BRANCH   1   2
ATOM      2  C   UNL     1     -12.021 -13.669  20.112  1.00  0.00     0.000 C 
BRANCH   2   3
ATOM      3  C   UNL     1     -10.946 -12.856  19.374  1.00  0.00     0.006 C 
BRANCH   3   4
ATOM      4  C   UNL     1     -11.249 -12.700  17.878  1.00  0.00     0.053 C 
BRANCH   4   5
ATOM      5  C   UNL     1     -12.070 -11.473  17.638  1.00  0.00     0.041 C 
ATOM      6  O   UNL     1     -13.288 -11.453  17.954  1.00  0.00    -0.550 OA
ATOM      7  O   UNL     1     -11.478 -10.333  17.108  1.00  0.00    -0.550 OA
ENDBRANCH   4   5
ENDBRANCH   3   4
ENDBRANCH   2   3
ENDBRANCH   1   2
BRANCH   1   8
ATOM      8  C   UNL     1     -14.166 -14.689  19.153  1.00  0.00     0.000 C 
BRANCH   8   9
ATOM      9  C   UNL     1     -14.922 -15.561  20.177  1.00  0.00     0.000 C 
BRANCH   9  10
ATOM     10  C   UNL     1     -14.122 -16.755  20.737  1.00  0.00     0.006 C 
BRANCH  10  11
ATOM     11  C   UNL     1     -14.320 -17.001  22.241  1.00  0.00     0.053 C 
BRANCH  11  12
ATOM     12  C   UNL     1     -13.972 -15.794  23.058  1.00  0.00     0.041 C 
ATOM     13  O   UNL     1     -12.822 -15.286  22.979  1.00  0.00    -0.550 OA
ATOM     14  O   UNL     1     -14.905 -15.251  23.933  1.00  0.00    -0.550 OA
ENDBRANCH  11  12
ENDBRANCH  10  11
ENDBRANCH   9  10
ENDBRANCH   8   9
ENDBRANCH   1   8
TORSDOF 9
ENDMDL
MODEL 4
REMARK VINA RESULT:    -3.768      2.124      2.810
REMARK INTER + INTRA:          -6.618
REMARK INTER:                  -5.828
REMARK INTRA:                  -0.790
REMARK UNBOUND:                -0.867
REMARK SMILES O=C([O-])CCCCCCCCC(=O)[O-]
REMARK SMILES IDX 7 1 6 2 5 3 4 4 2 5 1 6 3 7 8 8 9 9 10 10 11 11 12 12 13 13
REMARK SMILES IDX 14 14
REMARK H PARENT
REMARK Flexibility Score: inf
ROOT
ATOM      1  C   UNL     1     -14.353 -14.888  19.170  1.00  0.00     0.000 C 
ENDROOT
BRANCH   1   2
ATOM      2  C   UNL     1     -12.816 -14.858  19.198  1.00  0.00     0.000 C 
BRANCH   2   3
ATOM      3  C   UNL     1     -12.262 -13.525  19.722  1.00  0.00     0.006 C 
BRANCH   3   4
ATOM      4  C   UNL     1     -11.381 -12.806  18.691  1.00  0.00     0.053 C 
BRANCH   4   5
ATOM      5  C   UNL     1     -12.154 -11.722  18.010  1.00  0.00     0.041 C 
ATOM      6  O   UNL     1     -11.564 -10.893  17.269  1.00  0.00    -0.550 OA
ATOM      7  O   UNL     1     -13.534 -11.656  18.155  1.00  0.00    -0.550 OA
ENDBRANCH   4   5
ENDBRANCH   3   4
ENDBRANCH   2   3
ENDBRANCH   1   2
BRANCH   1   8
ATOM      8  C   UNL     1     -14.950 -15.813  20.246  1.00  0.00     0.000 C 
BRANCH   8   9
ATOM      9  C   UNL     1     -13.913 -16.579  21.093  1.00  0.00     0.000 C 
BRANCH   9  10
ATOM     10  C   UNL     1     -13.909 -16.231  22.595  1.00  0.00     0.006 C 
BRANCH  10  11
ATOM     11  C   UNL     1     -13.167 -14.930  22.943  1.00  0.00     0.053 C 
BRANCH  11  12
ATOM     12  C   UNL     1     -14.113 -13.824  23.298  1.00  0.00     0.041 C 
ATOM     13  O   UNL     1     -14.722 -13.840  24.400  1.00  0.00    -0.550 OA
ATOM     14  O   UNL     1     -14.350 -12.793  22.397  1.00  0.00    -0.550 OA
ENDBRANCH  11  12
ENDBRANCH  10  11
ENDBRANCH   9  10
ENDBRANCH   8   9
ENDBRANCH   1   8
TORSDOF 9
ENDMDL
MODEL 5
REMARK VINA RESULT:    -3.679      1.713      5.031
REMARK INTER + INTRA:          -6.482
REMARK INTER:                  -5.643
REMARK INTRA:                  -0.840
REMARK UNBOUND:                -0.867
REMARK SMILES O=C([O-])CCCCCCCCC(=O)[O-]
REMARK SMILES IDX 7 1 6 2 5 3 4 4 2 5 1 6 3 7 8 8 9 9 10 10 11 11 12 12 13 13
REMARK SMILES IDX 14 14
REMARK H PARENT
REMARK Flexibility Score: inf
ROOT
ATOM      1  C   UNL     1     -13.694 -15.794  19.259  1.00  0.00     0.000 C 
ENDROOT
BRANCH   1   2
ATOM      2  C   UNL     1     -13.618 -16.753  20.458  1.00  0.00     0.000 C 
BRANCH   2   3
ATOM      3  C   UNL     1     -14.475 -16.283  21.644  1.00  0.00     0.006 C 
BRANCH   3   4
ATOM      4  C   UNL     1     -13.630 -15.767  22.815  1.00  0.00     0.053 C 
BRANCH   4   5
ATOM      5  C   UNL     1     -13.537 -14.275  22.773  1.00  0.00     0.041 C 
ATOM      6  O   UNL     1     -12.418 -13.713  22.637  1.00  0.00    -0.550 OA
ATOM      7  O   UNL     1     -14.691 -13.504  22.837  1.00  0.00    -0.550 OA
ENDBRANCH   4   5
ENDBRANCH   3   4
ENDBRANCH   2   3
ENDBRANCH   1   2
BRANCH   1   8
ATOM      8  C   UNL     1     -15.060 -15.095  19.142  1.00  0.00     0.000 C 
BRANCH   8   9
ATOM      9  C   UNL     1     -14.996 -13.597  18.778  1.00  0.00     0.000 C 
BRANCH   9  10
ATOM     10  C   UNL     1     -13.829 -12.817  19.416  1.00  0.00     0.006 C 
BRANCH  10  11
ATOM     11  C   UNL     1     -12.960 -12.043  18.412  1.00  0.00     0.053 C 
BRANCH  11  12
ATOM     12  C   UNL     1     -11.557 -12.569  18.362  1.00  0.00     0.041 C 
ATOM     13  O   UNL     1     -10.990 -12.756  17.253  1.00  0.00    -0.550 OA
ATOM     14  O   UNL     1     -10.890 -12.888  19.538  1.00  0.00    -0.550 OA
ENDBRANCH  11  12
ENDBRANCH  10  11
ENDBRANCH   9  10
ENDBRANCH   8   9
ENDBRANCH   1   8
TORSDOF 9
ENDMDL
MODEL 6
REMARK VINA RESULT:    -3.666      1.458      4.758
REMARK INTER + INTRA:          -6.463
REMARK INTER:                  -5.642
REMARK INTRA:                  -0.821
REMARK UNBOUND:                -0.867
REMARK SMILES O=C([O-])CCCCCCCCC(=O)[O-]
REMARK SMILES IDX 7 1 6 2 5 3 4 4 2 5 1 6 3 7 8 8 9 9 10 10 11 11 12 12 13 13
REMARK SMILES IDX 14 14
REMARK H PARENT
REMARK Flexibility Score: inf
ROOT
ATOM      1  C   UNL     1     -13.524 -13.618  22.114  1.00  0.00     0.000 C 
ENDROOT
BRANCH   1   2
ATOM      2  C   UNL     1     -14.131 -14.752  22.957  1.00  0.00     0.000 C 
BRANCH   2   3
ATOM      3  C   UNL     1     -13.956 -16.132  22.303  1.00  0.00     0.006 C 
BRANCH   3   4
ATOM      4  C   UNL     1     -14.870 -16.328  21.086  1.00  0.00     0.053 C 
BRANCH   4   5
ATOM      5  C   UNL     1     -14.129 -17.012  19.982  1.00  0.00     0.041 C 
ATOM      6  O   UNL     1     -14.525 -18.125  19.547  1.00  0.00    -0.550 OA
ATOM      7  O   UNL     1     -13.027 -16.398  19.400  1.00  0.00    -0.550 OA
ENDBRANCH   4   5
ENDBRANCH   3   4
ENDBRANCH   2   3
ENDBRANCH   1   2
BRANCH   1   8
ATOM      8  C   UNL     1     -14.534 -12.498  21.808  1.00  0.00     0.000 C 
BRANCH   8   9
ATOM      9  C   UNL     1     -15.012 -12.436  20.343  1.00  0.00     0.000 C 
BRANCH   9  10
ATOM     10  C   UNL     1     -14.082 -13.119  19.320  1.00  0.00     0.006 C 
BRANCH  10  11
ATOM     11  C   UNL     1     -13.238 -12.147  18.480  1.00  0.00     0.053 C 
BRANCH  11  12
ATOM     12  C   UNL     1     -11.793 -12.542  18.449  1.00  0.00     0.041 C 
ATOM     13  O   UNL     1     -11.070 -12.222  17.468  1.00  0.00    -0.550 OA
ATOM     14  O   UNL     1     -11.253 -13.296  19.484  1.00  0.00    -0.550 OA
ENDBRANCH  11  12
ENDBRANCH  10  11
ENDBRANCH   9  10
ENDBRANCH   8   9
ENDBRANCH   1   8
TORSDOF 9
ENDMDL
MODEL 7
REMARK VINA RESULT:    -3.638      2.173      5.499
REMARK INTER + INTRA:          -6.419
REMARK INTER:                  -6.044
REMARK INTRA:                  -0.376
REMARK UNBOUND:                -0.867
REMARK SMILES O=C([O-])CCCCCCCCC(=O)[O-]
REMARK SMILES IDX 7 1 6 2 5 3 4 4 2 5 1 6 3 7 8 8 9 9 10 10 11 11 12 12 13 13
REMARK SMILES IDX 14 14
REMARK H PARENT
REMARK Flexibility Score: inf
ROOT
ATOM      1  C   UNL     1     -14.324 -14.812  19.088  1.00  0.00     0.000 C 
ENDROOT
BRANCH   1   2
ATOM      2  C   UNL     1     -14.977 -15.912  19.940  1.00  0.00     0.000 C 
BRANCH   2   3
ATOM      3  C   UNL     1     -14.314 -16.062  21.318  1.00  0.00     0.006 C 
BRANCH   3   4
ATOM      4  C   UNL     1     -14.717 -14.947  22.291  1.00  0.00     0.053 C 
BRANCH   4   5
ATOM      5  C   UNL     1     -13.669 -14.768  23.343  1.00  0.00     0.041 C 
ATOM      6  O   UNL     1     -12.449 -14.828  23.039  1.00  0.00    -0.550 OA
ATOM      7  O   UNL     1     -14.039 -14.486  24.652  1.00  0.00    -0.550 OA
ENDBRANCH   4   5
ENDBRANCH   3   4
ENDBRANCH   2   3
ENDBRANCH   1   2
BRANCH   1   8
ATOM      8  C   UNL     1     -12.788 -14.816  19.186  1.00  0.00     0.000 C 
BRANCH   8   9
ATOM      9  C   UNL     1     -12.181 -13.611  19.933  1.00  0.00     0.000 C 
BRANCH   9  10
ATOM     10  C   UNL     1     -10.958 -12.966  19.251  1.00  0.00     0.006 C 
BRANCH  10  11
ATOM     11  C   UNL     1     -11.170 -12.611  17.771  1.00  0.00     0.053 C 
BRANCH  11  12
ATOM     12  C   UNL     1     -12.041 -11.403  17.603  1.00  0.00     0.041 C 
ATOM     13  O   UNL     1     -13.254 -11.445  17.940  1.00  0.00    -0.550 OA
ATOM     14  O   UNL     1     -11.523 -10.243  17.041  1.00  0.00    -0.550 OA
ENDBRANCH  11  12
ENDBRANCH  10  11
ENDBRANCH   9  10
ENDBRANCH   8   9
ENDBRANCH   1   8
TORSDOF 9
ENDMDL
MODEL 8
REMARK VINA RESULT:    -3.613      1.241      1.827
REMARK INTER + INTRA:          -6.382
REMARK INTER:                  -5.773
REMARK INTRA:                  -0.609
REMARK UNBOUND:                -0.867
REMARK SMILES O=C([O-])CCCCCCCCC(=O)[O-]
REMARK SMILES IDX 7 1 6 2 5 3 4 4 2 5 1 6 3 7 8 8 9 9 10 10 11 11 12 12 13 13
REMARK SMILES IDX 14 14
REMARK H PARENT
REMARK Flexibility Score: inf
ROOT
ATOM      1  C   UNL     1     -14.086 -12.640  21.287  1.00  0.00     0.000 C 
ENDROOT
BRANCH   1   2
ATOM      2  C   UNL     1     -15.007 -12.482  20.066  1.00  0.00     0.000 C 
BRANCH   2   3
ATOM      3  C   UNL     1     -14.223 -12.331  18.752  1.00  0.00     0.006 C 
BRANCH   3   4
ATOM      4  C   UNL     1     -12.920 -13.141  18.747  1.00  0.00     0.053 C 
BRANCH   4   5
ATOM      5  C   UNL     1     -11.750 -12.245  18.490  1.00  0.00     0.041 C 
ATOM      6  O   UNL     1     -10.646 -12.468  19.052  1.00  0.00    -0.550 OA
ATOM      7  O   UNL     1     -11.865 -11.191  17.592  1.00  0.00    -0.550 OA
ENDBRANCH   4   5
ENDBRANCH   3   4
ENDBRANCH   2   3
ENDBRANCH   1   2
BRANCH   1   8
ATOM      8  C   UNL     1     -14.780 -13.342  22.468  1.00  0.00     0.000 C 
BRANCH   8   9
ATOM      9  C   UNL     1     -13.827 -14.018  23.474  1.00  0.00     0.000 C 
BRANCH   9  10
ATOM     10  C   UNL     1     -13.506 -15.498  23.181  1.00  0.00     0.006 C 
BRANCH  10  11
ATOM     11  C   UNL     1     -14.603 -16.243  22.404  1.00  0.00     0.053 C 
BRANCH  11  12
ATOM     12  C   UNL     1     -14.087 -16.823  21.123  1.00  0.00     0.041 C 
ATOM     13  O   UNL     1     -13.381 -16.124  20.350  1.00  0.00    -0.550 OA
ATOM     14  O   UNL     1     -14.416 -18.125  20.764  1.00  0.00    -0.550 OA
ENDBRANCH  11  12
ENDBRANCH  10  11
ENDBRANCH   9  10
ENDBRANCH   8   9
ENDBRANCH   1   8
TORSDOF 9
ENDMDL
MODEL 9
REMARK VINA RESULT:    -3.233     11.313     14.555
REMARK INTER + INTRA:          -5.801
REMARK INTER:                  -5.542
REMARK INTRA:                  -0.259
REMARK UNBOUND:                -0.867
REMARK SMILES O=C([O-])CCCCCCCCC(=O)[O-]
REMARK SMILES IDX 7 1 6 2 5 3 4 4 2 5 1 6 3 7 8 8 9 9 10 10 11 11 12 12 13 13
REMARK SMILES IDX 14 14
REMARK H PARENT
REMARK Flexibility Score: inf
ROOT
ATOM      1  C   UNL     1     -12.919 -14.001   7.129  1.00  0.00     0.000 C 
ENDROOT
BRANCH   1   2
ATOM      2  C   UNL     1     -14.449 -14.128   7.218  1.00  0.00     0.000 C 
BRANCH   2   3
ATOM      3  C   UNL     1     -14.914 -14.728   8.555  1.00  0.00     0.006 C 
BRANCH   3   4
ATOM      4  C   UNL     1     -13.801 -14.746   9.611  1.00  0.00     0.053 C 
BRANCH   4   5
ATOM      5  C   UNL     1     -14.377 -14.987  10.970  1.00  0.00     0.041 C 
ATOM      6  O   UNL     1     -14.883 -14.035  11.622  1.00  0.00    -0.550 OA
ATOM      7  O   UNL     1     -14.398 -16.271  11.500  1.00  0.00    -0.550 OA
ENDBRANCH   4   5
ENDBRANCH   3   4
ENDBRANCH   2   3
ENDBRANCH   1   2
BRANCH   1   8
ATOM      8  C   UNL     1     -12.413 -13.923   5.677  1.00  0.00     0.000 C 
BRANCH   8   9
ATOM      9  C   UNL     1     -12.114 -12.498   5.169  1.00  0.00     0.000 C 
BRANCH   9  10
ATOM     10  C   UNL     1     -10.762 -11.910   5.623  1.00  0.00     0.006 C 
BRANCH  10  11
ATOM     11  C   UNL     1      -9.815 -12.928   6.276  1.00  0.00     0.053 C 
BRANCH  11  12
ATOM     12  C   UNL     1      -8.725 -13.360   5.343  1.00  0.00     0.041 C 
ATOM     13  O   UNL     1      -7.918 -12.512   4.877  1.00  0.00    -0.550 OA
ATOM     14  O   UNL     1      -8.622 -14.691   4.958  1.00  0.00    -0.550 OA
ENDBRANCH  11  12
ENDBRANCH  10  11
ENDBRANCH   9  10
ENDBRANCH   8   9
ENDBRANCH   1   8
TORSDOF 9
ENDMDL
