MODEL 1
REMARK VINA RESULT:    -6.453      0.000      0.000
REMARK INTER + INTRA:          -7.798
REMARK INTER:                  -7.773
REMARK INTRA:                  -0.025
REMARK UNBOUND:                -0.025
REMARK SMILES O=c1c(O)c(-c2ccc(O)cc2O)oc2cc(O)cc(O)c12
REMARK SMILES IDX 5 1 3 2 2 3 1 4 22 5 20 6 19 7 17 8 16 9 15 10 14 11 6 12
REMARK SMILES IDX 8 13 7 14 9 15 11 16 12 17 10 18 13 20 4 22 21 24 18 26
REMARK H PARENT 10 19 13 21 4 23 21 25 18 27
REMARK Flexibility Score: inf
ROOT
ATOM      1  C   UNL     1       9.948  -2.706  19.144  1.00  0.00     0.184 A 
ATOM      2  C   UNL     1      11.190  -2.249  18.678  1.00  0.00     0.208 A 
ATOM      3  C   UNL     1      11.388  -0.870  18.511  1.00  0.00     0.238 A 
ATOM      4  O   UNL     1      12.521  -0.462  18.143  1.00  0.00    -0.285 OA
ATOM      5  C   UNL     1      10.335   0.033  18.798  1.00  0.00     0.111 A 
ATOM      6  C   UNL     1      10.412   1.448  18.626  1.00  0.00     0.134 A 
ATOM      7  C   UNL     1       9.354   2.254  19.064  1.00  0.00     0.093 A 
ATOM      8  C   UNL     1       8.198   1.695  19.606  1.00  0.00     0.123 A 
ATOM      9  C   UNL     1       8.089   0.308  19.724  1.00  0.00     0.094 A 
ATOM     10  C   UNL     1       9.141  -0.521  19.330  1.00  0.00     0.146 A 
ATOM     11  O   UNL     1       9.001  -1.833  19.469  1.00  0.00    -0.451 OA
ENDROOT
BRANCH   1  12
ATOM     12  C   UNL     1       9.668  -4.146  19.327  1.00  0.00     0.063 A 
ATOM     13  C   UNL     1      10.423  -6.329  20.085  1.00  0.00     0.047 A 
ATOM     14  C   UNL     1      10.657  -4.966  19.893  1.00  0.00     0.020 A 
ATOM     15  C   UNL     1       9.191  -6.889  19.725  1.00  0.00     0.119 A 
ATOM     16  C   UNL     1       8.192  -6.076  19.182  1.00  0.00     0.093 A 
ATOM     17  C   UNL     1       8.417  -4.704  18.992  1.00  0.00     0.130 A 
BRANCH  15  18
ATOM     18  O   UNL     1       8.947  -8.248  19.908  1.00  0.00    -0.508 OA
ATOM     19  H   UNL     1       8.490  -8.804  19.194  1.00  0.00     0.293 HD
ENDBRANCH  15  18
BRANCH  17  20
ATOM     20  O   UNL     1       7.395  -3.895  18.495  1.00  0.00    -0.507 OA
ATOM     21  H   UNL     1       6.691  -4.256  17.861  1.00  0.00     0.293 HD
ENDBRANCH  17  20
ENDBRANCH   1  12
BRANCH   2  22
ATOM     22  O   UNL     1      12.218  -3.160  18.420  1.00  0.00    -0.502 OA
ATOM     23  H   UNL     1      12.910  -3.409  19.116  1.00  0.00     0.293 HD
ENDBRANCH   2  22
BRANCH   6  24
ATOM     24  O   UNL     1      11.483   2.103  18.012  1.00  0.00    -0.507 OA
ATOM     25  H   UNL     1      12.261   1.640  17.566  1.00  0.00     0.293 HD
ENDBRANCH   6  24
BRANCH   8  26
ATOM     26  O   UNL     1       7.159   2.527  20.017  1.00  0.00    -0.508 OA
ATOM     27  H   UNL     1       7.112   2.888  20.963  1.00  0.00     0.293 HD
ENDBRANCH   8  26
TORSDOF 6
ENDMDL
MODEL 2
REMARK VINA RESULT:    -6.173      1.492      6.420
REMARK INTER + INTRA:          -7.461
REMARK INTER:                  -7.261
REMARK INTRA:                  -0.201
REMARK UNBOUND:                -0.025
REMARK SMILES O=c1c(O)c(-c2ccc(O)cc2O)oc2cc(O)cc(O)c12
REMARK SMILES IDX 5 1 3 2 2 3 1 4 22 5 20 6 19 7 17 8 16 9 15 10 14 11 6 12
REMARK SMILES IDX 8 13 7 14 9 15 11 16 12 17 10 18 13 20 4 22 21 24 18 26
REMARK H PARENT 10 19 13 21 4 23 21 25 18 27
REMARK Flexibility Score: inf
ROOT
ATOM      1  C   UNL     1       9.255  -2.090  19.347  1.00  0.00     0.184 A 
ATOM      2  C   UNL     1      10.607  -2.462  19.325  1.00  0.00     0.208 A 
ATOM      3  C   UNL     1      10.944  -3.814  19.496  1.00  0.00     0.238 A 
ATOM      4  O   UNL     1      12.154  -4.150  19.422  1.00  0.00    -0.285 OA
ATOM      5  C   UNL     1       9.922  -4.774  19.703  1.00  0.00     0.111 A 
ATOM      6  C   UNL     1      10.150  -6.164  19.928  1.00  0.00     0.134 A 
ATOM      7  C   UNL     1       9.061  -7.041  19.993  1.00  0.00     0.093 A 
ATOM      8  C   UNL     1       7.751  -6.571  19.906  1.00  0.00     0.123 A 
ATOM      9  C   UNL     1       7.515  -5.204  19.744  1.00  0.00     0.094 A 
ATOM     10  C   UNL     1       8.582  -4.309  19.640  1.00  0.00     0.146 A 
ATOM     11  O   UNL     1       8.314  -3.019  19.477  1.00  0.00    -0.451 OA
ENDROOT
BRANCH   1  12
ATOM     12  C   UNL     1       8.833  -0.683  19.190  1.00  0.00     0.063 A 
ATOM     13  C   UNL     1       9.079   1.645  19.846  1.00  0.00     0.047 A 
ATOM     14  C   UNL     1       9.450   0.305  19.975  1.00  0.00     0.020 A 
ATOM     15  C   UNL     1       8.096   2.019  18.921  1.00  0.00     0.119 A 
ATOM     16  C   UNL     1       7.494   1.045  18.119  1.00  0.00     0.093 A 
ATOM     17  C   UNL     1       7.864  -0.303  18.237  1.00  0.00     0.130 A 
BRANCH  15  18
ATOM     18  O   UNL     1       7.715   3.352  18.788  1.00  0.00    -0.508 OA
ATOM     19  H   UNL     1       6.785   3.665  19.044  1.00  0.00     0.293 HD
ENDBRANCH  15  18
BRANCH  17  20
ATOM     20  O   UNL     1       7.291  -1.257  17.397  1.00  0.00    -0.507 OA
ATOM     21  H   UNL     1       7.858  -1.875  16.828  1.00  0.00     0.293 HD
ENDBRANCH  17  20
ENDBRANCH   1  12
BRANCH   2  22
ATOM     22  O   UNL     1      11.594  -1.499  19.099  1.00  0.00    -0.502 OA
ATOM     23  H   UNL     1      12.277  -1.584  18.357  1.00  0.00     0.293 HD
ENDBRANCH   2  22
BRANCH   6  24
ATOM     24  O   UNL     1      11.415  -6.726  20.122  1.00  0.00    -0.507 OA
ATOM     25  H   UNL     1      11.924  -6.712  20.993  1.00  0.00     0.293 HD
ENDBRANCH   6  24
BRANCH   8  26
ATOM     26  O   UNL     1       6.690  -7.470  19.989  1.00  0.00    -0.508 OA
ATOM     27  H   UNL     1       5.891  -7.292  20.585  1.00  0.00     0.293 HD
ENDBRANCH   8  26
TORSDOF 6
ENDMDL
MODEL 3
REMARK VINA RESULT:    -5.645      2.014      3.583
REMARK INTER + INTRA:          -6.825
REMARK INTER:                  -6.543
REMARK INTRA:                  -0.282
REMARK UNBOUND:                -0.025
REMARK SMILES O=c1c(O)c(-c2ccc(O)cc2O)oc2cc(O)cc(O)c12
REMARK SMILES IDX 5 1 3 2 2 3 1 4 22 5 20 6 19 7 17 8 16 9 15 10 14 11 6 12
REMARK SMILES IDX 8 13 7 14 9 15 11 16 12 17 10 18 13 20 4 22 21 24 18 26
REMARK H PARENT 10 19 13 21 4 23 21 25 18 27
REMARK Flexibility Score: inf
ROOT
ATOM      1  C   UNL     1      10.273  -2.429  19.044  1.00  0.00     0.184 A 
ATOM      2  C   UNL     1       9.073  -2.823  18.431  1.00  0.00     0.208 A 
ATOM      3  C   UNL     1       8.043  -1.881  18.288  1.00  0.00     0.238 A 
ATOM      4  O   UNL     1       6.989  -2.224  17.690  1.00  0.00    -0.285 OA
ATOM      5  C   UNL     1       8.221  -0.562  18.772  1.00  0.00     0.111 A 
ATOM      6  C   UNL     1       7.229   0.463  18.716  1.00  0.00     0.134 A 
ATOM      7  C   UNL     1       7.560   1.765  19.109  1.00  0.00     0.093 A 
ATOM      8  C   UNL     1       8.823   2.067  19.616  1.00  0.00     0.123 A 
ATOM      9  C   UNL     1       9.782   1.059  19.730  1.00  0.00     0.094 A 
ATOM     10  C   UNL     1       9.494  -0.243  19.313  1.00  0.00     0.146 A 
ATOM     11  O   UNL     1      10.438  -1.169  19.429  1.00  0.00    -0.451 OA
ENDROOT
BRANCH   1  12
ATOM     12  C   UNL     1      11.391  -3.375  19.241  1.00  0.00     0.063 A 
ATOM     13  C   UNL     1      12.187  -5.496  20.124  1.00  0.00     0.047 A 
ATOM     14  C   UNL     1      11.153  -4.578  19.925  1.00  0.00     0.020 A 
ATOM     15  C   UNL     1      13.470  -5.230  19.629  1.00  0.00     0.119 A 
ATOM     16  C   UNL     1      13.710  -4.046  18.926  1.00  0.00     0.093 A 
ATOM     17  C   UNL     1      12.676  -3.121  18.717  1.00  0.00     0.130 A 
BRANCH  15  18
ATOM     18  O   UNL     1      14.509  -6.137  19.825  1.00  0.00    -0.508 OA
ATOM     19  H   UNL     1      15.479  -5.858  19.728  1.00  0.00     0.293 HD
ENDBRANCH  15  18
BRANCH  17  20
ATOM     20  O   UNL     1      12.918  -1.967  17.972  1.00  0.00    -0.507 OA
ATOM     21  H   UNL     1      13.826  -1.518  17.966  1.00  0.00     0.293 HD
ENDBRANCH  17  20
ENDBRANCH   1  12
BRANCH   2  22
ATOM     22  O   UNL     1       8.931  -4.125  17.945  1.00  0.00    -0.502 OA
ATOM     23  H   UNL     1       8.220  -4.378  17.270  1.00  0.00     0.293 HD
ENDBRANCH   2  22
BRANCH   6  24
ATOM     24  O   UNL     1       5.908   0.249  18.313  1.00  0.00    -0.507 OA
ATOM     25  H   UNL     1       5.541  -0.632  17.988  1.00  0.00     0.293 HD
ENDBRANCH   6  24
BRANCH   8  26
ATOM     26  O   UNL     1       9.112   3.371  20.011  1.00  0.00    -0.508 OA
ATOM     27  H   UNL     1       9.081   3.648  20.986  1.00  0.00     0.293 HD
ENDBRANCH   8  26
TORSDOF 6
ENDMDL
MODEL 4
REMARK VINA RESULT:    -5.414      5.871      8.597
REMARK INTER + INTRA:          -6.547
REMARK INTER:                  -6.243
REMARK INTRA:                  -0.304
REMARK UNBOUND:                -0.025
REMARK SMILES O=c1c(O)c(-c2ccc(O)cc2O)oc2cc(O)cc(O)c12
REMARK SMILES IDX 5 1 3 2 2 3 1 4 22 5 20 6 19 7 17 8 16 9 15 10 14 11 6 12
REMARK SMILES IDX 8 13 7 14 9 15 11 16 12 17 10 18 13 20 4 22 21 24 18 26
REMARK H PARENT 10 19 13 21 4 23 21 25 18 27
REMARK Flexibility Score: inf
ROOT
ATOM      1  C   UNL     1      15.651  -2.979  19.353  1.00  0.00     0.184 A 
ATOM      2  C   UNL     1      15.783  -4.342  19.660  1.00  0.00     0.208 A 
ATOM      3  C   UNL     1      17.070  -4.887  19.797  1.00  0.00     0.238 A 
ATOM      4  O   UNL     1      17.182  -6.096  20.125  1.00  0.00    -0.285 OA
ATOM      5  C   UNL     1      18.207  -4.063  19.609  1.00  0.00     0.111 A 
ATOM      6  C   UNL     1      19.557  -4.518  19.685  1.00  0.00     0.134 A 
ATOM      7  C   UNL     1      20.603  -3.590  19.609  1.00  0.00     0.093 A 
ATOM      8  C   UNL     1      20.351  -2.235  19.397  1.00  0.00     0.123 A 
ATOM      9  C   UNL     1      19.035  -1.788  19.264  1.00  0.00     0.094 A 
ATOM     10  C   UNL     1      17.969  -2.684  19.370  1.00  0.00     0.146 A 
ATOM     11  O   UNL     1      16.733  -2.216  19.247  1.00  0.00    -0.451 OA
ENDROOT
BRANCH   1  12
ATOM     12  C   UNL     1      14.327  -2.347  19.178  1.00  0.00     0.063 A 
ATOM     13  C   UNL     1      12.665  -0.756  19.965  1.00  0.00     0.047 A 
ATOM     14  C   UNL     1      13.908  -1.377  20.103  1.00  0.00     0.020 A 
ATOM     15  C   UNL     1      11.829  -1.086  18.891  1.00  0.00     0.119 A 
ATOM     16  C   UNL     1      12.247  -2.034  17.952  1.00  0.00     0.093 A 
ATOM     17  C   UNL     1      13.497  -2.658  18.081  1.00  0.00     0.130 A 
BRANCH  15  18
ATOM     18  O   UNL     1      10.585  -0.477  18.744  1.00  0.00    -0.508 OA
ATOM     19  H   UNL     1      10.006  -0.256  19.547  1.00  0.00     0.293 HD
ENDBRANCH  15  18
BRANCH  17  20
ATOM     20  O   UNL     1      13.923  -3.565  17.111  1.00  0.00    -0.507 OA
ATOM     21  H   UNL     1      13.536  -4.500  17.050  1.00  0.00     0.293 HD
ENDBRANCH  17  20
ENDBRANCH   1  12
BRANCH   2  22
ATOM     22  O   UNL     1      14.645  -5.128  19.858  1.00  0.00    -0.502 OA
ATOM     23  H   UNL     1      14.399  -5.894  19.244  1.00  0.00     0.293 HD
ENDBRANCH   2  22
BRANCH   6  24
ATOM     24  O   UNL     1      19.923  -5.862  19.803  1.00  0.00    -0.507 OA
ATOM     25  H   UNL     1      19.283  -6.617  19.994  1.00  0.00     0.293 HD
ENDBRANCH   6  24
BRANCH   8  26
ATOM     26  O   UNL     1      21.417  -1.343  19.313  1.00  0.00    -0.508 OA
ATOM     27  H   UNL     1      21.858  -1.127  18.426  1.00  0.00     0.293 HD
ENDBRANCH   8  26
TORSDOF 6
ENDMDL
MODEL 5
REMARK VINA RESULT:    -5.286      2.705      6.401
REMARK INTER + INTRA:          -6.393
REMARK INTER:                  -6.086
REMARK INTRA:                  -0.307
REMARK UNBOUND:                -0.025
REMARK SMILES O=c1c(O)c(-c2ccc(O)cc2O)oc2cc(O)cc(O)c12
REMARK SMILES IDX 5 1 3 2 2 3 1 4 22 5 20 6 19 7 17 8 16 9 15 10 14 11 6 12
REMARK SMILES IDX 8 13 7 14 9 15 11 16 12 17 10 18 13 20 4 22 21 24 18 26
REMARK H PARENT 10 19 13 21 4 23 21 25 18 27
REMARK Flexibility Score: inf
ROOT
ATOM      1  C   UNL     1      10.766  -2.905  19.230  1.00  0.00     0.184 A 
ATOM      2  C   UNL     1      10.479  -4.252  19.501  1.00  0.00     0.208 A 
ATOM      3  C   UNL     1      11.537  -5.129  19.784  1.00  0.00     0.238 A 
ATOM      4  O   UNL     1      11.270  -6.324  20.078  1.00  0.00    -0.285 OA
ATOM      5  C   UNL     1      12.870  -4.651  19.777  1.00  0.00     0.111 A 
ATOM      6  C   UNL     1      14.023  -5.459  20.010  1.00  0.00     0.134 A 
ATOM      7  C   UNL     1      15.282  -4.855  20.107  1.00  0.00     0.093 A 
ATOM      8  C   UNL     1      15.440  -3.483  19.915  1.00  0.00     0.123 A 
ATOM      9  C   UNL     1      14.326  -2.691  19.628  1.00  0.00     0.094 A 
ATOM     10  C   UNL     1      13.052  -3.259  19.561  1.00  0.00     0.146 A 
ATOM     11  O   UNL     1      12.019  -2.469  19.295  1.00  0.00    -0.451 OA
ENDROOT
BRANCH   1  12
ATOM     12  C   UNL     1       9.701  -1.933  18.909  1.00  0.00     0.063 A 
ATOM     13  C   UNL     1       7.667  -0.782  19.580  1.00  0.00     0.047 A 
ATOM     14  C   UNL     1       8.686  -1.698  19.851  1.00  0.00     0.020 A 
ATOM     15  C   UNL     1       7.657  -0.077  18.370  1.00  0.00     0.119 A 
ATOM     16  C   UNL     1       8.676  -0.287  17.437  1.00  0.00     0.093 A 
ATOM     17  C   UNL     1       9.706  -1.202  17.702  1.00  0.00     0.130 A 
BRANCH  15  18
ATOM     18  O   UNL     1       6.644   0.837  18.088  1.00  0.00    -0.508 OA
ATOM     19  H   UNL     1       5.702   0.531  17.869  1.00  0.00     0.293 HD
ENDBRANCH  15  18
BRANCH  17  20
ATOM     20  O   UNL     1      10.743  -1.366  16.784  1.00  0.00    -0.507 OA
ATOM     21  H   UNL     1      11.048  -0.607  16.185  1.00  0.00     0.293 HD
ENDBRANCH  17  20
ENDBRANCH   1  12
BRANCH   2  22
ATOM     22  O   UNL     1       9.153  -4.694  19.520  1.00  0.00    -0.502 OA
ATOM     23  H   UNL     1       8.614  -4.757  20.374  1.00  0.00     0.293 HD
ENDBRANCH   2  22
BRANCH   6  24
ATOM     24  O   UNL     1      13.989  -6.852  20.125  1.00  0.00    -0.507 OA
ATOM     25  H   UNL     1      14.291  -7.370  20.936  1.00  0.00     0.293 HD
ENDBRANCH   6  24
BRANCH   8  26
ATOM     26  O   UNL     1      16.710  -2.918  20.003  1.00  0.00    -0.508 OA
ATOM     27  H   UNL     1      16.868  -1.936  19.807  1.00  0.00     0.293 HD
ENDBRANCH   8  26
TORSDOF 6
ENDMDL
MODEL 6
REMARK VINA RESULT:    -5.283      4.419      7.830
REMARK INTER + INTRA:          -6.389
REMARK INTER:                  -6.255
REMARK INTRA:                  -0.134
REMARK UNBOUND:                -0.025
REMARK SMILES O=c1c(O)c(-c2ccc(O)cc2O)oc2cc(O)cc(O)c12
REMARK SMILES IDX 5 1 3 2 2 3 1 4 22 5 20 6 19 7 17 8 16 9 15 10 14 11 6 12
REMARK SMILES IDX 8 13 7 14 9 15 11 16 12 17 10 18 13 20 4 22 21 24 18 26
REMARK H PARENT 10 19 13 21 4 23 21 25 18 27
REMARK Flexibility Score: inf
ROOT
ATOM      1  C   UNL     1      13.955  -2.443  19.347  1.00  0.00     0.184 A 
ATOM      2  C   UNL     1      13.566  -3.767  19.598  1.00  0.00     0.208 A 
ATOM      3  C   UNL     1      14.555  -4.731  19.848  1.00  0.00     0.238 A 
ATOM      4  O   UNL     1      14.199  -5.906  20.125  1.00  0.00    -0.285 OA
ATOM      5  C   UNL     1      15.922  -4.359  19.829  1.00  0.00     0.111 A 
ATOM      6  C   UNL     1      17.010  -5.260  20.030  1.00  0.00     0.134 A 
ATOM      7  C   UNL     1      18.314  -4.758  20.117  1.00  0.00     0.093 A 
ATOM      8  C   UNL     1      18.577  -3.400  19.947  1.00  0.00     0.123 A 
ATOM      9  C   UNL     1      17.526  -2.517  19.692  1.00  0.00     0.094 A 
ATOM     10  C   UNL     1      16.210  -2.982  19.635  1.00  0.00     0.146 A 
ATOM     11  O   UNL     1      15.239  -2.108  19.400  1.00  0.00    -0.451 OA
ENDROOT
BRANCH   1  12
ATOM     12  C   UNL     1      12.965  -1.384  19.060  1.00  0.00     0.063 A 
ATOM     13  C   UNL     1      12.045   0.801  19.599  1.00  0.00     0.047 A 
ATOM     14  C   UNL     1      12.963  -0.221  19.847  1.00  0.00     0.020 A 
ATOM     15  C   UNL     1      11.124   0.682  18.550  1.00  0.00     0.119 A 
ATOM     16  C   UNL     1      11.134  -0.462  17.747  1.00  0.00     0.093 A 
ATOM     17  C   UNL     1      12.057  -1.491  17.985  1.00  0.00     0.130 A 
BRANCH  15  18
ATOM     18  O   UNL     1      10.201   1.693  18.296  1.00  0.00    -0.508 OA
ATOM     19  H   UNL     1       9.754   2.203  19.050  1.00  0.00     0.293 HD
ENDBRANCH  15  18
BRANCH  17  20
ATOM     20  O   UNL     1      12.088  -2.604  17.145  1.00  0.00    -0.507 OA
ATOM     21  H   UNL     1      11.323  -3.267  17.112  1.00  0.00     0.293 HD
ENDBRANCH  17  20
ENDBRANCH   1  12
BRANCH   2  22
ATOM     22  O   UNL     1      12.210  -4.104  19.629  1.00  0.00    -0.502 OA
ATOM     23  H   UNL     1      11.568  -3.842  18.892  1.00  0.00     0.293 HD
ENDBRANCH   2  22
BRANCH   6  24
ATOM     24  O   UNL     1      16.868  -6.647  20.120  1.00  0.00    -0.507 OA
ATOM     25  H   UNL     1      17.243  -7.308  19.456  1.00  0.00     0.293 HD
ENDBRANCH   6  24
BRANCH   8  26
ATOM     26  O   UNL     1      19.889  -2.938  20.026  1.00  0.00    -0.508 OA
ATOM     27  H   UNL     1      20.144  -2.168  20.634  1.00  0.00     0.293 HD
ENDBRANCH   8  26
TORSDOF 6
ENDMDL
MODEL 7
REMARK VINA RESULT:    -5.178      2.967      6.191
REMARK INTER + INTRA:          -6.262
REMARK INTER:                  -6.843
REMARK INTRA:                   0.582
REMARK UNBOUND:                -0.025
REMARK SMILES O=c1c(O)c(-c2ccc(O)cc2O)oc2cc(O)cc(O)c12
REMARK SMILES IDX 5 1 3 2 2 3 1 4 22 5 20 6 19 7 17 8 16 9 15 10 14 11 6 12
REMARK SMILES IDX 8 13 7 14 9 15 11 16 12 17 10 18 13 20 4 22 21 24 18 26
REMARK H PARENT 10 19 13 21 4 23 21 25 18 27
REMARK Flexibility Score: inf
ROOT
ATOM      1  C   UNL     1      12.500  -3.567  19.271  1.00  0.00     0.184 A 
ATOM      2  C   UNL     1      11.794  -2.468  18.758  1.00  0.00     0.208 A 
ATOM      3  C   UNL     1      10.409  -2.583  18.557  1.00  0.00     0.238 A 
ATOM      4  O   UNL     1       9.773  -1.578  18.147  1.00  0.00    -0.285 OA
ATOM      5  C   UNL     1       9.753  -3.802  18.857  1.00  0.00     0.111 A 
ATOM      6  C   UNL     1       8.361  -4.044  18.655  1.00  0.00     0.134 A 
ATOM      7  C   UNL     1       7.796  -5.242  19.108  1.00  0.00     0.093 A 
ATOM      8  C   UNL     1       8.581  -6.232  19.696  1.00  0.00     0.123 A 
ATOM      9  C   UNL     1       9.954  -6.030  19.846  1.00  0.00     0.094 A 
ATOM     10  C   UNL     1      10.541  -4.831  19.437  1.00  0.00     0.146 A 
ATOM     11  O   UNL     1      11.849  -4.675  19.606  1.00  0.00    -0.451 OA
ENDROOT
BRANCH   1  12
ATOM     12  C   UNL     1      13.961  -3.518  19.491  1.00  0.00     0.063 A 
ATOM     13  C   UNL     1      16.008  -2.208  19.560  1.00  0.00     0.047 A 
ATOM     14  C   UNL     1      14.629  -2.290  19.354  1.00  0.00     0.020 A 
ATOM     15  C   UNL     1      16.735  -3.350  19.921  1.00  0.00     0.119 A 
ATOM     16  C   UNL     1      16.074  -4.570  20.082  1.00  0.00     0.093 A 
ATOM     17  C   UNL     1      14.688  -4.661  19.883  1.00  0.00     0.130 A 
BRANCH  15  18
ATOM     18  O   UNL     1      18.111  -3.280  20.125  1.00  0.00    -0.508 OA
ATOM     19  H   UNL     1      18.678  -2.571  19.674  1.00  0.00     0.293 HD
ENDBRANCH  15  18
BRANCH  17  20
ATOM     20  O   UNL     1      14.034  -5.874  20.095  1.00  0.00    -0.507 OA
ATOM     21  H   UNL     1      14.204  -6.432  20.924  1.00  0.00     0.293 HD
ENDBRANCH  17  20
ENDBRANCH   1  12
BRANCH   2  22
ATOM     22  O   UNL     1      12.463  -1.271  18.488  1.00  0.00    -0.502 OA
ATOM     23  H   UNL     1      11.982  -0.383  18.422  1.00  0.00     0.293 HD
ENDBRANCH   2  22
BRANCH   6  24
ATOM     24  O   UNL     1       7.503  -3.160  17.995  1.00  0.00    -0.507 OA
ATOM     25  H   UNL     1       7.132  -3.303  17.068  1.00  0.00     0.293 HD
ENDBRANCH   6  24
BRANCH   8  26
ATOM     26  O   UNL     1       7.987  -7.419  20.121  1.00  0.00    -0.508 OA
ATOM     27  H   UNL     1       8.018  -8.259  19.556  1.00  0.00     0.293 HD
ENDBRANCH   8  26
TORSDOF 6
ENDMDL
MODEL 8
REMARK VINA RESULT:    -5.049      2.440      5.442
REMARK INTER + INTRA:          -6.107
REMARK INTER:                  -6.100
REMARK INTRA:                  -0.006
REMARK UNBOUND:                -0.025
REMARK SMILES O=c1c(O)c(-c2ccc(O)cc2O)oc2cc(O)cc(O)c12
REMARK SMILES IDX 5 1 3 2 2 3 1 4 22 5 20 6 19 7 17 8 16 9 15 10 14 11 6 12
REMARK SMILES IDX 8 13 7 14 9 15 11 16 12 17 10 18 13 20 4 22 21 24 18 26
REMARK H PARENT 10 19 13 21 4 23 21 25 18 27
REMARK Flexibility Score: inf
ROOT
ATOM      1  C   UNL     1      10.931  -2.045  18.707  1.00  0.00     0.184 A 
ATOM      2  C   UNL     1      10.258  -0.917  18.213  1.00  0.00     0.208 A 
ATOM      3  C   UNL     1       8.856  -0.938  18.142  1.00  0.00     0.238 A 
ATOM      4  O   UNL     1       8.256   0.096  17.749  1.00  0.00    -0.285 OA
ATOM      5  C   UNL     1       8.147  -2.093  18.553  1.00  0.00     0.111 A 
ATOM      6  C   UNL     1       6.729  -2.239  18.487  1.00  0.00     0.134 A 
ATOM      7  C   UNL     1       6.127  -3.376  19.040  1.00  0.00     0.093 A 
ATOM      8  C   UNL     1       6.892  -4.399  19.597  1.00  0.00     0.123 A 
ATOM      9  C   UNL     1       8.284  -4.293  19.613  1.00  0.00     0.094 A 
ATOM     10  C   UNL     1       8.913  -3.156  19.102  1.00  0.00     0.146 A 
ATOM     11  O   UNL     1      10.238  -3.090  19.146  1.00  0.00    -0.451 OA
ENDROOT
BRANCH   1  12
ATOM     12  C   UNL     1      12.405  -2.096  18.792  1.00  0.00     0.063 A 
ATOM     13  C   UNL     1      14.485  -3.193  18.176  1.00  0.00     0.047 A 
ATOM     14  C   UNL     1      13.092  -3.120  18.120  1.00  0.00     0.020 A 
ATOM     15  C   UNL     1      15.213  -2.234  18.892  1.00  0.00     0.119 A 
ATOM     16  C   UNL     1      14.539  -1.198  19.544  1.00  0.00     0.093 A 
ATOM     17  C   UNL     1      13.139  -1.113  19.489  1.00  0.00     0.130 A 
BRANCH  15  18
ATOM     18  O   UNL     1      16.603  -2.300  18.958  1.00  0.00    -0.508 OA
ATOM     19  H   UNL     1      17.134  -1.677  19.556  1.00  0.00     0.293 HD
ENDBRANCH  15  18
BRANCH  17  20
ATOM     20  O   UNL     1      12.484  -0.047  20.103  1.00  0.00    -0.507 OA
ATOM     21  H   UNL     1      11.509   0.159  19.914  1.00  0.00     0.293 HD
ENDBRANCH  17  20
ENDBRANCH   1  12
BRANCH   2  22
ATOM     22  O   UNL     1      10.981   0.217  17.833  1.00  0.00    -0.502 OA
ATOM     23  H   UNL     1      11.570   0.728  18.478  1.00  0.00     0.293 HD
ENDBRANCH   2  22
BRANCH   6  24
ATOM     24  O   UNL     1       5.878  -1.319  17.870  1.00  0.00    -0.507 OA
ATOM     25  H   UNL     1       5.623  -1.336  16.894  1.00  0.00     0.293 HD
ENDBRANCH   6  24
BRANCH   8  26
ATOM     26  O   UNL     1       6.259  -5.523  20.124  1.00  0.00    -0.508 OA
ATOM     27  H   UNL     1       6.780  -6.250  20.601  1.00  0.00     0.293 HD
ENDBRANCH   8  26
TORSDOF 6
ENDMDL
