MODEL 1
REMARK VINA RESULT:    85.722      0.000      0.000
REMARK INTER + INTRA:          99.869
REMARK INTER:                  98.250
REMARK INTRA:                   1.619
REMARK UNBOUND:                 1.619
REMARK SMILES C=C(C)[C@H]1CC[C@@]2(C(=O)[O-])CC[C@@]3(C)[C@@H](CC[C@@H]4[C@]5(C)CC[C@@H](O)C(C)(C)[C@H]5CC[C@@]43C)[C@H]12
REMARK SMILES IDX 7 1 6 2 33 3 11 4 5 5 15 6 4 7 12 8 16 9 13 10 17 11 31 12
REMARK SMILES IDX 14 13 18 14 30 15 32 16 19 17 29 18 21 19 20 20 28 21 22 22
REMARK SMILES IDX 25 23 23 24 26 25 27 26 8 27 9 28 10 29 2 30 3 31 1 32 24 33
REMARK H PARENT 24 34
REMARK Flexibility Score: inf
ROOT
ATOM      1  C   UNL     1     121.524  74.592   4.969  1.00  0.00     0.014 C 
ATOM      2  C   UNL     1     121.544  75.123   6.407  1.00  0.00     0.014 C 
ATOM      3  C   UNL     1     121.306  73.092   5.217  1.00  0.00     0.012 C 
ATOM      4  C   UNL     1     122.844  74.753   4.190  1.00  0.00     0.014 C 
ATOM      5  C   UNL     1     120.444  74.320   7.130  1.00  0.00     0.009 C 
ATOM      6  C   UNL     1     121.174  72.273   3.897  1.00  0.00     0.000 C 
ATOM      7  C   UNL     1     120.200  73.045   6.290  1.00  0.00     0.018 C 
ATOM      8  C   UNL     1     122.753  73.999   2.839  1.00  0.00     0.008 C 
ATOM      9  C   UNL     1     120.909  70.786   4.189  1.00  0.00     0.005 C 
ATOM     10  C   UNL     1     122.419  72.450   2.946  1.00  0.00    -0.024 C 
ATOM     11  C   UNL     1     121.096  69.862   2.971  1.00  0.00     0.005 C 
ATOM     12  C   UNL     1     122.068  71.759   1.488  1.00  0.00    -0.024 C 
ATOM     13  C   UNL     1     123.696  71.812   3.608  1.00  0.00     0.012 C 
ATOM     14  C   UNL     1     120.951  70.603   1.612  1.00  0.00     0.002 C 
ATOM     15  C   UNL     1     123.360  71.168   0.830  1.00  0.00     0.008 C 
ATOM     16  C   UNL     1     121.526  72.854   0.514  1.00  0.00     0.012 C 
ATOM     17  C   UNL     1     120.788  69.620   0.335  1.00  0.00    -0.026 C 
ATOM     18  C   UNL     1     123.129  70.357  -0.447  1.00  0.00     0.005 C 
ATOM     19  C   UNL     1     119.979  68.328   0.700  1.00  0.00     0.010 C 
ATOM     20  C   UNL     1     119.965  70.374  -0.773  1.00  0.00     0.012 C 
ATOM     21  C   UNL     1     122.206  69.149  -0.162  1.00  0.00     0.003 C 
ATOM     22  C   UNL     1     119.899  67.290  -0.430  1.00  0.00     0.033 C 
ATOM     23  C   UNL     1     122.223  68.027  -1.289  1.00  0.00    -0.006 C 
ATOM     24  C   UNL     1     121.302  66.840  -0.855  1.00  0.00     0.120 C 
ATOM     25  C   UNL     1     123.661  67.446  -1.428  1.00  0.00     0.014 C 
ATOM     26  C   UNL     1     121.812  68.556  -2.689  1.00  0.00     0.014 C 
ENDROOT
BRANCH   1  27
ATOM     27  C   UNL     1     120.399  75.333   4.231  1.00  0.00     0.048 C 
ATOM     28  O   UNL     1     119.875  76.341   4.772  1.00  0.00    -0.550 OA
ATOM     29  O   UNL     1     119.900  74.914   3.006  1.00  0.00    -0.550 OA
ENDBRANCH   1  27
BRANCH   7  30
ATOM     30  C   UNL     1     120.219  71.792   7.159  1.00  0.00    -0.077 C 
ATOM     31  C   UNL     1     120.606  70.447   6.600  1.00  0.00     0.039 C 
ATOM     32  C   UNL     1     119.908  71.874   8.461  1.00  0.00     0.008 C 
ENDBRANCH   7  30
BRANCH  24  33
ATOM     33  O   UNL     1     121.193  65.897  -1.895  1.00  0.00    -0.393 OA
ATOM     34  H   UNL     1     122.105  65.773  -2.268  1.00  0.00     0.210 HD
ENDBRANCH  24  33
TORSDOF 3
ENDMDL
