MODEL 1
REMARK VINA RESULT:    -2.569      0.000      0.000
REMARK INTER + INTRA:          -2.569
REMARK INTER:                  -2.569
REMARK INTRA:                   0.000
REMARK UNBOUND:                 0.000
REMARK SMILES CC(=O)[O-]
REMARK SMILES IDX 1 1 2 2 3 3 4 4
REMARK H PARENT
REMARK Flexibility Score: inf
ROOT
ATOM      1  C   UNL     1      27.780 -12.733  19.853  1.00  0.00     0.063 C 
ATOM      2  C   UNL     1      26.905 -13.300  18.789  1.00  0.00     0.038 C 
ATOM      3  O   UNL     1      26.678 -14.538  18.751  1.00  0.00    -0.550 OA
ATOM      4  O   UNL     1      26.294 -12.459  17.868  1.00  0.00    -0.550 OA
ENDROOT
TORSDOF 0
ENDMDL
MODEL 2
REMARK VINA RESULT:    -2.543      1.871      2.534
REMARK INTER + INTRA:          -2.543
REMARK INTER:                  -2.543
REMARK INTRA:                   0.000
REMARK UNBOUND:                 0.000
REMARK SMILES CC(=O)[O-]
REMARK SMILES IDX 1 1 2 2 3 3 4 4
REMARK H PARENT
REMARK Flexibility Score: inf
ROOT
ATOM      1  C   UNL     1      26.614 -13.064  18.261  1.00  0.00     0.063 C 
ATOM      2  C   UNL     1      27.070 -12.386  19.507  1.00  0.00     0.038 C 
ATOM      3  O   UNL     1      26.395 -11.443  19.996  1.00  0.00    -0.550 OA
ATOM      4  O   UNL     1      28.211 -12.829  20.163  1.00  0.00    -0.550 OA
ENDROOT
TORSDOF 0
ENDMDL
MODEL 3
REMARK VINA RESULT:    -2.528      1.046      1.367
REMARK INTER + INTRA:          -2.528
REMARK INTER:                  -2.528
REMARK INTRA:                   0.000
REMARK UNBOUND:                 0.000
REMARK SMILES CC(=O)[O-]
REMARK SMILES IDX 1 1 2 2 3 3 4 4
REMARK H PARENT
REMARK Flexibility Score: inf
ROOT
ATOM      1  C   UNL     1      28.072 -12.713  20.113  1.00  0.00     0.063 C 
ATOM      2  C   UNL     1      27.069 -13.049  19.063  1.00  0.00     0.038 C 
ATOM      3  O   UNL     1      25.868 -12.698  19.202  1.00  0.00    -0.550 OA
ATOM      4  O   UNL     1      27.466 -13.702  17.903  1.00  0.00    -0.550 OA
ENDROOT
TORSDOF 0
ENDMDL
MODEL 4
REMARK VINA RESULT:    -2.458     16.992     17.552
REMARK INTER + INTRA:          -2.458
REMARK INTER:                  -2.458
REMARK INTRA:                   0.000
REMARK UNBOUND:                 0.000
REMARK SMILES CC(=O)[O-]
REMARK SMILES IDX 1 1 2 2 3 3 4 4
REMARK H PARENT
REMARK Flexibility Score: inf
ROOT
ATOM      1  C   UNL     1      41.349 -17.084  29.963  1.00  0.00     0.063 C 
ATOM      2  C   UNL     1      40.997 -16.316  28.735  1.00  0.00     0.038 C 
ATOM      3  O   UNL     1      41.743 -16.365  27.723  1.00  0.00    -0.550 OA
ATOM      4  O   UNL     1      39.816 -15.587  28.684  1.00  0.00    -0.550 OA
ENDROOT
TORSDOF 0
ENDMDL
MODEL 5
REMARK VINA RESULT:    -2.425     17.431     17.997
REMARK INTER + INTRA:          -2.425
REMARK INTER:                  -2.425
REMARK INTRA:                   0.000
REMARK UNBOUND:                 0.000
REMARK SMILES CC(=O)[O-]
REMARK SMILES IDX 1 1 2 2 3 3 4 4
REMARK H PARENT
REMARK Flexibility Score: inf
ROOT
ATOM      1  C   UNL     1      40.028 -15.845  28.692  1.00  0.00     0.063 C 
ATOM      2  C   UNL     1      41.294 -16.590  28.943  1.00  0.00     0.038 C 
ATOM      3  O   UNL     1      42.116 -16.773  28.008  1.00  0.00    -0.550 OA
ATOM      4  O   UNL     1      41.596 -17.039  30.223  1.00  0.00    -0.550 OA
ENDROOT
TORSDOF 0
ENDMDL
MODEL 6
REMARK VINA RESULT:    -2.169     12.316     12.736
REMARK INTER + INTRA:          -2.169
REMARK INTER:                  -2.169
REMARK INTRA:                   0.000
REMARK UNBOUND:                 0.000
REMARK SMILES CC(=O)[O-]
REMARK SMILES IDX 1 1 2 2 3 3 4 4
REMARK H PARENT
REMARK Flexibility Score: inf
ROOT
ATOM      1  C   UNL     1      40.151 -11.842  20.413  1.00  0.00     0.063 C 
ATOM      2  C   UNL     1      39.265 -12.767  21.175  1.00  0.00     0.038 C 
ATOM      3  O   UNL     1      38.373 -12.305  21.934  1.00  0.00    -0.550 OA
ATOM      4  O   UNL     1      39.384 -14.141  21.008  1.00  0.00    -0.550 OA
ENDROOT
TORSDOF 0
ENDMDL
MODEL 7
REMARK VINA RESULT:    -2.156     12.399     12.725
REMARK INTER + INTRA:          -2.156
REMARK INTER:                  -2.156
REMARK INTRA:                   0.000
REMARK UNBOUND:                 0.000
REMARK SMILES CC(=O)[O-]
REMARK SMILES IDX 1 1 2 2 3 3 4 4
REMARK H PARENT
REMARK Flexibility Score: inf
ROOT
ATOM      1  C   UNL     1      39.446 -14.042  21.409  1.00  0.00     0.063 C 
ATOM      2  C   UNL     1      39.273 -12.610  21.034  1.00  0.00     0.038 C 
ATOM      3  O   UNL     1      38.248 -11.980  21.404  1.00  0.00    -0.550 OA
ATOM      4  O   UNL     1      40.267 -11.951  20.322  1.00  0.00    -0.550 OA
ENDROOT
TORSDOF 0
ENDMDL
MODEL 8
REMARK VINA RESULT:    -2.146      5.893      6.219
REMARK INTER + INTRA:          -2.146
REMARK INTER:                  -2.146
REMARK INTRA:                   0.000
REMARK UNBOUND:                 0.000
REMARK SMILES CC(=O)[O-]
REMARK SMILES IDX 1 1 2 2 3 3 4 4
REMARK H PARENT
REMARK Flexibility Score: inf
ROOT
ATOM      1  C   UNL     1      26.274  -8.741  19.085  1.00  0.00     0.063 C 
ATOM      2  C   UNL     1      26.177  -7.305  18.695  1.00  0.00     0.038 C 
ATOM      3  O   UNL     1      25.063  -6.719  18.715  1.00  0.00    -0.550 OA
ATOM      4  O   UNL     1      27.323  -6.595  18.360  1.00  0.00    -0.550 OA
ENDROOT
TORSDOF 0
ENDMDL
MODEL 9
REMARK VINA RESULT:    -2.133      2.781      3.372
REMARK INTER + INTRA:          -2.133
REMARK INTER:                  -2.133
REMARK INTRA:                   0.000
REMARK UNBOUND:                 0.000
REMARK SMILES CC(=O)[O-]
REMARK SMILES IDX 1 1 2 2 3 3 4 4
REMARK H PARENT
REMARK Flexibility Score: inf
ROOT
ATOM      1  C   UNL     1      28.493 -10.447  21.831  1.00  0.00     0.063 C 
ATOM      2  C   UNL     1      27.783 -11.213  20.767  1.00  0.00     0.038 C 
ATOM      3  O   UNL     1      26.778 -10.716  20.195  1.00  0.00    -0.550 OA
ATOM      4  O   UNL     1      28.260 -12.454  20.366  1.00  0.00    -0.550 OA
ENDROOT
TORSDOF 0
ENDMDL
