MODEL 1
REMARK VINA RESULT:    -3.283      0.000      0.000
REMARK INTER + INTRA:          -8.980
REMARK INTER:                  -6.354
REMARK INTRA:                  -2.626
REMARK UNBOUND:                -2.626
REMARK SMILES CCCCCCCCCCCCCCCCCC(=O)[O-]
REMARK SMILES IDX 10 1 11 2 12 3 13 4 14 5 15 6 16 7 17 8 18 9 19 10 20 11
REMARK SMILES IDX 9 12 8 13 7 14 6 15 5 16 4 17 3 18 2 19 1 20
REMARK H PARENT
REMARK Flexibility Score: inf
ROOT
ATOM      1  C   UNL     1     -22.325   3.275  11.805  1.00  0.00     0.000 C 
ENDROOT
BRANCH   1   2
ATOM      2  C   UNL     1     -21.602   3.635  13.117  1.00  0.00     0.000 C 
BRANCH   2   3
ATOM      3  C   UNL     1     -20.162   4.116  12.878  1.00  0.00     0.000 C 
BRANCH   3   4
ATOM      4  C   UNL     1     -19.166   2.950  12.743  1.00  0.00     0.000 C 
BRANCH   4   5
ATOM      5  C   UNL     1     -18.627   2.798  11.312  1.00  0.00     0.000 C 
BRANCH   5   6
ATOM      6  C   UNL     1     -18.288   1.340  10.963  1.00  0.00     0.000 C 
BRANCH   6   7
ATOM      7  C   UNL     1     -18.893   0.945   9.610  1.00  0.00     0.006 C 
BRANCH   7   8
ATOM      8  C   UNL     1     -20.060   1.866   9.240  1.00  0.00     0.053 C 
BRANCH   8   9
ATOM      9  C   UNL     1     -21.254   1.060   8.835  1.00  0.00     0.041 C 
ATOM     10  O   UNL     1     -21.137  -0.173   8.601  1.00  0.00    -0.550 OA
ATOM     11  O   UNL     1     -22.486   1.681   8.663  1.00  0.00    -0.550 OA
ENDBRANCH   8   9
ENDBRANCH   7   8
ENDBRANCH   6   7
ENDBRANCH   5   6
ENDBRANCH   4   5
ENDBRANCH   3   4
ENDBRANCH   2   3
ENDBRANCH   1   2
BRANCH   1  12
ATOM     12  C   UNL     1     -23.518   4.199  11.510  1.00  0.00     0.000 C 
BRANCH  12  13
ATOM     13  C   UNL     1     -23.884   5.098  12.704  1.00  0.00    -0.000 C 
BRANCH  13  14
ATOM     14  C   UNL     1     -24.713   6.323  12.283  1.00  0.00    -0.000 C 
BRANCH  14  15
ATOM     15  C   UNL     1     -23.871   7.606  12.211  1.00  0.00    -0.000 C 
BRANCH  15  16
ATOM     16  C   UNL     1     -22.517   7.414  12.905  1.00  0.00    -0.000 C 
BRANCH  16  17
ATOM     17  C   UNL     1     -21.356   7.637  11.922  1.00  0.00    -0.000 C 
BRANCH  17  18
ATOM     18  C   UNL     1     -21.790   7.451  10.452  1.00  0.00    -0.000 C 
BRANCH  18  19
ATOM     19  C   UNL     1     -20.654   6.973   9.531  1.00  0.00    -0.003 C 
ATOM     20  C   UNL     1     -20.627   5.456   9.350  1.00  0.00     0.004 C 
ENDBRANCH  18  19
ENDBRANCH  17  18
ENDBRANCH  16  17
ENDBRANCH  15  16
ENDBRANCH  14  15
ENDBRANCH  13  14
ENDBRANCH  12  13
ENDBRANCH   1  12
TORSDOF 16
ENDMDL
MODEL 2
REMARK VINA RESULT:    -3.151     12.346     15.484
REMARK INTER + INTRA:          -8.724
REMARK INTER:                  -7.994
REMARK INTRA:                  -0.729
REMARK UNBOUND:                -2.626
REMARK SMILES CCCCCCCCCCCCCCCCCC(=O)[O-]
REMARK SMILES IDX 10 1 11 2 12 3 13 4 14 5 15 6 16 7 17 8 18 9 19 10 20 11
REMARK SMILES IDX 9 12 8 13 7 14 6 15 5 16 4 17 3 18 2 19 1 20
REMARK H PARENT
REMARK Flexibility Score: inf
ROOT
ATOM      1  C   UNL     1     -18.530  -0.611  -4.282  1.00  0.00     0.000 C 
ENDROOT
BRANCH   1   2
ATOM      2  C   UNL     1     -18.184   0.811  -4.761  1.00  0.00     0.000 C 
BRANCH   2   3
ATOM      3  C   UNL     1     -18.788   1.896  -3.854  1.00  0.00     0.000 C 
BRANCH   3   4
ATOM      4  C   UNL     1     -18.120   3.268  -4.051  1.00  0.00     0.000 C 
BRANCH   4   5
ATOM      5  C   UNL     1     -18.899   4.407  -3.374  1.00  0.00     0.000 C 
BRANCH   5   6
ATOM      6  C   UNL     1     -20.144   4.824  -4.172  1.00  0.00     0.000 C 
BRANCH   6   7
ATOM      7  C   UNL     1     -21.421   4.604  -3.352  1.00  0.00     0.006 C 
BRANCH   7   8
ATOM      8  C   UNL     1     -21.222   5.044  -1.898  1.00  0.00     0.053 C 
BRANCH   8   9
ATOM      9  C   UNL     1     -22.529   5.053  -1.171  1.00  0.00     0.041 C 
ATOM     10  O   UNL     1     -23.043   6.143  -0.802  1.00  0.00    -0.550 OA
ATOM     11  O   UNL     1     -23.155   3.853  -0.852  1.00  0.00    -0.550 OA
ENDBRANCH   8   9
ENDBRANCH   7   8
ENDBRANCH   6   7
ENDBRANCH   5   6
ENDBRANCH   4   5
ENDBRANCH   3   4
ENDBRANCH   2   3
ENDBRANCH   1   2
BRANCH   1  12
ATOM     12  C   UNL     1     -19.766  -0.647  -3.368  1.00  0.00     0.000 C 
BRANCH  12  13
ATOM     13  C   UNL     1     -20.124  -2.070  -2.905  1.00  0.00    -0.000 C 
BRANCH  13  14
ATOM     14  C   UNL     1     -20.221  -2.183  -1.375  1.00  0.00    -0.000 C 
BRANCH  14  15
ATOM     15  C   UNL     1     -19.771  -3.557  -0.856  1.00  0.00    -0.000 C 
BRANCH  15  16
ATOM     16  C   UNL     1     -19.487  -3.510   0.649  1.00  0.00    -0.000 C 
BRANCH  16  17
ATOM     17  C   UNL     1     -19.039  -4.886   1.170  1.00  0.00    -0.000 C 
BRANCH  17  18
ATOM     18  C   UNL     1     -20.210  -5.699   1.761  1.00  0.00    -0.000 C 
BRANCH  18  19
ATOM     19  C   UNL     1     -20.110  -7.210   1.490  1.00  0.00    -0.003 C 
ATOM     20  C   UNL     1     -21.208  -8.017   2.181  1.00  0.00     0.004 C 
ENDBRANCH  18  19
ENDBRANCH  17  18
ENDBRANCH  16  17
ENDBRANCH  15  16
ENDBRANCH  14  15
ENDBRANCH  13  14
ENDBRANCH  12  13
ENDBRANCH   1  12
TORSDOF 16
ENDMDL
MODEL 3
REMARK VINA RESULT:    -3.070      2.422      3.891
REMARK INTER + INTRA:          -8.568
REMARK INTER:                  -6.289
REMARK INTRA:                  -2.279
REMARK UNBOUND:                -2.626
REMARK SMILES CCCCCCCCCCCCCCCCCC(=O)[O-]
REMARK SMILES IDX 10 1 11 2 12 3 13 4 14 5 15 6 16 7 17 8 18 9 19 10 20 11
REMARK SMILES IDX 9 12 8 13 7 14 6 15 5 16 4 17 3 18 2 19 1 20
REMARK H PARENT
REMARK Flexibility Score: inf
ROOT
ATOM      1  C   UNL     1     -22.511   3.184  10.898  1.00  0.00     0.000 C 
ENDROOT
BRANCH   1   2
ATOM      2  C   UNL     1     -22.132   1.818  10.297  1.00  0.00     0.000 C 
BRANCH   2   3
ATOM      3  C   UNL     1     -21.001   1.929   9.261  1.00  0.00     0.000 C 
BRANCH   3   4
ATOM      4  C   UNL     1     -19.623   1.586   9.853  1.00  0.00     0.000 C 
BRANCH   4   5
ATOM      5  C   UNL     1     -18.688   2.804   9.916  1.00  0.00     0.000 C 
BRANCH   5   6
ATOM      6  C   UNL     1     -19.297   4.049   9.251  1.00  0.00     0.000 C 
BRANCH   6   7
ATOM      7  C   UNL     1     -18.467   4.483   8.036  1.00  0.00     0.006 C 
BRANCH   7   8
ATOM      8  C   UNL     1     -19.349   5.163   6.984  1.00  0.00     0.053 C 
BRANCH   8   9
ATOM      9  C   UNL     1     -19.224   4.465   5.666  1.00  0.00     0.041 C 
ATOM     10  O   UNL     1     -18.781   3.287   5.613  1.00  0.00    -0.550 OA
ATOM     11  O   UNL     1     -19.545   5.136   4.492  1.00  0.00    -0.550 OA
ENDBRANCH   8   9
ENDBRANCH   7   8
ENDBRANCH   6   7
ENDBRANCH   5   6
ENDBRANCH   4   5
ENDBRANCH   3   4
ENDBRANCH   2   3
ENDBRANCH   1   2
BRANCH   1  12
ATOM     12  C   UNL     1     -22.258   3.258  12.413  1.00  0.00     0.000 C 
BRANCH  12  13
ATOM     13  C   UNL     1     -20.852   3.781  12.757  1.00  0.00    -0.000 C 
BRANCH  13  14
ATOM     14  C   UNL     1     -20.852   5.279  13.104  1.00  0.00    -0.000 C 
BRANCH  14  15
ATOM     15  C   UNL     1     -20.652   6.169  11.867  1.00  0.00    -0.000 C 
BRANCH  15  16
ATOM     16  C   UNL     1     -21.951   6.892  11.495  1.00  0.00    -0.000 C 
BRANCH  16  17
ATOM     17  C   UNL     1     -22.812   7.158  12.740  1.00  0.00    -0.000 C 
BRANCH  17  18
ATOM     18  C   UNL     1     -24.322   7.154  12.421  1.00  0.00    -0.000 C 
BRANCH  18  19
ATOM     19  C   UNL     1     -24.912   5.743  12.251  1.00  0.00    -0.003 C 
ATOM     20  C   UNL     1     -26.399   5.754  11.903  1.00  0.00     0.004 C 
ENDBRANCH  18  19
ENDBRANCH  17  18
ENDBRANCH  16  17
ENDBRANCH  15  16
ENDBRANCH  14  15
ENDBRANCH  13  14
ENDBRANCH  12  13
ENDBRANCH   1  12
TORSDOF 16
ENDMDL
MODEL 4
REMARK VINA RESULT:    -3.037      6.215      7.876
REMARK INTER + INTRA:          -8.505
REMARK INTER:                  -7.628
REMARK INTRA:                  -0.877
REMARK UNBOUND:                -2.626
REMARK SMILES CCCCCCCCCCCCCCCCCC(=O)[O-]
REMARK SMILES IDX 10 1 11 2 12 3 13 4 14 5 15 6 16 7 17 8 18 9 19 10 20 11
REMARK SMILES IDX 9 12 8 13 7 14 6 15 5 16 4 17 3 18 2 19 1 20
REMARK H PARENT
REMARK Flexibility Score: inf
ROOT
ATOM      1  C   UNL     1     -27.660   4.783  10.147  1.00  0.00     0.000 C 
ENDROOT
BRANCH   1   2
ATOM      2  C   UNL     1     -27.805   5.201  11.622  1.00  0.00     0.000 C 
BRANCH   2   3
ATOM      3  C   UNL     1     -26.622   6.055  12.108  1.00  0.00     0.000 C 
BRANCH   3   4
ATOM      4  C   UNL     1     -25.268   5.353  11.909  1.00  0.00     0.000 C 
BRANCH   4   5
ATOM      5  C   UNL     1     -24.080   6.231  12.333  1.00  0.00     0.000 C 
BRANCH   5   6
ATOM      6  C   UNL     1     -22.858   5.403  12.760  1.00  0.00     0.000 C 
BRANCH   6   7
ATOM      7  C   UNL     1     -22.806   4.071  12.003  1.00  0.00     0.006 C 
BRANCH   7   8
ATOM      8  C   UNL     1     -21.806   4.136  10.844  1.00  0.00     0.053 C 
BRANCH   8   9
ATOM      9  C   UNL     1     -21.655   2.792  10.206  1.00  0.00     0.041 C 
ATOM     10  O   UNL     1     -22.318   1.809  10.634  1.00  0.00    -0.550 OA
ATOM     11  O   UNL     1     -20.743   2.611   9.173  1.00  0.00    -0.550 OA
ENDBRANCH   8   9
ENDBRANCH   7   8
ENDBRANCH   6   7
ENDBRANCH   5   6
ENDBRANCH   4   5
ENDBRANCH   3   4
ENDBRANCH   2   3
ENDBRANCH   1   2
BRANCH   1  12
ATOM     12  C   UNL     1     -29.011   4.484   9.478  1.00  0.00     0.000 C 
BRANCH  12  13
ATOM     13  C   UNL     1     -29.388   5.521   8.406  1.00  0.00    -0.000 C 
BRANCH  13  14
ATOM     14  C   UNL     1     -28.513   5.408   7.147  1.00  0.00    -0.000 C 
BRANCH  14  15
ATOM     15  C   UNL     1     -29.036   6.270   5.988  1.00  0.00    -0.000 C 
BRANCH  15  16
ATOM     16  C   UNL     1     -30.345   6.971   6.371  1.00  0.00    -0.000 C 
BRANCH  16  17
ATOM     17  C   UNL     1     -31.251   7.158   5.143  1.00  0.00    -0.000 C 
BRANCH  17  18
ATOM     18  C   UNL     1     -30.799   6.297   3.944  1.00  0.00    -0.000 C 
BRANCH  18  19
ATOM     19  C   UNL     1     -31.915   6.033   2.919  1.00  0.00    -0.003 C 
ATOM     20  C   UNL     1     -33.289   5.854   3.562  1.00  0.00     0.004 C 
ENDBRANCH  18  19
ENDBRANCH  17  18
ENDBRANCH  16  17
ENDBRANCH  15  16
ENDBRANCH  14  15
ENDBRANCH  13  14
ENDBRANCH  12  13
ENDBRANCH   1  12
TORSDOF 16
ENDMDL
MODEL 5
REMARK VINA RESULT:    -3.029      2.214      4.479
REMARK INTER + INTRA:          -8.488
REMARK INTER:                  -5.951
REMARK INTRA:                  -2.537
REMARK UNBOUND:                -2.626
REMARK SMILES CCCCCCCCCCCCCCCCCC(=O)[O-]
REMARK SMILES IDX 10 1 11 2 12 3 13 4 14 5 15 6 16 7 17 8 18 9 19 10 20 11
REMARK SMILES IDX 9 12 8 13 7 14 6 15 5 16 4 17 3 18 2 19 1 20
REMARK H PARENT
REMARK Flexibility Score: inf
ROOT
ATOM      1  C   UNL     1     -21.207   2.750   9.057  1.00  0.00     0.000 C 
ENDROOT
BRANCH   1   2
ATOM      2  C   UNL     1     -19.695   2.463   8.995  1.00  0.00     0.000 C 
BRANCH   2   3
ATOM      3  C   UNL     1     -19.214   1.607  10.179  1.00  0.00     0.000 C 
BRANCH   3   4
ATOM      4  C   UNL     1     -18.609   2.455  11.311  1.00  0.00     0.000 C 
BRANCH   4   5
ATOM      5  C   UNL     1     -17.993   3.767  10.802  1.00  0.00     0.000 C 
BRANCH   5   6
ATOM      6  C   UNL     1     -18.556   5.002  11.523  1.00  0.00     0.000 C 
BRANCH   6   7
ATOM      7  C   UNL     1     -18.506   6.237  10.617  1.00  0.00     0.006 C 
BRANCH   7   8
ATOM      8  C   UNL     1     -19.825   7.015  10.674  1.00  0.00     0.053 C 
BRANCH   8   9
ATOM      9  C   UNL     1     -20.517   6.968   9.348  1.00  0.00     0.041 C 
ATOM     10  O   UNL     1     -21.396   7.824   9.061  1.00  0.00    -0.550 OA
ATOM     11  O   UNL     1     -20.229   5.947   8.450  1.00  0.00    -0.550 OA
ENDBRANCH   8   9
ENDBRANCH   7   8
ENDBRANCH   6   7
ENDBRANCH   5   6
ENDBRANCH   4   5
ENDBRANCH   3   4
ENDBRANCH   2   3
ENDBRANCH   1   2
BRANCH   1  12
ATOM     12  C   UNL     1     -21.972   1.730   9.915  1.00  0.00     0.000 C 
BRANCH  12  13
ATOM     13  C   UNL     1     -22.554   2.347  11.199  1.00  0.00    -0.000 C 
BRANCH  13  14
ATOM     14  C   UNL     1     -22.146   3.819  11.379  1.00  0.00    -0.000 C 
BRANCH  14  15
ATOM     15  C   UNL     1     -21.917   4.190  12.852  1.00  0.00    -0.000 C 
BRANCH  15  16
ATOM     16  C   UNL     1     -22.272   5.658  13.112  1.00  0.00    -0.000 C 
BRANCH  16  17
ATOM     17  C   UNL     1     -23.126   6.230  11.968  1.00  0.00    -0.000 C 
BRANCH  17  18
ATOM     18  C   UNL     1     -24.556   6.585  12.426  1.00  0.00    -0.000 C 
BRANCH  18  19
ATOM     19  C   UNL     1     -25.606   5.526  12.048  1.00  0.00    -0.003 C 
ATOM     20  C   UNL     1     -27.025   5.915  12.458  1.00  0.00     0.004 C 
ENDBRANCH  18  19
ENDBRANCH  17  18
ENDBRANCH  16  17
ENDBRANCH  15  16
ENDBRANCH  14  15
ENDBRANCH  13  14
ENDBRANCH  12  13
ENDBRANCH   1  12
TORSDOF 16
ENDMDL
MODEL 6
REMARK VINA RESULT:    -3.026     12.637     14.551
REMARK INTER + INTRA:          -8.483
REMARK INTER:                  -7.850
REMARK INTRA:                  -0.633
REMARK UNBOUND:                -2.626
REMARK SMILES CCCCCCCCCCCCCCCCCC(=O)[O-]
REMARK SMILES IDX 10 1 11 2 12 3 13 4 14 5 15 6 16 7 17 8 18 9 19 10 20 11
REMARK SMILES IDX 9 12 8 13 7 14 6 15 5 16 4 17 3 18 2 19 1 20
REMARK H PARENT
REMARK Flexibility Score: inf
ROOT
ATOM      1  C   UNL     1     -19.779  -0.557  -3.258  1.00  0.00     0.000 C 
ENDROOT
BRANCH   1   2
ATOM      2  C   UNL     1     -20.332  -1.994  -3.223  1.00  0.00     0.000 C 
BRANCH   2   3
ATOM      3  C   UNL     1     -19.787  -2.801  -2.033  1.00  0.00     0.000 C 
BRANCH   3   4
ATOM      4  C   UNL     1     -20.398  -2.360  -0.692  1.00  0.00     0.000 C 
BRANCH   4   5
ATOM      5  C   UNL     1     -19.666  -2.963   0.517  1.00  0.00     0.000 C 
BRANCH   5   6
ATOM      6  C   UNL     1     -19.375  -4.462   0.342  1.00  0.00     0.000 C 
BRANCH   6   7
ATOM      7  C   UNL     1     -19.514  -5.208   1.674  1.00  0.00     0.006 C 
BRANCH   7   8
ATOM      8  C   UNL     1     -19.773  -6.701   1.444  1.00  0.00     0.053 C 
BRANCH   8   9
ATOM      9  C   UNL     1     -20.867  -7.186   2.341  1.00  0.00     0.041 C 
ATOM     10  O   UNL     1     -21.753  -7.964   1.896  1.00  0.00    -0.550 OA
ATOM     11  O   UNL     1     -20.940  -6.737   3.654  1.00  0.00    -0.550 OA
ENDBRANCH   8   9
ENDBRANCH   7   8
ENDBRANCH   6   7
ENDBRANCH   5   6
ENDBRANCH   4   5
ENDBRANCH   3   4
ENDBRANCH   2   3
ENDBRANCH   1   2
BRANCH   1  12
ATOM     12  C   UNL     1     -18.663  -0.375  -4.299  1.00  0.00     0.000 C 
BRANCH  12  13
ATOM     13  C   UNL     1     -17.949   0.983  -4.177  1.00  0.00    -0.000 C 
BRANCH  13  14
ATOM     14  C   UNL     1     -18.936   2.162  -4.127  1.00  0.00    -0.000 C 
BRANCH  14  15
ATOM     15  C   UNL     1     -18.230   3.511  -3.920  1.00  0.00    -0.000 C 
BRANCH  15  16
ATOM     16  C   UNL     1     -18.723   4.550  -4.932  1.00  0.00    -0.000 C 
BRANCH  16  17
ATOM     17  C   UNL     1     -19.632   5.591  -4.259  1.00  0.00    -0.000 C 
BRANCH  17  18
ATOM     18  C   UNL     1     -20.231   5.074  -2.933  1.00  0.00    -0.000 C 
BRANCH  18  19
ATOM     19  C   UNL     1     -21.662   4.527  -3.075  1.00  0.00    -0.003 C 
ATOM     20  C   UNL     1     -22.627   5.097  -2.037  1.00  0.00     0.004 C 
ENDBRANCH  18  19
ENDBRANCH  17  18
ENDBRANCH  16  17
ENDBRANCH  15  16
ENDBRANCH  14  15
ENDBRANCH  13  14
ENDBRANCH  12  13
ENDBRANCH   1  12
TORSDOF 16
ENDMDL
MODEL 7
REMARK VINA RESULT:    -2.898      1.360      3.318
REMARK INTER + INTRA:          -8.235
REMARK INTER:                  -6.162
REMARK INTRA:                  -2.073
REMARK UNBOUND:                -2.626
REMARK SMILES CCCCCCCCCCCCCCCCCC(=O)[O-]
REMARK SMILES IDX 10 1 11 2 12 3 13 4 14 5 15 6 16 7 17 8 18 9 19 10 20 11
REMARK SMILES IDX 9 12 8 13 7 14 6 15 5 16 4 17 3 18 2 19 1 20
REMARK H PARENT
REMARK Flexibility Score: inf
ROOT
ATOM      1  C   UNL     1     -20.787   5.942   9.790  1.00  0.00     0.000 C 
ENDROOT
BRANCH   1   2
ATOM      2  C   UNL     1     -19.270   5.680   9.798  1.00  0.00     0.000 C 
BRANCH   2   3
ATOM      3  C   UNL     1     -18.755   5.270  11.188  1.00  0.00     0.000 C 
BRANCH   3   4
ATOM      4  C   UNL     1     -17.972   3.946  11.159  1.00  0.00     0.000 C 
BRANCH   4   5
ATOM      5  C   UNL     1     -18.676   2.862  10.327  1.00  0.00     0.000 C 
BRANCH   5   6
ATOM      6  C   UNL     1     -19.805   2.165  11.102  1.00  0.00     0.000 C 
BRANCH   6   7
ATOM      7  C   UNL     1     -21.179   2.641  10.616  1.00  0.00     0.006 C 
BRANCH   7   8
ATOM      8  C   UNL     1     -22.035   1.461  10.146  1.00  0.00     0.053 C 
BRANCH   8   9
ATOM      9  C   UNL     1     -21.606   1.012   8.786  1.00  0.00     0.041 C 
ATOM     10  O   UNL     1     -21.273  -0.188   8.589  1.00  0.00    -0.550 OA
ATOM     11  O   UNL     1     -21.521   1.930   7.746  1.00  0.00    -0.550 OA
ENDBRANCH   8   9
ENDBRANCH   7   8
ENDBRANCH   6   7
ENDBRANCH   5   6
ENDBRANCH   4   5
ENDBRANCH   3   4
ENDBRANCH   2   3
ENDBRANCH   1   2
BRANCH   1  12
ATOM     12  C   UNL     1     -21.134   7.420   9.547  1.00  0.00     0.000 C 
BRANCH  12  13
ATOM     13  C   UNL     1     -21.984   8.026  10.677  1.00  0.00    -0.000 C 
BRANCH  13  14
ATOM     14  C   UNL     1     -21.334   7.849  12.060  1.00  0.00    -0.000 C 
BRANCH  14  15
ATOM     15  C   UNL     1     -22.247   7.106  13.048  1.00  0.00    -0.000 C 
BRANCH  15  16
ATOM     16  C   UNL     1     -21.880   5.620  13.125  1.00  0.00    -0.000 C 
BRANCH  16  17
ATOM     17  C   UNL     1     -23.133   4.736  13.020  1.00  0.00    -0.000 C 
BRANCH  17  18
ATOM     18  C   UNL     1     -24.088   5.203  11.900  1.00  0.00    -0.000 C 
BRANCH  18  19
ATOM     19  C   UNL     1     -25.337   5.936  12.421  1.00  0.00    -0.003 C 
ATOM     20  C   UNL     1     -26.608   5.571  11.656  1.00  0.00     0.004 C 
ENDBRANCH  18  19
ENDBRANCH  17  18
ENDBRANCH  16  17
ENDBRANCH  15  16
ENDBRANCH  14  15
ENDBRANCH  13  14
ENDBRANCH  12  13
ENDBRANCH   1  12
TORSDOF 16
ENDMDL
MODEL 8
REMARK VINA RESULT:    -2.767      1.562      4.225
REMARK INTER + INTRA:          -7.981
REMARK INTER:                  -5.815
REMARK INTRA:                  -2.166
REMARK UNBOUND:                -2.626
REMARK SMILES CCCCCCCCCCCCCCCCCC(=O)[O-]
REMARK SMILES IDX 10 1 11 2 12 3 13 4 14 5 15 6 16 7 17 8 18 9 19 10 20 11
REMARK SMILES IDX 9 12 8 13 7 14 6 15 5 16 4 17 3 18 2 19 1 20
REMARK H PARENT
REMARK Flexibility Score: inf
ROOT
ATOM      1  C   UNL     1     -22.820   7.728  11.558  1.00  0.00     0.000 C 
ENDROOT
BRANCH   1   2
ATOM      2  C   UNL     1     -24.097   7.482  12.383  1.00  0.00     0.000 C 
BRANCH   2   3
ATOM      3  C   UNL     1     -24.673   6.073  12.163  1.00  0.00     0.000 C 
BRANCH   3   4
ATOM      4  C   UNL     1     -23.783   4.971  12.763  1.00  0.00     0.000 C 
BRANCH   4   5
ATOM      5  C   UNL     1     -23.070   4.138  11.687  1.00  0.00     0.000 C 
BRANCH   5   6
ATOM      6  C   UNL     1     -21.734   3.558  12.179  1.00  0.00     0.000 C 
BRANCH   6   7
ATOM      7  C   UNL     1     -21.183   2.529  11.186  1.00  0.00     0.006 C 
BRANCH   7   8
ATOM      8  C   UNL     1     -22.319   1.819  10.443  1.00  0.00     0.053 C 
BRANCH   8   9
ATOM      9  C   UNL     1     -21.862   1.375   9.089  1.00  0.00     0.041 C 
ATOM     10  O   UNL     1     -22.658   1.400   8.112  1.00  0.00    -0.550 OA
ATOM     11  O   UNL     1     -20.573   0.884   8.917  1.00  0.00    -0.550 OA
ENDBRANCH   8   9
ENDBRANCH   7   8
ENDBRANCH   6   7
ENDBRANCH   5   6
ENDBRANCH   4   5
ENDBRANCH   3   4
ENDBRANCH   2   3
ENDBRANCH   1   2
BRANCH   1  12
ATOM     12  C   UNL     1     -21.573   7.920  12.436  1.00  0.00     0.000 C 
BRANCH  12  13
ATOM     13  C   UNL     1     -20.289   7.395  11.771  1.00  0.00    -0.000 C 
BRANCH  13  14
ATOM     14  C   UNL     1     -20.024   8.053  10.406  1.00  0.00    -0.000 C 
BRANCH  14  15
ATOM     15  C   UNL     1     -19.692   7.026   9.313  1.00  0.00    -0.000 C 
BRANCH  15  16
ATOM     16  C   UNL     1     -20.435   5.707   9.553  1.00  0.00    -0.000 C 
BRANCH  16  17
ATOM     17  C   UNL     1     -20.211   4.728   8.390  1.00  0.00    -0.000 C 
BRANCH  17  18
ATOM     18  C   UNL     1     -18.828   4.047   8.455  1.00  0.00    -0.000 C 
BRANCH  18  19
ATOM     19  C   UNL     1     -18.496   3.205   7.210  1.00  0.00    -0.003 C 
ATOM     20  C   UNL     1     -19.024   3.818   5.914  1.00  0.00     0.004 C 
ENDBRANCH  18  19
ENDBRANCH  17  18
ENDBRANCH  16  17
ENDBRANCH  15  16
ENDBRANCH  14  15
ENDBRANCH  13  14
ENDBRANCH  12  13
ENDBRANCH   1  12
TORSDOF 16
ENDMDL
MODEL 9
REMARK VINA RESULT:    -2.379     19.791     22.802
REMARK INTER + INTRA:          -7.231
REMARK INTER:                  -5.953
REMARK INTRA:                  -1.277
REMARK UNBOUND:                -2.626
REMARK SMILES CCCCCCCCCCCCCCCCCC(=O)[O-]
REMARK SMILES IDX 10 1 11 2 12 3 13 4 14 5 15 6 16 7 17 8 18 9 19 10 20 11
REMARK SMILES IDX 9 12 8 13 7 14 6 15 5 16 4 17 3 18 2 19 1 20
REMARK H PARENT
REMARK Flexibility Score: inf
ROOT
ATOM      1  C   UNL     1     -36.335  -9.907  -0.199  1.00  0.00     0.000 C 
ENDROOT
BRANCH   1   2
ATOM      2  C   UNL     1     -35.778  -9.427  -1.553  1.00  0.00     0.000 C 
BRANCH   2   3
ATOM      3  C   UNL     1     -36.887  -9.189  -2.590  1.00  0.00     0.000 C 
BRANCH   3   4
ATOM      4  C   UNL     1     -38.125  -8.505  -1.984  1.00  0.00     0.000 C 
BRANCH   4   5
ATOM      5  C   UNL     1     -38.115  -6.982  -2.184  1.00  0.00     0.000 C 
BRANCH   5   6
ATOM      6  C   UNL     1     -37.825  -6.219  -0.882  1.00  0.00     0.000 C 
BRANCH   6   7
ATOM      7  C   UNL     1     -36.962  -4.981  -1.152  1.00  0.00     0.006 C 
BRANCH   7   8
ATOM      8  C   UNL     1     -37.512  -3.756  -0.413  1.00  0.00     0.053 C 
BRANCH   8   9
ATOM      9  C   UNL     1     -37.138  -2.499  -1.132  1.00  0.00     0.041 C 
ATOM     10  O   UNL     1     -36.899  -2.524  -2.370  1.00  0.00    -0.550 OA
ATOM     11  O   UNL     1     -37.000  -1.309  -0.427  1.00  0.00    -0.550 OA
ENDBRANCH   8   9
ENDBRANCH   7   8
ENDBRANCH   6   7
ENDBRANCH   5   6
ENDBRANCH   4   5
ENDBRANCH   3   4
ENDBRANCH   2   3
ENDBRANCH   1   2
BRANCH   1  12
ATOM     12  C   UNL     1     -36.275  -8.821   0.887  1.00  0.00     0.000 C 
BRANCH  12  13
ATOM     13  C   UNL     1     -36.848  -9.293   2.234  1.00  0.00    -0.000 C 
BRANCH  13  14
ATOM     14  C   UNL     1     -36.668 -10.804   2.451  1.00  0.00    -0.000 C 
BRANCH  14  15
ATOM     15  C   UNL     1     -35.669 -11.123   3.574  1.00  0.00    -0.000 C 
BRANCH  15  16
ATOM     16  C   UNL     1     -34.558 -12.053   3.074  1.00  0.00    -0.000 C 
BRANCH  16  17
ATOM     17  C   UNL     1     -33.532 -11.282   2.228  1.00  0.00    -0.000 C 
BRANCH  17  18
ATOM     18  C   UNL     1     -32.210 -12.062   2.056  1.00  0.00    -0.000 C 
BRANCH  18  19
ATOM     19  C   UNL     1     -31.003 -11.382   2.726  1.00  0.00    -0.003 C 
ATOM     20  C   UNL     1     -31.244 -11.047   4.197  1.00  0.00     0.004 C 
ENDBRANCH  18  19
ENDBRANCH  17  18
ENDBRANCH  16  17
ENDBRANCH  15  16
ENDBRANCH  14  15
ENDBRANCH  13  14
ENDBRANCH  12  13
ENDBRANCH   1  12
TORSDOF 16
ENDMDL
