MODEL 1
REMARK VINA RESULT:    -4.194      0.000      0.000
REMARK INTER + INTRA:          -5.462
REMARK INTER:                  -5.175
REMARK INTRA:                  -0.288
REMARK UNBOUND:                -0.288
REMARK SMILES C=CC[C@H](C)C(=O)CC
REMARK SMILES IDX 4 1 5 2 6 3 7 4 8 5 9 6 3 7 2 8 1 9
REMARK H PARENT
REMARK Flexibility Score: inf
ROOT
ATOM      1  C   UNL     1     -26.348  19.248 -34.272  1.00  0.00     0.057 C 
ATOM      2  C   UNL     1     -27.410  18.641 -33.345  1.00  0.00     0.016 C 
ENDROOT
BRANCH   1   3
ATOM      3  C   UNL     1     -24.985  19.165 -33.619  1.00  0.00     0.135 C 
ATOM      4  O   UNL     1     -24.813  18.415 -32.668  1.00  0.00    -0.299 OA
BRANCH   3   5
ATOM      5  C   UNL     1     -23.827  19.987 -34.122  1.00  0.00     0.072 C 
ATOM      6  C   UNL     1     -23.122  20.690 -32.967  1.00  0.00     0.012 C 
ENDBRANCH   3   5
ENDBRANCH   1   3
BRANCH   1   7
ATOM      7  C   UNL     1     -26.671  20.715 -34.627  1.00  0.00     0.038 C 
BRANCH   7   8
ATOM      8  C   UNL     1     -27.832  21.255 -33.835  1.00  0.00    -0.034 C 
ATOM      9  C   UNL     1     -27.813  22.481 -33.304  1.00  0.00     0.004 C 
ENDBRANCH   7   8
ENDBRANCH   1   7
TORSDOF 4
ENDMDL
MODEL 2
REMARK VINA RESULT:    -4.105      1.538      2.523
REMARK INTER + INTRA:          -5.352
REMARK INTER:                  -5.172
REMARK INTRA:                  -0.181
REMARK UNBOUND:                -0.288
REMARK SMILES C=CC[C@H](C)C(=O)CC
REMARK SMILES IDX 4 1 5 2 6 3 7 4 8 5 9 6 3 7 2 8 1 9
REMARK H PARENT
REMARK Flexibility Score: inf
ROOT
ATOM      1  C   UNL     1     -26.387  19.971 -33.899  1.00  0.00     0.057 C 
ATOM      2  C   UNL     1     -27.155  20.741 -34.982  1.00  0.00     0.016 C 
ENDROOT
BRANCH   1   3
ATOM      3  C   UNL     1     -24.996  19.634 -34.395  1.00  0.00     0.135 C 
ATOM      4  O   UNL     1     -24.767  19.624 -35.596  1.00  0.00    -0.299 OA
BRANCH   3   5
ATOM      5  C   UNL     1     -23.882  19.313 -33.433  1.00  0.00     0.072 C 
ATOM      6  C   UNL     1     -23.030  20.549 -33.165  1.00  0.00     0.012 C 
ENDBRANCH   3   5
ENDBRANCH   1   3
BRANCH   1   7
ATOM      7  C   UNL     1     -27.123  18.680 -33.485  1.00  0.00     0.038 C 
BRANCH   7   8
ATOM      8  C   UNL     1     -28.618  18.804 -33.617  1.00  0.00    -0.034 C 
ATOM      9  C   UNL     1     -29.400  17.737 -33.805  1.00  0.00     0.004 C 
ENDBRANCH   7   8
ENDBRANCH   1   7
TORSDOF 4
ENDMDL
MODEL 3
REMARK VINA RESULT:    -3.955      2.091      4.259
REMARK INTER + INTRA:          -5.168
REMARK INTER:                  -4.959
REMARK INTRA:                  -0.209
REMARK UNBOUND:                -0.288
REMARK SMILES C=CC[C@H](C)C(=O)CC
REMARK SMILES IDX 4 1 5 2 6 3 7 4 8 5 9 6 3 7 2 8 1 9
REMARK H PARENT
REMARK Flexibility Score: inf
ROOT
ATOM      1  C   UNL     1     -27.238  19.935 -34.371  1.00  0.00     0.057 C 
ATOM      2  C   UNL     1     -27.475  21.356 -33.841  1.00  0.00     0.016 C 
ENDROOT
BRANCH   1   3
ATOM      3  C   UNL     1     -28.421  19.054 -34.030  1.00  0.00     0.135 C 
ATOM      4  O   UNL     1     -29.552  19.416 -34.325  1.00  0.00    -0.299 OA
BRANCH   3   5
ATOM      5  C   UNL     1     -28.233  17.730 -33.337  1.00  0.00     0.072 C 
ATOM      6  C   UNL     1     -29.156  16.672 -33.935  1.00  0.00     0.012 C 
ENDBRANCH   3   5
ENDBRANCH   1   3
BRANCH   1   7
ATOM      7  C   UNL     1     -25.944  19.320 -33.800  1.00  0.00     0.038 C 
BRANCH   7   8
ATOM      8  C   UNL     1     -24.705  19.944 -34.385  1.00  0.00    -0.034 C 
ATOM      9  C   UNL     1     -23.637  20.229 -33.633  1.00  0.00     0.004 C 
ENDBRANCH   7   8
ENDBRANCH   1   7
TORSDOF 4
ENDMDL
MODEL 4
REMARK VINA RESULT:    -3.899      7.837      9.320
REMARK INTER + INTRA:          -5.099
REMARK INTER:                  -4.802
REMARK INTRA:                  -0.296
REMARK UNBOUND:                -0.288
REMARK SMILES C=CC[C@H](C)C(=O)CC
REMARK SMILES IDX 4 1 5 2 6 3 7 4 8 5 9 6 3 7 2 8 1 9
REMARK H PARENT
REMARK Flexibility Score: inf
ROOT
ATOM      1  C   UNL     1     -27.396  11.106 -29.069  1.00  0.00     0.057 C 
ATOM      2  C   UNL     1     -26.596  10.531 -27.891  1.00  0.00     0.016 C 
ENDROOT
BRANCH   1   3
ATOM      3  C   UNL     1     -26.457  11.765 -30.058  1.00  0.00     0.135 C 
ATOM      4  O   UNL     1     -25.716  11.073 -30.742  1.00  0.00    -0.299 OA
BRANCH   3   5
ATOM      5  C   UNL     1     -26.422  13.261 -30.222  1.00  0.00     0.072 C 
ATOM      6  C   UNL     1     -25.021  13.729 -30.602  1.00  0.00     0.012 C 
ENDBRANCH   3   5
ENDBRANCH   1   3
BRANCH   1   7
ATOM      7  C   UNL     1     -28.457  12.122 -28.596  1.00  0.00     0.038 C 
BRANCH   7   8
ATOM      8  C   UNL     1     -29.792  11.909 -29.260  1.00  0.00    -0.034 C 
ATOM      9  C   UNL     1     -30.123  12.536 -30.393  1.00  0.00     0.004 C 
ENDBRANCH   7   8
ENDBRANCH   1   7
TORSDOF 4
ENDMDL
MODEL 5
REMARK VINA RESULT:    -3.780      8.158      9.710
REMARK INTER + INTRA:          -4.952
REMARK INTER:                  -4.588
REMARK INTRA:                  -0.363
REMARK UNBOUND:                -0.288
REMARK SMILES C=CC[C@H](C)C(=O)CC
REMARK SMILES IDX 4 1 5 2 6 3 7 4 8 5 9 6 3 7 2 8 1 9
REMARK H PARENT
REMARK Flexibility Score: inf
ROOT
ATOM      1  C   UNL     1     -26.966  12.562 -29.668  1.00  0.00     0.057 C 
ATOM      2  C   UNL     1     -26.046  13.684 -30.169  1.00  0.00     0.016 C 
ENDROOT
BRANCH   1   3
ATOM      3  C   UNL     1     -26.234  11.237 -29.712  1.00  0.00     0.135 C 
ATOM      4  O   UNL     1     -26.204  10.595 -30.752  1.00  0.00    -0.299 OA
BRANCH   3   5
ATOM      5  C   UNL     1     -25.533  10.693 -28.494  1.00  0.00     0.072 C 
ATOM      6  C   UNL     1     -26.519   9.972 -27.581  1.00  0.00     0.012 C 
ENDBRANCH   3   5
ENDBRANCH   1   3
BRANCH   1   7
ATOM      7  C   UNL     1     -28.263  12.472 -30.499  1.00  0.00     0.038 C 
BRANCH   7   8
ATOM      8  C   UNL     1     -29.499  12.582 -29.648  1.00  0.00    -0.034 C 
ATOM      9  C   UNL     1     -29.690  11.805 -28.578  1.00  0.00     0.004 C 
ENDBRANCH   7   8
ENDBRANCH   1   7
TORSDOF 4
ENDMDL
MODEL 6
REMARK VINA RESULT:    -3.722      1.332      3.529
REMARK INTER + INTRA:          -4.880
REMARK INTER:                  -4.642
REMARK INTRA:                  -0.238
REMARK UNBOUND:                -0.288
REMARK SMILES C=CC[C@H](C)C(=O)CC
REMARK SMILES IDX 4 1 5 2 6 3 7 4 8 5 9 6 3 7 2 8 1 9
REMARK H PARENT
REMARK Flexibility Score: inf
ROOT
ATOM      1  C   UNL     1     -25.604  19.485 -33.482  1.00  0.00     0.057 C 
ATOM      2  C   UNL     1     -25.408  18.195 -32.672  1.00  0.00     0.016 C 
ENDROOT
BRANCH   1   3
ATOM      3  C   UNL     1     -27.012  19.537 -34.037  1.00  0.00     0.135 C 
ATOM      4  O   UNL     1     -27.727  18.547 -33.968  1.00  0.00    -0.299 OA
BRANCH   3   5
ATOM      5  C   UNL     1     -27.554  20.791 -34.671  1.00  0.00     0.072 C 
ATOM      6  C   UNL     1     -27.609  21.928 -33.655  1.00  0.00     0.012 C 
ENDBRANCH   3   5
ENDBRANCH   1   3
BRANCH   1   7
ATOM      7  C   UNL     1     -24.582  19.598 -34.632  1.00  0.00     0.038 C 
BRANCH   7   8
ATOM      8  C   UNL     1     -23.206  19.966 -34.144  1.00  0.00    -0.034 C 
ATOM      9  C   UNL     1     -23.024  20.796 -33.112  1.00  0.00     0.004 C 
ENDBRANCH   7   8
ENDBRANCH   1   7
TORSDOF 4
ENDMDL
MODEL 7
REMARK VINA RESULT:    -3.716      8.102      9.858
REMARK INTER + INTRA:          -4.872
REMARK INTER:                  -4.448
REMARK INTRA:                  -0.424
REMARK UNBOUND:                -0.288
REMARK SMILES C=CC[C@H](C)C(=O)CC
REMARK SMILES IDX 4 1 5 2 6 3 7 4 8 5 9 6 3 7 2 8 1 9
REMARK H PARENT
REMARK Flexibility Score: inf
ROOT
ATOM      1  C   UNL     1     -26.757  11.370 -29.171  1.00  0.00     0.057 C 
ATOM      2  C   UNL     1     -26.367  10.379 -28.065  1.00  0.00     0.016 C 
ENDROOT
BRANCH   1   3
ATOM      3  C   UNL     1     -27.823  10.762 -30.057  1.00  0.00     0.135 C 
ATOM      4  O   UNL     1     -27.516   9.899 -30.869  1.00  0.00    -0.299 OA
BRANCH   3   5
ATOM      5  C   UNL     1     -29.262  11.195 -29.956  1.00  0.00     0.072 C 
ATOM      6  C   UNL     1     -29.407  12.361 -28.983  1.00  0.00     0.012 C 
ENDBRANCH   3   5
ENDBRANCH   1   3
BRANCH   1   7
ATOM      7  C   UNL     1     -25.538  11.783 -30.023  1.00  0.00     0.038 C 
BRANCH   7   8
ATOM      8  C   UNL     1     -25.394  13.278 -30.132  1.00  0.00    -0.034 C 
ATOM      9  C   UNL     1     -26.312  14.031 -30.746  1.00  0.00     0.004 C 
ENDBRANCH   7   8
ENDBRANCH   1   7
TORSDOF 4
ENDMDL
MODEL 8
REMARK VINA RESULT:    -3.615     12.181     14.432
REMARK INTER + INTRA:          -4.748
REMARK INTER:                  -4.480
REMARK INTRA:                  -0.268
REMARK UNBOUND:                -0.288
REMARK SMILES C=CC[C@H](C)C(=O)CC
REMARK SMILES IDX 4 1 5 2 6 3 7 4 8 5 9 6 3 7 2 8 1 9
REMARK H PARENT
REMARK Flexibility Score: inf
ROOT
ATOM      1  C   UNL     1     -13.755  14.170 -31.884  1.00  0.00     0.057 C 
ATOM      2  C   UNL     1     -14.357  15.116 -30.835  1.00  0.00     0.016 C 
ENDROOT
BRANCH   1   3
ATOM      3  C   UNL     1     -14.479  12.841 -31.855  1.00  0.00     0.135 C 
ATOM      4  O   UNL     1     -14.102  11.961 -31.094  1.00  0.00    -0.299 OA
BRANCH   3   5
ATOM      5  C   UNL     1     -15.665  12.580 -32.746  1.00  0.00     0.072 C 
ATOM      6  C   UNL     1     -16.966  12.684 -31.957  1.00  0.00     0.012 C 
ENDBRANCH   3   5
ENDBRANCH   1   3
BRANCH   1   7
ATOM      7  C   UNL     1     -12.245  13.949 -31.654  1.00  0.00     0.038 C 
BRANCH   7   8
ATOM      8  C   UNL     1     -11.463  13.945 -32.941  1.00  0.00    -0.034 C 
ATOM      9  C   UNL     1     -11.137  12.808 -33.563  1.00  0.00     0.004 C 
ENDBRANCH   7   8
ENDBRANCH   1   7
TORSDOF 4
ENDMDL
MODEL 9
REMARK VINA RESULT:    -3.601      8.141      9.716
REMARK INTER + INTRA:          -4.731
REMARK INTER:                  -4.273
REMARK INTRA:                  -0.458
REMARK UNBOUND:                -0.288
REMARK SMILES C=CC[C@H](C)C(=O)CC
REMARK SMILES IDX 4 1 5 2 6 3 7 4 8 5 9 6 3 7 2 8 1 9
REMARK H PARENT
REMARK Flexibility Score: inf
ROOT
ATOM      1  C   UNL     1     -28.103  12.068 -30.172  1.00  0.00     0.057 C 
ATOM      2  C   UNL     1     -29.479  12.308 -29.535  1.00  0.00     0.016 C 
ENDROOT
BRANCH   1   3
ATOM      3  C   UNL     1     -27.524  10.760 -29.674  1.00  0.00     0.135 C 
ATOM      4  O   UNL     1     -27.224   9.886 -30.475  1.00  0.00    -0.299 OA
BRANCH   3   5
ATOM      5  C   UNL     1     -27.305  10.513 -28.204  1.00  0.00     0.072 C 
ATOM      6  C   UNL     1     -25.823  10.314 -27.906  1.00  0.00     0.012 C 
ENDBRANCH   3   5
ENDBRANCH   1   3
BRANCH   1   7
ATOM      7  C   UNL     1     -27.124  13.222 -29.871  1.00  0.00     0.038 C 
BRANCH   7   8
ATOM      8  C   UNL     1     -25.887  13.165 -30.728  1.00  0.00    -0.034 C 
ATOM      9  C   UNL     1     -24.665  13.084 -30.195  1.00  0.00     0.004 C 
ENDBRANCH   7   8
ENDBRANCH   1   7
TORSDOF 4
ENDMDL
