MODEL 1
REMARK VINA RESULT:    -5.492      0.000      0.000
REMARK INTER + INTRA:          -8.698
REMARK INTER:                  -8.382
REMARK INTRA:                  -0.316
REMARK UNBOUND:                -0.316
REMARK SMILES CC1=CCC[C@@H](C)C(=O)C[C@@H](C(C)C)C(=O)C1
REMARK SMILES IDX 8 1 9 2 6 3 7 4 5 5 4 6 3 7 2 8 1 9 10 11 11 12 15 13 16 14
REMARK SMILES IDX 17 15 12 17 13 18 14 19
REMARK H PARENT
REMARK Flexibility Score: 70.00
ROOT
ATOM      1  C   UNL     1      -2.121  11.400  21.791  1.00  0.00     0.136 C 
ATOM      2  O   UNL     1      -2.381  10.437  22.499  1.00  0.00    -0.299 OA
ENDROOT
BRANCH   1   3
ATOM      3  C   UNL     1      -3.167  12.466  21.550  1.00  0.00     0.053 C 
ATOM      4  C   UNL     1      -3.114  12.906  20.082  1.00  0.00     0.016 C 
BRANCH   3   5
ATOM      5  C   UNL     1      -2.999  13.689  22.481  1.00  0.00     0.015 C 
BRANCH   5   6
ATOM      6  C   UNL     1      -2.370  14.914  21.788  1.00  0.00     0.028 C 
BRANCH   6   7
ATOM      7  C   UNL     1      -1.194  15.454  22.572  1.00  0.00    -0.028 C 
ATOM      8  C   UNL     1       0.104  15.097  22.423  1.00  0.00    -0.070 CG0
ATOM      9  C   UNL     1       1.120  15.737  23.334  1.00  0.00     0.039 C 
ATOM     10  G   UNL     1       0.600  14.148  21.350  1.00  0.00     0.000 G0
ENDBRANCH   6   7
ENDBRANCH   5   6
ENDBRANCH   3   5
ENDBRANCH   1   3
BRANCH   1  11
ATOM     11  C   UNL     1      -0.742  11.528  21.192  1.00  0.00     0.087 C 
BRANCH  11  12
ATOM     12  C   UNL     1       0.350  11.693  22.275  1.00  0.00     0.066 C 
BRANCH  12  13
ATOM     13  C   UNL     1       1.206  12.913  21.988  1.00  0.00     0.140 C 
ATOM     14  O   UNL     1       2.401  12.894  22.246  1.00  0.00    -0.299 OA
BRANCH  13  15
ATOM     15  C   UNL     1       0.620  14.147  21.357  1.00  0.00     0.106 CG0
ATOM     16  G   UNL     1       0.097  15.081  22.430  1.00  0.00     0.000 G0
ENDBRANCH  13  15
ENDBRANCH  12  13
BRANCH  12  17
ATOM     17  C   UNL     1       1.234  10.422  22.478  1.00  0.00    -0.006 C 
ATOM     18  C   UNL     1       1.056   9.831  23.887  1.00  0.00     0.008 C 
ATOM     19  C   UNL     1       1.011   9.325  21.422  1.00  0.00     0.008 C 
ENDBRANCH  12  17
ENDBRANCH  11  12
ENDBRANCH   1  11
TORSDOF 1
ENDMDL
MODEL 2
REMARK VINA RESULT:    -5.490      1.974      5.346
REMARK INTER + INTRA:          -8.694
REMARK INTER:                  -8.406
REMARK INTRA:                  -0.288
REMARK UNBOUND:                -0.316
REMARK SMILES CC1=CCC[C@@H](C)C(=O)C[C@@H](C(C)C)C(=O)C1
REMARK SMILES IDX 8 1 9 2 6 3 7 4 5 5 4 6 3 7 2 8 1 9 10 11 11 12 15 13 16 14
REMARK SMILES IDX 17 15 12 17 13 18 14 19
REMARK H PARENT
REMARK Flexibility Score: 70.00
ROOT
ATOM      1  C   UNL     1       2.313  13.601  21.816  1.00  0.00     0.136 C 
ATOM      2  O   UNL     1       2.594  14.548  22.537  1.00  0.00    -0.299 OA
ENDROOT
BRANCH   1   3
ATOM      3  C   UNL     1       3.325  12.502  21.581  1.00  0.00     0.053 C 
ATOM      4  C   UNL     1       3.255  12.053  20.117  1.00  0.00     0.016 C 
BRANCH   3   5
ATOM      5  C   UNL     1       3.123  11.292  22.522  1.00  0.00     0.015 C 
BRANCH   5   6
ATOM      6  C   UNL     1       2.548  10.048  21.818  1.00  0.00     0.028 C 
BRANCH   6   7
ATOM      7  C   UNL     1       1.338   9.506  22.546  1.00  0.00    -0.028 C 
ATOM      8  C   UNL     1       0.053   9.897  22.373  1.00  0.00    -0.070 CG0
ATOM      9  C   UNL     1      -1.004   9.246  23.229  1.00  0.00     0.039 C 
ATOM     10  G   UNL     1      -0.391  10.897  21.323  1.00  0.00     0.000 G0
ENDBRANCH   6   7
ENDBRANCH   5   6
ENDBRANCH   3   5
ENDBRANCH   1   3
BRANCH   1  11
ATOM     11  C   UNL     1       0.940  13.526  21.194  1.00  0.00     0.087 C 
BRANCH  11  12
ATOM     12  C   UNL     1      -0.171  13.347  22.256  1.00  0.00     0.066 C 
BRANCH  12  13
ATOM     13  C   UNL     1      -1.005  12.115  21.953  1.00  0.00     0.140 C 
ATOM     14  O   UNL     1      -2.201  12.112  22.206  1.00  0.00    -0.299 OA
BRANCH  13  15
ATOM     15  C   UNL     1      -0.395  10.898  21.311  1.00  0.00     0.106 CG0
ATOM     16  G   UNL     1       0.041   9.913  22.377  1.00  0.00     0.000 G0
ENDBRANCH  13  15
ENDBRANCH  12  13
BRANCH  12  17
ATOM     17  C   UNL     1      -1.075  14.606  22.442  1.00  0.00    -0.006 C 
ATOM     18  C   UNL     1      -0.946  15.189  23.859  1.00  0.00     0.008 C 
ATOM     19  C   UNL     1      -0.835  15.712  21.400  1.00  0.00     0.008 C 
ENDBRANCH  12  17
ENDBRANCH  11  12
ENDBRANCH   1  11
TORSDOF 1
ENDMDL
MODEL 3
REMARK VINA RESULT:    -5.455      2.007      4.311
REMARK INTER + INTRA:          -8.642
REMARK INTER:                  -8.401
REMARK INTRA:                  -0.241
REMARK UNBOUND:                -0.316
REMARK SMILES CC1=CCC[C@@H](C)C(=O)C[C@@H](C(C)C)C(=O)C1
REMARK SMILES IDX 8 1 9 2 6 3 7 4 5 5 4 6 3 7 2 8 1 9 10 11 11 12 15 13 16 14
REMARK SMILES IDX 17 15 12 17 13 18 14 19
REMARK H PARENT
REMARK Flexibility Score: 70.00
ROOT
ATOM      1  C   UNL     1       1.036   9.825  22.865  1.00  0.00     0.136 C 
ATOM      2  O   UNL     1       1.827   9.469  23.727  1.00  0.00    -0.299 OA
ENDROOT
BRANCH   1   3
ATOM      3  C   UNL     1       1.194   9.331  21.444  1.00  0.00     0.053 C 
ATOM      4  C   UNL     1       0.735   7.871  21.360  1.00  0.00     0.016 C 
BRANCH   3   5
ATOM      5  C   UNL     1       2.643   9.467  20.922  1.00  0.00     0.015 C 
BRANCH   5   6
ATOM      6  C   UNL     1       2.862  10.691  20.012  1.00  0.00     0.028 C 
BRANCH   6   7
ATOM      7  C   UNL     1       3.274  11.909  20.808  1.00  0.00    -0.028 C 
ATOM      8  C   UNL     1       2.504  12.989  21.084  1.00  0.00    -0.070 CG0
ATOM      9  C   UNL     1       3.124  14.115  21.871  1.00  0.00     0.039 C 
ATOM     10  G   UNL     1       1.039  13.097  20.711  1.00  0.00     0.000 G0
ENDBRANCH   6   7
ENDBRANCH   5   6
ENDBRANCH   3   5
ENDBRANCH   1   3
BRANCH   1  11
ATOM     11  C   UNL     1      -0.113  10.728  23.241  1.00  0.00     0.087 C 
BRANCH  11  12
ATOM     12  C   UNL     1      -0.628  11.547  22.033  1.00  0.00     0.066 C 
BRANCH  12  13
ATOM     13  C   UNL     1       0.148  12.845  21.900  1.00  0.00     0.140 C 
ATOM     14  O   UNL     1       0.089  13.685  22.786  1.00  0.00    -0.299 OA
BRANCH  13  15
ATOM     15  C   UNL     1       1.024  13.112  20.705  1.00  0.00     0.106 CG0
ATOM     16  G   UNL     1       2.484  12.998  21.095  1.00  0.00     0.000 G0
ENDBRANCH  13  15
ENDBRANCH  12  13
BRANCH  12  17
ATOM     17  C   UNL     1      -2.166  11.813  22.062  1.00  0.00    -0.006 C 
ATOM     18  C   UNL     1      -2.679  12.303  20.697  1.00  0.00     0.008 C 
ATOM     19  C   UNL     1      -3.004  10.611  22.531  1.00  0.00     0.008 C 
ENDBRANCH  12  17
ENDBRANCH  11  12
ENDBRANCH   1  11
TORSDOF 1
ENDMDL
MODEL 4
REMARK VINA RESULT:    -5.421      1.894      3.991
REMARK INTER + INTRA:          -8.590
REMARK INTER:                  -8.127
REMARK INTRA:                  -0.463
REMARK UNBOUND:                -0.316
REMARK SMILES CC1=CCC[C@@H](C)C(=O)C[C@@H](C(C)C)C(=O)C1
REMARK SMILES IDX 8 1 9 2 6 3 7 4 5 5 4 6 3 7 2 8 1 9 10 11 11 12 15 13 16 14
REMARK SMILES IDX 17 15 12 17 13 18 14 19
REMARK H PARENT
REMARK Flexibility Score: 70.00
ROOT
ATOM      1  C   UNL     1      -0.114  11.698  21.106  1.00  0.00     0.136 C 
ATOM      2  O   UNL     1       0.265  10.549  21.284  1.00  0.00    -0.299 OA
ENDROOT
BRANCH   1   3
ATOM      3  C   UNL     1       0.644  12.606  20.163  1.00  0.00     0.053 C 
ATOM      4  C   UNL     1       0.683  11.970  18.769  1.00  0.00     0.016 C 
BRANCH   3   5
ATOM      5  C   UNL     1       2.078  12.912  20.651  1.00  0.00     0.015 C 
BRANCH   5   6
ATOM      6  C   UNL     1       2.171  13.192  22.164  1.00  0.00     0.028 C 
BRANCH   6   7
ATOM      7  C   UNL     1       1.956  14.656  22.474  1.00  0.00    -0.028 C 
ATOM      8  C   UNL     1       0.863  15.203  23.057  1.00  0.00    -0.070 CG0
ATOM      9  C   UNL     1       0.838  16.699  23.247  1.00  0.00     0.039 C 
ATOM     10  G   UNL     1      -0.301  14.393  23.593  1.00  0.00     0.000 G0
ENDBRANCH   6   7
ENDBRANCH   5   6
ENDBRANCH   3   5
ENDBRANCH   1   3
BRANCH   1  11
ATOM     11  C   UNL     1      -1.358  12.185  21.808  1.00  0.00     0.087 C 
BRANCH  11  12
ATOM     12  C   UNL     1      -1.673  13.663  21.474  1.00  0.00     0.066 C 
BRANCH  12  13
ATOM     13  C   UNL     1      -1.513  14.534  22.707  1.00  0.00     0.140 C 
ATOM     14  O   UNL     1      -2.381  15.346  22.996  1.00  0.00    -0.299 OA
BRANCH  13  15
ATOM     15  C   UNL     1      -0.317  14.398  23.610  1.00  0.00     0.106 CG0
ATOM     16  G   UNL     1       0.842  15.205  23.061  1.00  0.00     0.000 G0
ENDBRANCH  13  15
ENDBRANCH  12  13
BRANCH  12  17
ATOM     17  C   UNL     1      -3.071  13.876  20.813  1.00  0.00    -0.006 C 
ATOM     18  C   UNL     1      -2.993  14.858  19.632  1.00  0.00     0.008 C 
ATOM     19  C   UNL     1      -3.759  12.575  20.363  1.00  0.00     0.008 C 
ENDBRANCH  12  17
ENDBRANCH  11  12
ENDBRANCH   1  11
TORSDOF 1
ENDMDL
MODEL 5
REMARK VINA RESULT:    -5.363      2.187      3.880
REMARK INTER + INTRA:          -8.500
REMARK INTER:                  -8.300
REMARK INTRA:                  -0.200
REMARK UNBOUND:                -0.316
REMARK SMILES CC1=CCC[C@@H](C)C(=O)C[C@@H](C(C)C)C(=O)C1
REMARK SMILES IDX 8 1 9 2 6 3 7 4 5 5 4 6 3 7 2 8 1 9 10 11 11 12 15 13 16 14
REMARK SMILES IDX 17 15 12 17 13 18 14 19
REMARK H PARENT
REMARK Flexibility Score: 70.00
ROOT
ATOM      1  C   UNL     1      -1.057  15.204  22.954  1.00  0.00     0.136 C 
ATOM      2  O   UNL     1      -1.811  15.621  23.822  1.00  0.00    -0.299 OA
ENDROOT
BRANCH   1   3
ATOM      3  C   UNL     1      -1.022  15.874  21.598  1.00  0.00     0.053 C 
ATOM      4  C   UNL     1      -0.420  17.277  21.742  1.00  0.00     0.016 C 
BRANCH   3   5
ATOM      5  C   UNL     1      -2.416  15.957  20.936  1.00  0.00     0.015 C 
BRANCH   5   6
ATOM      6  C   UNL     1      -2.910  14.614  20.363  1.00  0.00     0.028 C 
BRANCH   6   7
ATOM      7  C   UNL     1      -1.919  14.030  19.381  1.00  0.00    -0.028 C 
ATOM      8  C   UNL     1      -1.177  12.910  19.557  1.00  0.00    -0.070 CG0
ATOM      9  C   UNL     1      -0.221  12.518  18.459  1.00  0.00     0.039 C 
ATOM     10  G   UNL     1      -1.306  11.993  20.757  1.00  0.00     0.000 G0
ENDBRANCH   6   7
ENDBRANCH   5   6
ENDBRANCH   3   5
ENDBRANCH   1   3
BRANCH   1  11
ATOM     11  C   UNL     1      -0.144  14.042  23.260  1.00  0.00     0.087 C 
BRANCH  11  12
ATOM     12  C   UNL     1       0.502  13.458  21.982  1.00  0.00     0.066 C 
BRANCH  12  13
ATOM     13  C   UNL     1      -0.099  12.104  21.650  1.00  0.00     0.140 C 
ATOM     14  O   UNL     1       0.377  11.090  22.138  1.00  0.00    -0.299 OA
BRANCH  13  15
ATOM     15  C   UNL     1      -1.302  11.983  20.753  1.00  0.00     0.106 CG0
ATOM     16  G   UNL     1      -1.153  12.902  19.558  1.00  0.00     0.000 G0
ENDBRANCH  13  15
ENDBRANCH  12  13
BRANCH  12  17
ATOM     17  C   UNL     1       2.060  13.381  22.042  1.00  0.00    -0.006 C 
ATOM     18  C   UNL     1       2.659  12.992  20.680  1.00  0.00     0.008 C 
ATOM     19  C   UNL     1       2.735  14.663  22.560  1.00  0.00     0.008 C 
ENDBRANCH  12  17
ENDBRANCH  11  12
ENDBRANCH   1  11
TORSDOF 1
ENDMDL
MODEL 6
REMARK VINA RESULT:    -5.344      2.507      4.004
REMARK INTER + INTRA:          -8.472
REMARK INTER:                  -8.046
REMARK INTRA:                  -0.427
REMARK UNBOUND:                -0.316
REMARK SMILES CC1=CCC[C@@H](C)C(=O)C[C@@H](C(C)C)C(=O)C1
REMARK SMILES IDX 8 1 9 2 6 3 7 4 5 5 4 6 3 7 2 8 1 9 10 11 11 12 15 13 16 14
REMARK SMILES IDX 17 15 12 17 13 18 14 19
REMARK H PARENT
REMARK Flexibility Score: 70.00
ROOT
ATOM      1  C   UNL     1       0.138  13.380  21.072  1.00  0.00     0.136 C 
ATOM      2  O   UNL     1      -0.242  14.529  21.248  1.00  0.00    -0.299 OA
ENDROOT
BRANCH   1   3
ATOM      3  C   UNL     1      -0.663  12.445  20.193  1.00  0.00     0.053 C 
ATOM      4  C   UNL     1      -0.589  12.927  18.740  1.00  0.00     0.016 C 
BRANCH   3   5
ATOM      5  C   UNL     1      -2.138  12.322  20.641  1.00  0.00     0.015 C 
BRANCH   5   6
ATOM      6  C   UNL     1      -2.305  11.898  22.113  1.00  0.00     0.028 C 
BRANCH   6   7
ATOM      7  C   UNL     1      -1.986  10.433  22.310  1.00  0.00    -0.028 C 
ATOM      8  C   UNL     1      -0.893   9.923  22.928  1.00  0.00    -0.070 CG0
ATOM      9  C   UNL     1      -0.752   8.423  22.987  1.00  0.00     0.039 C 
ATOM     10  G   UNL     1       0.155  10.769  23.621  1.00  0.00     0.000 G0
ENDBRANCH   6   7
ENDBRANCH   5   6
ENDBRANCH   3   5
ENDBRANCH   1   3
BRANCH   1  11
ATOM     11  C   UNL     1       1.426  12.920  21.710  1.00  0.00     0.087 C 
BRANCH  11  12
ATOM     12  C   UNL     1       1.661  11.403  21.516  1.00  0.00     0.066 C 
BRANCH  12  13
ATOM     13  C   UNL     1       1.466  10.660  22.825  1.00  0.00     0.140 C 
ATOM     14  O   UNL     1       2.374   9.981  23.282  1.00  0.00    -0.299 OA
BRANCH  13  15
ATOM     15  C   UNL     1       0.179  10.767  23.599  1.00  0.00     0.106 CG0
ATOM     16  G   UNL     1      -0.899   9.938  22.931  1.00  0.00     0.000 G0
ENDBRANCH  13  15
ENDBRANCH  12  13
BRANCH  12  17
ATOM     17  C   UNL     1       3.042  11.056  20.874  1.00  0.00    -0.006 C 
ATOM     18  C   UNL     1       2.911   9.943  19.821  1.00  0.00     0.008 C 
ATOM     19  C   UNL     1       3.774  12.265  20.265  1.00  0.00     0.008 C 
ENDBRANCH  12  17
ENDBRANCH  11  12
ENDBRANCH   1  11
TORSDOF 1
ENDMDL
MODEL 7
REMARK VINA RESULT:    -5.297      1.989      4.734
REMARK INTER + INTRA:          -8.401
REMARK INTER:                  -8.129
REMARK INTRA:                  -0.272
REMARK UNBOUND:                -0.316
REMARK SMILES CC1=CCC[C@@H](C)C(=O)C[C@@H](C(C)C)C(=O)C1
REMARK SMILES IDX 8 1 9 2 6 3 7 4 5 5 4 6 3 7 2 8 1 9 10 11 11 12 15 13 16 14
REMARK SMILES IDX 17 15 12 17 13 18 14 19
REMARK H PARENT
REMARK Flexibility Score: 70.00
ROOT
ATOM      1  C   UNL     1      -0.386  10.955  22.123  1.00  0.00     0.136 C 
ATOM      2  O   UNL     1      -1.239  11.115  21.261  1.00  0.00    -0.299 OA
ENDROOT
BRANCH   1   3
ATOM      3  C   UNL     1       0.093   9.561  22.463  1.00  0.00     0.053 C 
ATOM      4  C   UNL     1       0.881   9.603  23.778  1.00  0.00     0.016 C 
BRANCH   3   5
ATOM      5  C   UNL     1       0.955   8.935  21.343  1.00  0.00     0.015 C 
BRANCH   5   6
ATOM      6  C   UNL     1       2.469   9.147  21.534  1.00  0.00     0.028 C 
BRANCH   6   7
ATOM      7  C   UNL     1       3.024  10.134  20.531  1.00  0.00    -0.028 C 
ATOM      8  C   UNL     1       3.308  11.439  20.759  1.00  0.00    -0.070 CG0
ATOM      9  C   UNL     1       3.826  12.260  19.605  1.00  0.00     0.039 C 
ATOM     10  G   UNL     1       3.204  12.100  22.119  1.00  0.00     0.000 G0
ENDBRANCH   6   7
ENDBRANCH   5   6
ENDBRANCH   3   5
ENDBRANCH   1   3
BRANCH   1  11
ATOM     11  C   UNL     1       0.203  12.160  22.814  1.00  0.00     0.087 C 
BRANCH  11  12
ATOM     12  C   UNL     1       0.808  13.169  21.810  1.00  0.00     0.066 C 
BRANCH  12  13
ATOM     13  C   UNL     1       2.301  13.320  22.038  1.00  0.00     0.140 C 
ATOM     14  O   UNL     1       2.786  14.432  22.188  1.00  0.00    -0.299 OA
BRANCH  13  15
ATOM     15  C   UNL     1       3.204  12.118  22.117  1.00  0.00     0.106 CG0
ATOM     16  G   UNL     1       3.313  11.459  20.757  1.00  0.00     0.000 G0
ENDBRANCH  13  15
ENDBRANCH  12  13
BRANCH  12  17
ATOM     17  C   UNL     1       0.098  14.559  21.807  1.00  0.00    -0.006 C 
ATOM     18  C   UNL     1      -1.123  14.568  20.871  1.00  0.00     0.008 C 
ATOM     19  C   UNL     1      -0.315  15.058  23.204  1.00  0.00     0.008 C 
ENDBRANCH  12  17
ENDBRANCH  11  12
ENDBRANCH   1  11
TORSDOF 1
ENDMDL
MODEL 8
REMARK VINA RESULT:    -5.177      1.689      3.850
REMARK INTER + INTRA:          -8.218
REMARK INTER:                  -8.068
REMARK INTRA:                  -0.150
REMARK UNBOUND:                -0.316
REMARK SMILES CC1=CCC[C@@H](C)C(=O)C[C@@H](C(C)C)C(=O)C1
REMARK SMILES IDX 8 1 9 2 6 3 7 4 5 5 4 6 3 7 2 8 1 9 10 11 11 12 15 13 16 14
REMARK SMILES IDX 17 15 12 17 13 18 14 19
REMARK H PARENT
REMARK Flexibility Score: 70.00
ROOT
ATOM      1  C   UNL     1       0.272  14.311  22.416  1.00  0.00     0.136 C 
ATOM      2  O   UNL     1       1.118  14.188  21.541  1.00  0.00    -0.299 OA
ENDROOT
BRANCH   1   3
ATOM      3  C   UNL     1      -0.121  15.690  22.899  1.00  0.00     0.053 C 
ATOM      4  C   UNL     1      -1.122  15.556  24.052  1.00  0.00     0.016 C 
BRANCH   3   5
ATOM      5  C   UNL     1      -0.714  16.571  21.775  1.00  0.00     0.015 C 
BRANCH   5   6
ATOM      6  C   UNL     1      -2.205  16.300  21.498  1.00  0.00     0.028 C 
BRANCH   6   7
ATOM      7  C   UNL     1      -2.392  15.373  20.317  1.00  0.00    -0.028 C 
ATOM      8  C   UNL     1      -2.788  14.078  20.366  1.00  0.00    -0.070 CG0
ATOM      9  C   UNL     1      -2.879  13.319  19.066  1.00  0.00     0.039 C 
ATOM     10  G   UNL     1      -3.210  13.373  21.639  1.00  0.00     0.000 G0
ENDBRANCH   6   7
ENDBRANCH   5   6
ENDBRANCH   3   5
ENDBRANCH   1   3
BRANCH   1  11
ATOM     11  C   UNL     1      -0.396  13.081  22.979  1.00  0.00     0.087 C 
BRANCH  11  12
ATOM     12  C   UNL     1      -0.897  12.130  21.867  1.00  0.00     0.066 C 
BRANCH  12  13
ATOM     13  C   UNL     1      -2.415  12.107  21.829  1.00  0.00     0.140 C 
ATOM     14  O   UNL     1      -3.012  11.050  21.978  1.00  0.00    -0.299 OA
BRANCH  13  15
ATOM     15  C   UNL     1      -3.210  13.370  21.643  1.00  0.00     0.106 CG0
ATOM     16  G   UNL     1      -2.775  14.077  20.375  1.00  0.00     0.000 G0
ENDBRANCH  13  15
ENDBRANCH  12  13
BRANCH  12  17
ATOM     17  C   UNL     1      -0.316  10.684  21.963  1.00  0.00    -0.006 C 
ATOM     18  C   UNL     1       0.893  10.499  21.030  1.00  0.00     0.008 C 
ATOM     19  C   UNL     1       0.058  10.250  23.391  1.00  0.00     0.008 C 
ENDBRANCH  12  17
ENDBRANCH  11  12
ENDBRANCH   1  11
TORSDOF 1
ENDMDL
MODEL 9
REMARK VINA RESULT:    -5.064      1.974      4.424
REMARK INTER + INTRA:          -8.045
REMARK INTER:                  -7.677
REMARK INTRA:                  -0.368
REMARK UNBOUND:                -0.316
REMARK SMILES CC1=CCC[C@@H](C)C(=O)C[C@@H](C(C)C)C(=O)C1
REMARK SMILES IDX 8 1 9 2 6 3 7 4 5 5 4 6 3 7 2 8 1 9 10 11 11 12 15 13 16 14
REMARK SMILES IDX 17 15 12 17 13 18 14 19
REMARK H PARENT
REMARK Flexibility Score: 70.00
ROOT
ATOM      1  C   UNL     1       1.222  11.452  21.041  1.00  0.00     0.136 C 
ATOM      2  O   UNL     1       1.877  10.759  20.276  1.00  0.00    -0.299 OA
ENDROOT
BRANCH   1   3
ATOM      3  C   UNL     1       0.779  10.894  22.376  1.00  0.00     0.053 C 
ATOM      4  C   UNL     1       1.922  10.075  22.986  1.00  0.00     0.016 C 
BRANCH   3   5
ATOM      5  C   UNL     1      -0.499  10.032  22.269  1.00  0.00     0.015 C 
BRANCH   5   6
ATOM      6  C   UNL     1      -1.747  10.695  22.882  1.00  0.00     0.028 C 
BRANCH   6   7
ATOM      7  C   UNL     1      -2.693  11.196  21.814  1.00  0.00    -0.028 C 
ATOM      8  C   UNL     1      -2.995  12.489  21.548  1.00  0.00    -0.070 CG0
ATOM      9  C   UNL     1      -3.994  12.770  20.454  1.00  0.00     0.039 C 
ATOM     10  G   UNL     1      -2.335  13.668  22.235  1.00  0.00     0.000 G0
ENDBRANCH   6   7
ENDBRANCH   5   6
ENDBRANCH   3   5
ENDBRANCH   1   3
BRANCH   1  11
ATOM     11  C   UNL     1       0.890  12.872  20.654  1.00  0.00     0.087 C 
BRANCH  11  12
ATOM     12  C   UNL     1       0.256  13.661  21.825  1.00  0.00     0.066 C 
BRANCH  12  13
ATOM     13  C   UNL     1      -1.139  14.132  21.457  1.00  0.00     0.140 C 
ATOM     14  O   UNL     1      -1.298  14.875  20.498  1.00  0.00    -0.299 OA
BRANCH  13  15
ATOM     15  C   UNL     1      -2.347  13.677  22.231  1.00  0.00     0.106 CG0
ATOM     16  G   UNL     1      -2.989  12.490  21.541  1.00  0.00     0.000 G0
ENDBRANCH  13  15
ENDBRANCH  12  13
BRANCH  12  17
ATOM     17  C   UNL     1       1.134  14.847  22.334  1.00  0.00    -0.006 C 
ATOM     18  C   UNL     1       0.507  15.525  23.564  1.00  0.00     0.008 C 
ATOM     19  C   UNL     1       2.593  14.465  22.638  1.00  0.00     0.008 C 
ENDBRANCH  12  17
ENDBRANCH  11  12
ENDBRANCH   1  11
TORSDOF 1
ENDMDL
