MODEL 1
REMARK VINA RESULT:    -5.260      0.000      0.000
REMARK INTER + INTRA:         -10.104
REMARK INTER:                  -8.950
REMARK INTRA:                  -1.153
REMARK UNBOUND:                -1.153
REMARK SMILES CCCCCCCCCCCCCC(=O)[O-]
REMARK SMILES IDX 8 1 9 2 10 3 11 4 12 5 13 6 14 7 15 8 16 9 7 10 6 11 5 12
REMARK SMILES IDX 4 13 3 14 2 15 1 16
REMARK H PARENT
REMARK Flexibility Score: inf
ROOT
ATOM      1  C   UNL     1      45.553  46.911  46.670  1.00  0.00     0.000 C 
ENDROOT
BRANCH   1   2
ATOM      2  C   UNL     1      44.393  45.963  46.311  1.00  0.00     0.000 C 
BRANCH   2   3
ATOM      3  C   UNL     1      43.985  45.965  44.823  1.00  0.00     0.000 C 
BRANCH   3   4
ATOM      4  C   UNL     1      45.125  45.664  43.832  1.00  0.00     0.000 C 
BRANCH   4   5
ATOM      5  C   UNL     1      44.676  45.139  42.453  1.00  0.00     0.006 C 
BRANCH   5   6
ATOM      6  C   UNL     1      43.170  45.309  42.180  1.00  0.00     0.053 C 
BRANCH   6   7
ATOM      7  C   UNL     1      42.864  45.479  40.723  1.00  0.00     0.041 C 
ATOM      8  O   UNL     1      41.846  46.125  40.359  1.00  0.00    -0.550 OA
ATOM      9  O   UNL     1      43.682  44.891  39.765  1.00  0.00    -0.550 OA
ENDBRANCH   6   7
ENDBRANCH   5   6
ENDBRANCH   4   5
ENDBRANCH   3   4
ENDBRANCH   2   3
ENDBRANCH   1   2
BRANCH   1  10
ATOM     10  C   UNL     1      45.400  47.652  48.014  1.00  0.00     0.000 C 
BRANCH  10  11
ATOM     11  C   UNL     1      46.151  47.014  49.198  1.00  0.00    -0.000 C 
BRANCH  11  12
ATOM     12  C   UNL     1      45.392  45.876  49.909  1.00  0.00    -0.000 C 
BRANCH  12  13
ATOM     13  C   UNL     1      46.202  44.567  50.026  1.00  0.00    -0.000 C 
BRANCH  13  14
ATOM     14  C   UNL     1      46.206  43.758  48.717  1.00  0.00    -0.000 C 
BRANCH  14  15
ATOM     15  C   UNL     1      47.623  43.538  48.165  1.00  0.00    -0.003 C 
ATOM     16  C   UNL     1      47.780  44.038  46.729  1.00  0.00     0.004 C 
ENDBRANCH  14  15
ENDBRANCH  13  14
ENDBRANCH  12  13
ENDBRANCH  11  12
ENDBRANCH  10  11
ENDBRANCH   1  10
TORSDOF 12
ENDMDL
MODEL 2
REMARK VINA RESULT:    -5.256      3.523      7.885
REMARK INTER + INTRA:         -10.096
REMARK INTER:                  -9.493
REMARK INTRA:                  -0.602
REMARK UNBOUND:                -1.153
REMARK SMILES CCCCCCCCCCCCCC(=O)[O-]
REMARK SMILES IDX 8 1 9 2 10 3 11 4 12 5 13 6 14 7 15 8 16 9 7 10 6 11 5 12
REMARK SMILES IDX 4 13 3 14 2 15 1 16
REMARK H PARENT
REMARK Flexibility Score: inf
ROOT
ATOM      1  C   UNL     1      45.089  45.127  43.419  1.00  0.00     0.000 C 
ENDROOT
BRANCH   1   2
ATOM      2  C   UNL     1      44.659  45.785  44.745  1.00  0.00     0.000 C 
BRANCH   2   3
ATOM      3  C   UNL     1      45.668  45.637  45.903  1.00  0.00     0.000 C 
BRANCH   3   4
ATOM      4  C   UNL     1      46.105  46.958  46.564  1.00  0.00     0.000 C 
BRANCH   4   5
ATOM      5  C   UNL     1      45.325  47.348  47.835  1.00  0.00     0.006 C 
BRANCH   5   6
ATOM      6  C   UNL     1      45.554  46.397  49.025  1.00  0.00     0.053 C 
BRANCH   6   7
ATOM      7  C   UNL     1      44.529  45.307  49.098  1.00  0.00     0.041 C 
ATOM      8  O   UNL     1      44.834  44.178  49.563  1.00  0.00    -0.550 OA
ATOM      9  O   UNL     1      43.243  45.526  48.618  1.00  0.00    -0.550 OA
ENDBRANCH   6   7
ENDBRANCH   5   6
ENDBRANCH   4   5
ENDBRANCH   3   4
ENDBRANCH   2   3
ENDBRANCH   1   2
BRANCH   1  10
ATOM     10  C   UNL     1      44.073  45.258  42.266  1.00  0.00     0.000 C 
BRANCH  10  11
ATOM     11  C   UNL     1      42.606  45.422  42.705  1.00  0.00    -0.000 C 
BRANCH  11  12
ATOM     12  C   UNL     1      41.564  45.102  41.616  1.00  0.00    -0.000 C 
BRANCH  12  13
ATOM     13  C   UNL     1      41.883  45.734  40.244  1.00  0.00    -0.000 C 
BRANCH  13  14
ATOM     14  C   UNL     1      41.311  44.916  39.072  1.00  0.00    -0.000 C 
BRANCH  14  15
ATOM     15  C   UNL     1      42.391  44.498  38.063  1.00  0.00    -0.003 C 
ATOM     16  C   UNL     1      43.767  44.331  38.706  1.00  0.00     0.004 C 
ENDBRANCH  14  15
ENDBRANCH  13  14
ENDBRANCH  12  13
ENDBRANCH  11  12
ENDBRANCH  10  11
ENDBRANCH   1  10
TORSDOF 12
ENDMDL
MODEL 3
REMARK VINA RESULT:    -5.052      3.232      6.835
REMARK INTER + INTRA:          -9.750
REMARK INTER:                  -8.803
REMARK INTRA:                  -0.947
REMARK UNBOUND:                -1.153
REMARK SMILES CCCCCCCCCCCCCC(=O)[O-]
REMARK SMILES IDX 8 1 9 2 10 3 11 4 12 5 13 6 14 7 15 8 16 9 7 10 6 11 5 12
REMARK SMILES IDX 4 13 3 14 2 15 1 16
REMARK H PARENT
REMARK Flexibility Score: inf
ROOT
ATOM      1  C   UNL     1      44.323  46.803  47.052  1.00  0.00     0.000 C 
ENDROOT
BRANCH   1   2
ATOM      2  C   UNL     1      45.201  47.663  47.981  1.00  0.00     0.000 C 
BRANCH   2   3
ATOM      3  C   UNL     1      46.038  46.871  49.006  1.00  0.00     0.000 C 
BRANCH   3   4
ATOM      4  C   UNL     1      45.300  45.708  49.695  1.00  0.00     0.000 C 
BRANCH   4   5
ATOM      5  C   UNL     1      45.980  44.330  49.567  1.00  0.00     0.006 C 
BRANCH   5   6
ATOM      6  C   UNL     1      45.805  43.673  48.185  1.00  0.00     0.053 C 
BRANCH   6   7
ATOM      7  C   UNL     1      47.113  43.349  47.530  1.00  0.00     0.041 C 
ATOM      8  O   UNL     1      47.138  42.828  46.385  1.00  0.00    -0.550 OA
ATOM      9  O   UNL     1      48.306  43.589  48.201  1.00  0.00    -0.550 OA
ENDBRANCH   6   7
ENDBRANCH   5   6
ENDBRANCH   4   5
ENDBRANCH   3   4
ENDBRANCH   2   3
ENDBRANCH   1   2
BRANCH   1  10
ATOM     10  C   UNL     1      44.683  46.880  45.554  1.00  0.00     0.000 C 
BRANCH  10  11
ATOM     11  C   UNL     1      45.462  45.669  45.008  1.00  0.00    -0.000 C 
BRANCH  11  12
ATOM     12  C   UNL     1      44.871  45.041  43.731  1.00  0.00    -0.000 C 
BRANCH  12  13
ATOM     13  C   UNL     1      43.458  45.555  43.380  1.00  0.00    -0.000 C 
BRANCH  13  14
ATOM     14  C   UNL     1      43.171  45.503  41.869  1.00  0.00    -0.000 C 
BRANCH  14  15
ATOM     15  C   UNL     1      41.710  45.142  41.559  1.00  0.00    -0.003 C 
ATOM     16  C   UNL     1      41.403  45.161  40.063  1.00  0.00     0.004 C 
ENDBRANCH  14  15
ENDBRANCH  13  14
ENDBRANCH  12  13
ENDBRANCH  11  12
ENDBRANCH  10  11
ENDBRANCH   1  10
TORSDOF 12
ENDMDL
MODEL 4
REMARK VINA RESULT:    -5.026      2.943      5.584
REMARK INTER + INTRA:          -9.705
REMARK INTER:                  -8.373
REMARK INTRA:                  -1.331
REMARK UNBOUND:                -1.153
REMARK SMILES CCCCCCCCCCCCCC(=O)[O-]
REMARK SMILES IDX 8 1 9 2 10 3 11 4 12 5 13 6 14 7 15 8 16 9 7 10 6 11 5 12
REMARK SMILES IDX 4 13 3 14 2 15 1 16
REMARK H PARENT
REMARK Flexibility Score: inf
ROOT
ATOM      1  C   UNL     1      46.296  46.705  49.670  1.00  0.00     0.000 C 
ENDROOT
BRANCH   1   2
ATOM      2  C   UNL     1      45.214  45.643  49.943  1.00  0.00     0.000 C 
BRANCH   2   3
ATOM      3  C   UNL     1      45.742  44.205  50.124  1.00  0.00     0.000 C 
BRANCH   3   4
ATOM      4  C   UNL     1      46.689  43.710  49.015  1.00  0.00     0.000 C 
BRANCH   4   5
ATOM      5  C   UNL     1      46.054  43.582  47.616  1.00  0.00     0.006 C 
BRANCH   5   6
ATOM      6  C   UNL     1      47.044  43.153  46.517  1.00  0.00     0.053 C 
BRANCH   6   7
ATOM      7  C   UNL     1      46.867  41.722  46.108  1.00  0.00     0.041 C 
ATOM      8  O   UNL     1      47.582  40.822  46.620  1.00  0.00    -0.550 OA
ATOM      9  O   UNL     1      45.937  41.387  45.131  1.00  0.00    -0.550 OA
ENDBRANCH   6   7
ENDBRANCH   5   6
ENDBRANCH   4   5
ENDBRANCH   3   4
ENDBRANCH   2   3
ENDBRANCH   1   2
BRANCH   1  10
ATOM     10  C   UNL     1      45.933  47.746  48.591  1.00  0.00     0.000 C 
BRANCH  10  11
ATOM     11  C   UNL     1      45.835  47.192  47.158  1.00  0.00    -0.000 C 
BRANCH  11  12
ATOM     12  C   UNL     1      44.457  47.359  46.490  1.00  0.00    -0.000 C 
BRANCH  12  13
ATOM     13  C   UNL     1      43.859  46.039  45.955  1.00  0.00    -0.000 C 
BRANCH  13  14
ATOM     14  C   UNL     1      43.761  46.017  44.420  1.00  0.00    -0.000 C 
BRANCH  14  15
ATOM     15  C   UNL     1      44.952  45.303  43.763  1.00  0.00    -0.003 C 
ATOM     16  C   UNL     1      44.674  44.901  42.316  1.00  0.00     0.004 C 
ENDBRANCH  14  15
ENDBRANCH  13  14
ENDBRANCH  12  13
ENDBRANCH  11  12
ENDBRANCH  10  11
ENDBRANCH   1  10
TORSDOF 12
ENDMDL
MODEL 5
REMARK VINA RESULT:    -4.987      3.799      5.588
REMARK INTER + INTRA:          -9.638
REMARK INTER:                  -7.932
REMARK INTRA:                  -1.706
REMARK UNBOUND:                -1.153
REMARK SMILES CCCCCCCCCCCCCC(=O)[O-]
REMARK SMILES IDX 8 1 9 2 10 3 11 4 12 5 13 6 14 7 15 8 16 9 7 10 6 11 5 12
REMARK SMILES IDX 4 13 3 14 2 15 1 16
REMARK H PARENT
REMARK Flexibility Score: inf
ROOT
ATOM      1  C   UNL     1      45.526  43.915  48.731  1.00  0.00     0.000 C 
ENDROOT
BRANCH   1   2
ATOM      2  C   UNL     1      47.052  43.855  48.521  1.00  0.00     0.000 C 
BRANCH   2   3
ATOM      3  C   UNL     1      47.509  43.040  47.294  1.00  0.00     0.000 C 
BRANCH   3   4
ATOM      4  C   UNL     1      46.398  42.700  46.282  1.00  0.00     0.000 C 
BRANCH   4   5
ATOM      5  C   UNL     1      46.585  41.372  45.522  1.00  0.00     0.006 C 
BRANCH   5   6
ATOM      6  C   UNL     1      47.772  40.527  46.021  1.00  0.00     0.053 C 
BRANCH   6   7
ATOM      7  C   UNL     1      48.820  40.327  44.969  1.00  0.00     0.041 C 
ATOM      8  O   UNL     1      49.929  40.917  45.057  1.00  0.00    -0.550 OA
ATOM      9  O   UNL     1      48.559  39.517  43.871  1.00  0.00    -0.550 OA
ENDBRANCH   6   7
ENDBRANCH   5   6
ENDBRANCH   4   5
ENDBRANCH   3   4
ENDBRANCH   2   3
ENDBRANCH   1   2
BRANCH   1  10
ATOM     10  C   UNL     1      45.011  45.198  49.416  1.00  0.00     0.000 C 
BRANCH  10  11
ATOM     11  C   UNL     1      46.104  46.205  49.819  1.00  0.00    -0.000 C 
BRANCH  11  12
ATOM     12  C   UNL     1      46.097  47.524  49.023  1.00  0.00    -0.000 C 
BRANCH  12  13
ATOM     13  C   UNL     1      45.528  47.385  47.594  1.00  0.00    -0.000 C 
BRANCH  13  14
ATOM     14  C   UNL     1      46.623  47.115  46.548  1.00  0.00    -0.000 C 
BRANCH  14  15
ATOM     15  C   UNL     1      46.119  46.261  45.374  1.00  0.00    -0.003 C 
ATOM     16  C   UNL     1      44.624  45.958  45.464  1.00  0.00     0.004 C 
ENDBRANCH  14  15
ENDBRANCH  13  14
ENDBRANCH  12  13
ENDBRANCH  11  12
ENDBRANCH  10  11
ENDBRANCH   1  10
TORSDOF 12
ENDMDL
MODEL 6
REMARK VINA RESULT:    -4.982      1.765      2.801
REMARK INTER + INTRA:          -9.630
REMARK INTER:                  -8.137
REMARK INTRA:                  -1.493
REMARK UNBOUND:                -1.153
REMARK SMILES CCCCCCCCCCCCCC(=O)[O-]
REMARK SMILES IDX 8 1 9 2 10 3 11 4 12 5 13 6 14 7 15 8 16 9 7 10 6 11 5 12
REMARK SMILES IDX 4 13 3 14 2 15 1 16
REMARK H PARENT
REMARK Flexibility Score: inf
ROOT
ATOM      1  C   UNL     1      44.501  44.946  48.306  1.00  0.00     0.000 C 
ENDROOT
BRANCH   1   2
ATOM      2  C   UNL     1      44.227  46.096  47.318  1.00  0.00     0.000 C 
BRANCH   2   3
ATOM      3  C   UNL     1      45.486  46.765  46.730  1.00  0.00     0.000 C 
BRANCH   3   4
ATOM      4  C   UNL     1      45.645  46.634  45.204  1.00  0.00     0.000 C 
BRANCH   4   5
ATOM      5  C   UNL     1      44.764  45.556  44.541  1.00  0.00     0.006 C 
BRANCH   5   6
ATOM      6  C   UNL     1      45.020  45.380  43.032  1.00  0.00     0.053 C 
BRANCH   6   7
ATOM      7  C   UNL     1      43.755  45.377  42.229  1.00  0.00     0.041 C 
ATOM      8  O   UNL     1      42.637  45.354  42.806  1.00  0.00    -0.550 OA
ATOM      9  O   UNL     1      43.812  45.360  40.840  1.00  0.00    -0.550 OA
ENDBRANCH   6   7
ENDBRANCH   5   6
ENDBRANCH   4   5
ENDBRANCH   3   4
ENDBRANCH   2   3
ENDBRANCH   1   2
BRANCH   1  10
ATOM     10  C   UNL     1      45.887  44.982  48.982  1.00  0.00     0.000 C 
BRANCH  10  11
ATOM     11  C   UNL     1      46.675  43.660  48.924  1.00  0.00    -0.000 C 
BRANCH  11  12
ATOM     12  C   UNL     1      47.831  43.639  47.905  1.00  0.00    -0.000 C 
BRANCH  12  13
ATOM     13  C   UNL     1      47.367  43.495  46.440  1.00  0.00    -0.000 C 
BRANCH  13  14
ATOM     14  C   UNL     1      46.437  42.287  46.233  1.00  0.00    -0.000 C 
BRANCH  14  15
ATOM     15  C   UNL     1      47.124  41.137  45.481  1.00  0.00    -0.003 C 
ATOM     16  C   UNL     1      47.868  40.183  46.414  1.00  0.00     0.004 C 
ENDBRANCH  14  15
ENDBRANCH  13  14
ENDBRANCH  12  13
ENDBRANCH  11  12
ENDBRANCH  10  11
ENDBRANCH   1  10
TORSDOF 12
ENDMDL
MODEL 7
REMARK VINA RESULT:    -4.941      3.717      6.711
REMARK INTER + INTRA:          -9.560
REMARK INTER:                  -8.508
REMARK INTRA:                  -1.052
REMARK UNBOUND:                -1.153
REMARK SMILES CCCCCCCCCCCCCC(=O)[O-]
REMARK SMILES IDX 8 1 9 2 10 3 11 4 12 5 13 6 14 7 15 8 16 9 7 10 6 11 5 12
REMARK SMILES IDX 4 13 3 14 2 15 1 16
REMARK H PARENT
REMARK Flexibility Score: inf
ROOT
ATOM      1  C   UNL     1      43.969  45.622  47.929  1.00  0.00     0.000 C 
ENDROOT
BRANCH   1   2
ATOM      2  C   UNL     1      44.713  45.480  49.270  1.00  0.00     0.000 C 
BRANCH   2   3
ATOM      3  C   UNL     1      46.253  45.495  49.167  1.00  0.00     0.000 C 
BRANCH   3   4
ATOM      4  C   UNL     1      46.919  44.108  49.118  1.00  0.00     0.000 C 
BRANCH   4   5
ATOM      5  C   UNL     1      46.848  43.391  47.755  1.00  0.00     0.006 C 
BRANCH   5   6
ATOM      6  C   UNL     1      48.059  43.660  46.843  1.00  0.00     0.053 C 
BRANCH   6   7
ATOM      7  C   UNL     1      49.219  42.759  47.144  1.00  0.00     0.041 C 
ATOM      8  O   UNL     1      50.112  43.123  47.953  1.00  0.00    -0.550 OA
ATOM      9  O   UNL     1      49.333  41.532  46.501  1.00  0.00    -0.550 OA
ENDBRANCH   6   7
ENDBRANCH   5   6
ENDBRANCH   4   5
ENDBRANCH   3   4
ENDBRANCH   2   3
ENDBRANCH   1   2
BRANCH   1  10
ATOM     10  C   UNL     1      44.235  46.938  47.169  1.00  0.00     0.000 C 
BRANCH  10  11
ATOM     11  C   UNL     1      44.332  46.798  45.639  1.00  0.00    -0.000 C 
BRANCH  11  12
ATOM     12  C   UNL     1      45.244  45.657  45.148  1.00  0.00    -0.000 C 
BRANCH  12  13
ATOM     13  C   UNL     1      44.832  45.075  43.778  1.00  0.00    -0.000 C 
BRANCH  13  14
ATOM     14  C   UNL     1      43.441  45.558  43.329  1.00  0.00    -0.000 C 
BRANCH  14  15
ATOM     15  C   UNL     1      43.254  45.479  41.806  1.00  0.00    -0.003 C 
ATOM     16  C   UNL     1      41.810  45.186  41.404  1.00  0.00     0.004 C 
ENDBRANCH  14  15
ENDBRANCH  13  14
ENDBRANCH  12  13
ENDBRANCH  11  12
ENDBRANCH  10  11
ENDBRANCH   1  10
TORSDOF 12
ENDMDL
MODEL 8
REMARK VINA RESULT:    -4.898      9.400     10.907
REMARK INTER + INTRA:          -9.488
REMARK INTER:                  -7.601
REMARK INTRA:                  -1.886
REMARK UNBOUND:                -1.153
REMARK SMILES CCCCCCCCCCCCCC(=O)[O-]
REMARK SMILES IDX 8 1 9 2 10 3 11 4 12 5 13 6 14 7 15 8 16 9 7 10 6 11 5 12
REMARK SMILES IDX 4 13 3 14 2 15 1 16
REMARK H PARENT
REMARK Flexibility Score: inf
ROOT
ATOM      1  C   UNL     1      49.729  48.450  35.114  1.00  0.00     0.000 C 
ENDROOT
BRANCH   1   2
ATOM      2  C   UNL     1      48.419  47.639  35.127  1.00  0.00     0.000 C 
BRANCH   2   3
ATOM      3  C   UNL     1      48.543  46.192  34.607  1.00  0.00     0.000 C 
BRANCH   3   4
ATOM      4  C   UNL     1      48.163  45.096  35.620  1.00  0.00     0.000 C 
BRANCH   4   5
ATOM      5  C   UNL     1      48.806  43.718  35.371  1.00  0.00     0.006 C 
BRANCH   5   6
ATOM      6  C   UNL     1      47.837  42.534  35.548  1.00  0.00     0.053 C 
BRANCH   6   7
ATOM      7  C   UNL     1      46.963  42.320  34.349  1.00  0.00     0.041 C 
ATOM      8  O   UNL     1      45.724  42.148  34.489  1.00  0.00    -0.550 OA
ATOM      9  O   UNL     1      47.524  42.273  33.078  1.00  0.00    -0.550 OA
ENDBRANCH   6   7
ENDBRANCH   5   6
ENDBRANCH   4   5
ENDBRANCH   3   4
ENDBRANCH   2   3
ENDBRANCH   1   2
BRANCH   1  10
ATOM     10  C   UNL     1      50.344  48.722  36.502  1.00  0.00     0.000 C 
BRANCH  10  11
ATOM     11  C   UNL     1      49.398  48.474  37.693  1.00  0.00    -0.000 C 
BRANCH  11  12
ATOM     12  C   UNL     1      49.879  47.404  38.691  1.00  0.00    -0.000 C 
BRANCH  12  13
ATOM     13  C   UNL     1      51.239  46.772  38.320  1.00  0.00    -0.000 C 
BRANCH  13  14
ATOM     14  C   UNL     1      51.097  45.325  37.817  1.00  0.00    -0.000 C 
BRANCH  14  15
ATOM     15  C   UNL     1      52.236  44.916  36.870  1.00  0.00    -0.003 C 
ATOM     16  C   UNL     1      52.116  45.562  35.490  1.00  0.00     0.004 C 
ENDBRANCH  14  15
ENDBRANCH  13  14
ENDBRANCH  12  13
ENDBRANCH  11  12
ENDBRANCH  10  11
ENDBRANCH   1  10
TORSDOF 12
ENDMDL
MODEL 9
REMARK VINA RESULT:    -4.870     10.003     12.044
REMARK INTER + INTRA:          -9.439
REMARK INTER:                  -7.886
REMARK INTRA:                  -1.554
REMARK UNBOUND:                -1.153
REMARK SMILES CCCCCCCCCCCCCC(=O)[O-]
REMARK SMILES IDX 8 1 9 2 10 3 11 4 12 5 13 6 14 7 15 8 16 9 7 10 6 11 5 12
REMARK SMILES IDX 4 13 3 14 2 15 1 16
REMARK H PARENT
REMARK Flexibility Score: inf
ROOT
ATOM      1  C   UNL     1      49.523  45.516  34.600  1.00  0.00     0.000 C 
ENDROOT
BRANCH   1   2
ATOM      2  C   UNL     1      49.489  44.261  35.494  1.00  0.00     0.000 C 
BRANCH   2   3
ATOM      3  C   UNL     1      48.160  43.478  35.467  1.00  0.00     0.000 C 
BRANCH   3   4
ATOM      4  C   UNL     1      48.204  42.138  34.709  1.00  0.00     0.000 C 
BRANCH   4   5
ATOM      5  C   UNL     1      47.633  42.173  33.278  1.00  0.00     0.006 C 
BRANCH   5   6
ATOM      6  C   UNL     1      48.668  42.543  32.200  1.00  0.00     0.053 C 
BRANCH   6   7
ATOM      7  C   UNL     1      48.261  43.740  31.396  1.00  0.00     0.041 C 
ATOM      8  O   UNL     1      47.258  44.421  31.734  1.00  0.00    -0.550 OA
ATOM      9  O   UNL     1      48.968  44.082  30.248  1.00  0.00    -0.550 OA
ENDBRANCH   6   7
ENDBRANCH   5   6
ENDBRANCH   4   5
ENDBRANCH   3   4
ENDBRANCH   2   3
ENDBRANCH   1   2
BRANCH   1  10
ATOM     10  C   UNL     1      48.208  46.321  34.553  1.00  0.00     0.000 C 
BRANCH  10  11
ATOM     11  C   UNL     1      48.278  47.721  35.191  1.00  0.00    -0.000 C 
BRANCH  11  12
ATOM     12  C   UNL     1      49.659  48.400  35.116  1.00  0.00    -0.000 C 
BRANCH  12  13
ATOM     13  C   UNL     1      50.345  48.569  36.489  1.00  0.00    -0.000 C 
BRANCH  13  14
ATOM     14  C   UNL     1      49.515  47.972  37.639  1.00  0.00    -0.000 C 
BRANCH  14  15
ATOM     15  C   UNL     1      50.149  46.702  38.225  1.00  0.00    -0.003 C 
ATOM     16  C   UNL     1      51.665  46.815  38.376  1.00  0.00     0.004 C 
ENDBRANCH  14  15
ENDBRANCH  13  14
ENDBRANCH  12  13
ENDBRANCH  11  12
ENDBRANCH  10  11
ENDBRANCH   1  10
TORSDOF 12
ENDMDL
