MODEL 1
REMARK VINA RESULT:    -3.254      0.000      0.000
REMARK INTER + INTRA:          -3.260
REMARK INTER:                  -4.015
REMARK INTRA:                   0.754
REMARK UNBOUND:                 0.754
REMARK SMILES CC1=CC=CC(C)(C)CC1=O
REMARK SMILES IDX 1 1 2 2 3 3 10 4 11 5 9 6 4 8 5 9 6 10 7 11 8 12
REMARK H PARENT
REMARK Flexibility Score: 80.00
ROOT
ATOM      1  C   UNL     1      43.363 -41.375  -5.355  1.00  0.00     0.048 C 
ATOM      2  C   UNL     1      42.020 -40.874  -4.882  1.00  0.00    -0.008 C 
ATOM      3  C   UNL     1      40.965 -41.036  -5.710  1.00  0.00     0.007 C 
ENDROOT
BRANCH   2   4
ATOM      4  C   UNL     1      41.981 -40.175  -3.573  1.00  0.00     0.159 C 
ATOM      5  O   UNL     1      43.069 -39.847  -3.026  1.00  0.00    -0.295 OA
BRANCH   4   6
ATOM      6  C   UNL     1      40.712 -39.844  -2.851  1.00  0.00     0.091 CG0
ATOM      7  G   UNL     1      39.770 -38.926  -3.661  1.00  0.00     0.000 G0
ENDBRANCH   4   6
ENDBRANCH   2   4
BRANCH   3   8
ATOM      8  C   UNL     1      39.550 -40.630  -5.538  1.00  0.00    -0.003 C 
ATOM      9  C   UNL     1      39.024 -39.736  -4.692  1.00  0.00    -0.020 C 
BRANCH   9  10
ATOM     10  C   UNL     1      39.776 -38.928  -3.661  1.00  0.00    -0.010 CG0
ATOM     11  C   UNL     1      40.528 -37.765  -4.348  1.00  0.00     0.016 C 
ATOM     12  C   UNL     1      38.749 -38.318  -2.680  1.00  0.00     0.016 C 
ATOM     13  G   UNL     1      40.717 -39.853  -2.858  1.00  0.00     0.000 G0
ENDBRANCH   9  10
ENDBRANCH   3   8
TORSDOF 0
ENDMDL
MODEL 2
REMARK VINA RESULT:    -3.041      1.499      2.487
REMARK INTER + INTRA:          -2.997
REMARK INTER:                  -3.745
REMARK INTRA:                   0.748
REMARK UNBOUND:                 0.754
REMARK SMILES CC1=CC=CC(C)(C)CC1=O
REMARK SMILES IDX 1 1 2 2 3 3 10 4 11 5 9 6 4 8 5 9 6 10 7 11 8 12
REMARK H PARENT
REMARK Flexibility Score: 80.00
ROOT
ATOM      1  C   UNL     1      43.416 -41.677  -5.330  1.00  0.00     0.048 C 
ATOM      2  C   UNL     1      42.492 -40.677  -4.678  1.00  0.00    -0.008 C 
ATOM      3  C   UNL     1      42.965 -39.985  -3.619  1.00  0.00     0.007 C 
ENDROOT
BRANCH   2   4
ATOM      4  C   UNL     1      41.108 -40.590  -5.208  1.00  0.00     0.159 C 
ATOM      5  O   UNL     1      40.708 -41.474  -6.014  1.00  0.00    -0.295 OA
BRANCH   4   6
ATOM      6  C   UNL     1      40.153 -39.495  -4.848  1.00  0.00     0.091 CG0
ATOM      7  G   UNL     1      39.865 -39.410  -3.332  1.00  0.00     0.000 G0
ENDBRANCH   4   6
ENDBRANCH   2   4
BRANCH   3   8
ATOM      8  C   UNL     1      42.297 -38.971  -2.770  1.00  0.00    -0.003 C 
ATOM      9  C   UNL     1      40.989 -38.722  -2.622  1.00  0.00    -0.020 C 
BRANCH   9  10
ATOM     10  C   UNL     1      39.857 -39.422  -3.335  1.00  0.00    -0.010 CG0
ATOM     11  C   UNL     1      39.607 -40.807  -2.696  1.00  0.00     0.016 C 
ATOM     12  C   UNL     1      38.576 -38.576  -3.158  1.00  0.00     0.016 C 
ATOM     13  G   UNL     1      40.168 -39.512  -4.846  1.00  0.00     0.000 G0
ENDBRANCH   9  10
ENDBRANCH   3   8
TORSDOF 0
ENDMDL
MODEL 3
REMARK VINA RESULT:    -2.853      1.742      3.205
REMARK INTER + INTRA:          -2.766
REMARK INTER:                  -3.527
REMARK INTRA:                   0.761
REMARK UNBOUND:                 0.754
REMARK SMILES CC1=CC=CC(C)(C)CC1=O
REMARK SMILES IDX 1 1 2 2 3 3 10 4 11 5 9 6 4 8 5 9 6 10 7 11 8 12
REMARK H PARENT
REMARK Flexibility Score: 80.00
ROOT
ATOM      1  C   UNL     1      37.729 -40.739  -4.883  1.00  0.00     0.048 C 
ATOM      2  C   UNL     1      39.149 -40.265  -4.684  1.00  0.00    -0.008 C 
ATOM      3  C   UNL     1      40.137 -41.002  -5.233  1.00  0.00     0.007 C 
ENDROOT
BRANCH   2   4
ATOM      4  C   UNL     1      39.348 -39.063  -3.835  1.00  0.00     0.159 C 
ATOM      5  O   UNL     1      38.374 -38.625  -3.164  1.00  0.00    -0.295 OA
BRANCH   4   6
ATOM      6  C   UNL     1      40.647 -38.326  -3.739  1.00  0.00     0.091 CG0
ATOM      7  G   UNL     1      41.808 -39.202  -3.217  1.00  0.00     0.000 G0
ENDBRANCH   4   6
ENDBRANCH   2   4
BRANCH   3   8
ATOM      8  C   UNL     1      41.606 -40.809  -5.187  1.00  0.00    -0.003 C 
ATOM      9  C   UNL     1      42.335 -40.070  -4.342  1.00  0.00    -0.020 C 
BRANCH   9  10
ATOM     10  C   UNL     1      41.807 -39.211  -3.217  1.00  0.00    -0.010 CG0
ATOM     11  C   UNL     1      41.396 -40.101  -2.022  1.00  0.00     0.016 C 
ATOM     12  C   UNL     1      42.944 -38.275  -2.748  1.00  0.00     0.016 C 
ATOM     13  G   UNL     1      40.645 -38.334  -3.734  1.00  0.00     0.000 G0
ENDBRANCH   9  10
ENDBRANCH   3   8
TORSDOF 0
ENDMDL
MODEL 4
REMARK VINA RESULT:    -2.745     13.734     16.086
REMARK INTER + INTRA:          -2.632
REMARK INTER:                  -3.372
REMARK INTRA:                   0.739
REMARK UNBOUND:                 0.754
REMARK SMILES CC1=CC=CC(C)(C)CC1=O
REMARK SMILES IDX 1 1 2 2 3 3 10 4 11 5 9 6 4 8 5 9 6 10 7 11 8 12
REMARK H PARENT
REMARK Flexibility Score: 80.00
ROOT
ATOM      1  C   UNL     1      28.799 -30.127   6.601  1.00  0.00     0.048 C 
ATOM      2  C   UNL     1      29.496 -30.226   5.266  1.00  0.00    -0.008 C 
ATOM      3  C   UNL     1      28.769 -29.964   4.159  1.00  0.00     0.007 C 
ENDROOT
BRANCH   2   4
ATOM      4  C   UNL     1      30.911 -30.678   5.274  1.00  0.00     0.159 C 
ATOM      5  O   UNL     1      31.392 -31.150   6.340  1.00  0.00    -0.295 OA
BRANCH   4   6
ATOM      6  C   UNL     1      31.811 -30.595   4.080  1.00  0.00     0.091 CG0
ATOM      7  G   UNL     1      31.290 -31.395   2.866  1.00  0.00     0.000 G0
ENDBRANCH   4   6
ENDBRANCH   2   4
BRANCH   3   8
ATOM      8  C   UNL     1      29.163 -30.003   2.730  1.00  0.00    -0.003 C 
ATOM      9  C   UNL     1      30.209 -30.613   2.159  1.00  0.00    -0.020 C 
BRANCH   9  10
ATOM     10  C   UNL     1      31.283 -31.404   2.868  1.00  0.00    -0.010 CG0
ATOM     11  C   UNL     1      30.747 -32.807   3.238  1.00  0.00     0.016 C 
ATOM     12  C   UNL     1      32.471 -31.588   1.896  1.00  0.00     0.016 C 
ATOM     13  G   UNL     1      31.785 -30.616   4.098  1.00  0.00     0.000 G0
ENDBRANCH   9  10
ENDBRANCH   3   8
TORSDOF 0
ENDMDL
MODEL 5
REMARK VINA RESULT:    -2.646      1.640      2.462
REMARK INTER + INTRA:          -2.510
REMARK INTER:                  -3.529
REMARK INTRA:                   1.019
REMARK UNBOUND:                 0.754
REMARK SMILES CC1=CC=CC(C)(C)CC1=O
REMARK SMILES IDX 1 1 2 2 3 3 10 4 11 5 9 6 4 8 5 9 6 10 7 11 8 12
REMARK H PARENT
REMARK Flexibility Score: 80.00
ROOT
ATOM      1  C   UNL     1      41.529 -42.082  -6.271  1.00  0.00     0.048 C 
ATOM      2  C   UNL     1      41.491 -40.966  -5.255  1.00  0.00    -0.008 C 
ATOM      3  C   UNL     1      40.289 -40.423  -4.966  1.00  0.00     0.007 C 
ENDROOT
BRANCH   2   4
ATOM      4  C   UNL     1      42.792 -40.503  -4.710  1.00  0.00     0.159 C 
ATOM      5  O   UNL     1      43.810 -41.232  -4.865  1.00  0.00    -0.295 OA
BRANCH   4   6
ATOM      6  C   UNL     1      42.966 -39.213  -3.970  1.00  0.00     0.091 CG0
ATOM      7  G   UNL     1      42.083 -39.111  -2.706  1.00  0.00     0.000 G0
ENDBRANCH   4   6
ENDBRANCH   2   4
BRANCH   3   8
ATOM      8  C   UNL     1      39.941 -39.314  -4.046  1.00  0.00    -0.003 C 
ATOM      9  C   UNL     1      40.690 -38.738  -3.097  1.00  0.00    -0.020 C 
BRANCH   9  10
ATOM     10  C   UNL     1      42.101 -39.118  -2.714  1.00  0.00    -0.010 CG0
ATOM     11  C   UNL     1      42.665 -38.098  -1.699  1.00  0.00     0.016 C 
ATOM     12  C   UNL     1      42.061 -40.503  -2.029  1.00  0.00     0.016 C 
ATOM     13  G   UNL     1      42.972 -39.236  -3.985  1.00  0.00     0.000 G0
ENDBRANCH   9  10
ENDBRANCH   3   8
TORSDOF 0
ENDMDL
MODEL 6
REMARK VINA RESULT:    -2.584      1.578      2.001
REMARK INTER + INTRA:          -2.434
REMARK INTER:                  -3.185
REMARK INTRA:                   0.752
REMARK UNBOUND:                 0.754
REMARK SMILES CC1=CC=CC(C)(C)CC1=O
REMARK SMILES IDX 1 1 2 2 3 3 10 4 11 5 9 6 4 8 5 9 6 10 7 11 8 12
REMARK H PARENT
REMARK Flexibility Score: 80.00
ROOT
ATOM      1  C   UNL     1      42.796 -39.989  -2.807  1.00  0.00     0.048 C 
ATOM      2  C   UNL     1      41.427 -40.155  -3.422  1.00  0.00    -0.008 C 
ATOM      3  C   UNL     1      41.362 -40.409  -4.747  1.00  0.00     0.007 C 
ENDROOT
BRANCH   2   4
ATOM      4  C   UNL     1      40.256 -39.951  -2.532  1.00  0.00     0.159 C 
ATOM      5  O   UNL     1      40.444 -39.468  -1.382  1.00  0.00    -0.295 OA
BRANCH   4   6
ATOM      6  C   UNL     1      38.852 -40.299  -2.920  1.00  0.00     0.091 CG0
ATOM      7  G   UNL     1      38.364 -39.549  -4.179  1.00  0.00     0.000 G0
ENDBRANCH   4   6
ENDBRANCH   2   4
BRANCH   3   8
ATOM      8  C   UNL     1      40.181 -40.592  -5.624  1.00  0.00    -0.003 C 
ATOM      9  C   UNL     1      38.909 -40.231  -5.415  1.00  0.00    -0.020 C 
BRANCH   9  10
ATOM     10  C   UNL     1      38.360 -39.557  -4.179  1.00  0.00    -0.010 CG0
ATOM     11  C   UNL     1      38.735 -38.057  -4.186  1.00  0.00     0.016 C 
ATOM     12  C   UNL     1      36.819 -39.663  -4.214  1.00  0.00     0.016 C 
ATOM     13  G   UNL     1      38.865 -40.291  -2.917  1.00  0.00     0.000 G0
ENDBRANCH   9  10
ENDBRANCH   3   8
TORSDOF 0
ENDMDL
MODEL 7
REMARK VINA RESULT:    -2.579      1.471      1.868
REMARK INTER + INTRA:          -2.428
REMARK INTER:                  -3.174
REMARK INTRA:                   0.747
REMARK UNBOUND:                 0.754
REMARK SMILES CC1=CC=CC(C)(C)CC1=O
REMARK SMILES IDX 1 1 2 2 3 3 10 4 11 5 9 6 4 8 5 9 6 10 7 11 8 12
REMARK H PARENT
REMARK Flexibility Score: 80.00
ROOT
ATOM      1  C   UNL     1      41.644 -41.118  -5.290  1.00  0.00     0.048 C 
ATOM      2  C   UNL     1      40.309 -40.791  -4.665  1.00  0.00    -0.008 C 
ATOM      3  C   UNL     1      39.255 -40.623  -5.493  1.00  0.00     0.007 C 
ENDROOT
BRANCH   2   4
ATOM      4  C   UNL     1      40.278 -40.606  -3.192  1.00  0.00     0.159 C 
ATOM      5  O   UNL     1      41.370 -40.534  -2.565  1.00  0.00    -0.295 OA
BRANCH   4   6
ATOM      6  C   UNL     1      39.012 -40.512  -2.398  1.00  0.00     0.091 CG0
ATOM      7  G   UNL     1      38.104 -39.340  -2.833  1.00  0.00     0.000 G0
ENDBRANCH   4   6
ENDBRANCH   2   4
BRANCH   3   8
ATOM      8  C   UNL     1      37.848 -40.275  -5.183  1.00  0.00    -0.003 C 
ATOM      9  C   UNL     1      37.338 -39.722  -4.075  1.00  0.00    -0.020 C 
BRANCH   9  10
ATOM     10  C   UNL     1      38.104 -39.337  -2.831  1.00  0.00    -0.010 CG0
ATOM     11  C   UNL     1      38.876 -38.019  -3.073  1.00  0.00     0.016 C 
ATOM     12  C   UNL     1      37.088 -39.093  -1.693  1.00  0.00     0.016 C 
ATOM     13  G   UNL     1      39.030 -40.500  -2.409  1.00  0.00     0.000 G0
ENDBRANCH   9  10
ENDBRANCH   3   8
TORSDOF 0
ENDMDL
MODEL 8
REMARK VINA RESULT:    -2.462     16.202     17.375
REMARK INTER + INTRA:          -2.283
REMARK INTER:                  -3.055
REMARK INTRA:                   0.772
REMARK UNBOUND:                 0.754
REMARK SMILES CC1=CC=CC(C)(C)CC1=O
REMARK SMILES IDX 1 1 2 2 3 3 10 4 11 5 9 6 4 8 5 9 6 10 7 11 8 12
REMARK H PARENT
REMARK Flexibility Score: 80.00
ROOT
ATOM      1  C   UNL     1      26.465 -31.603   2.226  1.00  0.00     0.048 C 
ATOM      2  C   UNL     1      27.572 -31.172   3.158  1.00  0.00    -0.008 C 
ATOM      3  C   UNL     1      28.624 -30.518   2.620  1.00  0.00     0.007 C 
ENDROOT
BRANCH   2   4
ATOM      4  C   UNL     1      27.450 -31.570   4.583  1.00  0.00     0.159 C 
ATOM      5  O   UNL     1      26.551 -32.392   4.910  1.00  0.00    -0.295 OA
BRANCH   4   6
ATOM      6  C   UNL     1      28.333 -31.037   5.668  1.00  0.00     0.091 CG0
ATOM      7  G   UNL     1      29.832 -31.329   5.434  1.00  0.00     0.000 G0
ENDBRANCH   4   6
ENDBRANCH   2   4
BRANCH   3   8
ATOM      8  C   UNL     1      29.855 -30.002   3.265  1.00  0.00    -0.003 C 
ATOM      9  C   UNL     1      30.395 -30.338   4.443  1.00  0.00    -0.020 C 
BRANCH   9  10
ATOM     10  C   UNL     1      29.840 -31.334   5.433  1.00  0.00    -0.010 CG0
ATOM     11  C   UNL     1      30.092 -32.774   4.931  1.00  0.00     0.016 C 
ATOM     12  C   UNL     1      30.592 -31.156   6.772  1.00  0.00     0.016 C 
ATOM     13  G   UNL     1      28.343 -31.044   5.680  1.00  0.00     0.000 G0
ENDBRANCH   9  10
ENDBRANCH   3   8
TORSDOF 0
ENDMDL
MODEL 9
REMARK VINA RESULT:    -2.422      1.449      2.558
REMARK INTER + INTRA:          -2.234
REMARK INTER:                  -2.980
REMARK INTRA:                   0.746
REMARK UNBOUND:                 0.754
REMARK SMILES CC1=CC=CC(C)(C)CC1=O
REMARK SMILES IDX 1 1 2 2 3 3 10 4 11 5 9 6 4 8 5 9 6 10 7 11 8 12
REMARK H PARENT
REMARK Flexibility Score: 80.00
ROOT
ATOM      1  C   UNL     1      43.003 -40.414  -1.264  1.00  0.00     0.048 C 
ATOM      2  C   UNL     1      41.746 -40.061  -2.021  1.00  0.00    -0.008 C 
ATOM      3  C   UNL     1      40.589 -40.625  -1.611  1.00  0.00     0.007 C 
ENDROOT
BRANCH   2   4
ATOM      4  C   UNL     1      41.895 -39.178  -3.205  1.00  0.00     0.159 C 
ATOM      5  O   UNL     1      43.053 -38.946  -3.649  1.00  0.00    -0.295 OA
BRANCH   4   6
ATOM      6  C   UNL     1      40.740 -38.530  -3.903  1.00  0.00     0.091 CG0
ATOM      7  G   UNL     1      39.726 -39.545  -4.476  1.00  0.00     0.000 G0
ENDBRANCH   4   6
ENDBRANCH   2   4
BRANCH   3   8
ATOM      8  C   UNL     1      39.219 -40.494  -2.162  1.00  0.00    -0.003 C 
ATOM      9  C   UNL     1      38.831 -40.056  -3.366  1.00  0.00    -0.020 C 
BRANCH   9  10
ATOM     10  C   UNL     1      39.731 -39.550  -4.469  1.00  0.00    -0.010 CG0
ATOM     11  C   UNL     1      40.413 -40.740  -5.182  1.00  0.00     0.016 C 
ATOM     12  C   UNL     1      38.856 -38.809  -5.506  1.00  0.00     0.016 C 
ATOM     13  G   UNL     1      40.748 -38.541  -3.890  1.00  0.00     0.000 G0
ENDBRANCH   9  10
ENDBRANCH   3   8
TORSDOF 0
ENDMDL
