MODEL 1
REMARK VINA RESULT:    -7.344      0.000      0.000
REMARK INTER + INTRA:          -7.344
REMARK INTER:                  -7.344
REMARK INTRA:                   0.000
REMARK UNBOUND:                 0.000
REMARK SMILES Cc1cc2cc3c(C)cc(=O)oc3c(C)c2o1
REMARK SMILES IDX 8 1 7 2 9 3 10 4 11 5 12 6 13 7 6 8 5 9 4 10 3 11 2 12 17 13
REMARK SMILES IDX 16 14 14 15 15 16 1 17
REMARK H PARENT
REMARK Flexibility Score: inf
ROOT
ATOM      1  C   UNL     1      17.206  18.125  25.127  1.00  0.00     0.045 C 
ATOM      2  C   UNL     1      15.747  17.748  25.100  1.00  0.00    -0.033 A 
ATOM      3  C   UNL     1      14.962  18.125  24.002  1.00  0.00     0.098 A 
ATOM      4  C   UNL     1      13.611  17.778  23.968  1.00  0.00     0.336 A 
ATOM      5  O   UNL     1      12.902  18.113  22.984  1.00  0.00    -0.246 OA
ATOM      6  O   UNL     1      13.064  17.096  24.967  1.00  0.00    -0.422 OA
ATOM      7  C   UNL     1      13.749  16.708  26.039  1.00  0.00     0.145 A 
ATOM      8  C   UNL     1      15.142  17.021  26.149  1.00  0.00     0.022 A 
ATOM      9  C   UNL     1      15.866  16.595  27.290  1.00  0.00     0.024 A 
ATOM     10  C   UNL     1      15.186  15.877  28.266  1.00  0.00     0.022 A 
ATOM     11  C   UNL     1      15.631  15.339  29.452  1.00  0.00     0.054 A 
ATOM     12  C   UNL     1      14.504  14.733  29.995  1.00  0.00     0.102 A 
ATOM     13  O   UNL     1      13.458  14.892  29.206  1.00  0.00    -0.461 OA
ATOM     14  C   UNL     1      13.854  15.579  28.161  1.00  0.00     0.140 A 
ATOM     15  C   UNL     1      13.091  15.986  27.064  1.00  0.00     0.036 A 
ATOM     16  C   UNL     1      11.637  15.625  26.952  1.00  0.00     0.052 C 
ATOM     17  C   UNL     1      14.460  14.011  31.299  1.00  0.00     0.087 C 
ENDROOT
TORSDOF 0
ENDMDL
MODEL 2
REMARK VINA RESULT:    -6.892      2.508      4.789
REMARK INTER + INTRA:          -6.892
REMARK INTER:                  -6.892
REMARK INTRA:                   0.000
REMARK UNBOUND:                 0.000
REMARK SMILES Cc1cc2cc3c(C)cc(=O)oc3c(C)c2o1
REMARK SMILES IDX 8 1 7 2 9 3 10 4 11 5 12 6 13 7 6 8 5 9 4 10 3 11 2 12 17 13
REMARK SMILES IDX 16 14 14 15 15 16 1 17
REMARK H PARENT
REMARK Flexibility Score: inf
ROOT
ATOM      1  C   UNL     1      18.573  18.125  23.424  1.00  0.00     0.045 C 
ATOM      2  C   UNL     1      18.194  17.659  24.806  1.00  0.00    -0.033 A 
ATOM      3  C   UNL     1      19.204  17.325  25.717  1.00  0.00     0.098 A 
ATOM      4  C   UNL     1      18.862  16.894  27.000  1.00  0.00     0.336 A 
ATOM      5  O   UNL     1      19.766  16.594  27.822  1.00  0.00    -0.246 OA
ATOM      6  O   UNL     1      17.589  16.798  27.362  1.00  0.00    -0.422 OA
ATOM      7  C   UNL     1      16.580  17.097  26.548  1.00  0.00     0.145 A 
ATOM      8  C   UNL     1      16.847  17.550  25.216  1.00  0.00     0.022 A 
ATOM      9  C   UNL     1      15.766  17.876  24.359  1.00  0.00     0.024 A 
ATOM     10  C   UNL     1      14.475  17.745  24.856  1.00  0.00     0.022 A 
ATOM     11  C   UNL     1      13.260  17.996  24.261  1.00  0.00     0.054 A 
ATOM     12  C   UNL     1      12.328  17.690  25.247  1.00  0.00     0.102 A 
ATOM     13  O   UNL     1      12.928  17.283  26.350  1.00  0.00    -0.461 OA
ATOM     14  C   UNL     1      14.221  17.311  26.129  1.00  0.00     0.140 A 
ATOM     15  C   UNL     1      15.248  16.965  27.010  1.00  0.00     0.036 A 
ATOM     16  C   UNL     1      14.951  16.518  28.413  1.00  0.00     0.052 C 
ATOM     17  C   UNL     1      10.849  17.786  25.092  1.00  0.00     0.087 C 
ENDROOT
TORSDOF 0
ENDMDL
MODEL 3
REMARK VINA RESULT:    -6.768      1.365      5.204
REMARK INTER + INTRA:          -6.768
REMARK INTER:                  -6.768
REMARK INTRA:                   0.000
REMARK UNBOUND:                 0.000
REMARK SMILES Cc1cc2cc3c(C)cc(=O)oc3c(C)c2o1
REMARK SMILES IDX 8 1 7 2 9 3 10 4 11 5 12 6 13 7 6 8 5 9 4 10 3 11 2 12 17 13
REMARK SMILES IDX 16 14 14 15 15 16 1 17
REMARK H PARENT
REMARK Flexibility Score: inf
ROOT
ATOM      1  C   UNL     1      17.181  17.237  26.979  1.00  0.00     0.045 C 
ATOM      2  C   UNL     1      15.854  16.580  27.260  1.00  0.00    -0.033 A 
ATOM      3  C   UNL     1      15.681  15.868  28.453  1.00  0.00     0.098 A 
ATOM      4  C   UNL     1      14.454  15.258  28.722  1.00  0.00     0.336 A 
ATOM      5  O   UNL     1      14.293  14.618  29.793  1.00  0.00    -0.246 OA
ATOM      6  O   UNL     1      13.452  15.348  27.855  1.00  0.00    -0.422 OA
ATOM      7  C   UNL     1      13.548  16.007  26.703  1.00  0.00     0.145 A 
ATOM      8  C   UNL     1      14.772  16.663  26.355  1.00  0.00     0.022 A 
ATOM      9  C   UNL     1      14.861  17.371  25.131  1.00  0.00     0.024 A 
ATOM     10  C   UNL     1      13.740  17.403  24.310  1.00  0.00     0.022 A 
ATOM     11  C   UNL     1      13.542  18.011  23.092  1.00  0.00     0.054 A 
ATOM     12  C   UNL     1      12.226  17.701  22.766  1.00  0.00     0.102 A 
ATOM     13  O   UNL     1      11.670  16.962  23.708  1.00  0.00    -0.461 OA
ATOM     14  C   UNL     1      12.571  16.774  24.644  1.00  0.00     0.140 A 
ATOM     15  C   UNL     1      12.433  16.053  25.832  1.00  0.00     0.036 A 
ATOM     16  C   UNL     1      11.133  15.393  26.195  1.00  0.00     0.052 C 
ATOM     17  C   UNL     1      11.527  18.125  21.520  1.00  0.00     0.087 C 
ENDROOT
TORSDOF 0
ENDMDL
MODEL 4
REMARK VINA RESULT:    -6.475      1.344      2.771
REMARK INTER + INTRA:          -6.475
REMARK INTER:                  -6.475
REMARK INTRA:                   0.000
REMARK UNBOUND:                 0.000
REMARK SMILES Cc1cc2cc3c(C)cc(=O)oc3c(C)c2o1
REMARK SMILES IDX 8 1 7 2 9 3 10 4 11 5 12 6 13 7 6 8 5 9 4 10 3 11 2 12 17 13
REMARK SMILES IDX 16 14 14 15 15 16 1 17
REMARK H PARENT
REMARK Flexibility Score: inf
ROOT
ATOM      1  C   UNL     1      11.025  17.155  25.281  1.00  0.00     0.045 C 
ATOM      2  C   UNL     1      12.532  17.153  25.304  1.00  0.00    -0.033 A 
ATOM      3  C   UNL     1      13.234  17.663  24.205  1.00  0.00     0.098 A 
ATOM      4  C   UNL     1      14.630  17.667  24.219  1.00  0.00     0.336 A 
ATOM      5  O   UNL     1      15.266  18.125  23.235  1.00  0.00    -0.246 OA
ATOM      6  O   UNL     1      15.296  17.189  25.263  1.00  0.00    -0.422 OA
ATOM      7  C   UNL     1      14.693  16.689  26.339  1.00  0.00     0.145 A 
ATOM      8  C   UNL     1      13.263  16.652  26.404  1.00  0.00     0.022 A 
ATOM      9  C   UNL     1      12.630  16.127  27.558  1.00  0.00     0.024 A 
ATOM     10  C   UNL     1      13.434  15.666  28.594  1.00  0.00     0.022 A 
ATOM     11  C   UNL     1      13.097  15.124  29.812  1.00  0.00     0.054 A 
ATOM     12  C   UNL     1      14.320  14.864  30.419  1.00  0.00     0.102 A 
ATOM     13  O   UNL     1      15.320  15.215  29.632  1.00  0.00    -0.461 OA
ATOM     14  C   UNL     1      14.800  15.701  28.529  1.00  0.00     0.140 A 
ATOM     15  C   UNL     1      15.475  16.197  27.411  1.00  0.00     0.036 A 
ATOM     16  C   UNL     1      16.976  16.253  27.370  1.00  0.00     0.052 C 
ATOM     17  C   UNL     1      14.499  14.255  31.769  1.00  0.00     0.087 C 
ENDROOT
TORSDOF 0
ENDMDL
MODEL 5
REMARK VINA RESULT:    -6.300      2.245      3.725
REMARK INTER + INTRA:          -6.300
REMARK INTER:                  -6.300
REMARK INTRA:                   0.000
REMARK UNBOUND:                 0.000
REMARK SMILES Cc1cc2cc3c(C)cc(=O)oc3c(C)c2o1
REMARK SMILES IDX 8 1 7 2 9 3 10 4 11 5 12 6 13 7 6 8 5 9 4 10 3 11 2 12 17 13
REMARK SMILES IDX 16 14 14 15 15 16 1 17
REMARK H PARENT
REMARK Flexibility Score: inf
ROOT
ATOM      1  C   UNL     1      12.841  18.124  22.310  1.00  0.00     0.045 C 
ATOM      2  C   UNL     1      12.485  17.905  23.758  1.00  0.00    -0.033 A 
ATOM      3  C   UNL     1      11.139  17.931  24.144  1.00  0.00     0.098 A 
ATOM      4  C   UNL     1      10.800  17.727  25.482  1.00  0.00     0.336 A 
ATOM      5  O   UNL     1       9.592  17.749  25.834  1.00  0.00    -0.246 OA
ATOM      6  O   UNL     1      11.743  17.510  26.391  1.00  0.00    -0.422 OA
ATOM      7  C   UNL     1      13.039  17.473  26.095  1.00  0.00     0.145 A 
ATOM      8  C   UNL     1      13.469  17.670  24.743  1.00  0.00     0.022 A 
ATOM      9  C   UNL     1      14.851  17.620  24.435  1.00  0.00     0.024 A 
ATOM     10  C   UNL     1      15.744  17.374  25.472  1.00  0.00     0.022 A 
ATOM     11  C   UNL     1      17.115  17.263  25.462  1.00  0.00     0.054 A 
ATOM     12  C   UNL     1      17.446  17.006  26.788  1.00  0.00     0.102 A 
ATOM     13  O   UNL     1      16.364  16.968  27.543  1.00  0.00    -0.461 OA
ATOM     14  C   UNL     1      15.332  17.187  26.763  1.00  0.00     0.140 A 
ATOM     15  C   UNL     1      13.983  17.239  27.123  1.00  0.00     0.036 A 
ATOM     16  C   UNL     1      13.547  17.003  28.542  1.00  0.00     0.052 C 
ATOM     17  C   UNL     1      18.831  16.814  27.307  1.00  0.00     0.087 C 
ENDROOT
TORSDOF 0
ENDMDL
MODEL 6
REMARK VINA RESULT:    -6.124      1.778      4.576
REMARK INTER + INTRA:          -6.124
REMARK INTER:                  -6.124
REMARK INTRA:                   0.000
REMARK UNBOUND:                 0.000
REMARK SMILES Cc1cc2cc3c(C)cc(=O)oc3c(C)c2o1
REMARK SMILES IDX 8 1 7 2 9 3 10 4 11 5 12 6 13 7 6 8 5 9 4 10 3 11 2 12 17 13
REMARK SMILES IDX 16 14 14 15 15 16 1 17
REMARK H PARENT
REMARK Flexibility Score: inf
ROOT
ATOM      1  C   UNL     1      13.846  15.122  29.279  1.00  0.00     0.045 C 
ATOM      2  C   UNL     1      13.585  15.773  27.945  1.00  0.00    -0.033 A 
ATOM      3  C   UNL     1      12.271  15.850  27.465  1.00  0.00     0.098 A 
ATOM      4  C   UNL     1      12.021  16.453  26.232  1.00  0.00     0.336 A 
ATOM      5  O   UNL     1      10.843  16.525  25.796  1.00  0.00    -0.246 OA
ATOM      6  O   UNL     1      13.017  16.953  25.511  1.00  0.00    -0.422 OA
ATOM      7  C   UNL     1      14.287  16.913  25.904  1.00  0.00     0.145 A 
ATOM      8  C   UNL     1      14.628  16.314  27.160  1.00  0.00     0.022 A 
ATOM      9  C   UNL     1      15.981  16.286  27.576  1.00  0.00     0.024 A 
ATOM     10  C   UNL     1      16.936  16.852  26.738  1.00  0.00     0.022 A 
ATOM     11  C   UNL     1      18.297  16.972  26.890  1.00  0.00     0.054 A 
ATOM     12  C   UNL     1      18.712  17.630  25.738  1.00  0.00     0.102 A 
ATOM     13  O   UNL     1      17.685  17.886  24.948  1.00  0.00    -0.461 OA
ATOM     14  C   UNL     1      16.609  17.423  25.539  1.00  0.00     0.140 A 
ATOM     15  C   UNL     1      15.292  17.467  25.075  1.00  0.00     0.036 A 
ATOM     16  C   UNL     1      14.949  18.124  23.768  1.00  0.00     0.052 C 
ATOM     17  C   UNL     1      20.121  17.992  25.413  1.00  0.00     0.087 C 
ENDROOT
TORSDOF 0
ENDMDL
MODEL 7
REMARK VINA RESULT:    -6.076      1.939      5.745
REMARK INTER + INTRA:          -6.076
REMARK INTER:                  -6.076
REMARK INTRA:                   0.000
REMARK UNBOUND:                 0.000
REMARK SMILES Cc1cc2cc3c(C)cc(=O)oc3c(C)c2o1
REMARK SMILES IDX 8 1 7 2 9 3 10 4 11 5 12 6 13 7 6 8 5 9 4 10 3 11 2 12 17 13
REMARK SMILES IDX 16 14 14 15 15 16 1 17
REMARK H PARENT
REMARK Flexibility Score: inf
ROOT
ATOM      1  C   UNL     1      13.008  15.563  28.790  1.00  0.00     0.045 C 
ATOM      2  C   UNL     1      14.132  16.110  27.948  1.00  0.00    -0.033 A 
ATOM      3  C   UNL     1      15.431  16.131  28.470  1.00  0.00     0.098 A 
ATOM      4  C   UNL     1      16.478  16.635  27.697  1.00  0.00     0.336 A 
ATOM      5  O   UNL     1      17.647  16.654  28.161  1.00  0.00    -0.246 OA
ATOM      6  O   UNL     1      16.252  17.095  26.473  1.00  0.00    -0.422 OA
ATOM      7  C   UNL     1      15.043  17.107  25.916  1.00  0.00     0.145 A 
ATOM      8  C   UNL     1      13.917  16.605  26.642  1.00  0.00     0.022 A 
ATOM      9  C   UNL     1      12.636  16.612  26.037  1.00  0.00     0.024 A 
ATOM     10  C   UNL     1      12.525  17.110  24.744  1.00  0.00     0.022 A 
ATOM     11  C   UNL     1      11.428  17.227  23.924  1.00  0.00     0.054 A 
ATOM     12  C   UNL     1      11.934  17.785  22.755  1.00  0.00     0.102 A 
ATOM     13  O   UNL     1      13.233  17.994  22.858  1.00  0.00    -0.461 OA
ATOM     14  C   UNL     1      13.603  17.591  24.052  1.00  0.00     0.140 A 
ATOM     15  C   UNL     1      14.885  17.618  24.605  1.00  0.00     0.036 A 
ATOM     16  C   UNL     1      16.061  18.124  23.819  1.00  0.00     0.052 C 
ATOM     17  C   UNL     1      11.131  18.124  21.546  1.00  0.00     0.087 C 
ENDROOT
TORSDOF 0
ENDMDL
MODEL 8
REMARK VINA RESULT:    -5.211      2.430      5.442
REMARK INTER + INTRA:          -5.211
REMARK INTER:                  -5.211
REMARK INTRA:                   0.000
REMARK UNBOUND:                 0.000
REMARK SMILES Cc1cc2cc3c(C)cc(=O)oc3c(C)c2o1
REMARK SMILES IDX 8 1 7 2 9 3 10 4 11 5 12 6 13 7 6 8 5 9 4 10 3 11 2 12 17 13
REMARK SMILES IDX 16 14 14 15 15 16 1 17
REMARK H PARENT
REMARK Flexibility Score: inf
ROOT
ATOM      1  C   UNL     1      12.292  18.125  24.298  1.00  0.00     0.045 C 
ATOM      2  C   UNL     1      13.152  17.686  25.456  1.00  0.00    -0.033 A 
ATOM      3  C   UNL     1      12.541  17.323  26.663  1.00  0.00     0.098 A 
ATOM      4  C   UNL     1      13.329  16.913  27.739  1.00  0.00     0.336 A 
ATOM      5  O   UNL     1      12.786  16.585  28.825  1.00  0.00    -0.246 OA
ATOM      6  O   UNL     1      14.651  16.867  27.628  1.00  0.00    -0.422 OA
ATOM      7  C   UNL     1      15.297  17.200  26.513  1.00  0.00     0.145 A 
ATOM      8  C   UNL     1      14.560  17.627  25.362  1.00  0.00     0.022 A 
ATOM      9  C   UNL     1      15.254  17.969  24.176  1.00  0.00     0.024 A 
ATOM     10  C   UNL     1      16.641  17.870  24.177  1.00  0.00     0.022 A 
ATOM     11  C   UNL     1      17.555  18.124  23.182  1.00  0.00     0.054 A 
ATOM     12  C   UNL     1      18.784  17.841  23.767  1.00  0.00     0.102 A 
ATOM     13  O   UNL     1      18.630  17.450  25.018  1.00  0.00    -0.461 OA
ATOM     14  C   UNL     1      17.344  17.463  25.279  1.00  0.00     0.140 A 
ATOM     15  C   UNL     1      16.710  17.126  26.477  1.00  0.00     0.036 A 
ATOM     16  C   UNL     1      17.496  16.653  27.667  1.00  0.00     0.052 C 
ATOM     17  C   UNL     1      20.108  17.971  23.093  1.00  0.00     0.087 C 
ENDROOT
TORSDOF 0
ENDMDL
