MODEL 1
REMARK VINA RESULT:    -4.801      0.000      0.000
REMARK INTER + INTRA:         -12.069
REMARK INTER:                  -9.012
REMARK INTRA:                  -3.057
REMARK UNBOUND:                -3.057
REMARK SMILES CCCCCCCCC=CCCCCCCCC(=O)[O-]
REMARK SMILES IDX 10 1 9 2 11 3 12 4 13 5 14 6 15 7 16 8 17 9 18 10 19 11
REMARK SMILES IDX 20 12 8 13 7 14 6 15 5 16 4 17 3 18 2 19 1 20
REMARK H PARENT
REMARK Flexibility Score: inf
ROOT
ATOM      1  C   UNL     1      21.405  -5.307  34.235  1.00  0.00    -0.031 C 
ATOM      2  C   UNL     1      20.532  -4.300  34.424  1.00  0.00    -0.031 C 
ENDROOT
BRANCH   1   3
ATOM      3  C   UNL     1      22.438  -5.367  33.133  1.00  0.00     0.027 C 
BRANCH   3   4
ATOM      4  C   UNL     1      22.078  -6.434  32.092  1.00  0.00     0.004 C 
BRANCH   4   5
ATOM      5  C   UNL     1      21.632  -5.811  30.759  1.00  0.00     0.000 C 
BRANCH   5   6
ATOM      6  C   UNL     1      20.108  -5.858  30.557  1.00  0.00     0.000 C 
BRANCH   6   7
ATOM      7  C   UNL     1      19.368  -6.911  31.409  1.00  0.00     0.000 C 
BRANCH   7   8
ATOM      8  C   UNL     1      18.292  -6.348  32.358  1.00  0.00     0.006 C 
BRANCH   8   9
ATOM      9  C   UNL     1      17.761  -4.961  31.962  1.00  0.00     0.053 C 
BRANCH   9  10
ATOM     10  C   UNL     1      17.024  -4.301  33.086  1.00  0.00     0.041 C 
ATOM     11  O   UNL     1      16.662  -3.098  32.988  1.00  0.00    -0.550 OA
ATOM     12  O   UNL     1      16.768  -5.002  34.258  1.00  0.00    -0.550 OA
ENDBRANCH   9  10
ENDBRANCH   8   9
ENDBRANCH   7   8
ENDBRANCH   6   7
ENDBRANCH   5   6
ENDBRANCH   4   5
ENDBRANCH   3   4
ENDBRANCH   1   3
BRANCH   2  13
ATOM     13  C   UNL     1      20.477  -3.042  33.597  1.00  0.00     0.027 C 
BRANCH  13  14
ATOM     14  C   UNL     1      19.619  -1.967  34.283  1.00  0.00     0.004 C 
BRANCH  14  15
ATOM     15  C   UNL     1      20.345  -1.291  35.456  1.00  0.00     0.000 C 
BRANCH  15  16
ATOM     16  C   UNL     1      21.781  -0.869  35.096  1.00  0.00     0.000 C 
BRANCH  16  17
ATOM     17  C   UNL     1      22.812  -1.329  36.141  1.00  0.00    -0.000 C 
BRANCH  17  18
ATOM     18  C   UNL     1      23.484  -2.660  35.763  1.00  0.00    -0.000 C 
BRANCH  18  19
ATOM     19  C   UNL     1      23.395  -3.703  36.887  1.00  0.00    -0.003 C 
ATOM     20  C   UNL     1      22.163  -3.518  37.772  1.00  0.00     0.004 C 
ENDBRANCH  18  19
ENDBRANCH  17  18
ENDBRANCH  16  17
ENDBRANCH  15  16
ENDBRANCH  14  15
ENDBRANCH  13  14
ENDBRANCH   2  13
TORSDOF 15
ENDMDL
MODEL 2
REMARK VINA RESULT:    -4.634      9.032     11.150
REMARK INTER + INTRA:         -11.754
REMARK INTER:                  -9.507
REMARK INTRA:                  -2.247
REMARK UNBOUND:                -3.057
REMARK SMILES CCCCCCCCC=CCCCCCCCC(=O)[O-]
REMARK SMILES IDX 10 1 9 2 11 3 12 4 13 5 14 6 15 7 16 8 17 9 18 10 19 11
REMARK SMILES IDX 20 12 8 13 7 14 6 15 5 16 4 17 3 18 2 19 1 20
REMARK H PARENT
REMARK Flexibility Score: inf
ROOT
ATOM      1  C   UNL     1      11.100  -1.660  42.115  1.00  0.00    -0.031 C 
ATOM      2  C   UNL     1      11.240  -0.350  41.841  1.00  0.00    -0.031 C 
ENDROOT
BRANCH   1   3
ATOM      3  C   UNL     1      11.783  -2.782  41.369  1.00  0.00     0.027 C 
BRANCH   3   4
ATOM      4  C   UNL     1      12.675  -3.609  42.303  1.00  0.00     0.004 C 
BRANCH   4   5
ATOM      5  C   UNL     1      14.036  -2.936  42.544  1.00  0.00     0.000 C 
BRANCH   5   6
ATOM      6  C   UNL     1      14.726  -2.499  41.240  1.00  0.00     0.000 C 
BRANCH   6   7
ATOM      7  C   UNL     1      15.810  -3.466  40.719  1.00  0.00     0.000 C 
BRANCH   7   8
ATOM      8  C   UNL     1      16.886  -3.862  41.749  1.00  0.00     0.006 C 
BRANCH   8   9
ATOM      9  C   UNL     1      17.358  -5.321  41.644  1.00  0.00     0.053 C 
BRANCH   9  10
ATOM     10  C   UNL     1      16.347  -6.278  42.196  1.00  0.00     0.041 C 
ATOM     11  O   UNL     1      16.572  -6.882  43.279  1.00  0.00    -0.550 OA
ATOM     12  O   UNL     1      15.172  -6.529  41.499  1.00  0.00    -0.550 OA
ENDBRANCH   9  10
ENDBRANCH   8   9
ENDBRANCH   7   8
ENDBRANCH   6   7
ENDBRANCH   5   6
ENDBRANCH   4   5
ENDBRANCH   3   4
ENDBRANCH   1   3
BRANCH   2  13
ATOM     13  C   UNL     1      12.143   0.215  40.774  1.00  0.00     0.027 C 
BRANCH  13  14
ATOM     14  C   UNL     1      13.247   1.088  41.391  1.00  0.00     0.004 C 
BRANCH  14  15
ATOM     15  C   UNL     1      13.545   0.718  42.853  1.00  0.00     0.000 C 
BRANCH  15  16
ATOM     16  C   UNL     1      14.961   1.134  43.289  1.00  0.00     0.000 C 
BRANCH  16  17
ATOM     17  C   UNL     1      15.751  -0.027  43.915  1.00  0.00    -0.000 C 
BRANCH  17  18
ATOM     18  C   UNL     1      17.083  -0.295  43.192  1.00  0.00    -0.000 C 
BRANCH  18  19
ATOM     19  C   UNL     1      18.028  -1.186  44.011  1.00  0.00    -0.003 C 
ATOM     20  C   UNL     1      18.479  -0.531  45.316  1.00  0.00     0.004 C 
ENDBRANCH  18  19
ENDBRANCH  17  18
ENDBRANCH  16  17
ENDBRANCH  15  16
ENDBRANCH  14  15
ENDBRANCH  13  14
ENDBRANCH   2  13
TORSDOF 15
ENDMDL
MODEL 3
REMARK VINA RESULT:    -4.589      2.500      6.131
REMARK INTER + INTRA:         -11.670
REMARK INTER:                  -9.043
REMARK INTRA:                  -2.628
REMARK UNBOUND:                -3.057
REMARK SMILES CCCCCCCCC=CCCCCCCCC(=O)[O-]
REMARK SMILES IDX 10 1 9 2 11 3 12 4 13 5 14 6 15 7 16 8 17 9 18 10 19 11
REMARK SMILES IDX 20 12 8 13 7 14 6 15 5 16 4 17 3 18 2 19 1 20
REMARK H PARENT
REMARK Flexibility Score: inf
ROOT
ATOM      1  C   UNL     1      18.860  -4.185  31.276  1.00  0.00    -0.031 C 
ATOM      2  C   UNL     1      19.383  -5.046  30.384  1.00  0.00    -0.031 C 
ENDROOT
BRANCH   1   3
ATOM      3  C   UNL     1      19.643  -3.142  32.040  1.00  0.00     0.027 C 
BRANCH   3   4
ATOM      4  C   UNL     1      18.881  -2.678  33.288  1.00  0.00     0.004 C 
BRANCH   4   5
ATOM      5  C   UNL     1      19.762  -2.711  34.547  1.00  0.00     0.000 C 
BRANCH   5   6
ATOM      6  C   UNL     1      21.171  -3.266  34.276  1.00  0.00     0.000 C 
BRANCH   6   7
ATOM      7  C   UNL     1      22.103  -3.310  35.505  1.00  0.00     0.000 C 
BRANCH   7   8
ATOM      8  C   UNL     1      23.238  -2.267  35.505  1.00  0.00     0.006 C 
BRANCH   8   9
ATOM      9  C   UNL     1      23.047  -1.123  36.513  1.00  0.00     0.053 C 
BRANCH   9  10
ATOM     10  C   UNL     1      21.993  -0.155  36.070  1.00  0.00     0.041 C 
ATOM     11  O   UNL     1      22.197   0.592  35.076  1.00  0.00    -0.550 OA
ATOM     12  O   UNL     1      20.801  -0.053  36.774  1.00  0.00    -0.550 OA
ENDBRANCH   9  10
ENDBRANCH   8   9
ENDBRANCH   7   8
ENDBRANCH   6   7
ENDBRANCH   5   6
ENDBRANCH   4   5
ENDBRANCH   3   4
ENDBRANCH   1   3
BRANCH   2  13
ATOM     13  C   UNL     1      20.830  -5.076  29.962  1.00  0.00     0.027 C 
BRANCH  13  14
ATOM     14  C   UNL     1      21.561  -6.277  30.583  1.00  0.00     0.004 C 
BRANCH  14  15
ATOM     15  C   UNL     1      22.129  -5.967  31.977  1.00  0.00     0.000 C 
BRANCH  15  16
ATOM     16  C   UNL     1      21.970  -7.146  32.954  1.00  0.00     0.000 C 
BRANCH  16  17
ATOM     17  C   UNL     1      21.022  -6.822  34.122  1.00  0.00    -0.000 C 
BRANCH  17  18
ATOM     18  C   UNL     1      19.553  -6.716  33.678  1.00  0.00    -0.000 C 
BRANCH  18  19
ATOM     19  C   UNL     1      19.004  -8.046  33.139  1.00  0.00    -0.003 C 
ATOM     20  C   UNL     1      18.007  -7.856  31.996  1.00  0.00     0.004 C 
ENDBRANCH  18  19
ENDBRANCH  17  18
ENDBRANCH  16  17
ENDBRANCH  15  16
ENDBRANCH  14  15
ENDBRANCH  13  14
ENDBRANCH   2  13
TORSDOF 15
ENDMDL
MODEL 4
REMARK VINA RESULT:    -4.588      2.754      5.876
REMARK INTER + INTRA:         -11.668
REMARK INTER:                  -8.714
REMARK INTRA:                  -2.954
REMARK UNBOUND:                -3.057
REMARK SMILES CCCCCCCCC=CCCCCCCCC(=O)[O-]
REMARK SMILES IDX 10 1 9 2 11 3 12 4 13 5 14 6 15 7 16 8 17 9 18 10 19 11
REMARK SMILES IDX 20 12 8 13 7 14 6 15 5 16 4 17 3 18 2 19 1 20
REMARK H PARENT
REMARK Flexibility Score: inf
ROOT
ATOM      1  C   UNL     1      20.594  -5.281  30.220  1.00  0.00    -0.031 C 
ATOM      2  C   UNL     1      21.736  -5.716  30.783  1.00  0.00    -0.031 C 
ENDROOT
BRANCH   1   3
ATOM      3  C   UNL     1      19.418  -4.704  30.974  1.00  0.00     0.027 C 
BRANCH   3   4
ATOM      4  C   UNL     1      19.624  -3.212  31.268  1.00  0.00     0.004 C 
BRANCH   4   5
ATOM      5  C   UNL     1      19.187  -2.841  32.694  1.00  0.00     0.000 C 
BRANCH   5   6
ATOM      6  C   UNL     1      20.370  -2.716  33.670  1.00  0.00     0.000 C 
BRANCH   6   7
ATOM      7  C   UNL     1      20.218  -3.508  34.986  1.00  0.00     0.000 C 
BRANCH   7   8
ATOM      8  C   UNL     1      21.543  -3.920  35.659  1.00  0.00     0.006 C 
BRANCH   8   9
ATOM      9  C   UNL     1      22.756  -3.074  35.240  1.00  0.00     0.053 C 
BRANCH   9  10
ATOM     10  C   UNL     1      22.938  -1.879  36.125  1.00  0.00     0.041 C 
ATOM     11  O   UNL     1      22.942  -0.720  35.632  1.00  0.00    -0.550 OA
ATOM     12  O   UNL     1      23.138  -2.046  37.489  1.00  0.00    -0.550 OA
ENDBRANCH   9  10
ENDBRANCH   8   9
ENDBRANCH   7   8
ENDBRANCH   6   7
ENDBRANCH   5   6
ENDBRANCH   4   5
ENDBRANCH   3   4
ENDBRANCH   1   3
BRANCH   2  13
ATOM     13  C   UNL     1      22.050  -5.649  32.256  1.00  0.00     0.027 C 
BRANCH  13  14
ATOM     14  C   UNL     1      21.718  -6.978  32.952  1.00  0.00     0.004 C 
BRANCH  14  15
ATOM     15  C   UNL     1      20.374  -6.936  33.697  1.00  0.00     0.000 C 
BRANCH  15  16
ATOM     16  C   UNL     1      19.254  -7.669  32.935  1.00  0.00     0.000 C 
BRANCH  16  17
ATOM     17  C   UNL     1      17.871  -7.038  33.168  1.00  0.00    -0.000 C 
BRANCH  17  18
ATOM     18  C   UNL     1      17.822  -6.171  34.439  1.00  0.00    -0.000 C 
BRANCH  18  19
ATOM     19  C   UNL     1      16.713  -5.110  34.384  1.00  0.00    -0.003 C 
ATOM     20  C   UNL     1      16.755  -4.146  35.569  1.00  0.00     0.004 C 
ENDBRANCH  18  19
ENDBRANCH  17  18
ENDBRANCH  16  17
ENDBRANCH  15  16
ENDBRANCH  14  15
ENDBRANCH  13  14
ENDBRANCH   2  13
TORSDOF 15
ENDMDL
MODEL 5
REMARK VINA RESULT:    -4.582      2.223      5.225
REMARK INTER + INTRA:         -11.657
REMARK INTER:                  -8.810
REMARK INTRA:                  -2.846
REMARK UNBOUND:                -3.057
REMARK SMILES CCCCCCCCC=CCCCCCCCC(=O)[O-]
REMARK SMILES IDX 10 1 9 2 11 3 12 4 13 5 14 6 15 7 16 8 17 9 18 10 19 11
REMARK SMILES IDX 20 12 8 13 7 14 6 15 5 16 4 17 3 18 2 19 1 20
REMARK H PARENT
REMARK Flexibility Score: inf
ROOT
ATOM      1  C   UNL     1      20.260  -6.198  30.776  1.00  0.00    -0.031 C 
ATOM      2  C   UNL     1      19.420  -5.164  30.968  1.00  0.00    -0.031 C 
ENDROOT
BRANCH   1   3
ATOM      3  C   UNL     1      21.764  -6.088  30.670  1.00  0.00     0.027 C 
BRANCH   3   4
ATOM      4  C   UNL     1      22.436  -6.343  32.025  1.00  0.00     0.004 C 
BRANCH   4   5
ATOM      5  C   UNL     1      21.426  -6.788  33.095  1.00  0.00     0.000 C 
BRANCH   5   6
ATOM      6  C   UNL     1      21.562  -6.001  34.410  1.00  0.00     0.000 C 
BRANCH   6   7
ATOM      7  C   UNL     1      22.217  -4.610  34.275  1.00  0.00     0.000 C 
BRANCH   7   8
ATOM      8  C   UNL     1      22.597  -3.933  35.606  1.00  0.00     0.006 C 
BRANCH   8   9
ATOM      9  C   UNL     1      22.872  -2.425  35.494  1.00  0.00     0.053 C 
BRANCH   9  10
ATOM     10  C   UNL     1      21.607  -1.634  35.357  1.00  0.00     0.041 C 
ATOM     11  O   UNL     1      21.597  -0.563  34.693  1.00  0.00    -0.550 OA
ATOM     12  O   UNL     1      20.447  -2.060  35.992  1.00  0.00    -0.550 OA
ENDBRANCH   9  10
ENDBRANCH   8   9
ENDBRANCH   7   8
ENDBRANCH   6   7
ENDBRANCH   5   6
ENDBRANCH   4   5
ENDBRANCH   3   4
ENDBRANCH   1   3
BRANCH   2  13
ATOM     13  C   UNL     1      19.847  -3.731  31.161  1.00  0.00     0.027 C 
BRANCH  13  14
ATOM     14  C   UNL     1      19.310  -3.169  32.486  1.00  0.00     0.004 C 
BRANCH  14  15
ATOM     15  C   UNL     1      18.107  -3.963  33.021  1.00  0.00     0.000 C 
BRANCH  15  16
ATOM     16  C   UNL     1      18.257  -4.332  34.508  1.00  0.00     0.000 C 
BRANCH  16  17
ATOM     17  C   UNL     1      18.021  -5.828  34.771  1.00  0.00    -0.000 C 
BRANCH  17  18
ATOM     18  C   UNL     1      17.276  -6.522  33.617  1.00  0.00    -0.000 C 
BRANCH  18  19
ATOM     19  C   UNL     1      17.347  -8.054  33.709  1.00  0.00    -0.003 C 
ATOM     20  C   UNL     1      18.110  -8.683  32.544  1.00  0.00     0.004 C 
ENDBRANCH  18  19
ENDBRANCH  17  18
ENDBRANCH  16  17
ENDBRANCH  15  16
ENDBRANCH  14  15
ENDBRANCH  13  14
ENDBRANCH   2  13
TORSDOF 15
ENDMDL
MODEL 6
REMARK VINA RESULT:    -4.549      3.270      6.237
REMARK INTER + INTRA:         -11.596
REMARK INTER:                  -8.955
REMARK INTRA:                  -2.641
REMARK UNBOUND:                -3.057
REMARK SMILES CCCCCCCCC=CCCCCCCCC(=O)[O-]
REMARK SMILES IDX 10 1 9 2 11 3 12 4 13 5 14 6 15 7 16 8 17 9 18 10 19 11
REMARK SMILES IDX 20 12 8 13 7 14 6 15 5 16 4 17 3 18 2 19 1 20
REMARK H PARENT
REMARK Flexibility Score: inf
ROOT
ATOM      1  C   UNL     1      19.329  -2.657  33.471  1.00  0.00    -0.031 C 
ATOM      2  C   UNL     1      18.992  -3.185  32.280  1.00  0.00    -0.031 C 
ENDROOT
BRANCH   1   3
ATOM      3  C   UNL     1      20.743  -2.437  33.956  1.00  0.00     0.027 C 
BRANCH   3   4
ATOM      4  C   UNL     1      21.097  -3.401  35.095  1.00  0.00     0.004 C 
BRANCH   4   5
ATOM      5  C   UNL     1      22.616  -3.525  35.294  1.00  0.00     0.000 C 
BRANCH   5   6
ATOM      6  C   UNL     1      22.994  -4.497  36.426  1.00  0.00     0.000 C 
BRANCH   6   7
ATOM      7  C   UNL     1      21.869  -4.785  37.442  1.00  0.00     0.000 C 
BRANCH   7   8
ATOM      8  C   UNL     1      21.668  -6.273  37.793  1.00  0.00     0.006 C 
BRANCH   8   9
ATOM      9  C   UNL     1      21.177  -6.525  39.227  1.00  0.00     0.053 C 
BRANCH   9  10
ATOM     10  C   UNL     1      21.470  -7.922  39.682  1.00  0.00     0.041 C 
ATOM     11  O   UNL     1      20.981  -8.353  40.760  1.00  0.00    -0.550 OA
ATOM     12  O   UNL     1      22.310  -8.736  38.934  1.00  0.00    -0.550 OA
ENDBRANCH   9  10
ENDBRANCH   8   9
ENDBRANCH   7   8
ENDBRANCH   6   7
ENDBRANCH   5   6
ENDBRANCH   4   5
ENDBRANCH   3   4
ENDBRANCH   1   3
BRANCH   2  13
ATOM     13  C   UNL     1      19.973  -3.597  31.212  1.00  0.00     0.027 C 
BRANCH  13  14
ATOM     14  C   UNL     1      19.644  -4.997  30.671  1.00  0.00     0.004 C 
BRANCH  14  15
ATOM     15  C   UNL     1      20.800  -5.992  30.866  1.00  0.00     0.000 C 
BRANCH  15  16
ATOM     16  C   UNL     1      21.746  -5.580  32.008  1.00  0.00     0.000 C 
BRANCH  16  17
ATOM     17  C   UNL     1      21.681  -6.544  33.205  1.00  0.00    -0.000 C 
BRANCH  17  18
ATOM     18  C   UNL     1      20.297  -7.196  33.365  1.00  0.00    -0.000 C 
BRANCH  18  19
ATOM     19  C   UNL     1      19.342  -6.347  34.218  1.00  0.00    -0.003 C 
ATOM     20  C   UNL     1      17.893  -6.421  33.737  1.00  0.00     0.004 C 
ENDBRANCH  18  19
ENDBRANCH  17  18
ENDBRANCH  16  17
ENDBRANCH  15  16
ENDBRANCH  14  15
ENDBRANCH  13  14
ENDBRANCH   2  13
TORSDOF 15
ENDMDL
MODEL 7
REMARK VINA RESULT:    -4.549      2.467      6.103
REMARK INTER + INTRA:         -11.595
REMARK INTER:                  -9.292
REMARK INTRA:                  -2.304
REMARK UNBOUND:                -3.057
REMARK SMILES CCCCCCCCC=CCCCCCCCC(=O)[O-]
REMARK SMILES IDX 10 1 9 2 11 3 12 4 13 5 14 6 15 7 16 8 17 9 18 10 19 11
REMARK SMILES IDX 20 12 8 13 7 14 6 15 5 16 4 17 3 18 2 19 1 20
REMARK H PARENT
REMARK Flexibility Score: inf
ROOT
ATOM      1  C   UNL     1      22.573  -6.233  32.436  1.00  0.00    -0.031 C 
ATOM      2  C   UNL     1      22.119  -5.949  31.201  1.00  0.00    -0.031 C 
ENDROOT
BRANCH   1   3
ATOM      3  C   UNL     1      21.823  -5.966  33.721  1.00  0.00     0.027 C 
BRANCH   3   4
ATOM      4  C   UNL     1      22.225  -4.616  34.328  1.00  0.00     0.004 C 
BRANCH   4   5
ATOM      5  C   UNL     1      22.423  -4.705  35.850  1.00  0.00     0.000 C 
BRANCH   5   6
ATOM      6  C   UNL     1      22.494  -3.325  36.526  1.00  0.00     0.000 C 
BRANCH   6   7
ATOM      7  C   UNL     1      23.295  -2.258  35.751  1.00  0.00     0.000 C 
BRANCH   7   8
ATOM      8  C   UNL     1      22.856  -0.801  35.999  1.00  0.00     0.006 C 
BRANCH   8   9
ATOM      9  C   UNL     1      21.723  -0.316  35.080  1.00  0.00     0.053 C 
BRANCH   9  10
ATOM     10  C   UNL     1      21.219   1.037  35.479  1.00  0.00     0.041 C 
ATOM     11  O   UNL     1      20.440   1.159  36.461  1.00  0.00    -0.550 OA
ATOM     12  O   UNL     1      21.581   2.159  34.745  1.00  0.00    -0.550 OA
ENDBRANCH   9  10
ENDBRANCH   8   9
ENDBRANCH   7   8
ENDBRANCH   6   7
ENDBRANCH   5   6
ENDBRANCH   4   5
ENDBRANCH   3   4
ENDBRANCH   1   3
BRANCH   2  13
ATOM     13  C   UNL     1      20.764  -5.364  30.895  1.00  0.00     0.027 C 
BRANCH  13  14
ATOM     14  C   UNL     1      19.788  -6.451  30.419  1.00  0.00     0.004 C 
BRANCH  14  15
ATOM     15  C   UNL     1      19.052  -7.135  31.583  1.00  0.00     0.000 C 
BRANCH  15  16
ATOM     16  C   UNL     1      18.015  -6.212  32.248  1.00  0.00     0.000 C 
BRANCH  16  17
ATOM     17  C   UNL     1      18.170  -6.155  33.777  1.00  0.00    -0.000 C 
BRANCH  17  18
ATOM     18  C   UNL     1      18.387  -4.723  34.297  1.00  0.00    -0.000 C 
BRANCH  18  19
ATOM     19  C   UNL     1      18.332  -3.676  33.174  1.00  0.00    -0.003 C 
ATOM     20  C   UNL     1      19.503  -2.695  33.219  1.00  0.00     0.004 C 
ENDBRANCH  18  19
ENDBRANCH  17  18
ENDBRANCH  16  17
ENDBRANCH  15  16
ENDBRANCH  14  15
ENDBRANCH  13  14
ENDBRANCH   2  13
TORSDOF 15
ENDMDL
MODEL 8
REMARK VINA RESULT:    -4.526     15.873     17.547
REMARK INTER + INTRA:         -11.552
REMARK INTER:                  -8.808
REMARK INTRA:                  -2.744
REMARK UNBOUND:                -3.057
REMARK SMILES CCCCCCCCC=CCCCCCCCC(=O)[O-]
REMARK SMILES IDX 10 1 9 2 11 3 12 4 13 5 14 6 15 7 16 8 17 9 18 10 19 11
REMARK SMILES IDX 20 12 8 13 7 14 6 15 5 16 4 17 3 18 2 19 1 20
REMARK H PARENT
REMARK Flexibility Score: inf
ROOT
ATOM      1  C   UNL     1      23.369   6.750  44.316  1.00  0.00    -0.031 C 
ATOM      2  C   UNL     1      22.153   7.290  44.112  1.00  0.00    -0.031 C 
ENDROOT
BRANCH   1   3
ATOM      3  C   UNL     1      23.909   6.304  45.655  1.00  0.00     0.027 C 
BRANCH   3   4
ATOM      4  C   UNL     1      25.406   6.615  45.782  1.00  0.00     0.004 C 
BRANCH   4   5
ATOM      5  C   UNL     1      26.095   6.696  44.410  1.00  0.00     0.000 C 
BRANCH   5   6
ATOM      6  C   UNL     1      27.090   7.865  44.309  1.00  0.00     0.000 C 
BRANCH   6   7
ATOM      7  C   UNL     1      27.961   7.873  43.035  1.00  0.00     0.000 C 
BRANCH   7   8
ATOM      8  C   UNL     1      29.411   7.385  43.229  1.00  0.00     0.006 C 
BRANCH   8   9
ATOM      9  C   UNL     1      29.717   6.031  42.568  1.00  0.00     0.053 C 
BRANCH   9  10
ATOM     10  C   UNL     1      29.846   4.932  43.577  1.00  0.00     0.041 C 
ATOM     11  O   UNL     1      29.804   3.727  43.211  1.00  0.00    -0.550 OA
ATOM     12  O   UNL     1      29.978   5.236  44.926  1.00  0.00    -0.550 OA
ENDBRANCH   9  10
ENDBRANCH   8   9
ENDBRANCH   7   8
ENDBRANCH   6   7
ENDBRANCH   5   6
ENDBRANCH   4   5
ENDBRANCH   3   4
ENDBRANCH   1   3
BRANCH   2  13
ATOM     13  C   UNL     1      21.110   7.492  45.182  1.00  0.00     0.027 C 
BRANCH  13  14
ATOM     14  C   UNL     1      21.088   8.951  45.663  1.00  0.00     0.004 C 
BRANCH  14  15
ATOM     15  C   UNL     1      21.842   9.149  46.988  1.00  0.00     0.000 C 
BRANCH  15  16
ATOM     16  C   UNL     1      23.193   9.862  46.796  1.00  0.00     0.000 C 
BRANCH  16  17
ATOM     17  C   UNL     1      23.217  10.755  45.544  1.00  0.00    -0.000 C 
BRANCH  17  18
ATOM     18  C   UNL     1      24.346  10.377  44.570  1.00  0.00    -0.000 C 
BRANCH  18  19
ATOM     19  C   UNL     1      23.917  10.492  43.100  1.00  0.00    -0.003 C 
ATOM     20  C   UNL     1      24.628   9.487  42.193  1.00  0.00     0.004 C 
ENDBRANCH  18  19
ENDBRANCH  17  18
ENDBRANCH  16  17
ENDBRANCH  15  16
ENDBRANCH  14  15
ENDBRANCH  13  14
ENDBRANCH   2  13
TORSDOF 15
ENDMDL
MODEL 9
REMARK VINA RESULT:    -4.485      1.435      2.972
REMARK INTER + INTRA:         -11.476
REMARK INTER:                  -8.370
REMARK INTRA:                  -3.106
REMARK UNBOUND:                -3.057
REMARK SMILES CCCCCCCCC=CCCCCCCCC(=O)[O-]
REMARK SMILES IDX 10 1 9 2 11 3 12 4 13 5 14 6 15 7 16 8 17 9 18 10 19 11
REMARK SMILES IDX 20 12 8 13 7 14 6 15 5 16 4 17 3 18 2 19 1 20
REMARK H PARENT
REMARK Flexibility Score: inf
ROOT
ATOM      1  C   UNL     1      20.221  -5.387  35.482  1.00  0.00    -0.031 C 
ATOM      2  C   UNL     1      20.275  -4.800  36.692  1.00  0.00    -0.031 C 
ENDROOT
BRANCH   1   3
ATOM      3  C   UNL     1      21.356  -6.143  34.830  1.00  0.00     0.027 C 
BRANCH   3   4
ATOM      4  C   UNL     1      21.996  -5.323  33.703  1.00  0.00     0.004 C 
BRANCH   4   5
ATOM      5  C   UNL     1      22.253  -6.173  32.448  1.00  0.00     0.000 C 
BRANCH   5   6
ATOM      6  C   UNL     1      21.300  -5.833  31.289  1.00  0.00     0.000 C 
BRANCH   6   7
ATOM      7  C   UNL     1      20.375  -4.623  31.538  1.00  0.00     0.000 C 
BRANCH   7   8
ATOM      8  C   UNL     1      18.880  -4.871  31.252  1.00  0.00     0.006 C 
BRANCH   8   9
ATOM      9  C   UNL     1      18.046  -5.217  32.496  1.00  0.00     0.053 C 
BRANCH   9  10
ATOM     10  C   UNL     1      17.948  -6.696  32.711  1.00  0.00     0.041 C 
ATOM     11  O   UNL     1      18.178  -7.491  31.762  1.00  0.00    -0.550 OA
ATOM     12  O   UNL     1      17.568  -7.196  33.950  1.00  0.00    -0.550 OA
ENDBRANCH   9  10
ENDBRANCH   8   9
ENDBRANCH   7   8
ENDBRANCH   6   7
ENDBRANCH   5   6
ENDBRANCH   4   5
ENDBRANCH   3   4
ENDBRANCH   1   3
BRANCH   2  13
ATOM     13  C   UNL     1      21.463  -4.847  37.619  1.00  0.00     0.027 C 
BRANCH  13  14
ATOM     14  C   UNL     1      22.217  -3.508  37.617  1.00  0.00     0.004 C 
BRANCH  14  15
ATOM     15  C   UNL     1      23.375  -3.482  36.606  1.00  0.00     0.000 C 
BRANCH  15  16
ATOM     16  C   UNL     1      23.190  -2.402  35.525  1.00  0.00     0.000 C 
BRANCH  16  17
ATOM     17  C   UNL     1      22.506  -1.135  36.067  1.00  0.00    -0.000 C 
BRANCH  17  18
ATOM     18  C   UNL     1      21.260  -0.742  35.254  1.00  0.00    -0.000 C 
BRANCH  18  19
ATOM     19  C   UNL     1      20.747  -1.890  34.372  1.00  0.00    -0.003 C 
ATOM     20  C   UNL     1      19.222  -2.000  34.369  1.00  0.00     0.004 C 
ENDBRANCH  18  19
ENDBRANCH  17  18
ENDBRANCH  16  17
ENDBRANCH  15  16
ENDBRANCH  14  15
ENDBRANCH  13  14
ENDBRANCH   2  13
TORSDOF 15
ENDMDL
