MODEL 1
REMARK VINA RESULT:    42.415      0.000      0.000
REMARK INTER + INTRA:          53.986
REMARK INTER:                  53.573
REMARK INTRA:                   0.413
REMARK UNBOUND:                 0.413
REMARK SMILES CC(C)[C@@H](C)C=C[C@H](C)[C@H]1CC[C@H]2C3=CC=C4C[C@@H](O)CC[C@@]4(C)[C@@H]3CC[C@@]12C
REMARK SMILES IDX 8 1 9 2 7 3 6 4 4 5 5 6 2 7 1 8 3 9 10 10 11 11 28 12 12 13
REMARK SMILES IDX 13 14 27 15 29 16 14 17 26 18 25 19 15 20 23 21 16 22 17 23
REMARK SMILES IDX 22 24 24 25 18 26 21 27 19 28 20 29
REMARK H PARENT 20 30
REMARK Flexibility Score: inf
ROOT
ATOM      1  C   UNL     1     -32.937  25.388   7.477  1.00  0.00     0.012 C 
ATOM      2  C   UNL     1     -33.371  25.209   8.936  1.00  0.00     0.012 C 
ENDROOT
BRANCH   1   3
ATOM      3  C   UNL     1     -31.708  24.533   7.202  1.00  0.00    -0.028 C 
ATOM      4  C   UNL     1     -30.438  24.974   7.093  1.00  0.00    -0.028 C 
BRANCH   4   5
ATOM      5  C   UNL     1     -29.966  26.412   7.239  1.00  0.00     0.011 C 
ATOM      6  C   UNL     1     -30.516  26.996   8.550  1.00  0.00     0.012 C 
BRANCH   5   7
ATOM      7  C   UNL     1     -30.357  27.292   6.013  1.00  0.00    -0.011 C 
ATOM      8  C   UNL     1     -30.263  28.788   6.342  1.00  0.00     0.008 C 
ATOM      9  C   UNL     1     -29.541  26.982   4.746  1.00  0.00     0.008 C 
ENDBRANCH   5   7
ENDBRANCH   4   5
ENDBRANCH   1   3
BRANCH   1  10
ATOM     10  C   UNL     1     -34.120  25.208   6.460  1.00  0.00     0.002 C 
ATOM     11  C   UNL     1     -34.105  23.848   5.753  1.00  0.00     0.005 C 
ATOM     12  C   UNL     1     -35.605  25.432   6.893  1.00  0.00    -0.023 C 
ATOM     13  C   UNL     1     -35.520  23.604   5.240  1.00  0.00     0.009 C 
ATOM     14  C   UNL     1     -36.376  24.782   5.717  1.00  0.00     0.021 C 
ATOM     15  C   UNL     1     -35.943  24.715   8.228  1.00  0.00     0.008 C 
ATOM     16  C   UNL     1     -35.967  26.941   6.971  1.00  0.00     0.012 C 
ATOM     17  C   UNL     1     -37.803  24.352   6.018  1.00  0.00    -0.063 C 
ATOM     18  C   UNL     1     -37.446  24.676   8.506  1.00  0.00     0.009 C 
ATOM     19  C   UNL     1     -38.213  23.902   7.412  1.00  0.00     0.025 C 
ATOM     20  C   UNL     1     -38.612  24.083   4.983  1.00  0.00    -0.000 C 
ATOM     21  C   UNL     1     -39.780  23.928   7.612  1.00  0.00    -0.005 C 
ATOM     22  C   UNL     1     -39.928  23.456   5.173  1.00  0.00    -0.000 C 
ATOM     23  C   UNL     1     -40.457  23.290   6.394  1.00  0.00    -0.061 C 
ATOM     24  C   UNL     1     -40.140  23.128   8.902  1.00  0.00     0.014 C 
ATOM     25  C   UNL     1     -40.310  25.382   7.730  1.00  0.00     0.017 C 
ATOM     26  C   UNL     1     -41.869  22.753   6.501  1.00  0.00     0.063 C 
ATOM     27  C   UNL     1     -41.626  22.764   9.007  1.00  0.00     0.033 C 
ATOM     28  C   UNL     1     -42.084  21.954   7.792  1.00  0.00     0.118 C 
BRANCH  28  29
ATOM     29  O   UNL     1     -41.382  20.738   7.738  1.00  0.00    -0.393 OA
ATOM     30  H   UNL     1     -40.599  20.831   8.341  1.00  0.00     0.210 HD
ENDBRANCH  28  29
ENDBRANCH   1  10
TORSDOF 5
ENDMDL
