MODEL 1
REMARK VINA RESULT:    -5.758      0.000      0.000
REMARK INTER + INTRA:          -9.429
REMARK INTER:                  -8.115
REMARK INTRA:                  -1.314
REMARK UNBOUND:                -1.314
REMARK SMILES COc1c(O[C@H]2O[C@H](C(=O)[O-])[C@H](O)[C@H](O)[C@@H]2O)cc(O)c2c(=O)cc(-c3ccccc3)oc12
REMARK SMILES IDX 5 1 6 2 8 3 12 4 7 5 14 6 16 7 9 8 10 9 11 10 13 11 15 13
REMARK SMILES IDX 17 15 4 17 3 18 18 19 33 20 19 21 21 22 32 23 22 24 25 25
REMARK SMILES IDX 24 26 23 27 2 28 1 29 20 30 26 32 27 33 31 34 28 35 30 36
REMARK SMILES IDX 29 37
REMARK H PARENT 13 12 15 14 17 16 20 31
REMARK Flexibility Score: inf
ROOT
ATOM      1  O   UNL     1     205.423 199.341 196.599  1.00  0.00    -0.458 OA
ENDROOT
BRANCH   1   2
ATOM      2  C   UNL     1     206.225 200.359 195.984  1.00  0.00     0.339 C 
ATOM      3  C   UNL     1     208.186 199.554 197.001  1.00  0.00     0.199 C 
ATOM      4  C   UNL     1     208.820 199.112 195.664  1.00  0.00     0.180 C 
ATOM      5  O   UNL     1     207.334 200.674 196.815  1.00  0.00    -0.328 OA
ATOM      6  C   UNL     1     207.704 198.786 194.660  1.00  0.00     0.181 C 
ATOM      7  C   UNL     1     206.696 199.951 194.568  1.00  0.00     0.214 C 
BRANCH   3   8
ATOM      8  C   UNL     1     209.255 199.911 197.993  1.00  0.00     0.073 C 
ATOM      9  O   UNL     1     209.591 199.086 198.885  1.00  0.00    -0.547 OA
ATOM     10  O   UNL     1     209.925 201.125 197.897  1.00  0.00    -0.547 OA
ENDBRANCH   3   8
BRANCH   4  11
ATOM     11  O   UNL     1     209.642 200.130 195.145  1.00  0.00    -0.387 OA
ATOM     12  H   UNL     1     209.071 200.701 194.568  1.00  0.00     0.211 HD
ENDBRANCH   4  11
BRANCH   6  13
ATOM     13  O   UNL     1     208.262 198.508 193.402  1.00  0.00    -0.387 OA
ATOM     14  H   UNL     1     208.635 197.589 193.452  1.00  0.00     0.211 HD
ENDBRANCH   6  13
BRANCH   7  15
ATOM     15  O   UNL     1     207.283 201.066 193.945  1.00  0.00    -0.384 OA
ATOM     16  H   UNL     1     206.981 201.870 194.443  1.00  0.00     0.211 HD
ENDBRANCH   7  15
ENDBRANCH   1   2
BRANCH   1  17
ATOM     17  C   UNL     1     204.331 199.512 197.474  1.00  0.00     0.172 A 
ATOM     18  C   UNL     1     202.978 199.494 197.064  1.00  0.00     0.205 A 
ATOM     19  C   UNL     1     204.644 199.720 198.814  1.00  0.00     0.097 A 
ATOM     20  C   UNL     1     201.958 199.642 198.041  1.00  0.00     0.188 A 
ATOM     21  C   UNL     1     203.660 199.853 199.789  1.00  0.00     0.134 A 
ATOM     22  C   UNL     1     202.290 199.854 199.409  1.00  0.00     0.111 A 
ATOM     23  O   UNL     1     200.679 199.578 197.676  1.00  0.00    -0.452 OA
ATOM     24  C   UNL     1     201.222 200.082 200.309  1.00  0.00     0.197 A 
ATOM     25  C   UNL     1     199.657 199.713 198.516  1.00  0.00     0.138 A 
ATOM     26  C   UNL     1     199.907 199.989 199.862  1.00  0.00     0.100 A 
ATOM     27  O   UNL     1     201.415 200.405 201.510  1.00  0.00    -0.289 OA
BRANCH  18  28
ATOM     28  O   UNL     1     202.703 199.350 195.692  1.00  0.00    -0.490 OA
ATOM     29  C   UNL     1     202.686 200.376 194.707  1.00  0.00     0.278 C 
ENDBRANCH  18  28
BRANCH  21  30
ATOM     30  O   UNL     1     204.105 199.945 201.112  1.00  0.00    -0.507 OA
ATOM     31  H   UNL     1     203.895 199.278 201.839  1.00  0.00     0.293 HD
ENDBRANCH  21  30
BRANCH  25  32
ATOM     32  C   UNL     1     198.273 199.581 197.998  1.00  0.00     0.017 A 
ATOM     33  C   UNL     1     197.283 200.537 198.304  1.00  0.00     0.012 A 
ATOM     34  C   UNL     1     197.920 198.466 197.216  1.00  0.00     0.012 A 
ATOM     35  C   UNL     1     195.979 200.384 197.824  1.00  0.00     0.001 A 
ATOM     36  C   UNL     1     196.615 198.318 196.739  1.00  0.00     0.001 A 
ATOM     37  C   UNL     1     195.645 199.275 197.042  1.00  0.00     0.000 A 
ENDBRANCH  25  32
ENDBRANCH   1  17
TORSDOF 9
ENDMDL
MODEL 2
REMARK VINA RESULT:    -5.708      1.144      2.355
REMARK INTER + INTRA:          -9.358
REMARK INTER:                  -8.107
REMARK INTRA:                  -1.251
REMARK UNBOUND:                -1.314
REMARK SMILES COc1c(O[C@H]2O[C@H](C(=O)[O-])[C@H](O)[C@H](O)[C@@H]2O)cc(O)c2c(=O)cc(-c3ccccc3)oc12
REMARK SMILES IDX 5 1 6 2 8 3 12 4 7 5 14 6 16 7 9 8 10 9 11 10 13 11 15 13
REMARK SMILES IDX 17 15 4 17 3 18 18 19 33 20 19 21 21 22 32 23 22 24 25 25
REMARK SMILES IDX 24 26 23 27 2 28 1 29 20 30 26 32 27 33 31 34 28 35 30 36
REMARK SMILES IDX 29 37
REMARK H PARENT 13 12 15 14 17 16 20 31
REMARK Flexibility Score: inf
ROOT
ATOM      1  O   UNL     1     205.510 199.766 196.634  1.00  0.00    -0.458 OA
ENDROOT
BRANCH   1   2
ATOM      2  C   UNL     1     206.193 198.597 196.160  1.00  0.00     0.339 C 
ATOM      3  C   UNL     1     208.081 199.846 195.524  1.00  0.00     0.199 C 
ATOM      4  C   UNL     1     208.995 199.196 196.585  1.00  0.00     0.180 C 
ATOM      5  O   UNL     1     207.072 198.943 195.098  1.00  0.00    -0.328 OA
ATOM      6  C   UNL     1     208.139 198.735 197.775  1.00  0.00     0.181 C 
ATOM      7  C   UNL     1     206.956 197.869 197.292  1.00  0.00     0.214 C 
BRANCH   3   8
ATOM      8  C   UNL     1     208.887 200.279 194.334  1.00  0.00     0.073 C 
ATOM      9  O   UNL     1     210.125 200.486 194.450  1.00  0.00    -0.547 OA
ATOM     10  O   UNL     1     208.288 200.392 193.084  1.00  0.00    -0.547 OA
ENDBRANCH   3   8
BRANCH   4  11
ATOM     11  O   UNL     1     209.681 198.095 196.040  1.00  0.00    -0.387 OA
ATOM     12  H   UNL     1     209.355 197.285 196.511  1.00  0.00     0.211 HD
ENDBRANCH   4  11
BRANCH   6  13
ATOM     13  O   UNL     1     208.936 198.027 198.688  1.00  0.00    -0.387 OA
ATOM     14  H   UNL     1     208.701 198.363 199.592  1.00  0.00     0.211 HD
ENDBRANCH   6  13
BRANCH   7  15
ATOM     15  O   UNL     1     207.413 196.631 196.810  1.00  0.00    -0.384 OA
ATOM     16  H   UNL     1     208.343 196.769 196.491  1.00  0.00     0.211 HD
ENDBRANCH   7  15
ENDBRANCH   1   2
BRANCH   1  17
ATOM     17  C   UNL     1     204.374 199.825 197.467  1.00  0.00     0.172 A 
ATOM     18  C   UNL     1     203.048 199.645 197.011  1.00  0.00     0.205 A 
ATOM     19  C   UNL     1     204.613 200.091 198.812  1.00  0.00     0.097 A 
ATOM     20  C   UNL     1     201.983 199.692 197.949  1.00  0.00     0.188 A 
ATOM     21  C   UNL     1     203.584 200.128 199.750  1.00  0.00     0.134 A 
ATOM     22  C   UNL     1     202.239 199.964 199.323  1.00  0.00     0.111 A 
ATOM     23  O   UNL     1     200.734 199.475 197.541  1.00  0.00    -0.452 OA
ATOM     24  C   UNL     1     201.118 200.084 200.180  1.00  0.00     0.197 A 
ATOM     25  C   UNL     1     199.673 199.506 198.342  1.00  0.00     0.138 A 
ATOM     26  C   UNL     1     199.840 199.832 199.690  1.00  0.00     0.100 A 
ATOM     27  O   UNL     1     201.229 200.448 201.380  1.00  0.00    -0.289 OA
BRANCH  18  28
ATOM     28  O   UNL     1     202.843 199.446 195.634  1.00  0.00    -0.490 OA
ATOM     29  C   UNL     1     202.768 200.445 194.624  1.00  0.00     0.278 C 
ENDBRANCH  18  28
BRANCH  21  30
ATOM     30  O   UNL     1     203.967 200.292 201.085  1.00  0.00    -0.507 OA
ATOM     31  H   UNL     1     204.609 199.692 201.579  1.00  0.00     0.293 HD
ENDBRANCH  21  30
BRANCH  25  32
ATOM     32  C   UNL     1     198.334 199.207 197.779  1.00  0.00     0.017 A 
ATOM     33  C   UNL     1     198.181 198.361 196.663  1.00  0.00     0.012 A 
ATOM     34  C   UNL     1     197.189 199.805 198.338  1.00  0.00     0.012 A 
ATOM     35  C   UNL     1     196.911 198.109 196.133  1.00  0.00     0.001 A 
ATOM     36  C   UNL     1     195.923 199.551 197.805  1.00  0.00     0.001 A 
ATOM     37  C   UNL     1     195.783 198.703 196.704  1.00  0.00     0.000 A 
ENDBRANCH  25  32
ENDBRANCH   1  17
TORSDOF 9
ENDMDL
MODEL 3
REMARK VINA RESULT:    -5.513      6.046     10.650
REMARK INTER + INTRA:          -9.083
REMARK INTER:                  -7.724
REMARK INTRA:                  -1.359
REMARK UNBOUND:                -1.314
REMARK SMILES COc1c(O[C@H]2O[C@H](C(=O)[O-])[C@H](O)[C@H](O)[C@@H]2O)cc(O)c2c(=O)cc(-c3ccccc3)oc12
REMARK SMILES IDX 5 1 6 2 8 3 12 4 7 5 14 6 16 7 9 8 10 9 11 10 13 11 15 13
REMARK SMILES IDX 17 15 4 17 3 18 18 19 33 20 19 21 21 22 32 23 22 24 25 25
REMARK SMILES IDX 24 26 23 27 2 28 1 29 20 30 26 32 27 33 31 34 28 35 30 36
REMARK SMILES IDX 29 37
REMARK H PARENT 13 12 15 14 17 16 20 31
REMARK Flexibility Score: inf
ROOT
ATOM      1  O   UNL     1     195.432 199.181 197.148  1.00  0.00    -0.458 OA
ENDROOT
BRANCH   1   2
ATOM      2  C   UNL     1     196.126 198.294 198.037  1.00  0.00     0.339 C 
ATOM      3  C   UNL     1     197.862 199.842 198.373  1.00  0.00     0.199 C 
ATOM      4  C   UNL     1     197.513 200.066 199.860  1.00  0.00     0.180 C 
ATOM      5  O   UNL     1     197.525 198.525 197.963  1.00  0.00    -0.328 OA
ATOM      6  C   UNL     1     196.016 199.796 200.073  1.00  0.00     0.181 C 
ATOM      7  C   UNL     1     195.622 198.420 199.495  1.00  0.00     0.214 C 
BRANCH   3   8
ATOM      8  C   UNL     1     199.328 200.068 198.141  1.00  0.00     0.073 C 
ATOM      9  O   UNL     1     199.946 200.946 198.802  1.00  0.00    -0.547 OA
ATOM     10  O   UNL     1     200.028 199.270 197.243  1.00  0.00    -0.547 OA
ENDBRANCH   3   8
BRANCH   4  11
ATOM     11  O   UNL     1     198.271 199.211 200.681  1.00  0.00    -0.387 OA
ATOM     12  H   UNL     1     198.215 199.568 201.606  1.00  0.00     0.211 HD
ENDBRANCH   4  11
BRANCH   6  13
ATOM     13  O   UNL     1     195.709 199.869 201.441  1.00  0.00    -0.387 OA
ATOM     14  H   UNL     1     196.548 200.123 201.908  1.00  0.00     0.211 HD
ENDBRANCH   6  13
BRANCH   7  15
ATOM     15  O   UNL     1     196.181 197.383 200.261  1.00  0.00    -0.384 OA
ATOM     16  H   UNL     1     196.510 197.790 201.105  1.00  0.00     0.211 HD
ENDBRANCH   7  15
ENDBRANCH   1   2
BRANCH   1  17
ATOM     17  C   UNL     1     194.788 198.861 195.936  1.00  0.00     0.172 A 
ATOM     18  C   UNL     1     195.467 198.498 194.750  1.00  0.00     0.205 A 
ATOM     19  C   UNL     1     193.398 198.928 195.943  1.00  0.00     0.097 A 
ATOM     20  C   UNL     1     194.711 198.161 193.596  1.00  0.00     0.188 A 
ATOM     21  C   UNL     1     192.638 198.589 194.827  1.00  0.00     0.134 A 
ATOM     22  C   UNL     1     193.289 198.233 193.615  1.00  0.00     0.111 A 
ATOM     23  O   UNL     1     195.337 197.770 192.488  1.00  0.00    -0.452 OA
ATOM     24  C   UNL     1     192.610 197.970 192.401  1.00  0.00     0.197 A 
ATOM     25  C   UNL     1     194.716 197.443 191.358  1.00  0.00     0.138 A 
ATOM     26  C   UNL     1     193.326 197.554 191.283  1.00  0.00     0.100 A 
ATOM     27  O   UNL     1     191.367 198.131 192.280  1.00  0.00    -0.289 OA
BRANCH  18  28
ATOM     28  O   UNL     1     196.874 198.507 194.764  1.00  0.00    -0.490 OA
ATOM     29  C   UNL     1     197.727 199.629 194.567  1.00  0.00     0.278 C 
ENDBRANCH  18  28
BRANCH  21  30
ATOM     30  O   UNL     1     191.250 198.590 194.998  1.00  0.00    -0.507 OA
ATOM     31  H   UNL     1     190.576 198.539 194.249  1.00  0.00     0.293 HD
ENDBRANCH  21  30
BRANCH  25  32
ATOM     32  C   UNL     1     195.519 196.983 190.199  1.00  0.00     0.017 A 
ATOM     33  C   UNL     1     196.482 195.963 190.335  1.00  0.00     0.012 A 
ATOM     34  C   UNL     1     195.352 197.595 188.944  1.00  0.00     0.012 A 
ATOM     35  C   UNL     1     197.245 195.558 189.235  1.00  0.00     0.001 A 
ATOM     36  C   UNL     1     196.117 197.186 187.847  1.00  0.00     0.001 A 
ATOM     37  C   UNL     1     197.062 196.169 187.992  1.00  0.00     0.000 A 
ENDBRANCH  25  32
ENDBRANCH   1  17
TORSDOF 9
ENDMDL
MODEL 4
REMARK VINA RESULT:    -5.459      7.880     10.417
REMARK INTER + INTRA:          -9.008
REMARK INTER:                  -7.785
REMARK INTRA:                  -1.223
REMARK UNBOUND:                -1.314
REMARK SMILES COc1c(O[C@H]2O[C@H](C(=O)[O-])[C@H](O)[C@H](O)[C@@H]2O)cc(O)c2c(=O)cc(-c3ccccc3)oc12
REMARK SMILES IDX 5 1 6 2 8 3 12 4 7 5 14 6 16 7 9 8 10 9 11 10 13 11 15 13
REMARK SMILES IDX 17 15 4 17 3 18 18 19 33 20 19 21 21 22 32 23 22 24 25 25
REMARK SMILES IDX 24 26 23 27 2 28 1 29 20 30 26 32 27 33 31 34 28 35 30 36
REMARK SMILES IDX 29 37
REMARK H PARENT 13 12 15 14 17 16 20 31
REMARK Flexibility Score: inf
ROOT
ATOM      1  O   UNL     1     195.809 198.460 191.476  1.00  0.00    -0.458 OA
ENDROOT
BRANCH   1   2
ATOM      2  C   UNL     1     196.952 198.606 190.621  1.00  0.00     0.339 C 
ATOM      3  C   UNL     1     196.720 196.422 189.785  1.00  0.00     0.199 C 
ATOM      4  C   UNL     1     196.365 196.896 188.359  1.00  0.00     0.180 C 
ATOM      5  O   UNL     1     197.582 197.348 190.430  1.00  0.00    -0.328 OA
ATOM      6  C   UNL     1     195.712 198.284 188.437  1.00  0.00     0.181 C 
ATOM      7  C   UNL     1     196.585 199.252 189.264  1.00  0.00     0.214 C 
BRANCH   3   8
ATOM      8  C   UNL     1     197.390 195.079 189.737  1.00  0.00     0.073 C 
ATOM      9  O   UNL     1     197.336 194.382 188.688  1.00  0.00    -0.547 OA
ATOM     10  O   UNL     1     198.127 194.623 190.824  1.00  0.00    -0.547 OA
ENDBRANCH   3   8
BRANCH   4  11
ATOM     11  O   UNL     1     197.519 196.959 187.556  1.00  0.00    -0.387 OA
ATOM     12  H   UNL     1     197.500 197.833 187.085  1.00  0.00     0.211 HD
ENDBRANCH   4  11
BRANCH   6  13
ATOM     13  O   UNL     1     195.501 198.784 187.143  1.00  0.00    -0.387 OA
ATOM     14  H   UNL     1     196.383 199.102 186.813  1.00  0.00     0.211 HD
ENDBRANCH   6  13
BRANCH   7  15
ATOM     15  O   UNL     1     197.768 199.564 188.573  1.00  0.00    -0.384 OA
ATOM     16  H   UNL     1     197.523 199.691 187.619  1.00  0.00     0.211 HD
ENDBRANCH   7  15
ENDBRANCH   1   2
BRANCH   1  17
ATOM     17  C   UNL     1     195.785 198.396 192.884  1.00  0.00     0.172 A 
ATOM     18  C   UNL     1     194.623 198.130 193.644  1.00  0.00     0.205 A 
ATOM     19  C   UNL     1     196.996 198.625 193.530  1.00  0.00     0.097 A 
ATOM     20  C   UNL     1     194.725 198.055 195.059  1.00  0.00     0.188 A 
ATOM     21  C   UNL     1     197.121 198.542 194.914  1.00  0.00     0.134 A 
ATOM     22  C   UNL     1     195.970 198.291 195.709  1.00  0.00     0.111 A 
ATOM     23  O   UNL     1     193.649 197.757 195.784  1.00  0.00    -0.452 OA
ATOM     24  C   UNL     1     195.973 198.287 197.125  1.00  0.00     0.197 A 
ATOM     25  C   UNL     1     193.645 197.672 197.111  1.00  0.00     0.138 A 
ATOM     26  C   UNL     1     194.814 197.955 197.820  1.00  0.00     0.100 A 
ATOM     27  O   UNL     1     196.990 198.609 197.793  1.00  0.00    -0.289 OA
BRANCH  18  28
ATOM     28  O   UNL     1     193.405 197.972 192.959  1.00  0.00    -0.490 OA
ATOM     29  C   UNL     1     192.461 198.987 192.640  1.00  0.00     0.278 C 
ENDBRANCH  18  28
BRANCH  21  30
ATOM     30  O   UNL     1     198.413 198.682 195.430  1.00  0.00    -0.507 OA
ATOM     31  H   UNL     1     199.061 199.411 195.172  1.00  0.00     0.293 HD
ENDBRANCH  21  30
BRANCH  25  32
ATOM     32  C   UNL     1     192.392 197.292 197.807  1.00  0.00     0.017 A 
ATOM     33  C   UNL     1     192.416 196.543 199.001  1.00  0.00     0.012 A 
ATOM     34  C   UNL     1     191.147 197.647 197.255  1.00  0.00     0.012 A 
ATOM     35  C   UNL     1     191.223 196.176 199.631  1.00  0.00     0.001 A 
ATOM     36  C   UNL     1     189.958 197.277 197.888  1.00  0.00     0.001 A 
ATOM     37  C   UNL     1     189.994 196.543 199.075  1.00  0.00     0.000 A 
ENDBRANCH  25  32
ENDBRANCH   1  17
TORSDOF 9
ENDMDL
MODEL 5
REMARK VINA RESULT:    -5.437      3.926     10.296
REMARK INTER + INTRA:          -8.976
REMARK INTER:                  -7.652
REMARK INTRA:                  -1.324
REMARK UNBOUND:                -1.314
REMARK SMILES COc1c(O[C@H]2O[C@H](C(=O)[O-])[C@H](O)[C@H](O)[C@@H]2O)cc(O)c2c(=O)cc(-c3ccccc3)oc12
REMARK SMILES IDX 5 1 6 2 8 3 12 4 7 5 14 6 16 7 9 8 10 9 11 10 13 11 15 13
REMARK SMILES IDX 17 15 4 17 3 18 18 19 33 20 19 21 21 22 32 23 22 24 25 25
REMARK SMILES IDX 24 26 23 27 2 28 1 29 20 30 26 32 27 33 31 34 28 35 30 36
REMARK SMILES IDX 29 37
REMARK H PARENT 13 12 15 14 17 16 20 31
REMARK Flexibility Score: inf
ROOT
ATOM      1  O   UNL     1     196.128 199.203 198.279  1.00  0.00    -0.458 OA
ENDROOT
BRANCH   1   2
ATOM      2  C   UNL     1     195.413 197.959 198.267  1.00  0.00     0.339 C 
ATOM      3  C   UNL     1     193.332 199.051 198.234  1.00  0.00     0.199 C 
ATOM      4  C   UNL     1     192.981 198.557 196.813  1.00  0.00     0.180 C 
ATOM      5  O   UNL     1     194.156 198.113 198.910  1.00  0.00    -0.328 OA
ATOM      6  C   UNL     1     194.279 198.309 196.030  1.00  0.00     0.181 C 
ATOM      7  C   UNL     1     195.236 197.403 196.835  1.00  0.00     0.214 C 
BRANCH   3   8
ATOM      8  C   UNL     1     192.081 199.271 199.034  1.00  0.00     0.073 C 
ATOM      9  O   UNL     1     192.126 199.266 200.294  1.00  0.00    -0.547 OA
ATOM     10  O   UNL     1     190.877 199.544 198.394  1.00  0.00    -0.547 OA
ENDBRANCH   3   8
BRANCH   4  11
ATOM     11  O   UNL     1     192.229 197.368 196.874  1.00  0.00    -0.387 OA
ATOM     12  H   UNL     1     192.808 196.677 197.288  1.00  0.00     0.211 HD
ENDBRANCH   4  11
BRANCH   6  13
ATOM     13  O   UNL     1     193.980 197.737 194.784  1.00  0.00    -0.387 OA
ATOM     14  H   UNL     1     193.841 196.766 194.941  1.00  0.00     0.211 HD
ENDBRANCH   6  13
BRANCH   7  15
ATOM     15  O   UNL     1     194.730 196.094 196.913  1.00  0.00    -0.384 OA
ATOM     16  H   UNL     1     195.358 195.510 196.412  1.00  0.00     0.211 HD
ENDBRANCH   7  15
ENDBRANCH   1   2
BRANCH   1  17
ATOM     17  C   UNL     1     197.441 199.442 198.732  1.00  0.00     0.172 A 
ATOM     18  C   UNL     1     198.597 199.272 197.935  1.00  0.00     0.205 A 
ATOM     19  C   UNL     1     197.568 199.858 200.054  1.00  0.00     0.097 A 
ATOM     20  C   UNL     1     199.868 199.578 198.489  1.00  0.00     0.188 A 
ATOM     21  C   UNL     1     198.803 200.176 200.611  1.00  0.00     0.134 A 
ATOM     22  C   UNL     1     199.986 200.004 199.842  1.00  0.00     0.111 A 
ATOM     23  O   UNL     1     200.960 199.470 197.734  1.00  0.00    -0.452 OA
ATOM     24  C   UNL     1     201.293 200.203 200.349  1.00  0.00     0.197 A 
ATOM     25  C   UNL     1     202.192 199.726 198.165  1.00  0.00     0.138 A 
ATOM     26  C   UNL     1     202.390 200.084 199.501  1.00  0.00     0.100 A 
ATOM     27  O   UNL     1     201.510 200.454 201.563  1.00  0.00    -0.289 OA
BRANCH  18  28
ATOM     28  O   UNL     1     198.433 198.785 196.626  1.00  0.00    -0.490 OA
ATOM     29  C   UNL     1     198.088 199.536 195.468  1.00  0.00     0.278 C 
ENDBRANCH  18  28
BRANCH  21  30
ATOM     30  O   UNL     1     198.784 200.689 201.912  1.00  0.00    -0.507 OA
ATOM     31  H   UNL     1     198.075 200.488 202.601  1.00  0.00     0.293 HD
ENDBRANCH  21  30
BRANCH  25  32
ATOM     32  C   UNL     1     203.328 199.609 197.219  1.00  0.00     0.017 A 
ATOM     33  C   UNL     1     203.115 199.381 195.844  1.00  0.00     0.012 A 
ATOM     34  C   UNL     1     204.649 199.687 197.697  1.00  0.00     0.012 A 
ATOM     35  C   UNL     1     204.200 199.252 194.972  1.00  0.00     0.001 A 
ATOM     36  C   UNL     1     205.730 199.557 196.820  1.00  0.00     0.001 A 
ATOM     37  C   UNL     1     205.507 199.340 195.459  1.00  0.00     0.000 A 
ENDBRANCH  25  32
ENDBRANCH   1  17
TORSDOF 9
ENDMDL
MODEL 6
REMARK VINA RESULT:    -5.386      7.781     12.634
REMARK INTER + INTRA:          -8.904
REMARK INTER:                  -7.636
REMARK INTRA:                  -1.268
REMARK UNBOUND:                -1.314
REMARK SMILES COc1c(O[C@H]2O[C@H](C(=O)[O-])[C@H](O)[C@H](O)[C@@H]2O)cc(O)c2c(=O)cc(-c3ccccc3)oc12
REMARK SMILES IDX 5 1 6 2 8 3 12 4 7 5 14 6 16 7 9 8 10 9 11 10 13 11 15 13
REMARK SMILES IDX 17 15 4 17 3 18 18 19 33 20 19 21 21 22 32 23 22 24 25 25
REMARK SMILES IDX 24 26 23 27 2 28 1 29 20 30 26 32 27 33 31 34 28 35 30 36
REMARK SMILES IDX 29 37
REMARK H PARENT 13 12 15 14 17 16 20 31
REMARK Flexibility Score: inf
ROOT
ATOM      1  O   UNL     1     193.791 197.418 200.239  1.00  0.00    -0.458 OA
ENDROOT
BRANCH   1   2
ATOM      2  C   UNL     1     192.785 198.225 200.867  1.00  0.00     0.339 C 
ATOM      3  C   UNL     1     192.034 196.427 202.181  1.00  0.00     0.199 C 
ATOM      4  C   UNL     1     192.500 197.068 203.506  1.00  0.00     0.180 C 
ATOM      5  O   UNL     1     191.673 197.421 201.234  1.00  0.00    -0.328 OA
ATOM      6  C   UNL     1     193.683 198.006 203.225  1.00  0.00     0.181 C 
ATOM      7  C   UNL     1     193.337 198.994 202.090  1.00  0.00     0.214 C 
BRANCH   3   8
ATOM      8  C   UNL     1     190.856 195.528 202.422  1.00  0.00     0.073 C 
ATOM      9  O   UNL     1     190.211 195.055 201.447  1.00  0.00    -0.547 OA
ATOM     10  O   UNL     1     190.506 195.160 203.716  1.00  0.00    -0.547 OA
ENDBRANCH   3   8
BRANCH   4  11
ATOM     11  O   UNL     1     191.451 197.793 204.102  1.00  0.00    -0.387 OA
ATOM     12  H   UNL     1     191.847 198.329 204.837  1.00  0.00     0.211 HD
ENDBRANCH   4  11
BRANCH   6  13
ATOM     13  O   UNL     1     194.034 198.694 204.397  1.00  0.00    -0.387 OA
ATOM     14  H   UNL     1     194.993 198.498 204.566  1.00  0.00     0.211 HD
ENDBRANCH   6  13
BRANCH   7  15
ATOM     15  O   UNL     1     192.372 199.921 202.519  1.00  0.00    -0.384 OA
ATOM     16  H   UNL     1     192.800 200.484 203.216  1.00  0.00     0.211 HD
ENDBRANCH   7  15
ENDBRANCH   1   2
BRANCH   1  17
ATOM     17  C   UNL     1     194.511 197.696 199.060  1.00  0.00     0.172 A 
ATOM     18  C   UNL     1     193.992 197.528 197.755  1.00  0.00     0.205 A 
ATOM     19  C   UNL     1     195.815 198.153 199.230  1.00  0.00     0.097 A 
ATOM     20  C   UNL     1     194.799 197.875 196.640  1.00  0.00     0.188 A 
ATOM     21  C   UNL     1     196.618 198.512 198.151  1.00  0.00     0.134 A 
ATOM     22  C   UNL     1     196.131 198.342 196.827  1.00  0.00     0.111 A 
ATOM     23  O   UNL     1     194.305 197.768 195.408  1.00  0.00    -0.452 OA
ATOM     24  C   UNL     1     196.904 198.582 195.665  1.00  0.00     0.197 A 
ATOM     25  C   UNL     1     194.985 198.062 194.304  1.00  0.00     0.138 A 
ATOM     26  C   UNL     1     196.320 198.462 194.407  1.00  0.00     0.100 A 
ATOM     27  O   UNL     1     198.127 198.872 195.722  1.00  0.00    -0.289 OA
BRANCH  18  28
ATOM     28  O   UNL     1     192.695 197.000 197.623  1.00  0.00    -0.490 OA
ATOM     29  C   UNL     1     191.485 197.729 197.454  1.00  0.00     0.278 C 
ENDBRANCH  18  28
BRANCH  21  30
ATOM     30  O   UNL     1     197.866 199.061 198.462  1.00  0.00    -0.507 OA
ATOM     31  H   UNL     1     198.621 198.563 198.907  1.00  0.00     0.293 HD
ENDBRANCH  21  30
BRANCH  25  32
ATOM     32  C   UNL     1     194.314 197.941 192.987  1.00  0.00     0.017 A 
ATOM     33  C   UNL     1     192.939 198.211 192.839  1.00  0.00     0.012 A 
ATOM     34  C   UNL     1     195.045 197.513 191.864  1.00  0.00     0.012 A 
ATOM     35  C   UNL     1     192.319 198.070 191.594  1.00  0.00     0.001 A 
ATOM     36  C   UNL     1     194.421 197.374 190.621  1.00  0.00     0.001 A 
ATOM     37  C   UNL     1     193.060 197.653 190.485  1.00  0.00     0.000 A 
ENDBRANCH  25  32
ENDBRANCH   1  17
TORSDOF 9
ENDMDL
MODEL 7
REMARK VINA RESULT:    -5.269      8.488     12.570
REMARK INTER + INTRA:          -8.739
REMARK INTER:                  -7.316
REMARK INTRA:                  -1.423
REMARK UNBOUND:                -1.314
REMARK SMILES COc1c(O[C@H]2O[C@H](C(=O)[O-])[C@H](O)[C@H](O)[C@@H]2O)cc(O)c2c(=O)cc(-c3ccccc3)oc12
REMARK SMILES IDX 5 1 6 2 8 3 12 4 7 5 14 6 16 7 9 8 10 9 11 10 13 11 15 13
REMARK SMILES IDX 17 15 4 17 3 18 18 19 33 20 19 21 21 22 32 23 22 24 25 25
REMARK SMILES IDX 24 26 23 27 2 28 1 29 20 30 26 32 27 33 31 34 28 35 30 36
REMARK SMILES IDX 29 37
REMARK H PARENT 13 12 15 14 17 16 20 31
REMARK Flexibility Score: inf
ROOT
ATOM      1  O   UNL     1     193.041 198.840 196.005  1.00  0.00    -0.458 OA
ENDROOT
BRANCH   1   2
ATOM      2  C   UNL     1     192.928 197.932 197.110  1.00  0.00     0.339 C 
ATOM      3  C   UNL     1     194.773 198.894 198.205  1.00  0.00     0.199 C 
ATOM      4  C   UNL     1     193.923 199.446 199.369  1.00  0.00     0.180 C 
ATOM      5  O   UNL     1     194.208 197.700 197.683  1.00  0.00    -0.328 OA
ATOM      6  C   UNL     1     192.490 199.694 198.875  1.00  0.00     0.181 C 
ATOM      7  C   UNL     1     191.929 198.437 198.177  1.00  0.00     0.214 C 
BRANCH   3   8
ATOM      8  C   UNL     1     196.173 198.612 198.668  1.00  0.00     0.073 C 
ATOM      9  O   UNL     1     196.599 199.117 199.741  1.00  0.00    -0.547 OA
ATOM     10  O   UNL     1     196.987 197.742 197.951  1.00  0.00    -0.547 OA
ENDBRANCH   3   8
BRANCH   4  11
ATOM     11  O   UNL     1     193.904 198.537 200.444  1.00  0.00    -0.387 OA
ATOM     12  H   UNL     1     194.249 197.672 200.100  1.00  0.00     0.211 HD
ENDBRANCH   4  11
BRANCH   6  13
ATOM     13  O   UNL     1     191.674 200.073 199.953  1.00  0.00    -0.387 OA
ATOM     14  H   UNL     1     190.743 199.833 199.704  1.00  0.00     0.211 HD
ENDBRANCH   6  13
BRANCH   7  15
ATOM     15  O   UNL     1     191.704 197.411 199.112  1.00  0.00    -0.384 OA
ATOM     16  H   UNL     1     192.140 197.689 199.959  1.00  0.00     0.211 HD
ENDBRANCH   7  15
ENDBRANCH   1   2
BRANCH   1  17
ATOM     17  C   UNL     1     193.102 198.527 194.632  1.00  0.00     0.172 A 
ATOM     18  C   UNL     1     194.279 198.118 193.964  1.00  0.00     0.205 A 
ATOM     19  C   UNL     1     191.912 198.652 193.921  1.00  0.00     0.097 A 
ATOM     20  C   UNL     1     194.213 197.794 192.583  1.00  0.00     0.188 A 
ATOM     21  C   UNL     1     191.822 198.327 192.570  1.00  0.00     0.134 A 
ATOM     22  C   UNL     1     192.990 197.925 191.866  1.00  0.00     0.111 A 
ATOM     23  O   UNL     1     195.303 197.360 191.954  1.00  0.00    -0.452 OA
ATOM     24  C   UNL     1     193.023 197.671 190.473  1.00  0.00     0.197 A 
ATOM     25  C   UNL     1     195.341 197.041 190.663  1.00  0.00     0.138 A 
ATOM     26  C   UNL     1     194.195 197.208 189.881  1.00  0.00     0.100 A 
ATOM     27  O   UNL     1     192.030 197.881 189.730  1.00  0.00    -0.289 OA
BRANCH  18  28
ATOM     28  O   UNL     1     195.475 198.069 194.702  1.00  0.00    -0.490 OA
ATOM     29  C   UNL     1     196.435 199.109 194.851  1.00  0.00     0.278 C 
ENDBRANCH  18  28
BRANCH  21  30
ATOM     30  O   UNL     1     190.547 198.388 192.000  1.00  0.00    -0.507 OA
ATOM     31  H   UNL     1     190.030 199.238 191.833  1.00  0.00     0.293 HD
ENDBRANCH  21  30
BRANCH  25  32
ATOM     32  C   UNL     1     196.605 196.529 190.082  1.00  0.00     0.017 A 
ATOM     33  C   UNL     1     197.388 197.323 189.218  1.00  0.00     0.012 A 
ATOM     34  C   UNL     1     197.023 195.215 190.359  1.00  0.00     0.012 A 
ATOM     35  C   UNL     1     198.565 196.814 188.662  1.00  0.00     0.001 A 
ATOM     36  C   UNL     1     198.202 194.712 189.801  1.00  0.00     0.001 A 
ATOM     37  C   UNL     1     198.973 195.510 188.954  1.00  0.00     0.000 A 
ENDBRANCH  25  32
ENDBRANCH   1  17
TORSDOF 9
ENDMDL
MODEL 8
REMARK VINA RESULT:    -5.251      8.870     12.466
REMARK INTER + INTRA:          -8.715
REMARK INTER:                  -7.472
REMARK INTRA:                  -1.243
REMARK UNBOUND:                -1.314
REMARK SMILES COc1c(O[C@H]2O[C@H](C(=O)[O-])[C@H](O)[C@H](O)[C@@H]2O)cc(O)c2c(=O)cc(-c3ccccc3)oc12
REMARK SMILES IDX 5 1 6 2 8 3 12 4 7 5 14 6 16 7 9 8 10 9 11 10 13 11 15 13
REMARK SMILES IDX 17 15 4 17 3 18 18 19 33 20 19 21 21 22 32 23 22 24 25 25
REMARK SMILES IDX 24 26 23 27 2 28 1 29 20 30 26 32 27 33 31 34 28 35 30 36
REMARK SMILES IDX 29 37
REMARK H PARENT 13 12 15 14 17 16 20 31
REMARK Flexibility Score: inf
ROOT
ATOM      1  O   UNL     1     193.348 197.692 198.442  1.00  0.00    -0.458 OA
ENDROOT
BRANCH   1   2
ATOM      2  C   UNL     1     193.366 198.596 199.557  1.00  0.00     0.339 C 
ATOM      3  C   UNL     1     193.084 196.844 201.098  1.00  0.00     0.199 C 
ATOM      4  C   UNL     1     194.487 197.027 201.718  1.00  0.00     0.180 C 
ATOM      5  O   UNL     1     192.574 198.078 200.617  1.00  0.00    -0.328 OA
ATOM      6  C   UNL     1     195.428 197.632 200.665  1.00  0.00     0.181 C 
ATOM      7  C   UNL     1     194.805 198.897 200.038  1.00  0.00     0.214 C 
BRANCH   3   8
ATOM      8  C   UNL     1     192.133 196.284 202.116  1.00  0.00     0.073 C 
ATOM      9  O   UNL     1     191.932 196.896 203.199  1.00  0.00    -0.547 OA
ATOM     10  O   UNL     1     191.421 195.121 201.845  1.00  0.00    -0.547 OA
ENDBRANCH   3   8
BRANCH   4  11
ATOM     11  O   UNL     1     194.425 197.874 202.841  1.00  0.00    -0.387 OA
ATOM     12  H   UNL     1     194.478 197.295 203.646  1.00  0.00     0.211 HD
ENDBRANCH   4  11
BRANCH   6  13
ATOM     13  O   UNL     1     196.670 197.925 201.251  1.00  0.00    -0.387 OA
ATOM     14  H   UNL     1     197.257 198.260 200.522  1.00  0.00     0.211 HD
ENDBRANCH   6  13
BRANCH   7  15
ATOM     15  O   UNL     1     194.762 199.944 200.975  1.00  0.00    -0.384 OA
ATOM     16  H   UNL     1     195.636 199.949 201.445  1.00  0.00     0.211 HD
ENDBRANCH   7  15
ENDBRANCH   1   2
BRANCH   1  17
ATOM     17  C   UNL     1     193.171 198.004 197.079  1.00  0.00     0.172 A 
ATOM     18  C   UNL     1     194.144 197.768 196.080  1.00  0.00     0.205 A 
ATOM     19  C   UNL     1     191.956 198.589 196.736  1.00  0.00     0.097 A 
ATOM     20  C   UNL     1     193.841 198.091 194.731  1.00  0.00     0.188 A 
ATOM     21  C   UNL     1     191.634 198.900 195.418  1.00  0.00     0.134 A 
ATOM     22  C   UNL     1     192.594 198.689 194.391  1.00  0.00     0.111 A 
ATOM     23  O   UNL     1     194.729 197.828 193.774  1.00  0.00    -0.452 OA
ATOM     24  C   UNL     1     192.401 199.064 193.040  1.00  0.00     0.197 A 
ATOM     25  C   UNL     1     194.539 198.102 192.486  1.00  0.00     0.138 A 
ATOM     26  C   UNL     1     193.366 198.749 192.088  1.00  0.00     0.100 A 
ATOM     27  O   UNL     1     191.390 199.713 192.663  1.00  0.00    -0.289 OA
BRANCH  18  28
ATOM     28  O   UNL     1     195.385 197.238 196.477  1.00  0.00    -0.490 OA
ATOM     29  C   UNL     1     196.534 197.965 196.897  1.00  0.00     0.278 C 
ENDBRANCH  18  28
BRANCH  21  30
ATOM     30  O   UNL     1     190.340 199.379 195.192  1.00  0.00    -0.507 OA
ATOM     31  H   UNL     1     189.716 199.041 194.475  1.00  0.00     0.293 HD
ENDBRANCH  21  30
BRANCH  25  32
ATOM     32  C   UNL     1     195.585 197.725 191.505  1.00  0.00     0.017 A 
ATOM     33  C   UNL     1     196.690 198.564 191.255  1.00  0.00     0.012 A 
ATOM     34  C   UNL     1     195.465 196.529 190.776  1.00  0.00     0.012 A 
ATOM     35  C   UNL     1     197.655 198.202 190.310  1.00  0.00     0.001 A 
ATOM     36  C   UNL     1     196.432 196.171 189.833  1.00  0.00     0.001 A 
ATOM     37  C   UNL     1     197.526 197.006 189.600  1.00  0.00     0.000 A 
ENDBRANCH  25  32
ENDBRANCH   1  17
TORSDOF 9
ENDMDL
MODEL 9
REMARK VINA RESULT:    -5.163      7.713     12.317
REMARK INTER + INTRA:          -8.590
REMARK INTER:                  -7.120
REMARK INTRA:                  -1.470
REMARK UNBOUND:                -1.314
REMARK SMILES COc1c(O[C@H]2O[C@H](C(=O)[O-])[C@H](O)[C@H](O)[C@@H]2O)cc(O)c2c(=O)cc(-c3ccccc3)oc12
REMARK SMILES IDX 5 1 6 2 8 3 12 4 7 5 14 6 16 7 9 8 10 9 11 10 13 11 15 13
REMARK SMILES IDX 17 15 4 17 3 18 18 19 33 20 19 21 21 22 32 23 22 24 25 25
REMARK SMILES IDX 24 26 23 27 2 28 1 29 20 30 26 32 27 33 31 34 28 35 30 36
REMARK SMILES IDX 29 37
REMARK H PARENT 13 12 15 14 17 16 20 31
REMARK Flexibility Score: inf
ROOT
ATOM      1  O   UNL     1     193.778 198.350 195.378  1.00  0.00    -0.458 OA
ENDROOT
BRANCH   1   2
ATOM      2  C   UNL     1     194.034 197.303 196.325  1.00  0.00     0.339 C 
ATOM      3  C   UNL     1     195.759 198.529 197.351  1.00  0.00     0.199 C 
ATOM      4  C   UNL     1     194.987 198.699 198.677  1.00  0.00     0.180 C 
ATOM      5  O   UNL     1     195.403 197.314 196.706  1.00  0.00    -0.328 OA
ATOM      6  C   UNL     1     193.478 198.655 198.394  1.00  0.00     0.181 C 
ATOM      7  C   UNL     1     193.116 197.403 197.566  1.00  0.00     0.214 C 
BRANCH   3   8
ATOM      8  C   UNL     1     197.239 198.536 197.602  1.00  0.00     0.073 C 
ATOM      9  O   UNL     1     197.715 199.202 198.560  1.00  0.00    -0.547 OA
ATOM     10  O   UNL     1     198.087 197.759 196.820  1.00  0.00    -0.547 OA
ENDBRANCH   3   8
BRANCH   4  11
ATOM     11  O   UNL     1     195.330 197.677 199.583  1.00  0.00    -0.387 OA
ATOM     12  H   UNL     1     195.885 197.021 199.087  1.00  0.00     0.211 HD
ENDBRANCH   4  11
BRANCH   6  13
ATOM     13  O   UNL     1     192.766 198.677 199.603  1.00  0.00    -0.387 OA
ATOM     14  H   UNL     1     193.055 199.494 200.089  1.00  0.00     0.211 HD
ENDBRANCH   6  13
BRANCH   7  15
ATOM     15  O   UNL     1     193.265 196.239 198.338  1.00  0.00    -0.384 OA
ATOM     16  H   UNL     1     192.511 196.220 198.985  1.00  0.00     0.211 HD
ENDBRANCH   7  15
ENDBRANCH   1   2
BRANCH   1  17
ATOM     17  C   UNL     1     193.630 198.235 193.981  1.00  0.00     0.172 A 
ATOM     18  C   UNL     1     194.712 198.172 193.073  1.00  0.00     0.205 A 
ATOM     19  C   UNL     1     192.324 198.195 193.504  1.00  0.00     0.097 A 
ATOM     20  C   UNL     1     194.442 198.021 191.687  1.00  0.00     0.188 A 
ATOM     21  C   UNL     1     192.038 198.033 192.151  1.00  0.00     0.134 A 
ATOM     22  C   UNL     1     193.102 197.981 191.210  1.00  0.00     0.111 A 
ATOM     23  O   UNL     1     195.452 197.911 190.826  1.00  0.00    -0.452 OA
ATOM     24  C   UNL     1     192.913 197.919 189.808  1.00  0.00     0.197 A 
ATOM     25  C   UNL     1     195.299 197.774 189.512  1.00  0.00     0.138 A 
ATOM     26  C   UNL     1     194.014 197.794 188.965  1.00  0.00     0.100 A 
ATOM     27  O   UNL     1     191.774 198.007 189.281  1.00  0.00    -0.289 OA
BRANCH  18  28
ATOM     28  O   UNL     1     196.016 198.284 193.588  1.00  0.00    -0.490 OA
ATOM     29  C   UNL     1     196.740 199.483 193.839  1.00  0.00     0.278 C 
ENDBRANCH  18  28
BRANCH  21  30
ATOM     30  O   UNL     1     190.688 197.895 191.814  1.00  0.00    -0.507 OA
ATOM     31  H   UNL     1     190.032 198.658 191.736  1.00  0.00     0.293 HD
ENDBRANCH  21  30
BRANCH  25  32
ATOM     32  C   UNL     1     196.501 197.621 188.657  1.00  0.00     0.017 A 
ATOM     33  C   UNL     1     197.745 197.246 189.203  1.00  0.00     0.012 A 
ATOM     34  C   UNL     1     196.419 197.888 187.278  1.00  0.00     0.012 A 
ATOM     35  C   UNL     1     198.872 197.128 188.383  1.00  0.00     0.001 A 
ATOM     36  C   UNL     1     197.548 197.768 186.463  1.00  0.00     0.001 A 
ATOM     37  C   UNL     1     198.773 197.388 187.014  1.00  0.00     0.000 A 
ENDBRANCH  25  32
ENDBRANCH   1  17
TORSDOF 9
ENDMDL
