MODEL 1
REMARK VINA RESULT:    -3.066      0.000      0.000
REMARK INTER + INTRA:          -4.764
REMARK INTER:                  -4.501
REMARK INTRA:                  -0.264
REMARK UNBOUND:                -0.264
REMARK SMILES O=C([O-])CCCCCCCC(=O)[O-]
REMARK SMILES IDX 7 1 6 2 5 3 4 4 2 5 1 6 3 7 8 8 9 9 10 10 11 11 12 12 13 13
REMARK H PARENT
REMARK Flexibility Score: inf
ROOT
ATOM      1  C   UNL     1       3.490 -51.702  10.036  1.00  0.00     0.000 C 
ENDROOT
BRANCH   1   2
ATOM      2  C   UNL     1       4.252 -52.471  11.122  1.00  0.00     0.000 C 
BRANCH   2   3
ATOM      3  C   UNL     1       5.039 -53.643  10.517  1.00  0.00     0.006 C 
BRANCH   3   4
ATOM      4  C   UNL     1       6.266 -53.172   9.726  1.00  0.00     0.053 C 
BRANCH   4   5
ATOM      5  C   UNL     1       7.520 -53.265  10.539  1.00  0.00     0.041 C 
ATOM      6  O   UNL     1       7.894 -54.374  11.005  1.00  0.00    -0.550 OA
ATOM      7  O   UNL     1       8.293 -52.132  10.756  1.00  0.00    -0.550 OA
ENDBRANCH   4   5
ENDBRANCH   3   4
ENDBRANCH   2   3
ENDBRANCH   1   2
BRANCH   1   8
ATOM      8  C   UNL     1       3.047 -50.322  10.549  1.00  0.00     0.000 C 
BRANCH   8   9
ATOM      9  C   UNL     1       1.607 -50.326  11.086  1.00  0.00     0.006 C 
BRANCH   9  10
ATOM     10  C   UNL     1       0.579 -50.728  10.021  1.00  0.00     0.053 C 
BRANCH  10  11
ATOM     11  C   UNL     1      -0.572 -49.771  10.020  1.00  0.00     0.041 C 
ATOM     12  O   UNL     1      -1.070 -49.378  11.108  1.00  0.00    -0.550 OA
ATOM     13  O   UNL     1      -1.125 -49.351   8.817  1.00  0.00    -0.550 OA
ENDBRANCH  10  11
ENDBRANCH   9  10
ENDBRANCH   8   9
ENDBRANCH   1   8
TORSDOF 8
ENDMDL
MODEL 2
REMARK VINA RESULT:    -3.035      1.101      7.058
REMARK INTER + INTRA:          -4.718
REMARK INTER:                  -4.287
REMARK INTRA:                  -0.431
REMARK UNBOUND:                -0.264
REMARK SMILES O=C([O-])CCCCCCCC(=O)[O-]
REMARK SMILES IDX 7 1 6 2 5 3 4 4 2 5 1 6 3 7 8 8 9 9 10 10 11 11 12 12 13 13
REMARK H PARENT
REMARK Flexibility Score: inf
ROOT
ATOM      1  C   UNL     1       3.812 -51.837   9.632  1.00  0.00     0.000 C 
ENDROOT
BRANCH   1   2
ATOM      2  C   UNL     1       2.847 -50.647   9.674  1.00  0.00     0.000 C 
BRANCH   2   3
ATOM      3  C   UNL     1       2.319 -50.416  11.097  1.00  0.00     0.006 C 
BRANCH   3   4
ATOM      4  C   UNL     1       0.845 -49.988  11.109  1.00  0.00     0.053 C 
BRANCH   4   5
ATOM      5  C   UNL     1      -0.038 -51.023  10.483  1.00  0.00     0.041 C 
ATOM      6  O   UNL     1      -0.687 -50.755   9.438  1.00  0.00    -0.550 OA
ATOM      7  O   UNL     1      -0.119 -52.294  11.037  1.00  0.00    -0.550 OA
ENDBRANCH   4   5
ENDBRANCH   3   4
ENDBRANCH   2   3
ENDBRANCH   1   2
BRANCH   1   8
ATOM      8  C   UNL     1       4.101 -52.361  11.047  1.00  0.00     0.000 C 
BRANCH   8   9
ATOM      9  C   UNL     1       5.250 -53.381  11.078  1.00  0.00     0.006 C 
BRANCH   9  10
ATOM     10  C   UNL     1       6.249 -53.181   9.931  1.00  0.00     0.053 C 
BRANCH  10  11
ATOM     11  C   UNL     1       7.653 -53.271  10.441  1.00  0.00     0.041 C 
ATOM     12  O   UNL     1       8.145 -54.388  10.750  1.00  0.00    -0.550 OA
ATOM     13  O   UNL     1       8.402 -52.115  10.621  1.00  0.00    -0.550 OA
ENDBRANCH  10  11
ENDBRANCH   9  10
ENDBRANCH   8   9
ENDBRANCH   1   8
TORSDOF 8
ENDMDL
MODEL 3
REMARK VINA RESULT:    -1.585      4.740      5.613
REMARK INTER + INTRA:          -2.591
REMARK INTER:                  -2.388
REMARK INTRA:                  -0.203
REMARK UNBOUND:                -0.264
REMARK SMILES O=C([O-])CCCCCCCC(=O)[O-]
REMARK SMILES IDX 7 1 6 2 5 3 4 4 2 5 1 6 3 7 8 8 9 9 10 10 11 11 12 12 13 13
REMARK H PARENT
REMARK Flexibility Score: inf
ROOT
ATOM      1  C   UNL     1       3.352 -54.866  11.123  1.00  0.00     0.000 C 
ENDROOT
BRANCH   1   2
ATOM      2  C   UNL     1       3.570 -56.283  10.582  1.00  0.00     0.000 C 
BRANCH   2   3
ATOM      3  C   UNL     1       2.489 -57.243  11.099  1.00  0.00     0.006 C 
BRANCH   3   4
ATOM      4  C   UNL     1       2.896 -58.714  10.947  1.00  0.00     0.053 C 
BRANCH   4   5
ATOM      5  C   UNL     1       1.702 -59.612  10.835  1.00  0.00     0.041 C 
ATOM      6  O   UNL     1       1.845 -60.862  10.834  1.00  0.00    -0.550 OA
ATOM      7  O   UNL     1       0.427 -59.065  10.762  1.00  0.00    -0.550 OA
ENDBRANCH   4   5
ENDBRANCH   3   4
ENDBRANCH   2   3
ENDBRANCH   1   2
BRANCH   1   8
ATOM      8  C   UNL     1       4.116 -53.832  10.281  1.00  0.00     0.000 C 
BRANCH   8   9
ATOM      9  C   UNL     1       3.842 -52.387  10.726  1.00  0.00     0.006 C 
BRANCH   9  10
ATOM     10  C   UNL     1       2.350 -52.110  10.949  1.00  0.00     0.053 C 
BRANCH  10  11
ATOM     11  C   UNL     1       2.004 -50.726  10.497  1.00  0.00     0.041 C 
ATOM     12  O   UNL     1       1.141 -50.052  11.120  1.00  0.00    -0.550 OA
ATOM     13  O   UNL     1       2.599 -50.197   9.359  1.00  0.00    -0.550 OA
ENDBRANCH  10  11
ENDBRANCH   9  10
ENDBRANCH   8   9
ENDBRANCH   1   8
TORSDOF 8
ENDMDL
MODEL 4
REMARK VINA RESULT:    -1.307      1.408      1.836
REMARK INTER + INTRA:          -2.182
REMARK INTER:                  -2.038
REMARK INTRA:                  -0.144
REMARK UNBOUND:                -0.264
REMARK SMILES O=C([O-])CCCCCCCC(=O)[O-]
REMARK SMILES IDX 7 1 6 2 5 3 4 4 2 5 1 6 3 7 8 8 9 9 10 10 11 11 12 12 13 13
REMARK H PARENT
REMARK Flexibility Score: inf
ROOT
ATOM      1  C   UNL     1       2.756 -50.170  10.410  1.00  0.00     0.000 C 
ENDROOT
BRANCH   1   2
ATOM      2  C   UNL     1       3.405 -51.382   9.731  1.00  0.00     0.000 C 
BRANCH   2   3
ATOM      3  C   UNL     1       4.016 -52.334  10.770  1.00  0.00     0.006 C 
BRANCH   3   4
ATOM      4  C   UNL     1       4.803 -53.479  10.119  1.00  0.00     0.053 C 
BRANCH   4   5
ATOM      5  C   UNL     1       6.182 -53.600  10.691  1.00  0.00     0.041 C 
ATOM      6  O   UNL     1       6.594 -54.707  11.125  1.00  0.00    -0.550 OA
ATOM      7  O   UNL     1       7.023 -52.495  10.714  1.00  0.00    -0.550 OA
ENDBRANCH   4   5
ENDBRANCH   3   4
ENDBRANCH   2   3
ENDBRANCH   1   2
BRANCH   1   8
ATOM      8  C   UNL     1       1.456 -50.572  11.125  1.00  0.00     0.000 C 
BRANCH   8   9
ATOM      9  C   UNL     1       0.326 -49.552  10.916  1.00  0.00     0.006 C 
BRANCH   9  10
ATOM     10  C   UNL     1      -0.534 -49.866   9.685  1.00  0.00     0.053 C 
BRANCH  10  11
ATOM     11  C   UNL     1      -0.547 -51.339   9.421  1.00  0.00     0.041 C 
ATOM     12  O   UNL     1      -1.058 -52.129  10.259  1.00  0.00    -0.550 OA
ATOM     13  O   UNL     1       0.046 -51.844   8.272  1.00  0.00    -0.550 OA
ENDBRANCH  10  11
ENDBRANCH   9  10
ENDBRANCH   8   9
ENDBRANCH   1   8
TORSDOF 8
ENDMDL
MODEL 5
REMARK VINA RESULT:    -0.388      1.953      2.628
REMARK INTER + INTRA:          -0.834
REMARK INTER:                  -1.776
REMARK INTRA:                   0.942
REMARK UNBOUND:                -0.264
REMARK SMILES O=C([O-])CCCCCCCC(=O)[O-]
REMARK SMILES IDX 7 1 6 2 5 3 4 4 2 5 1 6 3 7 8 8 9 9 10 10 11 11 12 12 13 13
REMARK H PARENT
REMARK Flexibility Score: inf
ROOT
ATOM      1  C   UNL     1       2.906 -50.421   9.004  1.00  0.00     0.000 C 
ENDROOT
BRANCH   1   2
ATOM      2  C   UNL     1       3.714 -51.337   8.078  1.00  0.00     0.000 C 
BRANCH   2   3
ATOM      3  C   UNL     1       4.672 -52.228   8.883  1.00  0.00     0.006 C 
BRANCH   3   4
ATOM      4  C   UNL     1       4.274 -52.323  10.361  1.00  0.00     0.053 C 
BRANCH   4   5
ATOM      5  C   UNL     1       4.385 -53.725  10.877  1.00  0.00     0.041 C 
ATOM      6  O   UNL     1       5.514 -54.223  11.122  1.00  0.00    -0.550 OA
ATOM      7  O   UNL     1       3.237 -54.469  11.117  1.00  0.00    -0.550 OA
ENDBRANCH   4   5
ENDBRANCH   3   4
ENDBRANCH   2   3
ENDBRANCH   1   2
BRANCH   1   8
ATOM      8  C   UNL     1       1.897 -51.231   9.833  1.00  0.00     0.000 C 
BRANCH   8   9
ATOM      9  C   UNL     1       1.378 -50.455  11.054  1.00  0.00     0.006 C 
BRANCH   9  10
ATOM     10  C   UNL     1       0.027 -49.777  10.794  1.00  0.00     0.053 C 
BRANCH  10  11
ATOM     11  C   UNL     1      -0.744 -50.532   9.757  1.00  0.00     0.041 C 
ATOM     12  O   UNL     1      -1.118 -49.957   8.701  1.00  0.00    -0.550 OA
ATOM     13  O   UNL     1      -1.091 -51.859   9.979  1.00  0.00    -0.550 OA
ENDBRANCH  10  11
ENDBRANCH   9  10
ENDBRANCH   8   9
ENDBRANCH   1   8
TORSDOF 8
ENDMDL
