MODEL 1
REMARK VINA RESULT:    -7.086      0.000      0.000
REMARK INTER + INTRA:          -8.592
REMARK INTER:                  -8.535
REMARK INTRA:                  -0.057
REMARK UNBOUND:                -0.057
REMARK SMILES Oc1cc(O)c2c(c1)O[C@@H](c1ccc(O)c(O)c1)[C@H](O)C2
REMARK SMILES IDX 21 1 19 2 10 3 9 4 7 5 8 6 2 7 3 8 4 9 6 10 20 11 11 13
REMARK SMILES IDX 18 14 12 15 16 16 13 17 14 18 17 19 15 21 5 23 1 25
REMARK H PARENT 20 12 17 20 15 22 5 24 1 26
REMARK Flexibility Score: inf
ROOT
ATOM      1  C   UNL     1     -25.955  17.975 -38.830  1.00  0.00     0.079 C 
ATOM      2  C   UNL     1     -26.348  17.148 -37.595  1.00  0.00     0.164 C 
ATOM      3  C   UNL     1     -25.103  16.455 -37.013  1.00  0.00     0.232 C 
ATOM      4  O   UNL     1     -24.105  17.430 -36.707  1.00  0.00    -0.482 OA
ATOM      5  C   UNL     1     -23.870  18.541 -37.522  1.00  0.00     0.131 A 
ATOM      6  C   UNL     1     -22.762  19.351 -37.262  1.00  0.00     0.093 A 
ATOM      7  C   UNL     1     -22.493  20.458 -38.068  1.00  0.00     0.122 A 
ATOM      8  C   UNL     1     -23.332  20.753 -39.148  1.00  0.00     0.092 A 
ATOM      9  C   UNL     1     -24.446  19.952 -39.424  1.00  0.00     0.126 A 
ATOM     10  C   UNL     1     -24.748  18.854 -38.582  1.00  0.00     0.039 A 
ENDROOT
BRANCH   2  11
ATOM     11  O   UNL     1     -27.309  16.195 -37.973  1.00  0.00    -0.389 OA
ATOM     12  H   UNL     1     -28.200  16.605 -37.821  1.00  0.00     0.211 HD
ENDBRANCH   2  11
BRANCH   3  13
ATOM     13  C   UNL     1     -25.441  15.673 -35.765  1.00  0.00    -0.001 A 
ATOM     14  C   UNL     1     -25.050  16.150 -34.502  1.00  0.00     0.057 A 
ATOM     15  C   UNL     1     -26.105  14.439 -35.855  1.00  0.00     0.012 A 
ATOM     16  C   UNL     1     -25.335  15.413 -33.342  1.00  0.00     0.157 A 
ATOM     17  C   UNL     1     -26.391  13.704 -34.701  1.00  0.00     0.050 A 
ATOM     18  C   UNL     1     -26.010  14.185 -33.445  1.00  0.00     0.157 A 
BRANCH  16  19
ATOM     19  O   UNL     1     -24.947  15.896 -32.094  1.00  0.00    -0.504 OA
ATOM     20  H   UNL     1     -25.514  16.561 -31.582  1.00  0.00     0.293 HD
ENDBRANCH  16  19
BRANCH  18  21
ATOM     21  O   UNL     1     -26.309  13.430 -32.311  1.00  0.00    -0.504 OA
ATOM     22  H   UNL     1     -27.261  13.286 -31.997  1.00  0.00     0.293 HD
ENDBRANCH  18  21
ENDBRANCH   3  13
BRANCH   9  23
ATOM     23  O   UNL     1     -25.221  20.268 -40.542  1.00  0.00    -0.507 OA
ATOM     24  H   UNL     1     -25.242  19.704 -41.381  1.00  0.00     0.293 HD
ENDBRANCH   9  23
BRANCH   7  25
ATOM     25  O   UNL     1     -21.383  21.255 -37.792  1.00  0.00    -0.508 OA
ATOM     26  H   UNL     1     -20.519  21.157 -38.312  1.00  0.00     0.293 HD
ENDBRANCH   7  25
TORSDOF 6
ENDMDL
MODEL 2
REMARK VINA RESULT:    -6.971      5.727      7.542
REMARK INTER + INTRA:          -8.454
REMARK INTER:                  -8.269
REMARK INTRA:                  -0.185
REMARK UNBOUND:                -0.057
REMARK SMILES Oc1cc(O)c2c(c1)O[C@@H](c1ccc(O)c(O)c1)[C@H](O)C2
REMARK SMILES IDX 21 1 19 2 10 3 9 4 7 5 8 6 2 7 3 8 4 9 6 10 20 11 11 13
REMARK SMILES IDX 18 14 12 15 16 16 13 17 14 18 17 19 15 21 5 23 1 25
REMARK H PARENT 20 12 17 20 15 22 5 24 1 26
REMARK Flexibility Score: inf
ROOT
ATOM      1  C   UNL     1     -19.600  11.948 -35.048  1.00  0.00     0.079 C 
ATOM      2  C   UNL     1     -20.938  11.930 -34.291  1.00  0.00     0.164 C 
ATOM      3  C   UNL     1     -21.979  12.771 -35.052  1.00  0.00     0.232 C 
ATOM      4  O   UNL     1     -22.115  12.282 -36.386  1.00  0.00    -0.482 OA
ATOM      5  C   UNL     1     -21.022  11.828 -37.132  1.00  0.00     0.131 A 
ATOM      6  C   UNL     1     -21.200  11.537 -38.487  1.00  0.00     0.093 A 
ATOM      7  C   UNL     1     -20.124  11.097 -39.260  1.00  0.00     0.122 A 
ATOM      8  C   UNL     1     -18.859  10.956 -38.676  1.00  0.00     0.092 A 
ATOM      9  C   UNL     1     -18.664  11.244 -37.321  1.00  0.00     0.126 A 
ATOM     10  C   UNL     1     -19.761  11.648 -36.523  1.00  0.00     0.039 A 
ENDROOT
BRANCH   2  11
ATOM     11  O   UNL     1     -20.736  12.448 -33.000  1.00  0.00    -0.389 OA
ATOM     12  H   UNL     1     -21.590  12.336 -32.506  1.00  0.00     0.211 HD
ENDBRANCH   2  11
BRANCH   3  13
ATOM     13  C   UNL     1     -23.325  12.736 -34.364  1.00  0.00    -0.001 A 
ATOM     14  C   UNL     1     -23.726  11.594 -33.650  1.00  0.00     0.057 A 
ATOM     15  C   UNL     1     -24.208  13.823 -34.470  1.00  0.00     0.012 A 
ATOM     16  C   UNL     1     -24.986  11.544 -33.035  1.00  0.00     0.157 A 
ATOM     17  C   UNL     1     -25.463  13.775 -33.856  1.00  0.00     0.050 A 
ATOM     18  C   UNL     1     -25.856  12.642 -33.138  1.00  0.00     0.157 A 
BRANCH  16  19
ATOM     19  O   UNL     1     -25.374  10.409 -32.326  1.00  0.00    -0.504 OA
ATOM     20  H   UNL     1     -26.222  10.392 -31.772  1.00  0.00     0.293 HD
ENDBRANCH  16  19
BRANCH  18  21
ATOM     21  O   UNL     1     -27.114  12.624 -32.537  1.00  0.00    -0.504 OA
ATOM     22  H   UNL     1     -27.619  11.761 -32.372  1.00  0.00     0.293 HD
ENDBRANCH  18  21
ENDBRANCH   3  13
BRANCH   9  23
ATOM     23  O   UNL     1     -17.371  11.129 -36.806  1.00  0.00    -0.507 OA
ATOM     24  H   UNL     1     -17.038  11.664 -36.014  1.00  0.00     0.293 HD
ENDBRANCH   9  23
BRANCH   7  25
ATOM     25  O   UNL     1     -20.320  10.810 -40.609  1.00  0.00    -0.508 OA
ATOM     26  H   UNL     1     -20.778  11.468 -41.229  1.00  0.00     0.293 HD
ENDBRANCH   7  25
TORSDOF 6
ENDMDL
MODEL 3
REMARK VINA RESULT:    -6.937      2.476      2.703
REMARK INTER + INTRA:          -8.414
REMARK INTER:                  -8.041
REMARK INTRA:                  -0.373
REMARK UNBOUND:                -0.057
REMARK SMILES Oc1cc(O)c2c(c1)O[C@@H](c1ccc(O)c(O)c1)[C@H](O)C2
REMARK SMILES IDX 21 1 19 2 10 3 9 4 7 5 8 6 2 7 3 8 4 9 6 10 20 11 11 13
REMARK SMILES IDX 18 14 12 15 16 16 13 17 14 18 17 19 15 21 5 23 1 25
REMARK H PARENT 20 12 17 20 15 22 5 24 1 26
REMARK Flexibility Score: inf
ROOT
ATOM      1  C   UNL     1     -25.512  17.683 -39.302  1.00  0.00     0.079 C 
ATOM      2  C   UNL     1     -25.811  17.185 -37.879  1.00  0.00     0.164 C 
ATOM      3  C   UNL     1     -25.608  15.660 -37.807  1.00  0.00     0.232 C 
ATOM      4  O   UNL     1     -24.283  15.328 -38.221  1.00  0.00    -0.482 OA
ATOM      5  C   UNL     1     -23.640  15.988 -39.273  1.00  0.00     0.131 A 
ATOM      6  C   UNL     1     -22.420  15.492 -39.741  1.00  0.00     0.093 A 
ATOM      7  C   UNL     1     -21.763  16.121 -40.800  1.00  0.00     0.122 A 
ATOM      8  C   UNL     1     -22.333  17.250 -41.401  1.00  0.00     0.092 A 
ATOM      9  C   UNL     1     -23.554  17.760 -40.944  1.00  0.00     0.126 A 
ATOM     10  C   UNL     1     -24.202  17.152 -39.843  1.00  0.00     0.039 A 
ENDROOT
BRANCH   2  11
ATOM     11  O   UNL     1     -27.135  17.520 -37.549  1.00  0.00    -0.389 OA
ATOM     12  H   UNL     1     -27.703  16.748 -37.808  1.00  0.00     0.211 HD
ENDBRANCH   2  11
BRANCH   3  13
ATOM     13  C   UNL     1     -25.843  15.138 -36.409  1.00  0.00    -0.001 A 
ATOM     14  C   UNL     1     -25.083  15.627 -35.333  1.00  0.00     0.057 A 
ATOM     15  C   UNL     1     -26.789  14.126 -36.174  1.00  0.00     0.012 A 
ATOM     16  C   UNL     1     -25.277  15.126 -34.037  1.00  0.00     0.157 A 
ATOM     17  C   UNL     1     -26.984  13.626 -34.884  1.00  0.00     0.050 A 
ATOM     18  C   UNL     1     -26.233  14.121 -33.814  1.00  0.00     0.157 A 
BRANCH  16  19
ATOM     19  O   UNL     1     -24.521  15.619 -32.975  1.00  0.00    -0.504 OA
ATOM     20  H   UNL     1     -23.595  16.006 -33.117  1.00  0.00     0.293 HD
ENDBRANCH  16  19
BRANCH  18  21
ATOM     21  O   UNL     1     -26.450  13.603 -32.537  1.00  0.00    -0.504 OA
ATOM     22  H   UNL     1     -25.781  13.726 -31.787  1.00  0.00     0.293 HD
ENDBRANCH  18  21
ENDBRANCH   3  13
BRANCH   9  23
ATOM     23  O   UNL     1     -24.096  18.860 -41.613  1.00  0.00    -0.507 OA
ATOM     24  H   UNL     1     -24.149  19.785 -41.208  1.00  0.00     0.293 HD
ENDBRANCH   9  23
BRANCH   7  25
ATOM     25  O   UNL     1     -20.547  15.613 -41.252  1.00  0.00    -0.508 OA
ATOM     26  H   UNL     1     -20.484  14.698 -41.685  1.00  0.00     0.293 HD
ENDBRANCH   7  25
TORSDOF 6
ENDMDL
MODEL 4
REMARK VINA RESULT:    -6.910      4.914      7.376
REMARK INTER + INTRA:          -8.381
REMARK INTER:                  -8.140
REMARK INTRA:                  -0.240
REMARK UNBOUND:                -0.057
REMARK SMILES Oc1cc(O)c2c(c1)O[C@@H](c1ccc(O)c(O)c1)[C@H](O)C2
REMARK SMILES IDX 21 1 19 2 10 3 9 4 7 5 8 6 2 7 3 8 4 9 6 10 20 11 11 13
REMARK SMILES IDX 18 14 12 15 16 16 13 17 14 18 17 19 15 21 5 23 1 25
REMARK H PARENT 20 12 17 20 15 22 5 24 1 26
REMARK Flexibility Score: inf
ROOT
ATOM      1  C   UNL     1     -22.488  14.033 -34.849  1.00  0.00     0.079 C 
ATOM      2  C   UNL     1     -21.586  13.671 -36.040  1.00  0.00     0.164 C 
ATOM      3  C   UNL     1     -22.391  12.874 -37.083  1.00  0.00     0.232 C 
ATOM      4  O   UNL     1     -23.535  13.627 -37.489  1.00  0.00    -0.482 OA
ATOM      5  C   UNL     1     -24.278  14.401 -36.593  1.00  0.00     0.131 A 
ATOM      6  C   UNL     1     -25.485  14.962 -37.020  1.00  0.00     0.093 A 
ATOM      7  C   UNL     1     -26.256  15.726 -36.143  1.00  0.00     0.122 A 
ATOM      8  C   UNL     1     -25.822  15.925 -34.827  1.00  0.00     0.092 A 
ATOM      9  C   UNL     1     -24.617  15.370 -34.383  1.00  0.00     0.126 A 
ATOM     10  C   UNL     1     -23.810  14.631 -35.281  1.00  0.00     0.039 A 
ENDROOT
BRANCH   2  11
ATOM     11  O   UNL     1     -20.500  12.911 -35.573  1.00  0.00    -0.389 OA
ATOM     12  H   UNL     1     -19.745  13.540 -35.430  1.00  0.00     0.211 HD
ENDBRANCH   2  11
BRANCH   3  13
ATOM     13  C   UNL     1     -21.550  12.543 -38.294  1.00  0.00    -0.001 A 
ATOM     14  C   UNL     1     -21.516  13.418 -39.393  1.00  0.00     0.057 A 
ATOM     15  C   UNL     1     -20.832  11.338 -38.356  1.00  0.00     0.012 A 
ATOM     16  C   UNL     1     -20.760  13.103 -40.532  1.00  0.00     0.157 A 
ATOM     17  C   UNL     1     -20.077  11.023 -39.489  1.00  0.00     0.050 A 
ATOM     18  C   UNL     1     -20.038  11.899 -40.577  1.00  0.00     0.157 A 
BRANCH  16  19
ATOM     19  O   UNL     1     -20.730  13.978 -41.616  1.00  0.00    -0.504 OA
ATOM     20  H   UNL     1     -20.002  13.928 -42.318  1.00  0.00     0.293 HD
ENDBRANCH  16  19
BRANCH  18  21
ATOM     21  O   UNL     1     -19.276  11.557 -41.695  1.00  0.00    -0.504 OA
ATOM     22  H   UNL     1     -18.268  11.656 -41.709  1.00  0.00     0.293 HD
ENDBRANCH  18  21
ENDBRANCH   3  13
BRANCH   9  23
ATOM     23  O   UNL     1     -24.259  15.564 -33.047  1.00  0.00    -0.507 OA
ATOM     24  H   UNL     1     -23.309  15.735 -32.745  1.00  0.00     0.293 HD
ENDBRANCH   9  23
BRANCH   7  25
ATOM     25  O   UNL     1     -27.456  16.279 -36.587  1.00  0.00    -0.508 OA
ATOM     26  H   UNL     1     -27.510  16.797 -37.457  1.00  0.00     0.293 HD
ENDBRANCH   7  25
TORSDOF 6
ENDMDL
MODEL 5
REMARK VINA RESULT:    -6.842      9.113     10.798
REMARK INTER + INTRA:          -8.299
REMARK INTER:                  -8.139
REMARK INTRA:                  -0.159
REMARK UNBOUND:                -0.057
REMARK SMILES Oc1cc(O)c2c(c1)O[C@@H](c1ccc(O)c(O)c1)[C@H](O)C2
REMARK SMILES IDX 21 1 19 2 10 3 9 4 7 5 8 6 2 7 3 8 4 9 6 10 20 11 11 13
REMARK SMILES IDX 18 14 12 15 16 16 13 17 14 18 17 19 15 21 5 23 1 25
REMARK H PARENT 20 12 17 20 15 22 5 24 1 26
REMARK Flexibility Score: inf
ROOT
ATOM      1  C   UNL     1     -17.934  10.584 -34.287  1.00  0.00     0.079 C 
ATOM      2  C   UNL     1     -17.476  11.832 -33.514  1.00  0.00     0.164 C 
ATOM      3  C   UNL     1     -16.378  12.564 -34.309  1.00  0.00     0.232 C 
ATOM      4  O   UNL     1     -16.862  12.891 -35.612  1.00  0.00    -0.482 OA
ATOM      5  C   UNL     1     -17.684  12.029 -36.344  1.00  0.00     0.131 A 
ATOM      6  C   UNL     1     -17.968  12.331 -37.678  1.00  0.00     0.093 A 
ATOM      7  C   UNL     1     -18.774  11.481 -38.438  1.00  0.00     0.122 A 
ATOM      8  C   UNL     1     -19.292  10.315 -37.862  1.00  0.00     0.092 A 
ATOM      9  C   UNL     1     -19.017   9.997 -36.527  1.00  0.00     0.126 A 
ATOM     10  C   UNL     1     -18.237  10.878 -35.740  1.00  0.00     0.039 A 
ENDROOT
BRANCH   2  11
ATOM     11  O   UNL     1     -16.989  11.435 -32.257  1.00  0.00    -0.389 OA
ATOM     12  H   UNL     1     -16.012  11.610 -32.255  1.00  0.00     0.211 HD
ENDBRANCH   2  11
BRANCH   3  13
ATOM     13  C   UNL     1     -15.937  13.826 -33.605  1.00  0.00    -0.001 A 
ATOM     14  C   UNL     1     -14.952  13.772 -32.604  1.00  0.00     0.057 A 
ATOM     15  C   UNL     1     -16.538  15.059 -33.908  1.00  0.00     0.012 A 
ATOM     16  C   UNL     1     -14.560  14.936 -31.927  1.00  0.00     0.157 A 
ATOM     17  C   UNL     1     -16.147  16.220 -33.235  1.00  0.00     0.050 A 
ATOM     18  C   UNL     1     -15.161  16.165 -32.246  1.00  0.00     0.157 A 
BRANCH  16  19
ATOM     19  O   UNL     1     -13.580  14.874 -30.938  1.00  0.00    -0.504 OA
ATOM     20  H   UNL     1     -13.787  14.537 -30.005  1.00  0.00     0.293 HD
ENDBRANCH  16  19
BRANCH  18  21
ATOM     21  O   UNL     1     -14.792  17.340 -31.592  1.00  0.00    -0.504 OA
ATOM     22  H   UNL     1     -14.690  18.220 -32.083  1.00  0.00     0.293 HD
ENDBRANCH  18  21
ENDBRANCH   3  13
BRANCH   9  23
ATOM     23  O   UNL     1     -19.523   8.797 -36.021  1.00  0.00    -0.507 OA
ATOM     24  H   UNL     1     -18.956   7.974 -35.871  1.00  0.00     0.293 HD
ENDBRANCH   9  23
BRANCH   7  25
ATOM     25  O   UNL     1     -19.047  11.800 -39.767  1.00  0.00    -0.508 OA
ATOM     26  H   UNL     1     -18.691  12.649 -40.191  1.00  0.00     0.293 HD
ENDBRANCH   7  25
TORSDOF 6
ENDMDL
MODEL 6
REMARK VINA RESULT:    -6.837      8.379     10.329
REMARK INTER + INTRA:          -8.292
REMARK INTER:                  -8.104
REMARK INTRA:                  -0.188
REMARK UNBOUND:                -0.057
REMARK SMILES Oc1cc(O)c2c(c1)O[C@@H](c1ccc(O)c(O)c1)[C@H](O)C2
REMARK SMILES IDX 21 1 19 2 10 3 9 4 7 5 8 6 2 7 3 8 4 9 6 10 20 11 11 13
REMARK SMILES IDX 18 14 12 15 16 16 13 17 14 18 17 19 15 21 5 23 1 25
REMARK H PARENT 20 12 17 20 15 22 5 24 1 26
REMARK Flexibility Score: inf
ROOT
ATOM      1  C   UNL     1     -18.528  10.982 -36.276  1.00  0.00     0.079 C 
ATOM      2  C   UNL     1     -17.333  11.428 -35.417  1.00  0.00     0.164 C 
ATOM      3  C   UNL     1     -17.576  12.852 -34.884  1.00  0.00     0.232 C 
ATOM      4  O   UNL     1     -18.802  12.892 -34.153  1.00  0.00    -0.482 OA
ATOM      5  C   UNL     1     -19.936  12.180 -34.555  1.00  0.00     0.131 A 
ATOM      6  C   UNL     1     -21.148  12.409 -33.899  1.00  0.00     0.093 A 
ATOM      7  C   UNL     1     -22.301  11.725 -34.288  1.00  0.00     0.122 A 
ATOM      8  C   UNL     1     -22.243  10.811 -35.347  1.00  0.00     0.092 A 
ATOM      9  C   UNL     1     -21.038  10.571 -36.016  1.00  0.00     0.126 A 
ATOM     10  C   UNL     1     -19.857  11.229 -35.596  1.00  0.00     0.039 A 
ENDROOT
BRANCH   2  11
ATOM     11  O   UNL     1     -16.169  11.390 -36.204  1.00  0.00    -0.389 OA
ATOM     12  H   UNL     1     -16.221  12.154 -36.836  1.00  0.00     0.211 HD
ENDBRANCH   2  11
BRANCH   3  13
ATOM     13  C   UNL     1     -16.444  13.307 -33.992  1.00  0.00    -0.001 A 
ATOM     14  C   UNL     1     -16.541  13.168 -32.597  1.00  0.00     0.057 A 
ATOM     15  C   UNL     1     -15.304  13.916 -34.542  1.00  0.00     0.012 A 
ATOM     16  C   UNL     1     -15.506  13.615 -31.762  1.00  0.00     0.157 A 
ATOM     17  C   UNL     1     -14.271  14.361 -33.712  1.00  0.00     0.050 A 
ATOM     18  C   UNL     1     -14.366  14.213 -32.325  1.00  0.00     0.157 A 
BRANCH  16  19
ATOM     19  O   UNL     1     -15.609  13.470 -30.380  1.00  0.00    -0.504 OA
ATOM     20  H   UNL     1     -16.109  14.143 -29.811  1.00  0.00     0.293 HD
ENDBRANCH  16  19
BRANCH  18  21
ATOM     21  O   UNL     1     -13.319  14.667 -31.522  1.00  0.00    -0.504 OA
ATOM     22  H   UNL     1     -12.373  14.758 -31.873  1.00  0.00     0.293 HD
ENDBRANCH  18  21
ENDBRANCH   3  13
BRANCH   9  23
ATOM     23  O   UNL     1     -21.052   9.683 -37.095  1.00  0.00    -0.507 OA
ATOM     24  H   UNL     1     -21.795   9.654 -37.780  1.00  0.00     0.293 HD
ENDBRANCH   9  23
BRANCH   7  25
ATOM     25  O   UNL     1     -23.501  11.965 -33.621  1.00  0.00    -0.508 OA
ATOM     26  H   UNL     1     -24.380  12.029 -34.121  1.00  0.00     0.293 HD
ENDBRANCH   7  25
TORSDOF 6
ENDMDL
MODEL 7
REMARK VINA RESULT:    -6.769      5.141      5.900
REMARK INTER + INTRA:          -8.211
REMARK INTER:                  -7.847
REMARK INTRA:                  -0.364
REMARK UNBOUND:                -0.057
REMARK SMILES Oc1cc(O)c2c(c1)O[C@@H](c1ccc(O)c(O)c1)[C@H](O)C2
REMARK SMILES IDX 21 1 19 2 10 3 9 4 7 5 8 6 2 7 3 8 4 9 6 10 20 11 11 13
REMARK SMILES IDX 18 14 12 15 16 16 13 17 14 18 17 19 15 21 5 23 1 25
REMARK H PARENT 20 12 17 20 15 22 5 24 1 26
REMARK Flexibility Score: inf
ROOT
ATOM      1  C   UNL     1     -24.459  15.506 -38.854  1.00  0.00     0.079 C 
ATOM      2  C   UNL     1     -23.327  14.535 -38.485  1.00  0.00     0.164 C 
ATOM      3  C   UNL     1     -22.593  14.079 -39.760  1.00  0.00     0.232 C 
ATOM      4  O   UNL     1     -22.108  15.217 -40.472  1.00  0.00    -0.482 OA
ATOM      5  C   UNL     1     -22.838  16.406 -40.570  1.00  0.00     0.131 A 
ATOM      6  C   UNL     1     -22.388  17.410 -41.431  1.00  0.00     0.093 A 
ATOM      7  C   UNL     1     -23.104  18.601 -41.561  1.00  0.00     0.122 A 
ATOM      8  C   UNL     1     -24.284  18.786 -40.832  1.00  0.00     0.092 A 
ATOM      9  C   UNL     1     -24.750  17.790 -39.965  1.00  0.00     0.126 A 
ATOM     10  C   UNL     1     -24.004  16.600 -39.797  1.00  0.00     0.039 A 
ENDROOT
BRANCH   2  11
ATOM     11  O   UNL     1     -23.877  13.429 -37.813  1.00  0.00    -0.389 OA
ATOM     12  H   UNL     1     -24.118  12.760 -38.505  1.00  0.00     0.211 HD
ENDBRANCH   2  11
BRANCH   3  13
ATOM     13  C   UNL     1     -21.439  13.160 -39.433  1.00  0.00    -0.001 A 
ATOM     14  C   UNL     1     -20.439  13.571 -38.534  1.00  0.00     0.057 A 
ATOM     15  C   UNL     1     -21.325  11.908 -40.057  1.00  0.00     0.012 A 
ATOM     16  C   UNL     1     -19.349  12.735 -38.249  1.00  0.00     0.157 A 
ATOM     17  C   UNL     1     -20.240  11.073 -39.774  1.00  0.00     0.050 A 
ATOM     18  C   UNL     1     -19.253  11.479 -38.872  1.00  0.00     0.157 A 
BRANCH  16  19
ATOM     19  O   UNL     1     -18.365  13.149 -37.354  1.00  0.00    -0.504 OA
ATOM     20  H   UNL     1     -18.112  14.125 -37.257  1.00  0.00     0.293 HD
ENDBRANCH  16  19
BRANCH  18  21
ATOM     21  O   UNL     1     -18.182  10.625 -38.610  1.00  0.00    -0.504 OA
ATOM     22  H   UNL     1     -17.289  10.968 -38.279  1.00  0.00     0.293 HD
ENDBRANCH  18  21
ENDBRANCH   3  13
BRANCH   9  23
ATOM     23  O   UNL     1     -25.958  18.013 -39.300  1.00  0.00    -0.507 OA
ATOM     24  H   UNL     1     -26.647  18.686 -39.610  1.00  0.00     0.293 HD
ENDBRANCH   9  23
BRANCH   7  25
ATOM     25  O   UNL     1     -22.638  19.591 -42.424  1.00  0.00    -0.508 OA
ATOM     26  H   UNL     1     -22.786  19.533 -43.425  1.00  0.00     0.293 HD
ENDBRANCH   7  25
TORSDOF 6
ENDMDL
MODEL 8
REMARK VINA RESULT:    -6.655      5.417      6.919
REMARK INTER + INTRA:          -8.074
REMARK INTER:                  -7.721
REMARK INTRA:                  -0.353
REMARK UNBOUND:                -0.057
REMARK SMILES Oc1cc(O)c2c(c1)O[C@@H](c1ccc(O)c(O)c1)[C@H](O)C2
REMARK SMILES IDX 21 1 19 2 10 3 9 4 7 5 8 6 2 7 3 8 4 9 6 10 20 11 11 13
REMARK SMILES IDX 18 14 12 15 16 16 13 17 14 18 17 19 15 21 5 23 1 25
REMARK H PARENT 20 12 17 20 15 22 5 24 1 26
REMARK Flexibility Score: inf
ROOT
ATOM      1  C   UNL     1     -21.529  13.157 -40.138  1.00  0.00     0.079 C 
ATOM      2  C   UNL     1     -22.367  14.217 -39.404  1.00  0.00     0.164 C 
ATOM      3  C   UNL     1     -23.139  13.562 -38.244  1.00  0.00     0.232 C 
ATOM      4  O   UNL     1     -22.225  12.903 -37.366  1.00  0.00    -0.482 OA
ATOM      5  C   UNL     1     -21.106  12.208 -37.835  1.00  0.00     0.131 A 
ATOM      6  C   UNL     1     -20.361  11.438 -36.939  1.00  0.00     0.093 A 
ATOM      7  C   UNL     1     -19.248  10.721 -37.381  1.00  0.00     0.122 A 
ATOM      8  C   UNL     1     -18.882  10.768 -38.731  1.00  0.00     0.092 A 
ATOM      9  C   UNL     1     -19.617  11.534 -39.643  1.00  0.00     0.126 A 
ATOM     10  C   UNL     1     -20.720  12.297 -39.191  1.00  0.00     0.039 A 
ENDROOT
BRANCH   2  11
ATOM     11  O   UNL     1     -23.260  14.803 -40.318  1.00  0.00    -0.389 OA
ATOM     12  H   UNL     1     -23.943  15.287 -39.786  1.00  0.00     0.211 HD
ENDBRANCH   2  11
BRANCH   3  13
ATOM     13  C   UNL     1     -23.936  14.583 -37.466  1.00  0.00    -0.001 A 
ATOM     14  C   UNL     1     -25.337  14.616 -37.568  1.00  0.00     0.057 A 
ATOM     15  C   UNL     1     -23.285  15.540 -36.670  1.00  0.00     0.012 A 
ATOM     16  C   UNL     1     -26.080  15.580 -36.871  1.00  0.00     0.157 A 
ATOM     17  C   UNL     1     -24.024  16.501 -35.974  1.00  0.00     0.050 A 
ATOM     18  C   UNL     1     -25.418  16.525 -36.070  1.00  0.00     0.157 A 
BRANCH  16  19
ATOM     19  O   UNL     1     -27.470  15.603 -36.976  1.00  0.00    -0.504 OA
ATOM     20  H   UNL     1     -27.937  16.070 -37.744  1.00  0.00     0.293 HD
ENDBRANCH  16  19
BRANCH  18  21
ATOM     21  O   UNL     1     -26.128  17.496 -35.364  1.00  0.00    -0.504 OA
ATOM     22  H   UNL     1     -27.020  17.851 -35.687  1.00  0.00     0.293 HD
ENDBRANCH  18  21
ENDBRANCH   3  13
BRANCH   9  23
ATOM     23  O   UNL     1     -19.231  11.505 -40.985  1.00  0.00    -0.507 OA
ATOM     24  H   UNL     1     -18.866  10.679 -41.440  1.00  0.00     0.293 HD
ENDBRANCH   9  23
BRANCH   7  25
ATOM     25  O   UNL     1     -18.516   9.959 -36.472  1.00  0.00    -0.508 OA
ATOM     26  H   UNL     1     -17.549  10.175 -36.257  1.00  0.00     0.293 HD
ENDBRANCH   7  25
TORSDOF 6
ENDMDL
MODEL 9
REMARK VINA RESULT:    -6.643      4.135      5.091
REMARK INTER + INTRA:          -8.059
REMARK INTER:                  -7.682
REMARK INTRA:                  -0.377
REMARK UNBOUND:                -0.057
REMARK SMILES Oc1cc(O)c2c(c1)O[C@@H](c1ccc(O)c(O)c1)[C@H](O)C2
REMARK SMILES IDX 21 1 19 2 10 3 9 4 7 5 8 6 2 7 3 8 4 9 6 10 20 11 11 13
REMARK SMILES IDX 18 14 12 15 16 16 13 17 14 18 17 19 15 21 5 23 1 25
REMARK H PARENT 20 12 17 20 15 22 5 24 1 26
REMARK Flexibility Score: inf
ROOT
ATOM      1  C   UNL     1     -24.569  17.316 -38.160  1.00  0.00     0.079 C 
ATOM      2  C   UNL     1     -23.761  16.014 -38.036  1.00  0.00     0.164 C 
ATOM      3  C   UNL     1     -23.741  15.281 -39.390  1.00  0.00     0.232 C 
ATOM      4  O   UNL     1     -23.212  16.142 -40.399  1.00  0.00    -0.482 OA
ATOM      5  C   UNL     1     -23.499  17.510 -40.440  1.00  0.00     0.131 A 
ATOM      6  C   UNL     1     -23.098  18.254 -41.553  1.00  0.00     0.093 A 
ATOM      7  C   UNL     1     -23.384  19.618 -41.629  1.00  0.00     0.122 A 
ATOM      8  C   UNL     1     -24.082  20.242 -40.589  1.00  0.00     0.092 A 
ATOM      9  C   UNL     1     -24.492  19.512 -39.467  1.00  0.00     0.126 A 
ATOM     10  C   UNL     1     -24.166  18.138 -39.366  1.00  0.00     0.039 A 
ENDROOT
BRANCH   2  11
ATOM     11  O   UNL     1     -24.352  15.205 -37.049  1.00  0.00    -0.389 OA
ATOM     12  H   UNL     1     -23.659  14.559 -36.751  1.00  0.00     0.211 HD
ENDBRANCH   2  11
BRANCH   3  13
ATOM     13  C   UNL     1     -22.913  14.019 -39.322  1.00  0.00    -0.001 A 
ATOM     14  C   UNL     1     -21.536  14.089 -39.053  1.00  0.00     0.057 A 
ATOM     15  C   UNL     1     -23.498  12.767 -39.573  1.00  0.00     0.012 A 
ATOM     16  C   UNL     1     -20.756  12.923 -39.017  1.00  0.00     0.157 A 
ATOM     17  C   UNL     1     -22.723  11.604 -39.536  1.00  0.00     0.050 A 
ATOM     18  C   UNL     1     -21.355  11.676 -39.259  1.00  0.00     0.157 A 
BRANCH  16  19
ATOM     19  O   UNL     1     -19.391  13.002 -38.746  1.00  0.00    -0.504 OA
ATOM     20  H   UNL     1     -18.715  13.194 -39.476  1.00  0.00     0.293 HD
ENDBRANCH  16  19
BRANCH  18  21
ATOM     21  O   UNL     1     -20.608  10.499 -39.230  1.00  0.00    -0.504 OA
ATOM     22  H   UNL     1     -20.313  10.028 -40.077  1.00  0.00     0.293 HD
ENDBRANCH  18  21
ENDBRANCH   3  13
BRANCH   9  23
ATOM     23  O   UNL     1     -25.225  20.178 -38.483  1.00  0.00    -0.507 OA
ATOM     24  H   UNL     1     -26.079  20.685 -38.675  1.00  0.00     0.293 HD
ENDBRANCH   9  23
BRANCH   7  25
ATOM     25  O   UNL     1     -22.975  20.344 -42.747  1.00  0.00    -0.508 OA
ATOM     26  H   UNL     1     -23.078  21.351 -42.790  1.00  0.00     0.293 HD
ENDBRANCH   7  25
TORSDOF 6
ENDMDL
