MODEL 1
REMARK VINA RESULT:    -3.138      0.000      0.000
REMARK INTER + INTRA:          -3.796
REMARK INTER:                  -3.781
REMARK INTRA:                  -0.015
REMARK UNBOUND:                -0.015
REMARK SMILES CCCCCO
REMARK SMILES IDX 4 1 3 2 2 3 1 4 5 5 6 6
REMARK H PARENT 6 7
REMARK Flexibility Score: inf
ROOT
ATOM      1  C   UNL     1     161.938 178.733 168.820  1.00  0.00     0.028 C 
ENDROOT
BRANCH   1   2
ATOM      2  C   UNL     1     163.326 178.608 169.463  1.00  0.00     0.002 C 
BRANCH   2   3
ATOM      3  C   UNL     1     164.397 178.321 168.405  1.00  0.00    -0.003 C 
ATOM      4  C   UNL     1     165.499 179.375 168.436  1.00  0.00     0.004 C 
ENDBRANCH   2   3
ENDBRANCH   1   2
BRANCH   1   5
ATOM      5  C   UNL     1     160.865 177.994 169.621  1.00  0.00     0.156 C 
BRANCH   5   6
ATOM      6  O   UNL     1     161.092 178.129 170.999  1.00  0.00    -0.396 OA
ATOM      7  H   UNL     1     161.721 178.888 171.115  1.00  0.00     0.210 HD
ENDBRANCH   5   6
ENDBRANCH   1   5
TORSDOF 4
ENDMDL
MODEL 2
REMARK VINA RESULT:    -3.024     16.542     17.138
REMARK INTER + INTRA:          -3.657
REMARK INTER:                  -3.632
REMARK INTRA:                  -0.025
REMARK UNBOUND:                -0.015
REMARK SMILES CCCCCO
REMARK SMILES IDX 4 1 3 2 2 3 1 4 5 5 6 6
REMARK H PARENT 6 7
REMARK Flexibility Score: inf
ROOT
ATOM      1  C   UNL     1     161.061 162.450 168.832  1.00  0.00     0.028 C 
ENDROOT
BRANCH   1   2
ATOM      2  C   UNL     1     161.896 161.641 167.831  1.00  0.00     0.002 C 
BRANCH   2   3
ATOM      3  C   UNL     1     160.995 160.851 166.876  1.00  0.00    -0.003 C 
ATOM      4  C   UNL     1     161.165 161.327 165.436  1.00  0.00     0.004 C 
ENDBRANCH   2   3
ENDBRANCH   1   2
BRANCH   1   5
ATOM      5  C   UNL     1     160.367 161.552 169.859  1.00  0.00     0.156 C 
BRANCH   5   6
ATOM      6  O   UNL     1     159.158 162.123 170.283  1.00  0.00    -0.396 OA
ATOM      7  H   UNL     1     158.741 162.542 169.486  1.00  0.00     0.210 HD
ENDBRANCH   5   6
ENDBRANCH   1   5
TORSDOF 4
ENDMDL
MODEL 3
REMARK VINA RESULT:    -2.988     20.501     21.239
REMARK INTER + INTRA:          -3.615
REMARK INTER:                  -3.551
REMARK INTRA:                  -0.063
REMARK UNBOUND:                -0.015
REMARK SMILES CCCCCO
REMARK SMILES IDX 4 1 3 2 2 3 1 4 5 5 6 6
REMARK H PARENT 6 7
REMARK Flexibility Score: inf
ROOT
ATOM      1  C   UNL     1     177.199 162.168 169.766  1.00  0.00     0.028 C 
ENDROOT
BRANCH   1   2
ATOM      2  C   UNL     1     178.254 162.962 168.983  1.00  0.00     0.002 C 
BRANCH   2   3
ATOM      3  C   UNL     1     177.626 163.670 167.778  1.00  0.00    -0.003 C 
ATOM      4  C   UNL     1     177.952 162.941 166.478  1.00  0.00     0.004 C 
ENDBRANCH   2   3
ENDBRANCH   1   2
BRANCH   1   5
ATOM      5  C   UNL     1     175.802 162.777 169.625  1.00  0.00     0.156 C 
BRANCH   5   6
ATOM      6  O   UNL     1     174.815 161.788 169.749  1.00  0.00    -0.396 OA
ATOM      7  H   UNL     1     174.503 161.807 170.691  1.00  0.00     0.210 HD
ENDBRANCH   5   6
ENDBRANCH   1   5
TORSDOF 4
ENDMDL
MODEL 4
REMARK VINA RESULT:    -2.977      1.567      2.175
REMARK INTER + INTRA:          -3.601
REMARK INTER:                  -3.533
REMARK INTRA:                  -0.069
REMARK UNBOUND:                -0.015
REMARK SMILES CCCCCO
REMARK SMILES IDX 4 1 3 2 2 3 1 4 5 5 6 6
REMARK H PARENT 6 7
REMARK Flexibility Score: inf
ROOT
ATOM      1  C   UNL     1     164.218 178.727 169.390  1.00  0.00     0.028 C 
ENDROOT
BRANCH   1   2
ATOM      2  C   UNL     1     164.837 178.705 167.986  1.00  0.00     0.002 C 
BRANCH   2   3
ATOM      3  C   UNL     1     163.787 178.353 166.927  1.00  0.00    -0.003 C 
ATOM      4  C   UNL     1     163.983 179.179 165.659  1.00  0.00     0.004 C 
ENDBRANCH   2   3
ENDBRANCH   1   2
BRANCH   1   5
ATOM      5  C   UNL     1     162.692 178.608 169.346  1.00  0.00     0.156 C 
BRANCH   5   6
ATOM      6  O   UNL     1     162.237 177.690 170.304  1.00  0.00    -0.396 OA
ATOM      7  H   UNL     1     162.704 176.833 170.127  1.00  0.00     0.210 HD
ENDBRANCH   5   6
ENDBRANCH   1   5
TORSDOF 4
ENDMDL
MODEL 5
REMARK VINA RESULT:    -2.963     21.140     21.944
REMARK INTER + INTRA:          -3.584
REMARK INTER:                  -3.565
REMARK INTRA:                  -0.019
REMARK UNBOUND:                -0.015
REMARK SMILES CCCCCO
REMARK SMILES IDX 4 1 3 2 2 3 1 4 5 5 6 6
REMARK H PARENT 6 7
REMARK Flexibility Score: inf
ROOT
ATOM      1  C   UNL     1     177.528 161.424 169.517  1.00  0.00     0.028 C 
ENDROOT
BRANCH   1   2
ATOM      2  C   UNL     1     176.672 162.680 169.305  1.00  0.00     0.002 C 
BRANCH   2   3
ATOM      3  C   UNL     1     177.459 163.761 168.556  1.00  0.00    -0.003 C 
ATOM      4  C   UNL     1     177.824 163.302 167.148  1.00  0.00     0.004 C 
ENDBRANCH   2   3
ENDBRANCH   1   2
BRANCH   1   5
ATOM      5  C   UNL     1     177.888 161.216 170.989  1.00  0.00     0.156 C 
BRANCH   5   6
ATOM      6  O   UNL     1     176.767 160.794 171.720  1.00  0.00    -0.396 OA
ATOM      7  H   UNL     1     176.004 160.762 171.087  1.00  0.00     0.210 HD
ENDBRANCH   5   6
ENDBRANCH   1   5
TORSDOF 4
ENDMDL
MODEL 6
REMARK VINA RESULT:    -2.778      2.274      4.045
REMARK INTER + INTRA:          -3.362
REMARK INTER:                  -3.352
REMARK INTRA:                  -0.010
REMARK UNBOUND:                -0.015
REMARK SMILES CCCCCO
REMARK SMILES IDX 4 1 3 2 2 3 1 4 5 5 6 6
REMARK H PARENT 6 7
REMARK Flexibility Score: inf
ROOT
ATOM      1  C   UNL     1     163.523 178.649 169.475  1.00  0.00     0.028 C 
ENDROOT
BRANCH   1   2
ATOM      2  C   UNL     1     162.059 178.625 169.017  1.00  0.00     0.002 C 
BRANCH   2   3
ATOM      3  C   UNL     1     161.176 177.899 170.037  1.00  0.00    -0.003 C 
ATOM      4  C   UNL     1     159.701 178.002 169.664  1.00  0.00     0.004 C 
ENDBRANCH   2   3
ENDBRANCH   1   2
BRANCH   1   5
ATOM      5  C   UNL     1     164.484 178.268 168.347  1.00  0.00     0.156 C 
BRANCH   5   6
ATOM      6  O   UNL     1     165.642 179.059 168.390  1.00  0.00    -0.396 OA
ATOM      7  H   UNL     1     166.019 178.968 169.304  1.00  0.00     0.210 HD
ENDBRANCH   5   6
ENDBRANCH   1   5
TORSDOF 4
ENDMDL
MODEL 7
REMARK VINA RESULT:    -2.731     21.384     22.205
REMARK INTER + INTRA:          -3.304
REMARK INTER:                  -3.216
REMARK INTRA:                  -0.089
REMARK UNBOUND:                -0.015
REMARK SMILES CCCCCO
REMARK SMILES IDX 4 1 3 2 2 3 1 4 5 5 6 6
REMARK H PARENT 6 7
REMARK Flexibility Score: inf
ROOT
ATOM      1  C   UNL     1     177.309 162.128 168.882  1.00  0.00     0.028 C 
ENDROOT
BRANCH   1   2
ATOM      2  C   UNL     1     178.598 162.452 169.650  1.00  0.00     0.002 C 
BRANCH   2   3
ATOM      3  C   UNL     1     178.584 161.809 171.041  1.00  0.00    -0.003 C 
ATOM      4  C   UNL     1     178.639 160.287 170.946  1.00  0.00     0.004 C 
ENDBRANCH   2   3
ENDBRANCH   1   2
BRANCH   1   5
ATOM      5  C   UNL     1     176.078 162.760 169.534  1.00  0.00     0.156 C 
BRANCH   5   6
ATOM      6  O   UNL     1     175.092 161.792 169.779  1.00  0.00    -0.396 OA
ATOM      7  H   UNL     1     174.314 162.265 170.173  1.00  0.00     0.210 HD
ENDBRANCH   5   6
ENDBRANCH   1   5
TORSDOF 4
ENDMDL
MODEL 8
REMARK VINA RESULT:    -2.720     16.814     17.486
REMARK INTER + INTRA:          -3.292
REMARK INTER:                  -3.253
REMARK INTRA:                  -0.038
REMARK UNBOUND:                -0.015
REMARK SMILES CCCCCO
REMARK SMILES IDX 4 1 3 2 2 3 1 4 5 5 6 6
REMARK H PARENT 6 7
REMARK Flexibility Score: inf
ROOT
ATOM      1  C   UNL     1     161.142 160.712 166.909  1.00  0.00     0.028 C 
ENDROOT
BRANCH   1   2
ATOM      2  C   UNL     1     161.984 161.620 167.815  1.00  0.00     0.002 C 
BRANCH   2   3
ATOM      3  C   UNL     1     161.094 162.409 168.782  1.00  0.00    -0.003 C 
ATOM      4  C   UNL     1     160.508 161.500 169.858  1.00  0.00     0.004 C 
ENDBRANCH   2   3
ENDBRANCH   1   2
BRANCH   1   5
ATOM      5  C   UNL     1     160.490 161.489 165.763  1.00  0.00     0.156 C 
BRANCH   5   6
ATOM      6  O   UNL     1     161.358 161.575 164.664  1.00  0.00    -0.396 OA
ATOM      7  H   UNL     1     162.030 162.272 164.882  1.00  0.00     0.210 HD
ENDBRANCH   5   6
ENDBRANCH   1   5
TORSDOF 4
ENDMDL
