MODEL 1
REMARK VINA RESULT:    -3.528      0.000      0.000
REMARK INTER + INTRA:          -8.437
REMARK INTER:                  -6.209
REMARK INTRA:                  -2.228
REMARK UNBOUND:                -2.228
REMARK SMILES CCCCCCCCCCCCCCC(=O)[O-]
REMARK SMILES IDX 9 1 10 2 11 3 12 4 13 5 14 6 15 7 16 8 17 9 8 10 7 11 6 12
REMARK SMILES IDX 5 13 4 14 3 15 2 16 1 17
REMARK H PARENT
REMARK Flexibility Score: inf
ROOT
ATOM      1  C   UNL     1      10.852  14.597  12.006  1.00  0.00     0.000 C 
ENDROOT
BRANCH   1   2
ATOM      2  C   UNL     1       9.379  14.689  12.447  1.00  0.00     0.000 C 
BRANCH   2   3
ATOM      3  C   UNL     1       8.875  13.407  13.127  1.00  0.00     0.000 C 
BRANCH   3   4
ATOM      4  C   UNL     1       8.982  12.204  12.178  1.00  0.00     0.000 C 
BRANCH   4   5
ATOM      5  C   UNL     1       9.689  11.002  12.822  1.00  0.00     0.006 C 
BRANCH   5   6
ATOM      6  C   UNL     1      10.825  11.421  13.766  1.00  0.00     0.053 C 
BRANCH   6   7
ATOM      7  C   UNL     1      12.150  11.038  13.188  1.00  0.00     0.041 C 
ATOM      8  O   UNL     1      12.213  10.216  12.236  1.00  0.00    -0.550 OA
ATOM      9  O   UNL     1      13.314  11.626  13.667  1.00  0.00    -0.550 OA
ENDBRANCH   6   7
ENDBRANCH   5   6
ENDBRANCH   4   5
ENDBRANCH   3   4
ENDBRANCH   2   3
ENDBRANCH   1   2
BRANCH   1  10
ATOM     10  C   UNL     1      11.198  15.366  10.718  1.00  0.00     0.000 C 
BRANCH  10  11
ATOM     11  C   UNL     1      12.448  14.816  10.010  1.00  0.00    -0.000 C 
BRANCH  11  12
ATOM     12  C   UNL     1      12.983  13.536  10.676  1.00  0.00    -0.000 C 
BRANCH  12  13
ATOM     13  C   UNL     1      13.126  12.373   9.682  1.00  0.00    -0.000 C 
BRANCH  13  14
ATOM     14  C   UNL     1      12.075  12.417   8.558  1.00  0.00    -0.000 C 
BRANCH  14  15
ATOM     15  C   UNL     1      10.736  11.749   8.935  1.00  0.00    -0.000 C 
BRANCH  15  16
ATOM     16  C   UNL     1       9.532  12.659   8.646  1.00  0.00    -0.003 C 
ATOM     17  C   UNL     1       9.875  13.707   7.591  1.00  0.00     0.004 C 
ENDBRANCH  15  16
ENDBRANCH  14  15
ENDBRANCH  13  14
ENDBRANCH  12  13
ENDBRANCH  11  12
ENDBRANCH  10  11
ENDBRANCH   1  10
TORSDOF 13
ENDMDL
MODEL 2
REMARK VINA RESULT:    -3.524      5.439      8.075
REMARK INTER + INTRA:          -8.431
REMARK INTER:                  -7.499
REMARK INTRA:                  -0.932
REMARK UNBOUND:                -2.228
REMARK SMILES CCCCCCCCCCCCCCC(=O)[O-]
REMARK SMILES IDX 9 1 10 2 11 3 12 4 13 5 14 6 15 7 16 8 17 9 8 10 7 11 6 12
REMARK SMILES IDX 5 13 4 14 3 15 2 16 1 17
REMARK H PARENT
REMARK Flexibility Score: inf
ROOT
ATOM      1  C   UNL     1      14.823  11.370  15.176  1.00  0.00     0.000 C 
ENDROOT
BRANCH   1   2
ATOM      2  C   UNL     1      14.199  11.920  13.881  1.00  0.00     0.000 C 
BRANCH   2   3
ATOM      3  C   UNL     1      12.833  11.293  13.559  1.00  0.00     0.000 C 
BRANCH   3   4
ATOM      4  C   UNL     1      12.268  11.855  12.246  1.00  0.00     0.000 C 
BRANCH   4   5
ATOM      5  C   UNL     1      12.988  13.134  11.791  1.00  0.00     0.006 C 
BRANCH   5   6
ATOM      6  C   UNL     1      12.987  13.302  10.266  1.00  0.00     0.053 C 
BRANCH   6   7
ATOM      7  C   UNL     1      11.910  14.252   9.847  1.00  0.00     0.041 C 
ATOM      8  O   UNL     1      12.001  15.477  10.128  1.00  0.00    -0.550 OA
ATOM      9  O   UNL     1      10.828  13.795   9.105  1.00  0.00    -0.550 OA
ENDBRANCH   6   7
ENDBRANCH   5   6
ENDBRANCH   4   5
ENDBRANCH   3   4
ENDBRANCH   2   3
ENDBRANCH   1   2
BRANCH   1  10
ATOM     10  C   UNL     1      16.192  11.969  15.547  1.00  0.00     0.000 C 
BRANCH  10  11
ATOM     11  C   UNL     1      17.191  11.949  14.377  1.00  0.00    -0.000 C 
BRANCH  11  12
ATOM     12  C   UNL     1      18.649  11.827  14.852  1.00  0.00    -0.000 C 
BRANCH  12  13
ATOM     13  C   UNL     1      19.031  12.923  15.860  1.00  0.00    -0.000 C 
BRANCH  13  14
ATOM     14  C   UNL     1      19.800  12.374  17.074  1.00  0.00    -0.000 C 
BRANCH  14  15
ATOM     15  C   UNL     1      18.917  11.585  18.063  1.00  0.00    -0.000 C 
BRANCH  15  16
ATOM     16  C   UNL     1      17.861  12.474  18.735  1.00  0.00    -0.003 C 
ATOM     17  C   UNL     1      16.882  11.641  19.558  1.00  0.00     0.004 C 
ENDBRANCH  15  16
ENDBRANCH  14  15
ENDBRANCH  13  14
ENDBRANCH  12  13
ENDBRANCH  11  12
ENDBRANCH  10  11
ENDBRANCH   1  10
TORSDOF 13
ENDMDL
MODEL 3
REMARK VINA RESULT:    -3.499      5.531      7.485
REMARK INTER + INTRA:          -8.386
REMARK INTER:                  -7.493
REMARK INTRA:                  -0.892
REMARK UNBOUND:                -2.228
REMARK SMILES CCCCCCCCCCCCCCC(=O)[O-]
REMARK SMILES IDX 9 1 10 2 11 3 12 4 13 5 14 6 15 7 16 8 17 9 8 10 7 11 6 12
REMARK SMILES IDX 5 13 4 14 3 15 2 16 1 17
REMARK H PARENT
REMARK Flexibility Score: inf
ROOT
ATOM      1  C   UNL     1      15.601  12.015  18.399  1.00  0.00     0.000 C 
ENDROOT
BRANCH   1   2
ATOM      2  C   UNL     1      16.967  12.031  19.110  1.00  0.00     0.000 C 
BRANCH   2   3
ATOM      3  C   UNL     1      18.084  12.641  18.249  1.00  0.00     0.000 C 
BRANCH   3   4
ATOM      4  C   UNL     1      19.188  11.610  17.974  1.00  0.00     0.000 C 
BRANCH   4   5
ATOM      5  C   UNL     1      19.458  11.418  16.474  1.00  0.00     0.006 C 
BRANCH   5   6
ATOM      6  C   UNL     1      19.198  12.691  15.658  1.00  0.00     0.053 C 
BRANCH   6   7
ATOM      7  C   UNL     1      18.710  12.342  14.288  1.00  0.00     0.041 C 
ATOM      8  O   UNL     1      19.031  13.054  13.300  1.00  0.00    -0.550 OA
ATOM      9  O   UNL     1      17.939  11.203  14.094  1.00  0.00    -0.550 OA
ENDBRANCH   6   7
ENDBRANCH   5   6
ENDBRANCH   4   5
ENDBRANCH   3   4
ENDBRANCH   2   3
ENDBRANCH   1   2
BRANCH   1  10
ATOM     10  C   UNL     1      15.657  12.192  16.871  1.00  0.00     0.000 C 
BRANCH  10  11
ATOM     11  C   UNL     1      14.354  11.769  16.171  1.00  0.00    -0.000 C 
BRANCH  11  12
ATOM     12  C   UNL     1      14.534  11.590  14.654  1.00  0.00    -0.000 C 
BRANCH  12  13
ATOM     13  C   UNL     1      13.201  11.340  13.931  1.00  0.00    -0.000 C 
BRANCH  13  14
ATOM     14  C   UNL     1      13.035  12.208  12.671  1.00  0.00    -0.000 C 
BRANCH  14  15
ATOM     15  C   UNL     1      11.862  11.773  11.767  1.00  0.00    -0.000 C 
BRANCH  15  16
ATOM     16  C   UNL     1      12.346  11.134  10.457  1.00  0.00    -0.003 C 
ATOM     17  C   UNL     1      12.949  12.180   9.523  1.00  0.00     0.004 C 
ENDBRANCH  15  16
ENDBRANCH  14  15
ENDBRANCH  13  14
ENDBRANCH  12  13
ENDBRANCH  11  12
ENDBRANCH  10  11
ENDBRANCH   1  10
TORSDOF 13
ENDMDL
MODEL 4
REMARK VINA RESULT:    -3.420      0.966      2.042
REMARK INTER + INTRA:          -8.247
REMARK INTER:                  -6.063
REMARK INTRA:                  -2.184
REMARK UNBOUND:                -2.228
REMARK SMILES CCCCCCCCCCCCCCC(=O)[O-]
REMARK SMILES IDX 9 1 10 2 11 3 12 4 13 5 14 6 15 7 16 8 17 9 8 10 7 11 6 12
REMARK SMILES IDX 5 13 4 14 3 15 2 16 1 17
REMARK H PARENT
REMARK Flexibility Score: inf
ROOT
ATOM      1  C   UNL     1      11.276  14.480  11.009  1.00  0.00     0.000 C 
ENDROOT
BRANCH   1   2
ATOM      2  C   UNL     1      10.433  15.084  12.147  1.00  0.00     0.000 C 
BRANCH   2   3
ATOM      3  C   UNL     1       9.426  14.088  12.742  1.00  0.00     0.000 C 
BRANCH   3   4
ATOM      4  C   UNL     1       9.606  12.693  12.125  1.00  0.00     0.000 C 
BRANCH   4   5
ATOM      5  C   UNL     1       9.701  11.584  13.185  1.00  0.00     0.006 C 
BRANCH   5   6
ATOM      6  C   UNL     1      11.000  11.653  13.998  1.00  0.00     0.053 C 
BRANCH   6   7
ATOM      7  C   UNL     1      12.172  11.300  13.138  1.00  0.00     0.041 C 
ATOM      8  O   UNL     1      12.248  10.161  12.606  1.00  0.00    -0.550 OA
ATOM      9  O   UNL     1      13.158  12.245  12.884  1.00  0.00    -0.550 OA
ENDBRANCH   6   7
ENDBRANCH   5   6
ENDBRANCH   4   5
ENDBRANCH   3   4
ENDBRANCH   2   3
ENDBRANCH   1   2
BRANCH   1  10
ATOM     10  C   UNL     1      11.664  15.464   9.890  1.00  0.00     0.000 C 
BRANCH  10  11
ATOM     11  C   UNL     1      10.565  15.620   8.825  1.00  0.00    -0.000 C 
BRANCH  11  12
ATOM     12  C   UNL     1       9.750  14.330   8.629  1.00  0.00    -0.000 C 
BRANCH  12  13
ATOM     13  C   UNL     1      10.032  13.657   7.277  1.00  0.00    -0.000 C 
BRANCH  13  14
ATOM     14  C   UNL     1      10.766  12.312   7.421  1.00  0.00    -0.000 C 
BRANCH  14  15
ATOM     15  C   UNL     1      10.537  11.624   8.784  1.00  0.00    -0.000 C 
BRANCH  15  16
ATOM     16  C   UNL     1      11.847  11.120   9.407  1.00  0.00    -0.003 C 
ATOM     17  C   UNL     1      13.014  12.038   9.053  1.00  0.00     0.004 C 
ENDBRANCH  15  16
ENDBRANCH  14  15
ENDBRANCH  13  14
ENDBRANCH  12  13
ENDBRANCH  11  12
ENDBRANCH  10  11
ENDBRANCH   1  10
TORSDOF 13
ENDMDL
MODEL 5
REMARK VINA RESULT:    -3.399      7.060      9.705
REMARK INTER + INTRA:          -8.210
REMARK INTER:                  -7.286
REMARK INTRA:                  -0.924
REMARK UNBOUND:                -2.228
REMARK SMILES CCCCCCCCCCCCCCC(=O)[O-]
REMARK SMILES IDX 9 1 10 2 11 3 12 4 13 5 14 6 15 7 16 8 17 9 8 10 7 11 6 12
REMARK SMILES IDX 5 13 4 14 3 15 2 16 1 17
REMARK H PARENT
REMARK Flexibility Score: inf
ROOT
ATOM      1  C   UNL     1      15.842  11.995  19.045  1.00  0.00     0.000 C 
ENDROOT
BRANCH   1   2
ATOM      2  C   UNL     1      17.335  11.732  19.311  1.00  0.00     0.000 C 
BRANCH   2   3
ATOM      3  C   UNL     1      18.259  12.464  18.325  1.00  0.00     0.000 C 
BRANCH   3   4
ATOM      4  C   UNL     1      19.387  11.541  17.841  1.00  0.00     0.000 C 
BRANCH   4   5
ATOM      5  C   UNL     1      19.464  11.452  16.309  1.00  0.00     0.006 C 
BRANCH   5   6
ATOM      6  C   UNL     1      19.029  12.752  15.619  1.00  0.00     0.053 C 
BRANCH   6   7
ATOM      7  C   UNL     1      18.189  12.449  14.419  1.00  0.00     0.041 C 
ATOM      8  O   UNL     1      18.660  12.599  13.261  1.00  0.00    -0.550 OA
ATOM      9  O   UNL     1      16.901  11.954  14.578  1.00  0.00    -0.550 OA
ENDBRANCH   6   7
ENDBRANCH   5   6
ENDBRANCH   4   5
ENDBRANCH   3   4
ENDBRANCH   2   3
ENDBRANCH   1   2
BRANCH   1  10
ATOM     10  C   UNL     1      15.494  12.380  17.595  1.00  0.00     0.000 C 
BRANCH  10  11
ATOM     11  C   UNL     1      14.034  12.065  17.227  1.00  0.00    -0.000 C 
BRANCH  11  12
ATOM     12  C   UNL     1      13.111  12.039  18.457  1.00  0.00    -0.000 C 
BRANCH  12  13
ATOM     13  C   UNL     1      11.630  12.208  18.083  1.00  0.00    -0.000 C 
BRANCH  13  14
ATOM     14  C   UNL     1      10.689  11.399  18.994  1.00  0.00    -0.000 C 
BRANCH  14  15
ATOM     15  C   UNL     1      11.199  11.259  20.444  1.00  0.00    -0.000 C 
BRANCH  15  16
ATOM     16  C   UNL     1      11.402   9.792  20.849  1.00  0.00    -0.003 C 
ATOM     17  C   UNL     1      10.309   8.902  20.262  1.00  0.00     0.004 C 
ENDBRANCH  15  16
ENDBRANCH  14  15
ENDBRANCH  13  14
ENDBRANCH  12  13
ENDBRANCH  11  12
ENDBRANCH  10  11
ENDBRANCH   1  10
TORSDOF 13
ENDMDL
MODEL 6
REMARK VINA RESULT:    -3.391      5.402      7.884
REMARK INTER + INTRA:          -8.197
REMARK INTER:                  -7.158
REMARK INTRA:                  -1.039
REMARK UNBOUND:                -2.228
REMARK SMILES CCCCCCCCCCCCCCC(=O)[O-]
REMARK SMILES IDX 9 1 10 2 11 3 12 4 13 5 14 6 15 7 16 8 17 9 8 10 7 11 6 12
REMARK SMILES IDX 5 13 4 14 3 15 2 16 1 17
REMARK H PARENT
REMARK Flexibility Score: inf
ROOT
ATOM      1  C   UNL     1      14.488  11.963  16.507  1.00  0.00     0.000 C 
ENDROOT
BRANCH   1   2
ATOM      2  C   UNL     1      14.488  11.178  15.182  1.00  0.00     0.000 C 
BRANCH   2   3
ATOM      3  C   UNL     1      13.743  11.906  14.053  1.00  0.00     0.000 C 
BRANCH   3   4
ATOM      4  C   UNL     1      12.845  10.935  13.273  1.00  0.00     0.000 C 
BRANCH   4   5
ATOM      5  C   UNL     1      11.939  11.650  12.259  1.00  0.00     0.006 C 
BRANCH   5   6
ATOM      6  C   UNL     1      12.264  11.273  10.807  1.00  0.00     0.053 C 
BRANCH   6   7
ATOM      7  C   UNL     1      12.923  12.419  10.107  1.00  0.00     0.041 C 
ATOM      8  O   UNL     1      13.521  13.307  10.769  1.00  0.00    -0.550 OA
ATOM      9  O   UNL     1      12.919  12.481   8.719  1.00  0.00    -0.550 OA
ENDBRANCH   6   7
ENDBRANCH   5   6
ENDBRANCH   4   5
ENDBRANCH   3   4
ENDBRANCH   2   3
ENDBRANCH   1   2
BRANCH   1  10
ATOM     10  C   UNL     1      15.880  12.362  17.031  1.00  0.00     0.000 C 
BRANCH  10  11
ATOM     11  C   UNL     1      16.078  12.022  18.518  1.00  0.00    -0.000 C 
BRANCH  11  12
ATOM     12  C   UNL     1      17.507  12.324  19.003  1.00  0.00    -0.000 C 
BRANCH  12  13
ATOM     13  C   UNL     1      18.578  11.808  18.029  1.00  0.00    -0.000 C 
BRANCH  13  14
ATOM     14  C   UNL     1      19.436  12.937  17.433  1.00  0.00    -0.000 C 
BRANCH  14  15
ATOM     15  C   UNL     1      19.542  12.890  15.894  1.00  0.00    -0.000 C 
BRANCH  15  16
ATOM     16  C   UNL     1      18.827  11.667  15.300  1.00  0.00    -0.003 C 
ATOM     17  C   UNL     1      18.043  12.043  14.046  1.00  0.00     0.004 C 
ENDBRANCH  15  16
ENDBRANCH  14  15
ENDBRANCH  13  14
ENDBRANCH  12  13
ENDBRANCH  11  12
ENDBRANCH  10  11
ENDBRANCH   1  10
TORSDOF 13
ENDMDL
MODEL 7
REMARK VINA RESULT:    -3.337      1.337      2.584
REMARK INTER + INTRA:          -8.102
REMARK INTER:                  -6.122
REMARK INTRA:                  -1.980
REMARK UNBOUND:                -2.228
REMARK SMILES CCCCCCCCCCCCCCC(=O)[O-]
REMARK SMILES IDX 9 1 10 2 11 3 12 4 13 5 14 6 15 7 16 8 17 9 8 10 7 11 6 12
REMARK SMILES IDX 5 13 4 14 3 15 2 16 1 17
REMARK H PARENT
REMARK Flexibility Score: inf
ROOT
ATOM      1  C   UNL     1       9.450  12.996  12.955  1.00  0.00     0.000 C 
ENDROOT
BRANCH   1   2
ATOM      2  C   UNL     1       9.033  11.866  11.996  1.00  0.00     0.000 C 
BRANCH   2   3
ATOM      3  C   UNL     1       9.730  10.532  12.302  1.00  0.00     0.000 C 
BRANCH   3   4
ATOM      4  C   UNL     1      10.837  10.244  11.277  1.00  0.00     0.000 C 
BRANCH   4   5
ATOM      5  C   UNL     1      12.181  10.880  11.663  1.00  0.00     0.006 C 
BRANCH   5   6
ATOM      6  C   UNL     1      12.496  10.736  13.158  1.00  0.00     0.053 C 
BRANCH   6   7
ATOM      7  C   UNL     1      13.520  11.744  13.575  1.00  0.00     0.041 C 
ATOM      8  O   UNL     1      14.187  11.571  14.629  1.00  0.00    -0.550 OA
ATOM      9  O   UNL     1      13.772  12.850  12.774  1.00  0.00    -0.550 OA
ENDBRANCH   6   7
ENDBRANCH   5   6
ENDBRANCH   4   5
ENDBRANCH   3   4
ENDBRANCH   2   3
ENDBRANCH   1   2
BRANCH   1  10
ATOM     10  C   UNL     1       9.346  14.418  12.374  1.00  0.00     0.000 C 
BRANCH  10  11
ATOM     11  C   UNL     1      10.721  15.063  12.123  1.00  0.00    -0.000 C 
BRANCH  11  12
ATOM     12  C   UNL     1      11.409  14.507  10.865  1.00  0.00    -0.000 C 
BRANCH  12  13
ATOM     13  C   UNL     1      11.064  15.313   9.602  1.00  0.00    -0.000 C 
BRANCH  13  14
ATOM     14  C   UNL     1      10.041  14.601   8.701  1.00  0.00    -0.000 C 
BRANCH  14  15
ATOM     15  C   UNL     1      10.085  13.062   8.808  1.00  0.00    -0.000 C 
BRANCH  15  16
ATOM     16  C   UNL     1      10.959  12.428   7.716  1.00  0.00    -0.003 C 
ATOM     17  C   UNL     1      12.317  12.008   8.272  1.00  0.00     0.004 C 
ENDBRANCH  15  16
ENDBRANCH  14  15
ENDBRANCH  13  14
ENDBRANCH  12  13
ENDBRANCH  11  12
ENDBRANCH  10  11
ENDBRANCH   1  10
TORSDOF 13
ENDMDL
MODEL 8
REMARK VINA RESULT:    -3.256      2.910      4.317
REMARK INTER + INTRA:          -7.960
REMARK INTER:                  -6.294
REMARK INTRA:                  -1.665
REMARK UNBOUND:                -2.228
REMARK SMILES CCCCCCCCCCCCCCC(=O)[O-]
REMARK SMILES IDX 9 1 10 2 11 3 12 4 13 5 14 6 15 7 16 8 17 9 8 10 7 11 6 12
REMARK SMILES IDX 5 13 4 14 3 15 2 16 1 17
REMARK H PARENT
REMARK Flexibility Score: inf
ROOT
ATOM      1  C   UNL     1      12.130  10.824  12.830  1.00  0.00     0.000 C 
ENDROOT
BRANCH   1   2
ATOM      2  C   UNL     1      11.444  11.637  13.943  1.00  0.00     0.000 C 
BRANCH   2   3
ATOM      3  C   UNL     1       9.973  11.244  14.154  1.00  0.00     0.000 C 
BRANCH   3   4
ATOM      4  C   UNL     1       9.374  11.990  15.356  1.00  0.00     0.000 C 
BRANCH   4   5
ATOM      5  C   UNL     1       9.837  11.411  16.702  1.00  0.00     0.006 C 
BRANCH   5   6
ATOM      6  C   UNL     1       9.535  12.344  17.883  1.00  0.00     0.053 C 
BRANCH   6   7
ATOM      7  C   UNL     1      10.786  12.631  18.652  1.00  0.00     0.041 C 
ATOM      8  O   UNL     1      10.718  13.112  19.814  1.00  0.00    -0.550 OA
ATOM      9  O   UNL     1      12.025  12.324  18.105  1.00  0.00    -0.550 OA
ENDBRANCH   6   7
ENDBRANCH   5   6
ENDBRANCH   4   5
ENDBRANCH   3   4
ENDBRANCH   2   3
ENDBRANCH   1   2
BRANCH   1  10
ATOM     10  C   UNL     1      11.174  10.175  11.812  1.00  0.00     0.000 C 
BRANCH  10  11
ATOM     11  C   UNL     1      11.393  10.684  10.377  1.00  0.00    -0.000 C 
BRANCH  11  12
ATOM     12  C   UNL     1      12.620  11.605  10.262  1.00  0.00    -0.000 C 
BRANCH  12  13
ATOM     13  C   UNL     1      12.306  12.911   9.515  1.00  0.00    -0.000 C 
BRANCH  13  14
ATOM     14  C   UNL     1      11.095  13.657  10.102  1.00  0.00    -0.000 C 
BRANCH  14  15
ATOM     15  C   UNL     1      11.472  14.715  11.161  1.00  0.00    -0.000 C 
BRANCH  15  16
ATOM     16  C   UNL     1      10.340  14.953  12.172  1.00  0.00    -0.003 C 
ATOM     17  C   UNL     1       9.163  14.017  11.912  1.00  0.00     0.004 C 
ENDBRANCH  15  16
ENDBRANCH  14  15
ENDBRANCH  13  14
ENDBRANCH  12  13
ENDBRANCH  11  12
ENDBRANCH  10  11
ENDBRANCH   1  10
TORSDOF 13
ENDMDL
MODEL 9
REMARK VINA RESULT:    -3.245      2.147      4.787
REMARK INTER + INTRA:          -7.940
REMARK INTER:                  -6.044
REMARK INTRA:                  -1.895
REMARK UNBOUND:                -2.228
REMARK SMILES CCCCCCCCCCCCCCC(=O)[O-]
REMARK SMILES IDX 9 1 10 2 11 3 12 4 13 5 14 6 15 7 16 8 17 9 8 10 7 11 6 12
REMARK SMILES IDX 5 13 4 14 3 15 2 16 1 17
REMARK H PARENT
REMARK Flexibility Score: inf
ROOT
ATOM      1  C   UNL     1      10.703  15.144  12.118  1.00  0.00     0.000 C 
ENDROOT
BRANCH   1   2
ATOM      2  C   UNL     1      11.320  14.593  10.819  1.00  0.00     0.000 C 
BRANCH   2   3
ATOM      3  C   UNL     1      11.571  15.683   9.765  1.00  0.00     0.000 C 
BRANCH   3   4
ATOM      4  C   UNL     1      10.478  15.666   8.686  1.00  0.00     0.000 C 
BRANCH   4   5
ATOM      5  C   UNL     1       9.795  14.295   8.558  1.00  0.00     0.006 C 
BRANCH   5   6
ATOM      6  C   UNL     1      10.202  13.549   7.281  1.00  0.00     0.053 C 
BRANCH   6   7
ATOM      7  C   UNL     1      10.971  12.312   7.623  1.00  0.00     0.041 C 
ATOM      8  O   UNL     1      10.556  11.184   7.248  1.00  0.00    -0.550 OA
ATOM      9  O   UNL     1      12.172  12.408   8.315  1.00  0.00    -0.550 OA
ENDBRANCH   6   7
ENDBRANCH   5   6
ENDBRANCH   4   5
ENDBRANCH   3   4
ENDBRANCH   2   3
ENDBRANCH   1   2
BRANCH   1  10
ATOM     10  C   UNL     1       9.268  14.668  12.413  1.00  0.00     0.000 C 
BRANCH  10  11
ATOM     11  C   UNL     1       8.984  13.256  11.873  1.00  0.00    -0.000 C 
BRANCH  11  12
ATOM     12  C   UNL     1       9.111  12.176  12.961  1.00  0.00    -0.000 C 
BRANCH  12  13
ATOM     13  C   UNL     1       9.434  10.790  12.378  1.00  0.00    -0.000 C 
BRANCH  13  14
ATOM     14  C   UNL     1      10.276  10.867  11.092  1.00  0.00    -0.000 C 
BRANCH  14  15
ATOM     15  C   UNL     1      11.748  10.445  11.287  1.00  0.00    -0.000 C 
BRANCH  15  16
ATOM     16  C   UNL     1      12.560  11.505  12.045  1.00  0.00    -0.003 C 
ATOM     17  C   UNL     1      12.906  11.032  13.454  1.00  0.00     0.004 C 
ENDBRANCH  15  16
ENDBRANCH  14  15
ENDBRANCH  13  14
ENDBRANCH  12  13
ENDBRANCH  11  12
ENDBRANCH  10  11
ENDBRANCH   1  10
TORSDOF 13
ENDMDL
