MODEL 1
REMARK VINA RESULT:    -2.233      0.000      0.000
REMARK INTER + INTRA:          -2.508
REMARK INTER:                  -2.494
REMARK INTRA:                  -0.014
REMARK UNBOUND:                -0.014
REMARK SMILES CCCC(=O)[O-]
REMARK SMILES IDX 3 1 4 2 5 3 6 4 2 5 1 6
REMARK H PARENT
REMARK Flexibility Score: inf
ROOT
ATOM      1  C   UNL     1     -95.550 -46.642 -11.866  1.00  0.00     0.052 C 
ENDROOT
BRANCH   1   2
ATOM      2  C   UNL     1     -94.179 -46.454 -12.434  1.00  0.00     0.041 C 
ATOM      3  O   UNL     1     -93.252 -47.250 -12.127  1.00  0.00    -0.550 OA
ATOM      4  O   UNL     1     -93.936 -45.432 -13.342  1.00  0.00    -0.550 OA
ENDBRANCH   1   2
BRANCH   1   5
ATOM      5  C   UNL     1     -96.380 -45.367 -12.038  1.00  0.00     0.003 C 
ATOM      6  C   UNL     1     -97.874 -45.679 -12.041  1.00  0.00     0.004 C 
ENDBRANCH   1   5
TORSDOF 2
ENDMDL
MODEL 2
REMARK VINA RESULT:    -2.169      1.281      1.713
REMARK INTER + INTRA:          -2.436
REMARK INTER:                  -2.428
REMARK INTRA:                  -0.009
REMARK UNBOUND:                -0.014
REMARK SMILES CCCC(=O)[O-]
REMARK SMILES IDX 3 1 4 2 5 3 6 4 2 5 1 6
REMARK H PARENT
REMARK Flexibility Score: inf
ROOT
ATOM      1  C   UNL     1     -96.606 -45.196 -11.980  1.00  0.00     0.052 C 
ENDROOT
BRANCH   1   2
ATOM      2  C   UNL     1     -95.507 -46.210 -11.953  1.00  0.00     0.041 C 
ATOM      3  O   UNL     1     -95.649 -47.279 -11.303  1.00  0.00    -0.550 OA
ATOM      4  O   UNL     1     -94.347 -45.998 -12.686  1.00  0.00    -0.550 OA
ENDBRANCH   1   2
BRANCH   1   5
ATOM      5  C   UNL     1     -97.972 -45.886 -12.020  1.00  0.00     0.003 C 
ATOM      6  C   UNL     1     -99.080 -44.894 -12.366  1.00  0.00     0.004 C 
ENDBRANCH   1   5
TORSDOF 2
ENDMDL
MODEL 3
REMARK VINA RESULT:    -2.146     10.766     11.043
REMARK INTER + INTRA:          -2.411
REMARK INTER:                  -2.399
REMARK INTRA:                  -0.012
REMARK UNBOUND:                -0.014
REMARK SMILES CCCC(=O)[O-]
REMARK SMILES IDX 3 1 4 2 5 3 6 4 2 5 1 6
REMARK H PARENT
REMARK Flexibility Score: inf
ROOT
ATOM      1  C   UNL     1     -95.202 -53.388 -20.019  1.00  0.00     0.052 C 
ENDROOT
BRANCH   1   2
ATOM      2  C   UNL     1     -95.381 -53.011 -21.455  1.00  0.00     0.041 C 
ATOM      3  O   UNL     1     -96.341 -53.484 -22.119  1.00  0.00    -0.550 OA
ATOM      4  O   UNL     1     -94.519 -52.097 -22.046  1.00  0.00    -0.550 OA
ENDBRANCH   1   2
BRANCH   1   5
ATOM      5  C   UNL     1     -96.528 -53.865 -19.420  1.00  0.00     0.003 C 
ATOM      6  C   UNL     1     -96.602 -53.551 -17.927  1.00  0.00     0.004 C 
ENDBRANCH   1   5
TORSDOF 2
ENDMDL
MODEL 4
REMARK VINA RESULT:    -2.092      2.036      2.395
REMARK INTER + INTRA:          -2.351
REMARK INTER:                  -2.346
REMARK INTRA:                  -0.005
REMARK UNBOUND:                -0.014
REMARK SMILES CCCC(=O)[O-]
REMARK SMILES IDX 3 1 4 2 5 3 6 4 2 5 1 6
REMARK H PARENT
REMARK Flexibility Score: inf
ROOT
ATOM      1  C   UNL     1     -97.506 -45.391 -11.959  1.00  0.00     0.052 C 
ENDROOT
BRANCH   1   2
ATOM      2  C   UNL     1     -96.216 -46.040 -11.571  1.00  0.00     0.041 C 
ATOM      3  O   UNL     1     -96.149 -46.738 -10.525  1.00  0.00    -0.550 OA
ATOM      4  O   UNL     1     -95.102 -45.918 -12.390  1.00  0.00    -0.550 OA
ENDBRANCH   1   2
BRANCH   1   5
ATOM      5  C   UNL     1     -97.393 -43.867 -11.854  1.00  0.00     0.003 C 
ATOM      6  C   UNL     1     -98.756 -43.201 -12.019  1.00  0.00     0.004 C 
ENDBRANCH   1   5
TORSDOF 2
ENDMDL
MODEL 5
REMARK VINA RESULT:    -2.042      9.930     10.255
REMARK INTER + INTRA:          -2.295
REMARK INTER:                  -2.289
REMARK INTRA:                  -0.007
REMARK UNBOUND:                -0.014
REMARK SMILES CCCC(=O)[O-]
REMARK SMILES IDX 3 1 4 2 5 3 6 4 2 5 1 6
REMARK H PARENT
REMARK Flexibility Score: inf
ROOT
ATOM      1  C   UNL     1     -96.608 -53.489 -17.973  1.00  0.00     0.052 C 
ENDROOT
BRANCH   1   2
ATOM      2  C   UNL     1     -96.202 -53.798 -19.379  1.00  0.00     0.041 C 
ATOM      3  O   UNL     1     -96.760 -54.734 -20.008  1.00  0.00    -0.550 OA
ATOM      4  O   UNL     1     -95.242 -53.019 -20.011  1.00  0.00    -0.550 OA
ENDBRANCH   1   2
BRANCH   1   5
ATOM      5  C   UNL     1     -96.592 -54.760 -17.119  1.00  0.00     0.003 C 
ATOM      6  C   UNL     1     -96.545 -54.422 -15.630  1.00  0.00     0.004 C 
ENDBRANCH   1   5
TORSDOF 2
ENDMDL
MODEL 6
REMARK VINA RESULT:    -2.034      3.550      4.033
REMARK INTER + INTRA:          -2.285
REMARK INTER:                  -2.236
REMARK INTRA:                  -0.050
REMARK UNBOUND:                -0.014
REMARK SMILES CCCC(=O)[O-]
REMARK SMILES IDX 3 1 4 2 5 3 6 4 2 5 1 6
REMARK H PARENT
REMARK Flexibility Score: inf
ROOT
ATOM      1  C   UNL     1     -97.303 -43.619 -11.809  1.00  0.00     0.052 C 
ENDROOT
BRANCH   1   2
ATOM      2  C   UNL     1     -97.060 -43.843 -10.350  1.00  0.00     0.041 C 
ATOM      3  O   UNL     1     -96.475 -44.887  -9.958  1.00  0.00    -0.550 OA
ATOM      4  O   UNL     1     -97.435 -42.876  -9.427  1.00  0.00    -0.550 OA
ENDBRANCH   1   2
BRANCH   1   5
ATOM      5  C   UNL     1     -98.801 -43.665 -12.117  1.00  0.00     0.003 C 
ATOM      6  C   UNL     1     -99.274 -45.100 -12.340  1.00  0.00     0.004 C 
ENDBRANCH   1   5
TORSDOF 2
ENDMDL
MODEL 7
REMARK VINA RESULT:    -2.030      9.778     10.292
REMARK INTER + INTRA:          -2.281
REMARK INTER:                  -2.255
REMARK INTRA:                  -0.026
REMARK UNBOUND:                -0.014
REMARK SMILES CCCC(=O)[O-]
REMARK SMILES IDX 3 1 4 2 5 3 6 4 2 5 1 6
REMARK H PARENT
REMARK Flexibility Score: inf
ROOT
ATOM      1  C   UNL     1     -96.633 -53.441 -17.898  1.00  0.00     0.052 C 
ENDROOT
BRANCH   1   2
ATOM      2  C   UNL     1     -96.652 -54.586 -16.937  1.00  0.00     0.041 C 
ATOM      3  O   UNL     1     -96.819 -55.762 -17.355  1.00  0.00    -0.550 OA
ATOM      4  O   UNL     1     -96.434 -54.361 -15.584  1.00  0.00    -0.550 OA
ENDBRANCH   1   2
BRANCH   1   5
ATOM      5  C   UNL     1     -96.470 -53.949 -19.334  1.00  0.00     0.003 C 
ATOM      6  C   UNL     1     -95.245 -53.327 -20.002  1.00  0.00     0.004 C 
ENDBRANCH   1   5
TORSDOF 2
ENDMDL
MODEL 8
REMARK VINA RESULT:    -2.006      3.643      4.550
REMARK INTER + INTRA:          -2.255
REMARK INTER:                  -2.246
REMARK INTRA:                  -0.009
REMARK UNBOUND:                -0.014
REMARK SMILES CCCC(=O)[O-]
REMARK SMILES IDX 3 1 4 2 5 3 6 4 2 5 1 6
REMARK H PARENT
REMARK Flexibility Score: inf
ROOT
ATOM      1  C   UNL     1     -98.064 -45.763 -12.026  1.00  0.00     0.052 C 
ENDROOT
BRANCH   1   2
ATOM      2  C   UNL     1     -99.136 -44.776 -12.361  1.00  0.00     0.041 C 
ATOM      3  O   UNL     1    -100.262 -45.175 -12.759  1.00  0.00    -0.550 OA
ATOM      4  O   UNL     1     -98.909 -43.417 -12.186  1.00  0.00    -0.550 OA
ENDBRANCH   1   2
BRANCH   1   5
ATOM      5  C   UNL     1     -96.703 -45.069 -11.939  1.00  0.00     0.003 C 
ATOM      6  C   UNL     1     -95.562 -46.082 -11.995  1.00  0.00     0.004 C 
ENDBRANCH   1   5
TORSDOF 2
ENDMDL
MODEL 9
REMARK VINA RESULT:    -1.966      3.282      4.007
REMARK INTER + INTRA:          -2.210
REMARK INTER:                  -2.201
REMARK INTRA:                  -0.009
REMARK UNBOUND:                -0.014
REMARK SMILES CCCC(=O)[O-]
REMARK SMILES IDX 3 1 4 2 5 3 6 4 2 5 1 6
REMARK H PARENT
REMARK Flexibility Score: inf
ROOT
ATOM      1  C   UNL     1     -98.914 -46.375 -12.344  1.00  0.00     0.052 C 
ENDROOT
BRANCH   1   2
ATOM      2  C   UNL     1     -98.519 -47.751 -12.780  1.00  0.00     0.041 C 
ATOM      3  O   UNL     1     -99.293 -48.434 -13.500  1.00  0.00    -0.550 OA
ATOM      4  O   UNL     1     -97.274 -48.259 -12.433  1.00  0.00    -0.550 OA
ENDBRANCH   1   2
BRANCH   1   5
ATOM      5  C   UNL     1     -97.676 -45.554 -11.974  1.00  0.00     0.003 C 
ATOM      6  C   UNL     1     -97.993 -44.061 -11.948  1.00  0.00     0.004 C 
ENDBRANCH   1   5
TORSDOF 2
ENDMDL
