MODEL 1
REMARK VINA RESULT:    -6.044      0.000      0.000
REMARK INTER + INTRA:          -9.133
REMARK INTER:                  -7.988
REMARK INTRA:                  -1.145
REMARK UNBOUND:                -1.145
REMARK SMILES CC[C@@H](C=C[C@H](C)[C@@H]1CC[C@@H]2[C@H]3CC=C4C[C@@H](O)CC[C@@]4(C)[C@H]3CC[C@]21C)C(C)C
REMARK SMILES IDX 6 1 7 2 5 3 4 4 3 5 2 6 1 7 28 8 29 9 30 10 8 11 9 12 26 13
REMARK SMILES IDX 10 14 11 15 25 16 27 17 12 18 24 19 23 20 13 21 21 22 14 23
REMARK SMILES IDX 15 24 20 25 22 26 16 27 19 28 17 29 18 30
REMARK H PARENT 18 31
REMARK Flexibility Score: inf
ROOT
ATOM      1  C   UNL     1      19.798 -16.687  42.014  1.00  0.00     0.012 C 
ATOM      2  C   UNL     1      19.404 -15.266  41.577  1.00  0.00     0.012 C 
ENDROOT
BRANCH   1   3
ATOM      3  C   UNL     1      21.120 -16.643  42.754  1.00  0.00    -0.028 C 
ATOM      4  C   UNL     1      21.652 -15.500  43.221  1.00  0.00    -0.027 C 
BRANCH   4   5
ATOM      5  C   UNL     1      22.992 -15.474  43.927  1.00  0.00     0.014 C 
BRANCH   5   6
ATOM      6  C   UNL     1      22.803 -15.170  45.431  1.00  0.00     0.004 C 
ATOM      7  C   UNL     1      21.332 -14.974  45.804  1.00  0.00     0.004 C 
ENDBRANCH   5   6
BRANCH   5   8
ATOM      8  C   UNL     1      23.982 -14.476  43.255  1.00  0.00    -0.011 C 
ATOM      9  C   UNL     1      23.434 -13.958  41.917  1.00  0.00     0.008 C 
ATOM     10  C   UNL     1      24.370 -13.294  44.159  1.00  0.00     0.008 C 
ENDBRANCH   5   8
ENDBRANCH   4   5
ENDBRANCH   1   3
BRANCH   1  11
ATOM     11  C   UNL     1      18.696 -17.382  42.874  1.00  0.00     0.002 C 
ATOM     12  C   UNL     1      19.225 -17.818  44.263  1.00  0.00     0.005 C 
ATOM     13  C   UNL     1      18.032 -18.673  42.307  1.00  0.00    -0.026 C 
ATOM     14  C   UNL     1      18.425 -19.060  44.676  1.00  0.00     0.005 C 
ATOM     15  C   UNL     1      17.372 -19.223  43.581  1.00  0.00    -0.001 C 
ATOM     16  C   UNL     1      16.920 -18.419  41.248  1.00  0.00     0.007 C 
ATOM     17  C   UNL     1      19.116 -19.640  41.731  1.00  0.00     0.012 C 
ATOM     18  C   UNL     1      16.740 -20.627  43.394  1.00  0.00     0.000 C 
ATOM     19  C   UNL     1      15.663 -19.311  41.417  1.00  0.00     0.005 C 
ATOM     20  C   UNL     1      15.946 -20.727  42.017  1.00  0.00     0.003 C 
ATOM     21  C   UNL     1      15.901 -21.002  44.652  1.00  0.00     0.031 C 
ATOM     22  C   UNL     1      14.662 -21.642  42.123  1.00  0.00    -0.008 C 
ATOM     23  C   UNL     1      14.424 -20.829  44.460  1.00  0.00    -0.027 C 
ATOM     24  C   UNL     1      13.823 -21.205  43.320  1.00  0.00    -0.065 C 
ATOM     25  C   UNL     1      13.768 -21.563  40.842  1.00  0.00     0.014 C 
ATOM     26  C   UNL     1      15.106 -23.122  42.299  1.00  0.00     0.016 C 
ATOM     27  C   UNL     1      12.321 -21.063  43.184  1.00  0.00     0.063 C 
ATOM     28  C   UNL     1      12.467 -22.381  40.956  1.00  0.00     0.033 C 
ATOM     29  C   UNL     1      11.751 -22.212  42.325  1.00  0.00     0.118 C 
BRANCH  29  30
ATOM     30  O   UNL     1      10.366 -22.051  42.144  1.00  0.00    -0.393 OA
ATOM     31  H   UNL     1      10.135 -22.443  41.263  1.00  0.00     0.210 HD
ENDBRANCH  29  30
ENDBRANCH   1  11
TORSDOF 6
ENDMDL
MODEL 2
REMARK VINA RESULT:    -5.979      0.635      1.611
REMARK INTER + INTRA:          -9.046
REMARK INTER:                  -7.889
REMARK INTRA:                  -1.158
REMARK UNBOUND:                -1.145
REMARK SMILES CC[C@@H](C=C[C@H](C)[C@@H]1CC[C@@H]2[C@H]3CC=C4C[C@@H](O)CC[C@@]4(C)[C@H]3CC[C@]21C)C(C)C
REMARK SMILES IDX 6 1 7 2 5 3 4 4 3 5 2 6 1 7 28 8 29 9 30 10 8 11 9 12 26 13
REMARK SMILES IDX 10 14 11 15 25 16 27 17 12 18 24 19 23 20 13 21 21 22 14 23
REMARK SMILES IDX 15 24 20 25 22 26 16 27 19 28 17 29 18 30
REMARK H PARENT 18 31
REMARK Flexibility Score: inf
ROOT
ATOM      1  C   UNL     1      19.608 -16.252  41.935  1.00  0.00     0.012 C 
ATOM      2  C   UNL     1      18.920 -14.946  41.501  1.00  0.00     0.012 C 
ENDROOT
BRANCH   1   3
ATOM      3  C   UNL     1      20.915 -15.931  42.633  1.00  0.00    -0.028 C 
ATOM      4  C   UNL     1      21.139 -14.757  43.248  1.00  0.00    -0.027 C 
BRANCH   4   5
ATOM      5  C   UNL     1      22.465 -14.443  43.909  1.00  0.00     0.014 C 
BRANCH   5   6
ATOM      6  C   UNL     1      23.636 -14.825  42.976  1.00  0.00     0.004 C 
ATOM      7  C   UNL     1      24.368 -13.597  42.430  1.00  0.00     0.004 C 
ENDBRANCH   5   6
BRANCH   5   8
ATOM      8  C   UNL     1      22.591 -15.124  45.305  1.00  0.00    -0.011 C 
ATOM      9  C   UNL     1      23.739 -14.515  46.125  1.00  0.00     0.008 C 
ATOM     10  C   UNL     1      21.288 -15.097  46.122  1.00  0.00     0.008 C 
ENDBRANCH   5   8
ENDBRANCH   4   5
ENDBRANCH   1   3
BRANCH   1  11
ATOM     11  C   UNL     1      18.696 -17.146  42.834  1.00  0.00     0.002 C 
ATOM     12  C   UNL     1      19.448 -17.690  44.074  1.00  0.00     0.005 C 
ATOM     13  C   UNL     1      18.063 -18.419  42.194  1.00  0.00    -0.026 C 
ATOM     14  C   UNL     1      18.814 -19.043  44.422  1.00  0.00     0.005 C 
ATOM     15  C   UNL     1      17.634 -19.176  43.461  1.00  0.00    -0.001 C 
ATOM     16  C   UNL     1      16.797 -18.150  41.331  1.00  0.00     0.007 C 
ATOM     17  C   UNL     1      19.129 -19.203  41.363  1.00  0.00     0.012 C 
ATOM     18  C   UNL     1      17.095 -20.602  43.178  1.00  0.00     0.000 C 
ATOM     19  C   UNL     1      15.650 -19.173  41.544  1.00  0.00     0.005 C 
ATOM     20  C   UNL     1      16.127 -20.616  41.915  1.00  0.00     0.003 C 
ATOM     21  C   UNL     1      16.474 -21.202  44.475  1.00  0.00     0.031 C 
ATOM     22  C   UNL     1      14.946 -21.656  42.066  1.00  0.00    -0.008 C 
ATOM     23  C   UNL     1      14.976 -21.150  44.501  1.00  0.00    -0.027 C 
ATOM     24  C   UNL     1      14.252 -21.445  43.409  1.00  0.00    -0.065 C 
ATOM     25  C   UNL     1      13.878 -21.513  40.933  1.00  0.00     0.014 C 
ATOM     26  C   UNL     1      15.526 -23.096  41.991  1.00  0.00     0.016 C 
ATOM     27  C   UNL     1      12.740 -21.433  43.488  1.00  0.00     0.063 C 
ATOM     28  C   UNL     1      12.674 -22.460  41.109  1.00  0.00     0.033 C 
ATOM     29  C   UNL     1      12.147 -22.522  42.569  1.00  0.00     0.118 C 
BRANCH  29  30
ATOM     30  O   UNL     1      10.742 -22.475  42.592  1.00  0.00    -0.393 OA
ATOM     31  H   UNL     1      10.414 -23.411  42.568  1.00  0.00     0.210 HD
ENDBRANCH  29  30
ENDBRANCH   1  11
TORSDOF 6
ENDMDL
MODEL 3
REMARK VINA RESULT:    -5.948      3.716      9.914
REMARK INTER + INTRA:          -9.005
REMARK INTER:                  -7.776
REMARK INTRA:                  -1.229
REMARK UNBOUND:                -1.145
REMARK SMILES CC[C@@H](C=C[C@H](C)[C@@H]1CC[C@@H]2[C@H]3CC=C4C[C@@H](O)CC[C@@]4(C)[C@H]3CC[C@]21C)C(C)C
REMARK SMILES IDX 6 1 7 2 5 3 4 4 3 5 2 6 1 7 28 8 29 9 30 10 8 11 9 12 26 13
REMARK SMILES IDX 10 14 11 15 25 16 27 17 12 18 24 19 23 20 13 21 21 22 14 23
REMARK SMILES IDX 15 24 20 25 22 26 16 27 19 28 17 29 18 30
REMARK H PARENT 18 31
REMARK Flexibility Score: inf
ROOT
ATOM      1  C   UNL     1      17.398 -18.119  40.754  1.00  0.00     0.012 C 
ATOM      2  C   UNL     1      17.236 -17.976  39.232  1.00  0.00     0.012 C 
ENDROOT
BRANCH   1   3
ATOM      3  C   UNL     1      16.950 -19.502  41.186  1.00  0.00    -0.028 C 
ATOM      4  C   UNL     1      15.750 -19.733  41.747  1.00  0.00    -0.027 C 
BRANCH   4   5
ATOM      5  C   UNL     1      15.336 -21.116  42.204  1.00  0.00     0.014 C 
BRANCH   5   6
ATOM      6  C   UNL     1      16.580 -22.009  42.412  1.00  0.00     0.004 C 
ATOM      7  C   UNL     1      16.859 -22.283  43.891  1.00  0.00     0.004 C 
ENDBRANCH   5   6
BRANCH   5   8
ATOM      8  C   UNL     1      14.313 -21.767  41.225  1.00  0.00    -0.011 C 
ATOM      9  C   UNL     1      13.405 -22.772  41.950  1.00  0.00     0.008 C 
ATOM     10  C   UNL     1      13.459 -20.742  40.459  1.00  0.00     0.008 C 
ENDBRANCH   5   8
ENDBRANCH   4   5
ENDBRANCH   1   3
BRANCH   1  11
ATOM     11  C   UNL     1      18.854 -17.825  41.238  1.00  0.00     0.002 C 
ATOM     12  C   UNL     1      19.392 -18.928  42.183  1.00  0.00     0.005 C 
ATOM     13  C   UNL     1      19.110 -16.504  42.024  1.00  0.00    -0.026 C 
ATOM     14  C   UNL     1      20.380 -18.251  43.141  1.00  0.00     0.005 C 
ATOM     15  C   UNL     1      20.485 -16.813  42.636  1.00  0.00    -0.001 C 
ATOM     16  C   UNL     1      19.244 -15.235  41.133  1.00  0.00     0.007 C 
ATOM     17  C   UNL     1      18.007 -16.289  43.109  1.00  0.00     0.012 C 
ATOM     18  C   UNL     1      20.974 -15.734  43.637  1.00  0.00     0.000 C 
ATOM     19  C   UNL     1      20.389 -14.277  41.555  1.00  0.00     0.005 C 
ATOM     20  C   UNL     1      20.694 -14.266  43.089  1.00  0.00     0.003 C 
ATOM     21  C   UNL     1      22.457 -16.006  44.028  1.00  0.00     0.031 C 
ATOM     22  C   UNL     1      21.820 -13.237  43.506  1.00  0.00    -0.008 C 
ATOM     23  C   UNL     1      23.435 -15.119  43.319  1.00  0.00    -0.027 C 
ATOM     24  C   UNL     1      23.189 -13.810  43.148  1.00  0.00    -0.065 C 
ATOM     25  C   UNL     1      21.661 -11.858  42.787  1.00  0.00     0.014 C 
ATOM     26  C   UNL     1      21.735 -12.986  45.038  1.00  0.00     0.016 C 
ATOM     27  C   UNL     1      24.224 -12.935  42.473  1.00  0.00     0.063 C 
ATOM     28  C   UNL     1      22.797 -10.868  43.114  1.00  0.00     0.033 C 
ATOM     29  C   UNL     1      24.208 -11.518  43.085  1.00  0.00     0.118 C 
BRANCH  29  30
ATOM     30  O   UNL     1      25.125 -10.684  42.421  1.00  0.00    -0.393 OA
ATOM     31  H   UNL     1      25.206  -9.851  42.953  1.00  0.00     0.210 HD
ENDBRANCH  29  30
ENDBRANCH   1  11
TORSDOF 6
ENDMDL
MODEL 4
REMARK VINA RESULT:    -5.920      4.188     11.099
REMARK INTER + INTRA:          -8.969
REMARK INTER:                  -7.561
REMARK INTRA:                  -1.408
REMARK UNBOUND:                -1.145
REMARK SMILES CC[C@@H](C=C[C@H](C)[C@@H]1CC[C@@H]2[C@H]3CC=C4C[C@@H](O)CC[C@@]4(C)[C@H]3CC[C@]21C)C(C)C
REMARK SMILES IDX 6 1 7 2 5 3 4 4 3 5 2 6 1 7 28 8 29 9 30 10 8 11 9 12 26 13
REMARK SMILES IDX 10 14 11 15 25 16 27 17 12 18 24 19 23 20 13 21 21 22 14 23
REMARK SMILES IDX 15 24 20 25 22 26 16 27 19 28 17 29 18 30
REMARK H PARENT 18 31
REMARK Flexibility Score: inf
ROOT
ATOM      1  C   UNL     1       9.449 -21.613  38.505  1.00  0.00     0.012 C 
ATOM      2  C   UNL     1       9.540 -22.093  37.047  1.00  0.00     0.012 C 
ENDROOT
BRANCH   1   3
ATOM      3  C   UNL     1       8.117 -22.030  39.097  1.00  0.00    -0.028 C 
ATOM      4  C   UNL     1       7.371 -21.206  39.853  1.00  0.00    -0.027 C 
BRANCH   4   5
ATOM      5  C   UNL     1       6.059 -21.654  40.464  1.00  0.00     0.014 C 
BRANCH   5   6
ATOM      6  C   UNL     1       5.026 -20.506  40.423  1.00  0.00     0.004 C 
ATOM      7  C   UNL     1       5.661 -19.164  40.051  1.00  0.00     0.004 C 
ENDBRANCH   5   6
BRANCH   5   8
ATOM      8  C   UNL     1       6.252 -22.208  41.908  1.00  0.00    -0.011 C 
ATOM      9  C   UNL     1       7.475 -21.579  42.592  1.00  0.00     0.008 C 
ATOM     10  C   UNL     1       5.008 -22.047  42.799  1.00  0.00     0.008 C 
ENDBRANCH   5   8
ENDBRANCH   4   5
ENDBRANCH   1   3
BRANCH   1  11
ATOM     11  C   UNL     1      10.637 -22.122  39.383  1.00  0.00     0.002 C 
ATOM     12  C   UNL     1      10.175 -23.125  40.469  1.00  0.00     0.005 C 
ATOM     13  C   UNL     1      11.461 -21.065  40.179  1.00  0.00    -0.026 C 
ATOM     14  C   UNL     1      11.132 -22.969  41.657  1.00  0.00     0.005 C 
ATOM     15  C   UNL     1      12.193 -21.982  41.172  1.00  0.00    -0.001 C 
ATOM     16  C   UNL     1      12.526 -20.304  39.338  1.00  0.00     0.007 C 
ATOM     17  C   UNL     1      10.510 -20.051  40.893  1.00  0.00     0.012 C 
ATOM     18  C   UNL     1      13.002 -21.210  42.247  1.00  0.00     0.000 C 
ATOM     19  C   UNL     1      13.890 -20.118  40.052  1.00  0.00     0.005 C 
ATOM     20  C   UNL     1      13.796 -19.987  41.608  1.00  0.00     0.003 C 
ATOM     21  C   UNL     1      13.888 -22.203  43.058  1.00  0.00     0.031 C 
ATOM     22  C   UNL     1      15.189 -19.735  42.310  1.00  0.00    -0.008 C 
ATOM     23  C   UNL     1      15.328 -22.195  42.644  1.00  0.00    -0.027 C 
ATOM     24  C   UNL     1      15.969 -21.046  42.378  1.00  0.00    -0.065 C 
ATOM     25  C   UNL     1      16.059 -18.685  41.545  1.00  0.00     0.014 C 
ATOM     26  C   UNL     1      14.942 -19.190  43.746  1.00  0.00     0.016 C 
ATOM     27  C   UNL     1      17.438 -21.074  42.014  1.00  0.00     0.063 C 
ATOM     28  C   UNL     1      17.457 -18.486  42.165  1.00  0.00     0.033 C 
ATOM     29  C   UNL     1      18.150 -19.819  42.562  1.00  0.00     0.118 C 
BRANCH  29  30
ATOM     30  O   UNL     1      19.501 -19.810  42.174  1.00  0.00    -0.393 OA
ATOM     31  H   UNL     1      19.866 -20.716  42.349  1.00  0.00     0.210 HD
ENDBRANCH  29  30
ENDBRANCH   1  11
TORSDOF 6
ENDMDL
MODEL 5
REMARK VINA RESULT:    -5.911      7.639     10.384
REMARK INTER + INTRA:          -8.956
REMARK INTER:                  -7.811
REMARK INTRA:                  -1.145
REMARK UNBOUND:                -1.145
REMARK SMILES CC[C@@H](C=C[C@H](C)[C@@H]1CC[C@@H]2[C@H]3CC=C4C[C@@H](O)CC[C@@]4(C)[C@H]3CC[C@]21C)C(C)C
REMARK SMILES IDX 6 1 7 2 5 3 4 4 3 5 2 6 1 7 28 8 29 9 30 10 8 11 9 12 26 13
REMARK SMILES IDX 10 14 11 15 25 16 27 17 12 18 24 19 23 20 13 21 21 22 14 23
REMARK SMILES IDX 15 24 20 25 22 26 16 27 19 28 17 29 18 30
REMARK H PARENT 18 31
REMARK Flexibility Score: inf
ROOT
ATOM      1  C   UNL     1      22.044 -13.543  40.221  1.00  0.00     0.012 C 
ATOM      2  C   UNL     1      20.680 -14.087  40.676  1.00  0.00     0.012 C 
ENDROOT
BRANCH   1   3
ATOM      3  C   UNL     1      22.923 -13.295  41.431  1.00  0.00    -0.028 C 
ATOM      4  C   UNL     1      22.477 -13.436  42.692  1.00  0.00    -0.027 C 
BRANCH   4   5
ATOM      5  C   UNL     1      23.361 -13.149  43.888  1.00  0.00     0.014 C 
BRANCH   5   6
ATOM      6  C   UNL     1      24.788 -12.780  43.426  1.00  0.00     0.004 C 
ATOM      7  C   UNL     1      25.070 -11.280  43.547  1.00  0.00     0.004 C 
ENDBRANCH   5   6
BRANCH   5   8
ATOM      8  C   UNL     1      23.368 -14.333  44.900  1.00  0.00    -0.011 C 
ATOM      9  C   UNL     1      23.610 -15.675  44.193  1.00  0.00     0.008 C 
ATOM     10  C   UNL     1      24.375 -14.152  46.049  1.00  0.00     0.008 C 
ENDBRANCH   5   8
ENDBRANCH   4   5
ENDBRANCH   1   3
BRANCH   1  11
ATOM     11  C   UNL     1      22.756 -14.480  39.193  1.00  0.00     0.002 C 
ATOM     12  C   UNL     1      24.275 -14.603  39.468  1.00  0.00     0.005 C 
ATOM     13  C   UNL     1      22.681 -14.099  37.684  1.00  0.00    -0.026 C 
ATOM     14  C   UNL     1      24.955 -14.845  38.114  1.00  0.00     0.005 C 
ATOM     15  C   UNL     1      23.802 -14.987  37.122  1.00  0.00    -0.001 C 
ATOM     16  C   UNL     1      21.348 -14.490  36.982  1.00  0.00     0.007 C 
ATOM     17  C   UNL     1      22.969 -12.576  37.487  1.00  0.00     0.012 C 
ATOM     18  C   UNL     1      24.107 -14.726  35.624  1.00  0.00     0.000 C 
ATOM     19  C   UNL     1      21.526 -15.099  35.567  1.00  0.00     0.005 C 
ATOM     20  C   UNL     1      22.767 -14.562  34.780  1.00  0.00     0.003 C 
ATOM     21  C   UNL     1      25.081 -15.815  35.083  1.00  0.00     0.031 C 
ATOM     22  C   UNL     1      22.895 -15.149  33.318  1.00  0.00    -0.008 C 
ATOM     23  C   UNL     1      24.402 -16.879  34.276  1.00  0.00    -0.027 C 
ATOM     24  C   UNL     1      23.443 -16.572  33.387  1.00  0.00    -0.065 C 
ATOM     25  C   UNL     1      21.522 -15.188  32.570  1.00  0.00     0.014 C 
ATOM     26  C   UNL     1      23.858 -14.250  32.493  1.00  0.00     0.016 C 
ATOM     27  C   UNL     1      22.817 -17.668  32.552  1.00  0.00     0.063 C 
ATOM     28  C   UNL     1      21.608 -15.835  31.174  1.00  0.00     0.033 C 
ATOM     29  C   UNL     1      22.460 -17.135  31.148  1.00  0.00     0.118 C 
BRANCH  29  30
ATOM     30  O   UNL     1      21.822 -18.131  30.389  1.00  0.00    -0.393 OA
ATOM     31  H   UNL     1      21.341 -18.723  31.023  1.00  0.00     0.210 HD
ENDBRANCH  29  30
ENDBRANCH   1  11
TORSDOF 6
ENDMDL
MODEL 6
REMARK VINA RESULT:    -5.857      4.303      5.966
REMARK INTER + INTRA:          -8.885
REMARK INTER:                  -7.807
REMARK INTRA:                  -1.078
REMARK UNBOUND:                -1.145
REMARK SMILES CC[C@@H](C=C[C@H](C)[C@@H]1CC[C@@H]2[C@H]3CC=C4C[C@@H](O)CC[C@@]4(C)[C@H]3CC[C@]21C)C(C)C
REMARK SMILES IDX 6 1 7 2 5 3 4 4 3 5 2 6 1 7 28 8 29 9 30 10 8 11 9 12 26 13
REMARK SMILES IDX 10 14 11 15 25 16 27 17 12 18 24 19 23 20 13 21 21 22 14 23
REMARK SMILES IDX 15 24 20 25 22 26 16 27 19 28 17 29 18 30
REMARK H PARENT 18 31
REMARK Flexibility Score: inf
ROOT
ATOM      1  C   UNL     1      20.467 -16.476  42.223  1.00  0.00     0.012 C 
ATOM      2  C   UNL     1      20.640 -17.911  42.748  1.00  0.00     0.012 C 
ENDROOT
BRANCH   1   3
ATOM      3  C   UNL     1      21.667 -15.640  42.622  1.00  0.00    -0.028 C 
ATOM      4  C   UNL     1      22.532 -16.024  43.577  1.00  0.00    -0.027 C 
BRANCH   4   5
ATOM      5  C   UNL     1      23.705 -15.157  43.986  1.00  0.00     0.014 C 
BRANCH   5   6
ATOM      6  C   UNL     1      23.695 -14.923  45.514  1.00  0.00     0.004 C 
ATOM      7  C   UNL     1      22.291 -15.036  46.111  1.00  0.00     0.004 C 
ENDBRANCH   5   6
BRANCH   5   8
ATOM      8  C   UNL     1      23.736 -13.815  43.195  1.00  0.00    -0.011 C 
ATOM      9  C   UNL     1      24.279 -12.667  44.060  1.00  0.00     0.008 C 
ATOM     10  C   UNL     1      24.522 -13.898  41.875  1.00  0.00     0.008 C 
ENDBRANCH   5   8
ENDBRANCH   4   5
ENDBRANCH   1   3
BRANCH   1  11
ATOM     11  C   UNL     1      20.234 -16.421  40.679  1.00  0.00     0.002 C 
ATOM     12  C   UNL     1      20.973 -15.232  40.017  1.00  0.00     0.005 C 
ATOM     13  C   UNL     1      18.768 -16.280  40.167  1.00  0.00    -0.026 C 
ATOM     14  C   UNL     1      20.143 -14.815  38.796  1.00  0.00     0.005 C 
ATOM     15  C   UNL     1      19.028 -15.856  38.713  1.00  0.00    -0.001 C 
ATOM     16  C   UNL     1      17.956 -17.607  40.153  1.00  0.00     0.007 C 
ATOM     17  C   UNL     1      18.004 -15.187  40.981  1.00  0.00     0.012 C 
ATOM     18  C   UNL     1      17.739 -15.468  37.941  1.00  0.00     0.000 C 
ATOM     19  C   UNL     1      17.090 -17.812  38.882  1.00  0.00     0.005 C 
ATOM     20  C   UNL     1      16.556 -16.490  38.240  1.00  0.00     0.003 C 
ATOM     21  C   UNL     1      18.063 -15.278  36.429  1.00  0.00     0.031 C 
ATOM     22  C   UNL     1      15.625 -16.724  36.983  1.00  0.00    -0.008 C 
ATOM     23  C   UNL     1      17.658 -16.444  35.579  1.00  0.00    -0.027 C 
ATOM     24  C   UNL     1      16.486 -17.070  35.771  1.00  0.00    -0.065 C 
ATOM     25  C   UNL     1      14.604 -17.887  37.208  1.00  0.00     0.014 C 
ATOM     26  C   UNL     1      14.813 -15.428  36.705  1.00  0.00     0.016 C 
ATOM     27  C   UNL     1      16.088 -18.210  34.858  1.00  0.00     0.063 C 
ATOM     28  C   UNL     1      13.743 -18.190  35.965  1.00  0.00     0.033 C 
ATOM     29  C   UNL     1      14.559 -18.215  34.643  1.00  0.00     0.118 C 
BRANCH  29  30
ATOM     30  O   UNL     1      14.177 -19.308  33.845  1.00  0.00    -0.393 OA
ATOM     31  H   UNL     1      13.908 -18.950  32.960  1.00  0.00     0.210 HD
ENDBRANCH  29  30
ENDBRANCH   1  11
TORSDOF 6
ENDMDL
MODEL 7
REMARK VINA RESULT:    -5.853      3.245      9.696
REMARK INTER + INTRA:          -8.880
REMARK INTER:                  -7.721
REMARK INTRA:                  -1.159
REMARK UNBOUND:                -1.145
REMARK SMILES CC[C@@H](C=C[C@H](C)[C@@H]1CC[C@@H]2[C@H]3CC=C4C[C@@H](O)CC[C@@]4(C)[C@H]3CC[C@]21C)C(C)C
REMARK SMILES IDX 6 1 7 2 5 3 4 4 3 5 2 6 1 7 28 8 29 9 30 10 8 11 9 12 26 13
REMARK SMILES IDX 10 14 11 15 25 16 27 17 12 18 24 19 23 20 13 21 21 22 14 23
REMARK SMILES IDX 15 24 20 25 22 26 16 27 19 28 17 29 18 30
REMARK H PARENT 18 31
REMARK Flexibility Score: inf
ROOT
ATOM      1  C   UNL     1      16.307 -20.967  41.910  1.00  0.00     0.012 C 
ATOM      2  C   UNL     1      16.613 -22.292  42.628  1.00  0.00     0.012 C 
ENDROOT
BRANCH   1   3
ATOM      3  C   UNL     1      14.855 -20.949  41.471  1.00  0.00    -0.028 C 
ATOM      4  C   UNL     1      14.163 -22.072  41.212  1.00  0.00    -0.027 C 
BRANCH   4   5
ATOM      5  C   UNL     1      12.725 -22.031  40.740  1.00  0.00     0.014 C 
BRANCH   5   6
ATOM      6  C   UNL     1      12.316 -20.585  40.381  1.00  0.00     0.004 C 
ATOM      7  C   UNL     1      12.209 -20.368  38.870  1.00  0.00     0.004 C 
ENDBRANCH   5   6
BRANCH   5   8
ATOM      8  C   UNL     1      11.755 -22.665  41.782  1.00  0.00    -0.011 C 
ATOM      9  C   UNL     1      11.559 -21.747  42.997  1.00  0.00     0.008 C 
ATOM     10  C   UNL     1      10.389 -23.057  41.190  1.00  0.00     0.008 C 
ENDBRANCH   5   8
ENDBRANCH   4   5
ENDBRANCH   1   3
BRANCH   1  11
ATOM     11  C   UNL     1      16.644 -19.715  42.781  1.00  0.00     0.002 C 
ATOM     12  C   UNL     1      15.459 -18.721  42.863  1.00  0.00     0.005 C 
ATOM     13  C   UNL     1      17.847 -18.824  42.344  1.00  0.00    -0.026 C 
ATOM     14  C   UNL     1      16.062 -17.320  43.028  1.00  0.00     0.005 C 
ATOM     15  C   UNL     1      17.564 -17.560  43.171  1.00  0.00    -0.001 C 
ATOM     16  C   UNL     1      19.244 -19.375  42.753  1.00  0.00     0.007 C 
ATOM     17  C   UNL     1      17.801 -18.555  40.806  1.00  0.00     0.012 C 
ATOM     18  C   UNL     1      18.514 -16.380  42.842  1.00  0.00     0.000 C 
ATOM     19  C   UNL     1      20.218 -18.300  43.301  1.00  0.00     0.005 C 
ATOM     20  C   UNL     1      20.021 -16.873  42.691  1.00  0.00     0.003 C 
ATOM     21  C   UNL     1      18.311 -15.231  43.875  1.00  0.00     0.031 C 
ATOM     22  C   UNL     1      21.064 -15.807  43.216  1.00  0.00    -0.008 C 
ATOM     23  C   UNL     1      19.375 -15.179  44.929  1.00  0.00    -0.027 C 
ATOM     24  C   UNL     1      20.669 -15.359  44.620  1.00  0.00    -0.065 C 
ATOM     25  C   UNL     1      22.519 -16.377  43.272  1.00  0.00     0.014 C 
ATOM     26  C   UNL     1      21.070 -14.587  42.252  1.00  0.00     0.016 C 
ATOM     27  C   UNL     1      21.720 -15.246  45.704  1.00  0.00     0.063 C 
ATOM     28  C   UNL     1      23.539 -15.383  43.862  1.00  0.00     0.033 C 
ATOM     29  C   UNL     1      23.021 -14.647  45.129  1.00  0.00     0.118 C 
BRANCH  29  30
ATOM     30  O   UNL     1      24.020 -14.598  46.117  1.00  0.00    -0.393 OA
ATOM     31  H   UNL     1      24.416 -15.504  46.183  1.00  0.00     0.210 HD
ENDBRANCH  29  30
ENDBRANCH   1  11
TORSDOF 6
ENDMDL
MODEL 8
REMARK VINA RESULT:    -5.679      2.273      5.330
REMARK INTER + INTRA:          -8.649
REMARK INTER:                  -7.346
REMARK INTRA:                  -1.303
REMARK UNBOUND:                -1.145
REMARK SMILES CC[C@@H](C=C[C@H](C)[C@@H]1CC[C@@H]2[C@H]3CC=C4C[C@@H](O)CC[C@@]4(C)[C@H]3CC[C@]21C)C(C)C
REMARK SMILES IDX 6 1 7 2 5 3 4 4 3 5 2 6 1 7 28 8 29 9 30 10 8 11 9 12 26 13
REMARK SMILES IDX 10 14 11 15 25 16 27 17 12 18 24 19 23 20 13 21 21 22 14 23
REMARK SMILES IDX 15 24 20 25 22 26 16 27 19 28 17 29 18 30
REMARK H PARENT 18 31
REMARK Flexibility Score: inf
ROOT
ATOM      1  C   UNL     1      23.084 -13.954  44.289  1.00  0.00     0.012 C 
ATOM      2  C   UNL     1      23.873 -14.567  45.458  1.00  0.00     0.012 C 
ENDROOT
BRANCH   1   3
ATOM      3  C   UNL     1      23.932 -12.905  43.597  1.00  0.00    -0.028 C 
ATOM      4  C   UNL     1      23.441 -11.712  43.216  1.00  0.00    -0.027 C 
BRANCH   4   5
ATOM      5  C   UNL     1      24.296 -10.692  42.495  1.00  0.00     0.014 C 
BRANCH   5   6
ATOM      6  C   UNL     1      24.098  -9.289  43.112  1.00  0.00     0.004 C 
ATOM      7  C   UNL     1      22.642  -9.026  43.503  1.00  0.00     0.004 C 
ENDBRANCH   5   6
BRANCH   5   8
ATOM      8  C   UNL     1      24.028 -10.692  40.960  1.00  0.00    -0.011 C 
ATOM      9  C   UNL     1      25.124 -11.451  40.198  1.00  0.00     0.008 C 
ATOM     10  C   UNL     1      22.643 -11.243  40.579  1.00  0.00     0.008 C 
ENDBRANCH   5   8
ENDBRANCH   4   5
ENDBRANCH   1   3
BRANCH   1  11
ATOM     11  C   UNL     1      22.580 -15.027  43.272  1.00  0.00     0.002 C 
ATOM     12  C   UNL     1      22.901 -14.642  41.807  1.00  0.00     0.005 C 
ATOM     13  C   UNL     1      21.055 -15.349  43.247  1.00  0.00    -0.026 C 
ATOM     14  C   UNL     1      21.798 -15.253  40.933  1.00  0.00     0.005 C 
ATOM     15  C   UNL     1      20.953 -16.081  41.900  1.00  0.00    -0.001 C 
ATOM     16  C   UNL     1      20.577 -16.316  44.368  1.00  0.00     0.007 C 
ATOM     17  C   UNL     1      20.215 -14.031  43.275  1.00  0.00     0.012 C 
ATOM     18  C   UNL     1      19.496 -16.408  41.481  1.00  0.00     0.000 C 
ATOM     19  C   UNL     1      19.573 -17.399  43.892  1.00  0.00     0.005 C 
ATOM     20  C   UNL     1      18.648 -16.953  42.713  1.00  0.00     0.003 C 
ATOM     21  C   UNL     1      19.499 -17.344  40.235  1.00  0.00     0.031 C 
ATOM     22  C   UNL     1      17.591 -18.049  42.285  1.00  0.00    -0.008 C 
ATOM     23  C   UNL     1      19.230 -18.781  40.565  1.00  0.00    -0.027 C 
ATOM     24  C   UNL     1      18.283 -19.124  41.453  1.00  0.00    -0.065 C 
ATOM     25  C   UNL     1      16.917 -18.738  43.517  1.00  0.00     0.014 C 
ATOM     26  C   UNL     1      16.469 -17.371  41.449  1.00  0.00     0.016 C 
ATOM     27  C   UNL     1      18.003 -20.588  41.720  1.00  0.00     0.063 C 
ATOM     28  C   UNL     1      15.946 -19.869  43.125  1.00  0.00     0.033 C 
ATOM     29  C   UNL     1      16.503 -20.801  42.013  1.00  0.00     0.118 C 
BRANCH  29  30
ATOM     30  O   UNL     1      16.248 -22.149  42.323  1.00  0.00    -0.393 OA
ATOM     31  H   UNL     1      16.522 -22.293  43.265  1.00  0.00     0.210 HD
ENDBRANCH  29  30
ENDBRANCH   1  11
TORSDOF 6
ENDMDL
MODEL 9
REMARK VINA RESULT:    -5.282      1.546      2.885
REMARK INTER + INTRA:          -8.125
REMARK INTER:                  -6.957
REMARK INTRA:                  -1.167
REMARK UNBOUND:                -1.145
REMARK SMILES CC[C@@H](C=C[C@H](C)[C@@H]1CC[C@@H]2[C@H]3CC=C4C[C@@H](O)CC[C@@]4(C)[C@H]3CC[C@]21C)C(C)C
REMARK SMILES IDX 6 1 7 2 5 3 4 4 3 5 2 6 1 7 28 8 29 9 30 10 8 11 9 12 26 13
REMARK SMILES IDX 10 14 11 15 25 16 27 17 12 18 24 19 23 20 13 21 21 22 14 23
REMARK SMILES IDX 15 24 20 25 22 26 16 27 19 28 17 29 18 30
REMARK H PARENT 18 31
REMARK Flexibility Score: inf
ROOT
ATOM      1  C   UNL     1      21.220 -15.544  40.917  1.00  0.00     0.012 C 
ATOM      2  C   UNL     1      21.346 -15.230  39.417  1.00  0.00     0.012 C 
ENDROOT
BRANCH   1   3
ATOM      3  C   UNL     1      21.752 -14.379  41.728  1.00  0.00    -0.028 C 
ATOM      4  C   UNL     1      22.668 -14.531  42.701  1.00  0.00    -0.027 C 
BRANCH   4   5
ATOM      5  C   UNL     1      23.160 -13.359  43.523  1.00  0.00     0.014 C 
BRANCH   5   6
ATOM      6  C   UNL     1      24.485 -12.813  42.945  1.00  0.00     0.004 C 
ATOM      7  C   UNL     1      25.125 -13.778  41.945  1.00  0.00     0.004 C 
ENDBRANCH   5   6
BRANCH   5   8
ATOM      8  C   UNL     1      23.294 -13.725  45.032  1.00  0.00    -0.011 C 
ATOM      9  C   UNL     1      22.606 -15.062  45.348  1.00  0.00     0.008 C 
ATOM     10  C   UNL     1      24.749 -13.749  45.531  1.00  0.00     0.008 C 
ENDBRANCH   5   8
ENDBRANCH   4   5
ENDBRANCH   1   3
BRANCH   1  11
ATOM     11  C   UNL     1      19.759 -15.901  41.339  1.00  0.00     0.002 C 
ATOM     12  C   UNL     1      19.213 -14.944  42.427  1.00  0.00     0.005 C 
ATOM     13  C   UNL     1      19.494 -17.321  41.925  1.00  0.00    -0.026 C 
ATOM     14  C   UNL     1      18.215 -15.748  43.269  1.00  0.00     0.005 C 
ATOM     15  C   UNL     1      18.114 -17.099  42.563  1.00  0.00    -0.001 C 
ATOM     16  C   UNL     1      19.368 -18.449  40.861  1.00  0.00     0.007 C 
ATOM     17  C   UNL     1      20.586 -17.691  42.980  1.00  0.00     0.012 C 
ATOM     18  C   UNL     1      17.614 -18.309  43.394  1.00  0.00     0.000 C 
ATOM     19  C   UNL     1      18.218 -19.455  41.131  1.00  0.00     0.005 C 
ATOM     20  C   UNL     1      17.898 -19.684  42.645  1.00  0.00     0.003 C 
ATOM     21  C   UNL     1      16.127 -18.093  43.805  1.00  0.00     0.031 C 
ATOM     22  C   UNL     1      16.767 -20.759  42.899  1.00  0.00    -0.008 C 
ATOM     23  C   UNL     1      15.155 -18.867  42.968  1.00  0.00    -0.027 C 
ATOM     24  C   UNL     1      15.402 -20.138  42.613  1.00  0.00    -0.065 C 
ATOM     25  C   UNL     1      16.932 -22.022  41.992  1.00  0.00     0.014 C 
ATOM     26  C   UNL     1      16.836 -21.227  44.380  1.00  0.00     0.016 C 
ATOM     27  C   UNL     1      14.373 -20.905  41.811  1.00  0.00     0.063 C 
ATOM     28  C   UNL     1      15.792 -23.046  42.163  1.00  0.00     0.033 C 
ATOM     29  C   UNL     1      14.381 -22.395  42.213  1.00  0.00     0.118 C 
BRANCH  29  30
ATOM     30  O   UNL     1      13.471 -23.123  41.428  1.00  0.00    -0.393 OA
ATOM     31  H   UNL     1      13.837 -24.039  41.323  1.00  0.00     0.210 HD
ENDBRANCH  29  30
ENDBRANCH   1  11
TORSDOF 6
ENDMDL
