MODEL 1
REMARK VINA RESULT:    -3.640      0.000      0.000
REMARK INTER + INTRA:          -8.630
REMARK INTER:                  -6.832
REMARK INTRA:                  -1.799
REMARK UNBOUND:                -1.799
REMARK SMILES O=C([O-])CCCCCCCCCCCCCCC(=O)[O-]
REMARK SMILES IDX 10 1 9 2 8 3 7 4 6 5 5 6 4 7 2 8 1 9 3 10 11 11 12 12 13 13
REMARK SMILES IDX 14 14 15 15 16 16 17 17 18 18 19 19 20 20
REMARK H PARENT
REMARK Flexibility Score: inf
ROOT
ATOM      1  C   UNL     1      57.395  27.369  50.954  1.00  0.00     0.000 C 
ENDROOT
BRANCH   1   2
ATOM      2  C   UNL     1      56.721  26.184  50.241  1.00  0.00     0.000 C 
BRANCH   2   3
ATOM      3  C   UNL     1      55.303  25.871  50.763  1.00  0.00     0.000 C 
BRANCH   3   4
ATOM      4  C   UNL     1      54.280  25.749  49.622  1.00  0.00     0.000 C 
BRANCH   4   5
ATOM      5  C   UNL     1      53.620  27.105  49.331  1.00  0.00     0.000 C 
BRANCH   5   6
ATOM      6  C   UNL     1      53.412  27.953  50.600  1.00  0.00     0.006 C 
BRANCH   6   7
ATOM      7  C   UNL     1      53.683  29.455  50.412  1.00  0.00     0.053 C 
BRANCH   7   8
ATOM      8  C   UNL     1      54.129  30.111  51.682  1.00  0.00     0.041 C 
ATOM      9  O   UNL     1      53.830  31.312  51.915  1.00  0.00    -0.550 OA
ATOM     10  O   UNL     1      54.906  29.407  52.594  1.00  0.00    -0.550 OA
ENDBRANCH   7   8
ENDBRANCH   6   7
ENDBRANCH   5   6
ENDBRANCH   4   5
ENDBRANCH   3   4
ENDBRANCH   2   3
ENDBRANCH   1   2
BRANCH   1  11
ATOM     11  C   UNL     1      57.356  28.666  50.127  1.00  0.00     0.000 C 
BRANCH  11  12
ATOM     12  C   UNL     1      58.759  29.179  49.765  1.00  0.00     0.000 C 
BRANCH  12  13
ATOM     13  C   UNL     1      59.633  28.094  49.113  1.00  0.00     0.000 C 
BRANCH  13  14
ATOM     14  C   UNL     1      61.002  27.949  49.799  1.00  0.00     0.000 C 
BRANCH  14  15
ATOM     15  C   UNL     1      61.263  26.518  50.299  1.00  0.00     0.000 C 
BRANCH  15  16
ATOM     16  C   UNL     1      60.291  25.493  49.693  1.00  0.00     0.006 C 
BRANCH  16  17
ATOM     17  C   UNL     1      60.234  24.185  50.494  1.00  0.00     0.053 C 
BRANCH  17  18
ATOM     18  C   UNL     1      61.256  23.219  49.983  1.00  0.00     0.041 C 
ATOM     19  O   UNL     1      62.408  23.188  50.491  1.00  0.00    -0.550 OA
ATOM     20  O   UNL     1      60.920  22.315  48.983  1.00  0.00    -0.550 OA
ENDBRANCH  17  18
ENDBRANCH  16  17
ENDBRANCH  15  16
ENDBRANCH  14  15
ENDBRANCH  13  14
ENDBRANCH  12  13
ENDBRANCH  11  12
ENDBRANCH   1  11
TORSDOF 15
ENDMDL
MODEL 2
REMARK VINA RESULT:    -3.409     12.219     14.129
REMARK INTER + INTRA:          -8.197
REMARK INTER:                  -6.309
REMARK INTRA:                  -1.889
REMARK UNBOUND:                -1.799
REMARK SMILES O=C([O-])CCCCCCCCCCCCCCC(=O)[O-]
REMARK SMILES IDX 10 1 9 2 8 3 7 4 6 5 5 6 4 7 2 8 1 9 3 10 11 11 12 12 13 13
REMARK SMILES IDX 14 14 15 15 16 16 17 17 18 18 19 19 20 20
REMARK H PARENT
REMARK Flexibility Score: inf
ROOT
ATOM      1  C   UNL     1      61.427  33.705  59.169  1.00  0.00     0.000 C 
ENDROOT
BRANCH   1   2
ATOM      2  C   UNL     1      61.508  33.123  60.591  1.00  0.00     0.000 C 
BRANCH   2   3
ATOM      3  C   UNL     1      62.135  31.714  60.651  1.00  0.00     0.000 C 
BRANCH   3   4
ATOM      4  C   UNL     1      61.338  30.763  61.558  1.00  0.00     0.000 C 
BRANCH   4   5
ATOM      5  C   UNL     1      62.097  29.446  61.774  1.00  0.00     0.000 C 
BRANCH   5   6
ATOM      6  C   UNL     1      62.949  29.042  60.555  1.00  0.00     0.006 C 
BRANCH   6   7
ATOM      7  C   UNL     1      64.042  28.003  60.860  1.00  0.00     0.053 C 
BRANCH   7   8
ATOM      8  C   UNL     1      65.418  28.586  60.758  1.00  0.00     0.041 C 
ATOM      9  O   UNL     1      66.430  27.845  60.868  1.00  0.00    -0.550 OA
ATOM     10  O   UNL     1      65.583  29.954  60.578  1.00  0.00    -0.550 OA
ENDBRANCH   7   8
ENDBRANCH   6   7
ENDBRANCH   5   6
ENDBRANCH   4   5
ENDBRANCH   3   4
ENDBRANCH   2   3
ENDBRANCH   1   2
BRANCH   1  11
ATOM     11  C   UNL     1      61.185  35.224  59.156  1.00  0.00     0.000 C 
BRANCH  11  12
ATOM     12  C   UNL     1      60.784  35.770  60.536  1.00  0.00     0.000 C 
BRANCH  12  13
ATOM     13  C   UNL     1      61.646  36.968  60.970  1.00  0.00     0.000 C 
BRANCH  13  14
ATOM     14  C   UNL     1      63.129  36.790  60.604  1.00  0.00     0.000 C 
BRANCH  14  15
ATOM     15  C   UNL     1      63.871  35.864  61.583  1.00  0.00     0.000 C 
BRANCH  15  16
ATOM     16  C   UNL     1      64.787  34.858  60.867  1.00  0.00     0.006 C 
BRANCH  16  17
ATOM     17  C   UNL     1      65.104  35.268  59.422  1.00  0.00     0.053 C 
BRANCH  17  18
ATOM     18  C   UNL     1      64.810  34.139  58.486  1.00  0.00     0.041 C 
ATOM     19  O   UNL     1      64.457  34.375  57.301  1.00  0.00    -0.550 OA
ATOM     20  O   UNL     1      64.978  32.825  58.905  1.00  0.00    -0.550 OA
ENDBRANCH  17  18
ENDBRANCH  16  17
ENDBRANCH  15  16
ENDBRANCH  14  15
ENDBRANCH  13  14
ENDBRANCH  12  13
ENDBRANCH  11  12
ENDBRANCH   1  11
TORSDOF 15
ENDMDL
MODEL 3
REMARK VINA RESULT:    -3.382      1.659      2.998
REMARK INTER + INTRA:          -8.147
REMARK INTER:                  -5.992
REMARK INTRA:                  -2.155
REMARK UNBOUND:                -1.799
REMARK SMILES O=C([O-])CCCCCCCCCCCCCCC(=O)[O-]
REMARK SMILES IDX 10 1 9 2 8 3 7 4 6 5 5 6 4 7 2 8 1 9 3 10 11 11 12 12 13 13
REMARK SMILES IDX 14 14 15 15 16 16 17 17 18 18 19 19 20 20
REMARK H PARENT
REMARK Flexibility Score: inf
ROOT
ATOM      1  C   UNL     1      55.488  26.080  50.981  1.00  0.00     0.000 C 
ENDROOT
BRANCH   1   2
ATOM      2  C   UNL     1      54.795  26.220  49.615  1.00  0.00     0.000 C 
BRANCH   2   3
ATOM      3  C   UNL     1      53.654  27.259  49.601  1.00  0.00     0.000 C 
BRANCH   3   4
ATOM      4  C   UNL     1      54.145  28.664  49.987  1.00  0.00     0.000 C 
BRANCH   4   5
ATOM      5  C   UNL     1      52.981  29.532  50.488  1.00  0.00     0.000 C 
BRANCH   5   6
ATOM      6  C   UNL     1      53.431  30.614  51.488  1.00  0.00     0.006 C 
BRANCH   6   7
ATOM      7  C   UNL     1      54.577  30.183  52.419  1.00  0.00     0.053 C 
BRANCH   7   8
ATOM      8  C   UNL     1      54.083  29.407  53.600  1.00  0.00     0.041 C 
ATOM      9  O   UNL     1      53.637  30.009  54.613  1.00  0.00    -0.550 OA
ATOM     10  O   UNL     1      54.148  28.019  53.599  1.00  0.00    -0.550 OA
ENDBRANCH   7   8
ENDBRANCH   6   7
ENDBRANCH   5   6
ENDBRANCH   4   5
ENDBRANCH   3   4
ENDBRANCH   2   3
ENDBRANCH   1   2
BRANCH   1  11
ATOM     11  C   UNL     1      56.968  26.497  50.947  1.00  0.00     0.000 C 
BRANCH  11  12
ATOM     12  C   UNL     1      57.329  27.490  52.064  1.00  0.00     0.000 C 
BRANCH  12  13
ATOM     13  C   UNL     1      57.968  28.780  51.523  1.00  0.00     0.000 C 
BRANCH  13  14
ATOM     14  C   UNL     1      57.671  29.004  50.030  1.00  0.00     0.000 C 
BRANCH  14  15
ATOM     15  C   UNL     1      58.946  29.242  49.204  1.00  0.00     0.000 C 
BRANCH  15  16
ATOM     16  C   UNL     1      60.218  28.778  49.932  1.00  0.00     0.006 C 
BRANCH  16  17
ATOM     17  C   UNL     1      60.818  27.503  49.322  1.00  0.00     0.053 C 
BRANCH  17  18
ATOM     18  C   UNL     1      60.582  26.335  50.226  1.00  0.00     0.041 C 
ATOM     19  O   UNL     1      60.299  25.207  49.743  1.00  0.00    -0.550 OA
ATOM     20  O   UNL     1      60.726  26.478  51.601  1.00  0.00    -0.550 OA
ENDBRANCH  17  18
ENDBRANCH  16  17
ENDBRANCH  15  16
ENDBRANCH  14  15
ENDBRANCH  13  14
ENDBRANCH  12  13
ENDBRANCH  11  12
ENDBRANCH   1  11
TORSDOF 15
ENDMDL
MODEL 4
REMARK VINA RESULT:    -3.382     13.017     16.031
REMARK INTER + INTRA:          -8.147
REMARK INTER:                  -6.950
REMARK INTRA:                  -1.197
REMARK UNBOUND:                -1.799
REMARK SMILES O=C([O-])CCCCCCCCCCCCCCC(=O)[O-]
REMARK SMILES IDX 10 1 9 2 8 3 7 4 6 5 5 6 4 7 2 8 1 9 3 10 11 11 12 12 13 13
REMARK SMILES IDX 14 14 15 15 16 16 17 17 18 18 19 19 20 20
REMARK H PARENT
REMARK Flexibility Score: inf
ROOT
ATOM      1  C   UNL     1      65.437  29.996  59.704  1.00  0.00     0.000 C 
ENDROOT
BRANCH   1   2
ATOM      2  C   UNL     1      66.702  29.124  59.780  1.00  0.00     0.000 C 
BRANCH   2   3
ATOM      3  C   UNL     1      66.944  28.503  61.172  1.00  0.00     0.000 C 
BRANCH   3   4
ATOM      4  C   UNL     1      68.367  28.774  61.688  1.00  0.00     0.000 C 
BRANCH   4   5
ATOM      5  C   UNL     1      69.404  28.547  60.579  1.00  0.00     0.000 C 
BRANCH   5   6
ATOM      6  C   UNL     1      70.721  29.306  60.829  1.00  0.00     0.006 C 
BRANCH   6   7
ATOM      7  C   UNL     1      70.879  30.596  60.006  1.00  0.00     0.053 C 
BRANCH   7   8
ATOM      8  C   UNL     1      71.919  31.508  60.579  1.00  0.00     0.041 C 
ATOM      9  O   UNL     1      72.955  31.031  61.114  1.00  0.00    -0.550 OA
ATOM     10  O   UNL     1      71.728  32.884  60.555  1.00  0.00    -0.550 OA
ENDBRANCH   7   8
ENDBRANCH   6   7
ENDBRANCH   5   6
ENDBRANCH   4   5
ENDBRANCH   3   4
ENDBRANCH   2   3
ENDBRANCH   1   2
BRANCH   1  11
ATOM     11  C   UNL     1      64.182  29.279  60.231  1.00  0.00     0.000 C 
BRANCH  11  12
ATOM     12  C   UNL     1      63.563  29.988  61.447  1.00  0.00     0.000 C 
BRANCH  12  13
ATOM     13  C   UNL     1      62.104  29.569  61.694  1.00  0.00     0.000 C 
BRANCH  13  14
ATOM     14  C   UNL     1      61.157  30.774  61.825  1.00  0.00     0.000 C 
BRANCH  14  15
ATOM     15  C   UNL     1      60.922  31.487  60.482  1.00  0.00     0.000 C 
BRANCH  15  16
ATOM     16  C   UNL     1      61.531  32.897  60.446  1.00  0.00     0.006 C 
BRANCH  16  17
ATOM     17  C   UNL     1      62.672  33.025  59.426  1.00  0.00     0.053 C 
BRANCH  17  18
ATOM     18  C   UNL     1      63.820  33.776  60.023  1.00  0.00     0.041 C 
ATOM     19  O   UNL     1      64.367  33.363  61.079  1.00  0.00    -0.550 OA
ATOM     20  O   UNL     1      64.322  34.903  59.383  1.00  0.00    -0.550 OA
ENDBRANCH  17  18
ENDBRANCH  16  17
ENDBRANCH  15  16
ENDBRANCH  14  15
ENDBRANCH  13  14
ENDBRANCH  12  13
ENDBRANCH  11  12
ENDBRANCH   1  11
TORSDOF 15
ENDMDL
MODEL 5
REMARK VINA RESULT:    -3.367     11.837     13.111
REMARK INTER + INTRA:          -8.118
REMARK INTER:                  -6.095
REMARK INTRA:                  -2.023
REMARK UNBOUND:                -1.799
REMARK SMILES O=C([O-])CCCCCCCCCCCCCCC(=O)[O-]
REMARK SMILES IDX 10 1 9 2 8 3 7 4 6 5 5 6 4 7 2 8 1 9 3 10 11 11 12 12 13 13
REMARK SMILES IDX 14 14 15 15 16 16 17 17 18 18 19 19 20 20
REMARK H PARENT
REMARK Flexibility Score: inf
ROOT
ATOM      1  C   UNL     1      61.060  31.932  59.506  1.00  0.00     0.000 C 
ENDROOT
BRANCH   1   2
ATOM      2  C   UNL     1      62.238  32.278  58.579  1.00  0.00     0.000 C 
BRANCH   2   3
ATOM      3  C   UNL     1      62.180  33.711  58.010  1.00  0.00     0.000 C 
BRANCH   3   4
ATOM      4  C   UNL     1      60.936  34.476  58.491  1.00  0.00     0.000 C 
BRANCH   4   5
ATOM      5  C   UNL     1      61.334  35.764  59.225  1.00  0.00     0.000 C 
BRANCH   5   6
ATOM      6  C   UNL     1      61.715  35.519  60.698  1.00  0.00     0.006 C 
BRANCH   6   7
ATOM      7  C   UNL     1      62.974  36.269  61.163  1.00  0.00     0.053 C 
BRANCH   7   8
ATOM      8  C   UNL     1      64.146  35.352  61.333  1.00  0.00     0.041 C 
ATOM      9  O   UNL     1      64.039  34.128  61.057  1.00  0.00    -0.550 OA
ATOM     10  O   UNL     1      65.348  35.843  61.830  1.00  0.00    -0.550 OA
ENDBRANCH   7   8
ENDBRANCH   6   7
ENDBRANCH   5   6
ENDBRANCH   4   5
ENDBRANCH   3   4
ENDBRANCH   2   3
ENDBRANCH   1   2
BRANCH   1  11
ATOM     11  C   UNL     1      61.462  31.875  60.990  1.00  0.00     0.000 C 
BRANCH  11  12
ATOM     12  C   UNL     1      60.909  30.630  61.704  1.00  0.00     0.000 C 
BRANCH  12  13
ATOM     13  C   UNL     1      61.129  29.340  60.896  1.00  0.00     0.000 C 
BRANCH  13  14
ATOM     14  C   UNL     1      62.129  28.385  61.569  1.00  0.00     0.000 C 
BRANCH  14  15
ATOM     15  C   UNL     1      63.235  27.916  60.609  1.00  0.00     0.000 C 
BRANCH  15  16
ATOM     16  C   UNL     1      63.290  28.747  59.317  1.00  0.00     0.006 C 
BRANCH  16  17
ATOM     17  C   UNL     1      64.708  29.230  58.982  1.00  0.00     0.053 C 
BRANCH  17  18
ATOM     18  C   UNL     1      65.329  29.883  60.176  1.00  0.00     0.041 C 
ATOM     19  O   UNL     1      64.842  30.947  60.640  1.00  0.00    -0.550 OA
ATOM     20  O   UNL     1      66.414  29.289  60.809  1.00  0.00    -0.550 OA
ENDBRANCH  17  18
ENDBRANCH  16  17
ENDBRANCH  15  16
ENDBRANCH  14  15
ENDBRANCH  13  14
ENDBRANCH  12  13
ENDBRANCH  11  12
ENDBRANCH   1  11
TORSDOF 15
ENDMDL
MODEL 6
REMARK VINA RESULT:    -3.333      1.661      7.094
REMARK INTER + INTRA:          -8.054
REMARK INTER:                  -6.145
REMARK INTRA:                  -1.909
REMARK UNBOUND:                -1.799
REMARK SMILES O=C([O-])CCCCCCCCCCCCCCC(=O)[O-]
REMARK SMILES IDX 10 1 9 2 8 3 7 4 6 5 5 6 4 7 2 8 1 9 3 10 11 11 12 12 13 13
REMARK SMILES IDX 14 14 15 15 16 16 17 17 18 18 19 19 20 20
REMARK H PARENT
REMARK Flexibility Score: inf
ROOT
ATOM      1  C   UNL     1      55.564  26.189  50.538  1.00  0.00     0.000 C 
ENDROOT
BRANCH   1   2
ATOM      2  C   UNL     1      56.924  26.750  50.087  1.00  0.00     0.000 C 
BRANCH   2   3
ATOM      3  C   UNL     1      57.429  27.923  50.952  1.00  0.00     0.000 C 
BRANCH   3   4
ATOM      4  C   UNL     1      57.567  29.223  50.143  1.00  0.00     0.000 C 
BRANCH   4   5
ATOM      5  C   UNL     1      58.859  29.217  49.313  1.00  0.00     0.000 C 
BRANCH   5   6
ATOM      6  C   UNL     1      60.029  28.522  50.034  1.00  0.00     0.006 C 
BRANCH   6   7
ATOM      7  C   UNL     1      60.671  27.370  49.242  1.00  0.00     0.053 C 
BRANCH   7   8
ATOM      8  C   UNL     1      60.868  26.148  50.084  1.00  0.00     0.041 C 
ATOM      9  O   UNL     1      61.823  26.089  50.903  1.00  0.00    -0.550 OA
ATOM     10  O   UNL     1      60.017  25.058  49.940  1.00  0.00    -0.550 OA
ENDBRANCH   7   8
ENDBRANCH   6   7
ENDBRANCH   5   6
ENDBRANCH   4   5
ENDBRANCH   3   4
ENDBRANCH   2   3
ENDBRANCH   1   2
BRANCH   1  11
ATOM     11  C   UNL     1      54.693  25.714  49.363  1.00  0.00     0.000 C 
BRANCH  11  12
ATOM     12  C   UNL     1      53.323  26.413  49.322  1.00  0.00     0.000 C 
BRANCH  12  13
ATOM     13  C   UNL     1      53.162  27.460  50.437  1.00  0.00     0.000 C 
BRANCH  13  14
ATOM     14  C   UNL     1      53.031  28.891  49.887  1.00  0.00     0.000 C 
BRANCH  14  15
ATOM     15  C   UNL     1      54.058  29.856  50.503  1.00  0.00     0.000 C 
BRANCH  15  16
ATOM     16  C   UNL     1      53.809  30.110  51.999  1.00  0.00     0.006 C 
BRANCH  16  17
ATOM     17  C   UNL     1      55.110  30.269  52.797  1.00  0.00     0.053 C 
BRANCH  17  18
ATOM     18  C   UNL     1      55.324  29.082  53.683  1.00  0.00     0.041 C 
ATOM     19  O   UNL     1      56.311  29.044  54.464  1.00  0.00    -0.550 OA
ATOM     20  O   UNL     1      54.403  28.041  53.685  1.00  0.00    -0.550 OA
ENDBRANCH  17  18
ENDBRANCH  16  17
ENDBRANCH  15  16
ENDBRANCH  14  15
ENDBRANCH  13  14
ENDBRANCH  12  13
ENDBRANCH  11  12
ENDBRANCH   1  11
TORSDOF 15
ENDMDL
MODEL 7
REMARK VINA RESULT:    -3.322     12.706     14.086
REMARK INTER + INTRA:          -8.034
REMARK INTER:                  -6.581
REMARK INTRA:                  -1.453
REMARK UNBOUND:                -1.799
REMARK SMILES O=C([O-])CCCCCCCCCCCCCCC(=O)[O-]
REMARK SMILES IDX 10 1 9 2 8 3 7 4 6 5 5 6 4 7 2 8 1 9 3 10 11 11 12 12 13 13
REMARK SMILES IDX 14 14 15 15 16 16 17 17 18 18 19 19 20 20
REMARK H PARENT
REMARK Flexibility Score: inf
ROOT
ATOM      1  C   UNL     1      62.051  28.456  61.485  1.00  0.00     0.000 C 
ENDROOT
BRANCH   1   2
ATOM      2  C   UNL     1      61.265  29.530  60.714  1.00  0.00     0.000 C 
BRANCH   2   3
ATOM      3  C   UNL     1      60.933  30.780  61.555  1.00  0.00     0.000 C 
BRANCH   3   4
ATOM      4  C   UNL     1      61.471  32.070  60.915  1.00  0.00     0.000 C 
BRANCH   4   5
ATOM      5  C   UNL     1      62.106  31.779  59.547  1.00  0.00     0.000 C 
BRANCH   5   6
ATOM      6  C   UNL     1      63.492  32.429  59.381  1.00  0.00     0.006 C 
BRANCH   6   7
ATOM      7  C   UNL     1      64.147  32.875  60.700  1.00  0.00     0.053 C 
BRANCH   7   8
ATOM      8  C   UNL     1      64.463  34.339  60.706  1.00  0.00     0.041 C 
ATOM      9  O   UNL     1      64.535  34.968  61.794  1.00  0.00    -0.550 OA
ATOM     10  O   UNL     1      64.642  35.018  59.506  1.00  0.00    -0.550 OA
ENDBRANCH   7   8
ENDBRANCH   6   7
ENDBRANCH   5   6
ENDBRANCH   4   5
ENDBRANCH   3   4
ENDBRANCH   2   3
ENDBRANCH   1   2
BRANCH   1  11
ATOM     11  C   UNL     1      63.485  28.270  60.958  1.00  0.00     0.000 C 
BRANCH  11  12
ATOM     12  C   UNL     1      64.405  29.446  61.322  1.00  0.00     0.000 C 
BRANCH  12  13
ATOM     13  C   UNL     1      65.703  29.457  60.497  1.00  0.00     0.000 C 
BRANCH  13  14
ATOM     14  C   UNL     1      66.574  28.214  60.751  1.00  0.00     0.000 C 
BRANCH  14  15
ATOM     15  C   UNL     1      67.825  28.532  61.587  1.00  0.00     0.000 C 
BRANCH  15  16
ATOM     16  C   UNL     1      69.057  28.831  60.717  1.00  0.00     0.006 C 
BRANCH  16  17
ATOM     17  C   UNL     1      70.134  29.627  61.468  1.00  0.00     0.053 C 
BRANCH  17  18
ATOM     18  C   UNL     1      71.017  30.347  60.499  1.00  0.00     0.041 C 
ATOM     19  O   UNL     1      70.772  30.302  59.265  1.00  0.00    -0.550 OA
ATOM     20  O   UNL     1      72.079  31.114  60.963  1.00  0.00    -0.550 OA
ENDBRANCH  17  18
ENDBRANCH  16  17
ENDBRANCH  15  16
ENDBRANCH  14  15
ENDBRANCH  13  14
ENDBRANCH  12  13
ENDBRANCH  11  12
ENDBRANCH   1  11
TORSDOF 15
ENDMDL
MODEL 8
REMARK VINA RESULT:    -3.304     11.528     12.646
REMARK INTER + INTRA:          -8.001
REMARK INTER:                  -5.655
REMARK INTRA:                  -2.346
REMARK UNBOUND:                -1.799
REMARK SMILES O=C([O-])CCCCCCCCCCCCCCC(=O)[O-]
REMARK SMILES IDX 10 1 9 2 8 3 7 4 6 5 5 6 4 7 2 8 1 9 3 10 11 11 12 12 13 13
REMARK SMILES IDX 14 14 15 15 16 16 17 17 18 18 19 19 20 20
REMARK H PARENT
REMARK Flexibility Score: inf
ROOT
ATOM      1  C   UNL     1      60.982  29.577  59.380  1.00  0.00     0.000 C 
ENDROOT
BRANCH   1   2
ATOM      2  C   UNL     1      60.996  30.722  58.353  1.00  0.00     0.000 C 
BRANCH   2   3
ATOM      3  C   UNL     1      59.807  31.696  58.492  1.00  0.00     0.000 C 
BRANCH   3   4
ATOM      4  C   UNL     1      60.234  33.161  58.312  1.00  0.00     0.000 C 
BRANCH   4   5
ATOM      5  C   UNL     1      61.633  33.401  58.899  1.00  0.00     0.000 C 
BRANCH   5   6
ATOM      6  C   UNL     1      61.591  33.938  60.342  1.00  0.00     0.006 C 
BRANCH   6   7
ATOM      7  C   UNL     1      62.870  34.668  60.786  1.00  0.00     0.053 C 
BRANCH   7   8
ATOM      8  C   UNL     1      62.811  36.136  60.494  1.00  0.00     0.041 C 
ATOM      9  O   UNL     1      62.945  36.554  59.314  1.00  0.00    -0.550 OA
ATOM     10  O   UNL     1      62.643  37.046  61.531  1.00  0.00    -0.550 OA
ENDBRANCH   7   8
ENDBRANCH   6   7
ENDBRANCH   5   6
ENDBRANCH   4   5
ENDBRANCH   3   4
ENDBRANCH   2   3
ENDBRANCH   1   2
BRANCH   1  11
ATOM     11  C   UNL     1      60.338  29.981  60.718  1.00  0.00     0.000 C 
BRANCH  11  12
ATOM     12  C   UNL     1      61.353  30.583  61.704  1.00  0.00     0.000 C 
BRANCH  12  13
ATOM     13  C   UNL     1      62.759  29.980  61.546  1.00  0.00     0.000 C 
BRANCH  13  14
ATOM     14  C   UNL     1      63.845  31.054  61.365  1.00  0.00     0.000 C 
BRANCH  14  15
ATOM     15  C   UNL     1      64.313  31.180  59.905  1.00  0.00     0.000 C 
BRANCH  15  16
ATOM     16  C   UNL     1      64.902  29.870  59.358  1.00  0.00     0.006 C 
BRANCH  16  17
ATOM     17  C   UNL     1      66.362  29.654  59.780  1.00  0.00     0.053 C 
BRANCH  17  18
ATOM     18  C   UNL     1      66.449  28.589  60.827  1.00  0.00     0.041 C 
ATOM     19  O   UNL     1      65.533  27.732  60.935  1.00  0.00    -0.550 OA
ATOM     20  O   UNL     1      67.567  28.510  61.649  1.00  0.00    -0.550 OA
ENDBRANCH  17  18
ENDBRANCH  16  17
ENDBRANCH  15  16
ENDBRANCH  14  15
ENDBRANCH  13  14
ENDBRANCH  12  13
ENDBRANCH  11  12
ENDBRANCH   1  11
TORSDOF 15
ENDMDL
MODEL 9
REMARK VINA RESULT:    -3.273     12.043     13.440
REMARK INTER + INTRA:          -7.942
REMARK INTER:                  -6.259
REMARK INTRA:                  -1.683
REMARK UNBOUND:                -1.799
REMARK SMILES O=C([O-])CCCCCCCCCCCCCCC(=O)[O-]
REMARK SMILES IDX 10 1 9 2 8 3 7 4 6 5 5 6 4 7 2 8 1 9 3 10 11 11 12 12 13 13
REMARK SMILES IDX 14 14 15 15 16 16 17 17 18 18 19 19 20 20
REMARK H PARENT
REMARK Flexibility Score: inf
ROOT
ATOM      1  C   UNL     1      63.941  33.025  60.562  1.00  0.00     0.000 C 
ENDROOT
BRANCH   1   2
ATOM      2  C   UNL     1      64.373  34.257  61.375  1.00  0.00     0.000 C 
BRANCH   2   3
ATOM      3  C   UNL     1      64.982  35.385  60.515  1.00  0.00     0.000 C 
BRANCH   3   4
ATOM      4  C   UNL     1      64.396  36.763  60.866  1.00  0.00     0.000 C 
BRANCH   4   5
ATOM      5  C   UNL     1      62.975  36.626  61.431  1.00  0.00     0.000 C 
BRANCH   5   6
ATOM      6  C   UNL     1      61.887  37.016  60.412  1.00  0.00     0.006 C 
BRANCH   6   7
ATOM      7  C   UNL     1      60.696  36.045  60.350  1.00  0.00     0.053 C 
BRANCH   7   8
ATOM      8  C   UNL     1      60.208  35.839  58.949  1.00  0.00     0.041 C 
ATOM      9  O   UNL     1      58.980  35.929  58.685  1.00  0.00    -0.550 OA
ATOM     10  O   UNL     1      61.106  35.513  57.940  1.00  0.00    -0.550 OA
ENDBRANCH   7   8
ENDBRANCH   6   7
ENDBRANCH   5   6
ENDBRANCH   4   5
ENDBRANCH   3   4
ENDBRANCH   2   3
ENDBRANCH   1   2
BRANCH   1  11
ATOM     11  C   UNL     1      62.478  33.098  60.093  1.00  0.00     0.000 C 
BRANCH  11  12
ATOM     12  C   UNL     1      61.548  32.190  60.914  1.00  0.00     0.000 C 
BRANCH  12  13
ATOM     13  C   UNL     1      60.909  31.078  60.065  1.00  0.00     0.000 C 
BRANCH  13  14
ATOM     14  C   UNL     1      61.179  29.674  60.632  1.00  0.00     0.000 C 
BRANCH  14  15
ATOM     15  C   UNL     1      62.319  29.663  61.664  1.00  0.00     0.000 C 
BRANCH  15  16
ATOM     16  C   UNL     1      63.559  28.903  61.168  1.00  0.00     0.006 C 
BRANCH  16  17
ATOM     17  C   UNL     1      64.167  29.522  59.901  1.00  0.00     0.053 C 
BRANCH  17  18
ATOM     18  C   UNL     1      65.652  29.640  60.042  1.00  0.00     0.041 C 
ATOM     19  O   UNL     1      66.248  29.048  60.981  1.00  0.00    -0.550 OA
ATOM     20  O   UNL     1      66.385  30.358  59.106  1.00  0.00    -0.550 OA
ENDBRANCH  17  18
ENDBRANCH  16  17
ENDBRANCH  15  16
ENDBRANCH  14  15
ENDBRANCH  13  14
ENDBRANCH  12  13
ENDBRANCH  11  12
ENDBRANCH   1  11
TORSDOF 15
ENDMDL
