MODEL 1
REMARK VINA RESULT:    -4.004      0.000      0.000
REMARK INTER + INTRA:         -11.657
REMARK INTER:                 -10.091
REMARK INTRA:                  -1.566
REMARK UNBOUND:                -1.566
REMARK SMILES CCCCCCCCCCCCCCCCCCCCCCCCCCCC(=O)[O-]
REMARK SMILES IDX 15 1 16 2 17 3 18 4 19 5 20 6 21 7 22 8 23 9 24 10 25 11
REMARK SMILES IDX 26 12 27 13 28 14 29 15 30 16 14 17 13 18 12 19 11 20 10 21
REMARK SMILES IDX 9 22 8 23 7 24 6 25 5 26 4 27 3 28 2 29 1 30
REMARK H PARENT
REMARK Flexibility Score: inf
ROOT
ATOM      1  C   UNL     1       7.262  15.766  32.416  1.00  0.00     0.000 C 
ENDROOT
BRANCH   1   2
ATOM      2  C   UNL     1       7.941  15.235  31.145  1.00  0.00     0.000 C 
BRANCH   2   3
ATOM      3  C   UNL     1       7.299  13.935  30.635  1.00  0.00     0.000 C 
BRANCH   3   4
ATOM      4  C   UNL     1       7.700  13.659  29.180  1.00  0.00     0.000 C 
BRANCH   4   5
ATOM      5  C   UNL     1       9.078  14.262  28.865  1.00  0.00     0.000 C 
BRANCH   5   6
ATOM      6  C   UNL     1       9.635  13.792  27.511  1.00  0.00     0.000 C 
BRANCH   6   7
ATOM      7  C   UNL     1      11.159  13.994  27.401  1.00  0.00     0.000 C 
BRANCH   7   8
ATOM      8  C   UNL     1      11.760  13.349  26.142  1.00  0.00     0.000 C 
BRANCH   8   9
ATOM      9  C   UNL     1      12.186  14.388  25.092  1.00  0.00     0.000 C 
BRANCH   9  10
ATOM     10  C   UNL     1      11.433  14.234  23.757  1.00  0.00     0.000 C 
BRANCH  10  11
ATOM     11  C   UNL     1      10.180  15.118  23.611  1.00  0.00     0.000 C 
BRANCH  11  12
ATOM     12  C   UNL     1       8.882  14.383  23.984  1.00  0.00     0.006 C 
BRANCH  12  13
ATOM     13  C   UNL     1       7.917  15.278  24.774  1.00  0.00     0.053 C 
BRANCH  13  14
ATOM     14  C   UNL     1       6.490  14.889  24.540  1.00  0.00     0.041 C 
ATOM     15  O   UNL     1       6.216  13.832  23.912  1.00  0.00    -0.550 OA
ATOM     16  O   UNL     1       5.463  15.709  24.988  1.00  0.00    -0.550 OA
ENDBRANCH  13  14
ENDBRANCH  12  13
ENDBRANCH  11  12
ENDBRANCH  10  11
ENDBRANCH   9  10
ENDBRANCH   8   9
ENDBRANCH   7   8
ENDBRANCH   6   7
ENDBRANCH   5   6
ENDBRANCH   4   5
ENDBRANCH   3   4
ENDBRANCH   2   3
ENDBRANCH   1   2
BRANCH   1  17
ATOM     17  C   UNL     1       6.355  16.976  32.142  1.00  0.00     0.000 C 
BRANCH  17  18
ATOM     18  C   UNL     1       5.326  17.212  33.261  1.00  0.00     0.000 C 
BRANCH  18  19
ATOM     19  C   UNL     1       4.903  18.689  33.402  1.00  0.00     0.000 C 
BRANCH  19  20
ATOM     20  C   UNL     1       3.635  18.854  34.253  1.00  0.00     0.000 C 
BRANCH  20  21
ATOM     21  C   UNL     1       2.374  18.727  33.389  1.00  0.00     0.000 C 
BRANCH  21  22
ATOM     22  C   UNL     1       2.082  19.990  32.561  1.00  0.00    -0.000 C 
BRANCH  22  23
ATOM     23  C   UNL     1       1.011  20.906  33.192  1.00  0.00    -0.000 C 
BRANCH  23  24
ATOM     24  C   UNL     1      -0.120  21.243  32.205  1.00  0.00    -0.000 C 
BRANCH  24  25
ATOM     25  C   UNL     1      -0.190  20.250  31.036  1.00  0.00    -0.000 C 
BRANCH  25  26
ATOM     26  C   UNL     1      -1.286  20.613  30.018  1.00  0.00    -0.000 C 
BRANCH  26  27
ATOM     27  C   UNL     1      -1.565  19.468  29.031  1.00  0.00    -0.000 C 
BRANCH  27  28
ATOM     28  C   UNL     1      -1.495  19.930  27.565  1.00  0.00    -0.000 C 
BRANCH  28  29
ATOM     29  C   UNL     1      -2.854  19.858  26.855  1.00  0.00    -0.003 C 
ATOM     30  C   UNL     1      -3.943  20.659  27.570  1.00  0.00     0.004 C 
ENDBRANCH  28  29
ENDBRANCH  27  28
ENDBRANCH  26  27
ENDBRANCH  25  26
ENDBRANCH  24  25
ENDBRANCH  23  24
ENDBRANCH  22  23
ENDBRANCH  21  22
ENDBRANCH  20  21
ENDBRANCH  19  20
ENDBRANCH  18  19
ENDBRANCH  17  18
ENDBRANCH   1  17
TORSDOF 26
ENDMDL
MODEL 2
REMARK VINA RESULT:    -3.851      2.319      4.759
REMARK INTER + INTRA:         -11.270
REMARK INTER:                  -9.673
REMARK INTRA:                  -1.597
REMARK UNBOUND:                -1.566
REMARK SMILES CCCCCCCCCCCCCCCCCCCCCCCCCCCC(=O)[O-]
REMARK SMILES IDX 15 1 16 2 17 3 18 4 19 5 20 6 21 7 22 8 23 9 24 10 25 11
REMARK SMILES IDX 26 12 27 13 28 14 29 15 30 16 14 17 13 18 12 19 11 20 10 21
REMARK SMILES IDX 9 22 8 23 7 24 6 25 5 26 4 27 3 28 2 29 1 30
REMARK H PARENT
REMARK Flexibility Score: inf
ROOT
ATOM      1  C   UNL     1       3.118  18.133  34.252  1.00  0.00     0.000 C 
ENDROOT
BRANCH   1   2
ATOM      2  C   UNL     1       4.521  17.732  34.731  1.00  0.00     0.000 C 
BRANCH   2   3
ATOM      3  C   UNL     1       5.566  18.830  34.478  1.00  0.00     0.000 C 
BRANCH   3   4
ATOM      4  C   UNL     1       6.870  18.233  33.935  1.00  0.00     0.000 C 
BRANCH   4   5
ATOM      5  C   UNL     1       6.670  17.665  32.522  1.00  0.00     0.000 C 
BRANCH   5   6
ATOM      6  C   UNL     1       6.716  16.129  32.488  1.00  0.00     0.000 C 
BRANCH   6   7
ATOM      7  C   UNL     1       7.676  15.593  31.408  1.00  0.00     0.000 C 
BRANCH   7   8
ATOM      8  C   UNL     1       7.390  14.132  31.022  1.00  0.00     0.000 C 
BRANCH   8   9
ATOM      9  C   UNL     1       7.539  13.882  29.512  1.00  0.00     0.000 C 
BRANCH   9  10
ATOM     10  C   UNL     1       8.972  14.122  29.003  1.00  0.00     0.000 C 
BRANCH  10  11
ATOM     11  C   UNL     1       9.185  13.845  27.503  1.00  0.00     0.000 C 
BRANCH  11  12
ATOM     12  C   UNL     1      10.670  13.804  27.106  1.00  0.00     0.006 C 
BRANCH  12  13
ATOM     13  C   UNL     1      10.874  14.033  25.602  1.00  0.00     0.053 C 
BRANCH  13  14
ATOM     14  C   UNL     1      12.304  13.840  25.205  1.00  0.00     0.041 C 
ATOM     15  O   UNL     1      13.142  13.414  26.043  1.00  0.00    -0.550 OA
ATOM     16  O   UNL     1      12.718  14.158  23.918  1.00  0.00    -0.550 OA
ENDBRANCH  13  14
ENDBRANCH  12  13
ENDBRANCH  11  12
ENDBRANCH  10  11
ENDBRANCH   9  10
ENDBRANCH   8   9
ENDBRANCH   7   8
ENDBRANCH   6   7
ENDBRANCH   5   6
ENDBRANCH   4   5
ENDBRANCH   3   4
ENDBRANCH   2   3
ENDBRANCH   1   2
BRANCH   1  17
ATOM     17  C   UNL     1       3.149  18.983  32.972  1.00  0.00     0.000 C 
BRANCH  17  18
ATOM     18  C   UNL     1       2.529  20.377  33.170  1.00  0.00     0.000 C 
BRANCH  18  19
ATOM     19  C   UNL     1       1.792  20.533  34.516  1.00  0.00     0.000 C 
BRANCH  19  20
ATOM     20  C   UNL     1       0.279  20.731  34.334  1.00  0.00     0.000 C 
BRANCH  20  21
ATOM     21  C   UNL     1      -0.027  22.118  33.754  1.00  0.00     0.000 C 
BRANCH  21  22
ATOM     22  C   UNL     1      -0.406  22.077  32.264  1.00  0.00    -0.000 C 
BRANCH  22  23
ATOM     23  C   UNL     1      -0.611  20.648  31.720  1.00  0.00    -0.000 C 
BRANCH  23  24
ATOM     24  C   UNL     1      -1.101  20.645  30.261  1.00  0.00    -0.000 C 
BRANCH  24  25
ATOM     25  C   UNL     1      -0.952  19.268  29.598  1.00  0.00    -0.000 C 
BRANCH  25  26
ATOM     26  C   UNL     1      -2.147  18.916  28.695  1.00  0.00    -0.000 C 
BRANCH  26  27
ATOM     27  C   UNL     1      -2.891  20.169  28.201  1.00  0.00    -0.000 C 
BRANCH  27  28
ATOM     28  C   UNL     1      -2.754  20.367  26.681  1.00  0.00    -0.000 C 
BRANCH  28  29
ATOM     29  C   UNL     1      -1.305  20.625  26.244  1.00  0.00    -0.003 C 
ATOM     30  C   UNL     1      -1.109  22.004  25.613  1.00  0.00     0.004 C 
ENDBRANCH  28  29
ENDBRANCH  27  28
ENDBRANCH  26  27
ENDBRANCH  25  26
ENDBRANCH  24  25
ENDBRANCH  23  24
ENDBRANCH  22  23
ENDBRANCH  21  22
ENDBRANCH  20  21
ENDBRANCH  19  20
ENDBRANCH  18  19
ENDBRANCH  17  18
ENDBRANCH   1  17
TORSDOF 26
ENDMDL
MODEL 3
REMARK VINA RESULT:    -3.823      2.548      3.416
REMARK INTER + INTRA:         -11.201
REMARK INTER:                  -9.035
REMARK INTRA:                  -2.166
REMARK UNBOUND:                -1.566
REMARK SMILES CCCCCCCCCCCCCCCCCCCCCCCCCCCC(=O)[O-]
REMARK SMILES IDX 15 1 16 2 17 3 18 4 19 5 20 6 21 7 22 8 23 9 24 10 25 11
REMARK SMILES IDX 26 12 27 13 28 14 29 15 30 16 14 17 13 18 12 19 11 20 10 21
REMARK SMILES IDX 9 22 8 23 7 24 6 25 5 26 4 27 3 28 2 29 1 30
REMARK H PARENT
REMARK Flexibility Score: inf
ROOT
ATOM      1  C   UNL     1       6.837  14.819  30.981  1.00  0.00     0.000 C 
ENDROOT
BRANCH   1   2
ATOM      2  C   UNL     1       7.634  13.846  30.100  1.00  0.00     0.000 C 
BRANCH   2   3
ATOM      3  C   UNL     1       8.795  14.534  29.365  1.00  0.00     0.000 C 
BRANCH   3   4
ATOM      4  C   UNL     1       9.078  13.849  28.022  1.00  0.00     0.000 C 
BRANCH   4   5
ATOM      5  C   UNL     1      10.503  14.159  27.535  1.00  0.00     0.000 C 
BRANCH   5   6
ATOM      6  C   UNL     1      11.181  12.948  26.876  1.00  0.00     0.000 C 
BRANCH   6   7
ATOM      7  C   UNL     1      12.423  13.345  26.054  1.00  0.00     0.000 C 
BRANCH   7   8
ATOM      8  C   UNL     1      12.204  14.611  25.209  1.00  0.00     0.000 C 
BRANCH   8   9
ATOM      9  C   UNL     1      12.093  14.307  23.706  1.00  0.00     0.000 C 
BRANCH   9  10
ATOM     10  C   UNL     1      10.635  14.185  23.226  1.00  0.00     0.000 C 
BRANCH  10  11
ATOM     11  C   UNL     1       9.685  15.280  23.746  1.00  0.00     0.000 C 
BRANCH  11  12
ATOM     12  C   UNL     1       8.443  14.710  24.451  1.00  0.00     0.006 C 
BRANCH  12  13
ATOM     13  C   UNL     1       7.192  14.780  23.564  1.00  0.00     0.053 C 
BRANCH  13  14
ATOM     14  C   UNL     1       5.940  14.591  24.363  1.00  0.00     0.041 C 
ATOM     15  O   UNL     1       5.482  15.538  25.055  1.00  0.00    -0.550 OA
ATOM     16  O   UNL     1       5.297  13.361  24.367  1.00  0.00    -0.550 OA
ENDBRANCH  13  14
ENDBRANCH  12  13
ENDBRANCH  11  12
ENDBRANCH  10  11
ENDBRANCH   9  10
ENDBRANCH   8   9
ENDBRANCH   7   8
ENDBRANCH   6   7
ENDBRANCH   5   6
ENDBRANCH   4   5
ENDBRANCH   3   4
ENDBRANCH   2   3
ENDBRANCH   1   2
BRANCH   1  17
ATOM     17  C   UNL     1       7.738  15.804  31.741  1.00  0.00     0.000 C 
BRANCH  17  18
ATOM     18  C   UNL     1       6.940  16.906  32.459  1.00  0.00     0.000 C 
BRANCH  18  19
ATOM     19  C   UNL     1       6.587  16.554  33.919  1.00  0.00     0.000 C 
BRANCH  19  20
ATOM     20  C   UNL     1       5.318  17.274  34.403  1.00  0.00     0.000 C 
BRANCH  20  21
ATOM     21  C   UNL     1       5.603  18.755  34.686  1.00  0.00     0.000 C 
BRANCH  21  22
ATOM     22  C   UNL     1       4.415  19.671  34.347  1.00  0.00    -0.000 C 
BRANCH  22  23
ATOM     23  C   UNL     1       3.931  19.537  32.887  1.00  0.00    -0.000 C 
BRANCH  23  24
ATOM     24  C   UNL     1       2.398  19.585  32.777  1.00  0.00    -0.000 C 
BRANCH  24  25
ATOM     25  C   UNL     1       1.705  19.158  34.079  1.00  0.00    -0.000 C 
BRANCH  25  26
ATOM     26  C   UNL     1       0.727  20.224  34.604  1.00  0.00    -0.000 C 
BRANCH  26  27
ATOM     27  C   UNL     1       0.997  21.610  33.993  1.00  0.00    -0.000 C 
BRANCH  27  28
ATOM     28  C   UNL     1      -0.121  22.051  33.031  1.00  0.00    -0.000 C 
BRANCH  28  29
ATOM     29  C   UNL     1      -0.791  23.363  33.463  1.00  0.00    -0.003 C 
ATOM     30  C   UNL     1      -0.768  23.574  34.977  1.00  0.00     0.004 C 
ENDBRANCH  28  29
ENDBRANCH  27  28
ENDBRANCH  26  27
ENDBRANCH  25  26
ENDBRANCH  24  25
ENDBRANCH  23  24
ENDBRANCH  22  23
ENDBRANCH  21  22
ENDBRANCH  20  21
ENDBRANCH  19  20
ENDBRANCH  18  19
ENDBRANCH  17  18
ENDBRANCH   1  17
TORSDOF 26
ENDMDL
MODEL 4
REMARK VINA RESULT:    -3.745      1.538      2.777
REMARK INTER + INTRA:         -11.003
REMARK INTER:                  -9.311
REMARK INTRA:                  -1.692
REMARK UNBOUND:                -1.566
REMARK SMILES CCCCCCCCCCCCCCCCCCCCCCCCCCCC(=O)[O-]
REMARK SMILES IDX 15 1 16 2 17 3 18 4 19 5 20 6 21 7 22 8 23 9 24 10 25 11
REMARK SMILES IDX 26 12 27 13 28 14 29 15 30 16 14 17 13 18 12 19 11 20 10 21
REMARK SMILES IDX 9 22 8 23 7 24 6 25 5 26 4 27 3 28 2 29 1 30
REMARK H PARENT
REMARK Flexibility Score: inf
ROOT
ATOM      1  C   UNL     1       5.818  17.001  34.021  1.00  0.00     0.000 C 
ENDROOT
BRANCH   1   2
ATOM      2  C   UNL     1       6.098  16.313  32.678  1.00  0.00     0.000 C 
BRANCH   2   3
ATOM      3  C   UNL     1       7.493  16.647  32.124  1.00  0.00     0.000 C 
BRANCH   3   4
ATOM      4  C   UNL     1       8.076  15.458  31.350  1.00  0.00     0.000 C 
BRANCH   4   5
ATOM      5  C   UNL     1       6.959  14.540  30.827  1.00  0.00     0.000 C 
BRANCH   5   6
ATOM      6  C   UNL     1       7.442  13.590  29.720  1.00  0.00     0.000 C 
BRANCH   6   7
ATOM      7  C   UNL     1       8.716  14.103  29.020  1.00  0.00     0.000 C 
BRANCH   7   8
ATOM      8  C   UNL     1       8.743  13.788  27.515  1.00  0.00     0.000 C 
BRANCH   8   9
ATOM      9  C   UNL     1      10.068  13.148  27.070  1.00  0.00     0.000 C 
BRANCH   9  10
ATOM     10  C   UNL     1      11.302  13.952  27.519  1.00  0.00     0.000 C 
BRANCH  10  11
ATOM     11  C   UNL     1      12.353  14.199  26.420  1.00  0.00     0.000 C 
BRANCH  11  12
ATOM     12  C   UNL     1      11.981  13.547  25.078  1.00  0.00     0.006 C 
BRANCH  12  13
ATOM     13  C   UNL     1      11.772  14.587  23.969  1.00  0.00     0.053 C 
BRANCH  13  14
ATOM     14  C   UNL     1      10.354  14.598  23.486  1.00  0.00     0.041 C 
ATOM     15  O   UNL     1      10.080  14.210  22.319  1.00  0.00    -0.550 OA
ATOM     16  O   UNL     1       9.341  15.065  24.312  1.00  0.00    -0.550 OA
ENDBRANCH  13  14
ENDBRANCH  12  13
ENDBRANCH  11  12
ENDBRANCH  10  11
ENDBRANCH   9  10
ENDBRANCH   8   9
ENDBRANCH   7   8
ENDBRANCH   6   7
ENDBRANCH   5   6
ENDBRANCH   4   5
ENDBRANCH   3   4
ENDBRANCH   2   3
ENDBRANCH   1   2
BRANCH   1  17
ATOM     17  C   UNL     1       4.424  17.644  34.079  1.00  0.00     0.000 C 
BRANCH  17  18
ATOM     18  C   UNL     1       4.301  18.877  33.167  1.00  0.00     0.000 C 
BRANCH  18  19
ATOM     19  C   UNL     1       3.188  19.853  33.603  1.00  0.00     0.000 C 
BRANCH  19  20
ATOM     20  C   UNL     1       1.964  19.122  34.178  1.00  0.00     0.000 C 
BRANCH  20  21
ATOM     21  C   UNL     1       0.812  20.102  34.435  1.00  0.00     0.000 C 
BRANCH  21  22
ATOM     22  C   UNL     1       0.996  21.449  33.716  1.00  0.00    -0.000 C 
BRANCH  22  23
ATOM     23  C   UNL     1      -0.026  21.687  32.584  1.00  0.00    -0.000 C 
BRANCH  23  24
ATOM     24  C   UNL     1       0.113  20.658  31.449  1.00  0.00    -0.000 C 
BRANCH  24  25
ATOM     25  C   UNL     1      -1.013  20.780  30.411  1.00  0.00    -0.000 C 
BRANCH  25  26
ATOM     26  C   UNL     1      -1.451  19.414  29.853  1.00  0.00    -0.000 C 
BRANCH  26  27
ATOM     27  C   UNL     1      -1.677  19.452  28.333  1.00  0.00    -0.000 C 
BRANCH  27  28
ATOM     28  C   UNL     1      -2.945  20.237  27.951  1.00  0.00    -0.000 C 
BRANCH  28  29
ATOM     29  C   UNL     1      -2.819  20.942  26.593  1.00  0.00    -0.003 C 
ATOM     30  C   UNL     1      -1.379  20.993  26.079  1.00  0.00     0.004 C 
ENDBRANCH  28  29
ENDBRANCH  27  28
ENDBRANCH  26  27
ENDBRANCH  25  26
ENDBRANCH  24  25
ENDBRANCH  23  24
ENDBRANCH  22  23
ENDBRANCH  21  22
ENDBRANCH  20  21
ENDBRANCH  19  20
ENDBRANCH  18  19
ENDBRANCH  17  18
ENDBRANCH   1  17
TORSDOF 26
ENDMDL
MODEL 5
REMARK VINA RESULT:    -3.743      8.255     13.285
REMARK INTER + INTRA:         -10.999
REMARK INTER:                  -9.673
REMARK INTRA:                  -1.326
REMARK UNBOUND:                -1.566
REMARK SMILES CCCCCCCCCCCCCCCCCCCCCCCCCCCC(=O)[O-]
REMARK SMILES IDX 15 1 16 2 17 3 18 4 19 5 20 6 21 7 22 8 23 9 24 10 25 11
REMARK SMILES IDX 26 12 27 13 28 14 29 15 30 16 14 17 13 18 12 19 11 20 10 21
REMARK SMILES IDX 9 22 8 23 7 24 6 25 5 26 4 27 3 28 2 29 1 30
REMARK H PARENT
REMARK Flexibility Score: inf
ROOT
ATOM      1  C   UNL     1       8.272  10.461  16.860  1.00  0.00     0.000 C 
ENDROOT
BRANCH   1   2
ATOM      2  C   UNL     1       9.106  11.371  17.774  1.00  0.00     0.000 C 
BRANCH   2   3
ATOM      3  C   UNL     1       8.309  12.583  18.283  1.00  0.00     0.000 C 
BRANCH   3   4
ATOM      4  C   UNL     1       9.231  13.596  18.972  1.00  0.00     0.000 C 
BRANCH   4   5
ATOM      5  C   UNL     1       8.445  14.836  19.426  1.00  0.00     0.000 C 
BRANCH   5   6
ATOM      6  C   UNL     1       8.525  15.067  20.944  1.00  0.00     0.000 C 
BRANCH   6   7
ATOM      7  C   UNL     1       9.683  14.286  21.597  1.00  0.00     0.000 C 
BRANCH   7   8
ATOM      8  C   UNL     1       9.827  14.571  23.101  1.00  0.00     0.000 C 
BRANCH   8   9
ATOM      9  C   UNL     1      11.233  15.066  23.475  1.00  0.00     0.000 C 
BRANCH   9  10
ATOM     10  C   UNL     1      12.087  13.982  24.160  1.00  0.00     0.000 C 
BRANCH  10  11
ATOM     11  C   UNL     1      12.780  14.426  25.462  1.00  0.00     0.000 C 
BRANCH  11  12
ATOM     12  C   UNL     1      12.437  13.525  26.660  1.00  0.00     0.006 C 
BRANCH  12  13
ATOM     13  C   UNL     1      11.256  14.071  27.475  1.00  0.00     0.053 C 
BRANCH  13  14
ATOM     14  C   UNL     1       9.952  13.510  26.999  1.00  0.00     0.041 C 
ATOM     15  O   UNL     1       9.612  12.341  27.319  1.00  0.00    -0.550 OA
ATOM     16  O   UNL     1       9.129  14.266  26.176  1.00  0.00    -0.550 OA
ENDBRANCH  13  14
ENDBRANCH  12  13
ENDBRANCH  11  12
ENDBRANCH  10  11
ENDBRANCH   9  10
ENDBRANCH   8   9
ENDBRANCH   7   8
ENDBRANCH   6   7
ENDBRANCH   5   6
ENDBRANCH   4   5
ENDBRANCH   3   4
ENDBRANCH   2   3
ENDBRANCH   1   2
BRANCH   1  17
ATOM     17  C   UNL     1       6.935  11.098  16.449  1.00  0.00     0.000 C 
BRANCH  17  18
ATOM     18  C   UNL     1       5.758  10.111  16.527  1.00  0.00     0.000 C 
BRANCH  18  19
ATOM     19  C   UNL     1       4.887  10.096  15.253  1.00  0.00     0.000 C 
BRANCH  19  20
ATOM     20  C   UNL     1       3.388   9.996  15.572  1.00  0.00     0.000 C 
BRANCH  20  21
ATOM     21  C   UNL     1       2.762   8.773  14.889  1.00  0.00     0.000 C 
BRANCH  21  22
ATOM     22  C   UNL     1       1.390   8.395  15.472  1.00  0.00    -0.000 C 
BRANCH  22  23
ATOM     23  C   UNL     1       1.022   9.187  16.745  1.00  0.00    -0.000 C 
BRANCH  23  24
ATOM     24  C   UNL     1      -0.449   8.987  17.150  1.00  0.00    -0.000 C 
BRANCH  24  25
ATOM     25  C   UNL     1      -0.887   9.959  18.255  1.00  0.00    -0.000 C 
BRANCH  25  26
ATOM     26  C   UNL     1      -2.412   9.967  18.461  1.00  0.00    -0.000 C 
BRANCH  26  27
ATOM     27  C   UNL     1      -2.799  10.206  19.931  1.00  0.00    -0.000 C 
BRANCH  27  28
ATOM     28  C   UNL     1      -1.567  10.309  20.849  1.00  0.00    -0.000 C 
BRANCH  28  29
ATOM     29  C   UNL     1      -1.623   9.325  22.026  1.00  0.00    -0.003 C 
ATOM     30  C   UNL     1      -1.631   7.862  21.581  1.00  0.00     0.004 C 
ENDBRANCH  28  29
ENDBRANCH  27  28
ENDBRANCH  26  27
ENDBRANCH  25  26
ENDBRANCH  24  25
ENDBRANCH  23  24
ENDBRANCH  22  23
ENDBRANCH  21  22
ENDBRANCH  20  21
ENDBRANCH  19  20
ENDBRANCH  18  19
ENDBRANCH  17  18
ENDBRANCH   1  17
TORSDOF 26
ENDMDL
MODEL 6
REMARK VINA RESULT:    -3.742      2.735     11.476
REMARK INTER + INTRA:         -10.996
REMARK INTER:                  -9.419
REMARK INTRA:                  -1.577
REMARK UNBOUND:                -1.566
REMARK SMILES CCCCCCCCCCCCCCCCCCCCCCCCCCCC(=O)[O-]
REMARK SMILES IDX 15 1 16 2 17 3 18 4 19 5 20 6 21 7 22 8 23 9 24 10 25 11
REMARK SMILES IDX 26 12 27 13 28 14 29 15 30 16 14 17 13 18 12 19 11 20 10 21
REMARK SMILES IDX 9 22 8 23 7 24 6 25 5 26 4 27 3 28 2 29 1 30
REMARK H PARENT
REMARK Flexibility Score: inf
ROOT
ATOM      1  C   UNL     1       6.534  16.104  31.818  1.00  0.00     0.000 C 
ENDROOT
BRANCH   1   2
ATOM      2  C   UNL     1       6.764  17.183  32.886  1.00  0.00     0.000 C 
BRANCH   2   3
ATOM      3  C   UNL     1       6.259  16.755  34.273  1.00  0.00     0.000 C 
BRANCH   3   4
ATOM      4  C   UNL     1       5.124  17.670  34.751  1.00  0.00     0.000 C 
BRANCH   4   5
ATOM      5  C   UNL     1       4.425  18.346  33.561  1.00  0.00     0.000 C 
BRANCH   5   6
ATOM      6  C   UNL     1       3.469  19.469  33.996  1.00  0.00     0.000 C 
BRANCH   6   7
ATOM      7  C   UNL     1       2.156  19.468  33.188  1.00  0.00     0.000 C 
BRANCH   7   8
ATOM      8  C   UNL     1       1.665  20.883  32.839  1.00  0.00     0.000 C 
BRANCH   8   9
ATOM      9  C   UNL     1       0.163  21.069  33.107  1.00  0.00     0.000 C 
BRANCH   9  10
ATOM     10  C   UNL     1      -0.647  21.323  31.822  1.00  0.00     0.000 C 
BRANCH  10  11
ATOM     11  C   UNL     1      -0.581  20.194  30.776  1.00  0.00     0.000 C 
BRANCH  11  12
ATOM     12  C   UNL     1      -1.660  20.323  29.687  1.00  0.00     0.006 C 
BRANCH  12  13
ATOM     13  C   UNL     1      -1.622  19.151  28.696  1.00  0.00     0.053 C 
BRANCH  13  14
ATOM     14  C   UNL     1      -2.679  19.287  27.644  1.00  0.00     0.041 C 
ATOM     15  O   UNL     1      -3.208  18.261  27.141  1.00  0.00    -0.550 OA
ATOM     16  O   UNL     1      -3.056  20.546  27.196  1.00  0.00    -0.550 OA
ENDBRANCH  13  14
ENDBRANCH  12  13
ENDBRANCH  11  12
ENDBRANCH  10  11
ENDBRANCH   9  10
ENDBRANCH   8   9
ENDBRANCH   7   8
ENDBRANCH   6   7
ENDBRANCH   5   6
ENDBRANCH   4   5
ENDBRANCH   3   4
ENDBRANCH   2   3
ENDBRANCH   1   2
BRANCH   1  17
ATOM     17  C   UNL     1       7.765  15.209  31.605  1.00  0.00     0.000 C 
BRANCH  17  18
ATOM     18  C   UNL     1       7.616  14.273  30.393  1.00  0.00     0.000 C 
BRANCH  18  19
ATOM     19  C   UNL     1       8.797  14.360  29.404  1.00  0.00     0.000 C 
BRANCH  19  20
ATOM     20  C   UNL     1       8.556  13.530  28.133  1.00  0.00     0.000 C 
BRANCH  20  21
ATOM     21  C   UNL     1       9.734  13.664  27.159  1.00  0.00     0.000 C 
BRANCH  21  22
ATOM     22  C   UNL     1      11.060  13.999  27.863  1.00  0.00    -0.000 C 
BRANCH  22  23
ATOM     23  C   UNL     1      12.250  14.157  26.893  1.00  0.00    -0.000 C 
BRANCH  23  24
ATOM     24  C   UNL     1      11.994  13.469  25.541  1.00  0.00    -0.000 C 
BRANCH  24  25
ATOM     25  C   UNL     1      12.441  14.333  24.352  1.00  0.00    -0.000 C 
BRANCH  25  26
ATOM     26  C   UNL     1      11.364  14.432  23.258  1.00  0.00    -0.000 C 
BRANCH  26  27
ATOM     27  C   UNL     1      10.151  15.263  23.710  1.00  0.00    -0.000 C 
BRANCH  27  28
ATOM     28  C   UNL     1       8.828  14.491  23.564  1.00  0.00    -0.000 C 
BRANCH  28  29
ATOM     29  C   UNL     1       7.749  14.974  24.544  1.00  0.00    -0.003 C 
ATOM     30  C   UNL     1       6.359  14.429  24.217  1.00  0.00     0.004 C 
ENDBRANCH  28  29
ENDBRANCH  27  28
ENDBRANCH  26  27
ENDBRANCH  25  26
ENDBRANCH  24  25
ENDBRANCH  23  24
ENDBRANCH  22  23
ENDBRANCH  21  22
ENDBRANCH  20  21
ENDBRANCH  19  20
ENDBRANCH  18  19
ENDBRANCH  17  18
ENDBRANCH   1  17
TORSDOF 26
ENDMDL
MODEL 7
REMARK VINA RESULT:    -3.695      7.447     12.916
REMARK INTER + INTRA:         -10.877
REMARK INTER:                 -10.087
REMARK INTRA:                  -0.790
REMARK UNBOUND:                -1.566
REMARK SMILES CCCCCCCCCCCCCCCCCCCCCCCCCCCC(=O)[O-]
REMARK SMILES IDX 15 1 16 2 17 3 18 4 19 5 20 6 21 7 22 8 23 9 24 10 25 11
REMARK SMILES IDX 26 12 27 13 28 14 29 15 30 16 14 17 13 18 12 19 11 20 10 21
REMARK SMILES IDX 9 22 8 23 7 24 6 25 5 26 4 27 3 28 2 29 1 30
REMARK H PARENT
REMARK Flexibility Score: inf
ROOT
ATOM      1  C   UNL     1       8.505  12.742  17.862  1.00  0.00     0.000 C 
ENDROOT
BRANCH   1   2
ATOM      2  C   UNL     1       9.281  13.401  19.012  1.00  0.00     0.000 C 
BRANCH   2   3
ATOM      3  C   UNL     1       8.392  14.309  19.876  1.00  0.00     0.000 C 
BRANCH   3   4
ATOM      4  C   UNL     1       9.236  15.120  20.868  1.00  0.00     0.000 C 
BRANCH   4   5
ATOM      5  C   UNL     1       9.654  14.258  22.069  1.00  0.00     0.000 C 
BRANCH   5   6
ATOM      6  C   UNL     1      10.340  15.075  23.176  1.00  0.00     0.000 C 
BRANCH   6   7
ATOM      7  C   UNL     1      11.779  14.599  23.452  1.00  0.00     0.000 C 
BRANCH   7   8
ATOM      8  C   UNL     1      11.862  13.558  24.580  1.00  0.00     0.000 C 
BRANCH   8   9
ATOM      9  C   UNL     1      12.291  14.174  25.922  1.00  0.00     0.000 C 
BRANCH   9  10
ATOM     10  C   UNL     1      11.218  14.030  27.017  1.00  0.00     0.000 C 
BRANCH  10  11
ATOM     11  C   UNL     1       9.937  13.293  26.582  1.00  0.00     0.000 C 
BRANCH  11  12
ATOM     12  C   UNL     1       8.711  14.218  26.502  1.00  0.00     0.006 C 
BRANCH  12  13
ATOM     13  C   UNL     1       8.364  14.594  25.055  1.00  0.00     0.053 C 
BRANCH  13  14
ATOM     14  C   UNL     1       6.883  14.667  24.847  1.00  0.00     0.041 C 
ATOM     15  O   UNL     1       6.178  15.419  25.570  1.00  0.00    -0.550 OA
ATOM     16  O   UNL     1       6.277  13.881  23.875  1.00  0.00    -0.550 OA
ENDBRANCH  13  14
ENDBRANCH  12  13
ENDBRANCH  11  12
ENDBRANCH  10  11
ENDBRANCH   9  10
ENDBRANCH   8   9
ENDBRANCH   7   8
ENDBRANCH   6   7
ENDBRANCH   5   6
ENDBRANCH   4   5
ENDBRANCH   3   4
ENDBRANCH   2   3
ENDBRANCH   1   2
BRANCH   1  17
ATOM     17  C   UNL     1       8.814  11.243  17.721  1.00  0.00     0.000 C 
BRANCH  17  18
ATOM     18  C   UNL     1       7.855  10.528  16.753  1.00  0.00     0.000 C 
BRANCH  18  19
ATOM     19  C   UNL     1       6.882  11.488  16.035  1.00  0.00     0.000 C 
BRANCH  19  20
ATOM     20  C   UNL     1       5.767  10.738  15.290  1.00  0.00     0.000 C 
BRANCH  20  21
ATOM     21  C   UNL     1       5.051   9.753  16.223  1.00  0.00     0.000 C 
BRANCH  21  22
ATOM     22  C   UNL     1       3.525   9.944  16.241  1.00  0.00    -0.000 C 
BRANCH  22  23
ATOM     23  C   UNL     1       2.788   9.124  15.162  1.00  0.00    -0.000 C 
BRANCH  23  24
ATOM     24  C   UNL     1       1.361   8.744  15.593  1.00  0.00    -0.000 C 
BRANCH  24  25
ATOM     25  C   UNL     1       0.998   9.310  16.974  1.00  0.00    -0.000 C 
BRANCH  25  26
ATOM     26  C   UNL     1      -0.515   9.258  17.253  1.00  0.00    -0.000 C 
BRANCH  26  27
ATOM     27  C   UNL     1      -0.931  10.221  18.378  1.00  0.00    -0.000 C 
BRANCH  27  28
ATOM     28  C   UNL     1      -2.389  10.003  18.822  1.00  0.00    -0.000 C 
BRANCH  28  29
ATOM     29  C   UNL     1      -2.568  10.116  20.343  1.00  0.00    -0.003 C 
ATOM     30  C   UNL     1      -1.550   9.286  21.126  1.00  0.00     0.004 C 
ENDBRANCH  28  29
ENDBRANCH  27  28
ENDBRANCH  26  27
ENDBRANCH  25  26
ENDBRANCH  24  25
ENDBRANCH  23  24
ENDBRANCH  22  23
ENDBRANCH  21  22
ENDBRANCH  20  21
ENDBRANCH  19  20
ENDBRANCH  18  19
ENDBRANCH  17  18
ENDBRANCH   1  17
TORSDOF 26
ENDMDL
MODEL 8
REMARK VINA RESULT:    -3.278      9.271     13.893
REMARK INTER + INTRA:          -9.827
REMARK INTER:                  -8.595
REMARK INTRA:                  -1.232
REMARK UNBOUND:                -1.566
REMARK SMILES CCCCCCCCCCCCCCCCCCCCCCCCCCCC(=O)[O-]
REMARK SMILES IDX 15 1 16 2 17 3 18 4 19 5 20 6 21 7 22 8 23 9 24 10 25 11
REMARK SMILES IDX 26 12 27 13 28 14 29 15 30 16 14 17 13 18 12 19 11 20 10 21
REMARK SMILES IDX 9 22 8 23 7 24 6 25 5 26 4 27 3 28 2 29 1 30
REMARK H PARENT
REMARK Flexibility Score: inf
ROOT
ATOM      1  C   UNL     1       6.160  10.146  15.805  1.00  0.00     0.000 C 
ENDROOT
BRANCH   1   2
ATOM      2  C   UNL     1       6.748  11.524  15.467  1.00  0.00     0.000 C 
BRANCH   2   3
ATOM      3  C   UNL     1       8.216  11.443  15.017  1.00  0.00     0.000 C 
BRANCH   3   4
ATOM      4  C   UNL     1       9.153  11.999  16.096  1.00  0.00     0.000 C 
BRANCH   4   5
ATOM      5  C   UNL     1       8.372  12.360  17.371  1.00  0.00     0.000 C 
BRANCH   5   6
ATOM      6  C   UNL     1       9.245  12.310  18.635  1.00  0.00     0.000 C 
BRANCH   6   7
ATOM      7  C   UNL     1       9.671  13.712  19.110  1.00  0.00     0.000 C 
BRANCH   7   8
ATOM      8  C   UNL     1       8.480  14.597  19.514  1.00  0.00     0.000 C 
BRANCH   8   9
ATOM      9  C   UNL     1       8.301  14.685  21.039  1.00  0.00     0.000 C 
BRANCH   9  10
ATOM     10  C   UNL     1       9.622  14.952  21.783  1.00  0.00     0.000 C 
BRANCH  10  11
ATOM     11  C   UNL     1       9.730  14.298  23.174  1.00  0.00     0.000 C 
BRANCH  11  12
ATOM     12  C   UNL     1      10.775  14.976  24.075  1.00  0.00     0.006 C 
BRANCH  12  13
ATOM     13  C   UNL     1      12.111  14.220  24.080  1.00  0.00     0.053 C 
BRANCH  13  14
ATOM     14  C   UNL     1      12.634  14.038  25.472  1.00  0.00     0.041 C 
ATOM     15  O   UNL     1      13.872  14.093  25.695  1.00  0.00    -0.550 OA
ATOM     16  O   UNL     1      11.757  13.777  26.516  1.00  0.00    -0.550 OA
ENDBRANCH  13  14
ENDBRANCH  12  13
ENDBRANCH  11  12
ENDBRANCH  10  11
ENDBRANCH   9  10
ENDBRANCH   8   9
ENDBRANCH   7   8
ENDBRANCH   6   7
ENDBRANCH   5   6
ENDBRANCH   4   5
ENDBRANCH   3   4
ENDBRANCH   2   3
ENDBRANCH   1   2
BRANCH   1  17
ATOM     17  C   UNL     1       4.995   9.757  14.882  1.00  0.00     0.000 C 
BRANCH  17  18
ATOM     18  C   UNL     1       3.637  10.272  15.392  1.00  0.00     0.000 C 
BRANCH  18  19
ATOM     19  C   UNL     1       2.806   9.193  16.117  1.00  0.00     0.000 C 
BRANCH  19  20
ATOM     20  C   UNL     1       2.114   8.233  15.136  1.00  0.00     0.000 C 
BRANCH  20  21
ATOM     21  C   UNL     1       0.744   7.797  15.672  1.00  0.00     0.000 C 
BRANCH  21  22
ATOM     22  C   UNL     1      -0.124   8.978  16.137  1.00  0.00    -0.000 C 
BRANCH  22  23
ATOM     23  C   UNL     1      -0.389   8.987  17.658  1.00  0.00    -0.000 C 
BRANCH  23  24
ATOM     24  C   UNL     1      -0.270  10.397  18.261  1.00  0.00    -0.000 C 
BRANCH  24  25
ATOM     25  C   UNL     1      -1.640  11.061  18.468  1.00  0.00    -0.000 C 
BRANCH  25  26
ATOM     26  C   UNL     1      -2.749  10.038  18.773  1.00  0.00    -0.000 C 
BRANCH  26  27
ATOM     27  C   UNL     1      -3.417  10.294  20.135  1.00  0.00    -0.000 C 
BRANCH  27  28
ATOM     28  C   UNL     1      -2.389  10.562  21.248  1.00  0.00    -0.000 C 
BRANCH  28  29
ATOM     29  C   UNL     1      -1.282   9.499  21.300  1.00  0.00    -0.003 C 
ATOM     30  C   UNL     1      -1.754   8.175  21.901  1.00  0.00     0.004 C 
ENDBRANCH  28  29
ENDBRANCH  27  28
ENDBRANCH  26  27
ENDBRANCH  25  26
ENDBRANCH  24  25
ENDBRANCH  23  24
ENDBRANCH  22  23
ENDBRANCH  21  22
ENDBRANCH  20  21
ENDBRANCH  19  20
ENDBRANCH  18  19
ENDBRANCH  17  18
ENDBRANCH   1  17
TORSDOF 26
ENDMDL
MODEL 9
REMARK VINA RESULT:    -3.183      2.627      3.832
REMARK INTER + INTRA:          -9.588
REMARK INTER:                  -7.931
REMARK INTRA:                  -1.658
REMARK UNBOUND:                -1.566
REMARK SMILES CCCCCCCCCCCCCCCCCCCCCCCCCCCC(=O)[O-]
REMARK SMILES IDX 15 1 16 2 17 3 18 4 19 5 20 6 21 7 22 8 23 9 24 10 25 11
REMARK SMILES IDX 26 12 27 13 28 14 29 15 30 16 14 17 13 18 12 19 11 20 10 21
REMARK SMILES IDX 9 22 8 23 7 24 6 25 5 26 4 27 3 28 2 29 1 30
REMARK H PARENT
REMARK Flexibility Score: inf
ROOT
ATOM      1  C   UNL     1       8.526  14.259  29.949  1.00  0.00     0.000 C 
ENDROOT
BRANCH   1   2
ATOM      2  C   UNL     1       8.056  13.843  28.548  1.00  0.00     0.000 C 
BRANCH   2   3
ATOM      3  C   UNL     1       9.110  13.015  27.795  1.00  0.00     0.000 C 
BRANCH   3   4
ATOM      4  C   UNL     1      10.111  13.926  27.073  1.00  0.00     0.000 C 
BRANCH   4   5
ATOM      5  C   UNL     1      11.484  13.890  27.763  1.00  0.00     0.000 C 
BRANCH   5   6
ATOM      6  C   UNL     1      12.651  13.888  26.762  1.00  0.00     0.000 C 
BRANCH   6   7
ATOM      7  C   UNL     1      12.197  13.538  25.331  1.00  0.00     0.000 C 
BRANCH   7   8
ATOM      8  C   UNL     1      12.664  14.564  24.285  1.00  0.00     0.000 C 
BRANCH   8   9
ATOM      9  C   UNL     1      11.784  14.563  23.024  1.00  0.00     0.000 C 
BRANCH   9  10
ATOM     10  C   UNL     1      10.328  14.152  23.310  1.00  0.00     0.000 C 
BRANCH  10  11
ATOM     11  C   UNL     1       9.383  15.313  23.674  1.00  0.00     0.000 C 
BRANCH  11  12
ATOM     12  C   UNL     1       8.239  14.883  24.608  1.00  0.00     0.006 C 
BRANCH  12  13
ATOM     13  C   UNL     1       7.002  14.414  23.829  1.00  0.00     0.053 C 
BRANCH  13  14
ATOM     14  C   UNL     1       5.735  14.779  24.538  1.00  0.00     0.041 C 
ATOM     15  O   UNL     1       5.566  15.948  24.972  1.00  0.00    -0.550 OA
ATOM     16  O   UNL     1       4.753  13.819  24.746  1.00  0.00    -0.550 OA
ENDBRANCH  13  14
ENDBRANCH  12  13
ENDBRANCH  11  12
ENDBRANCH  10  11
ENDBRANCH   9  10
ENDBRANCH   8   9
ENDBRANCH   7   8
ENDBRANCH   6   7
ENDBRANCH   5   6
ENDBRANCH   4   5
ENDBRANCH   3   4
ENDBRANCH   2   3
ENDBRANCH   1   2
BRANCH   1  17
ATOM     17  C   UNL     1       7.357  14.546  30.905  1.00  0.00     0.000 C 
BRANCH  17  18
ATOM     18  C   UNL     1       7.581  15.810  31.753  1.00  0.00     0.000 C 
BRANCH  18  19
ATOM     19  C   UNL     1       6.279  16.384  32.352  1.00  0.00     0.000 C 
BRANCH  19  20
ATOM     20  C   UNL     1       6.550  17.365  33.502  1.00  0.00     0.000 C 
BRANCH  20  21
ATOM     21  C   UNL     1       5.856  16.904  34.791  1.00  0.00     0.000 C 
BRANCH  21  22
ATOM     22  C   UNL     1       4.483  17.564  35.004  1.00  0.00    -0.000 C 
BRANCH  22  23
ATOM     23  C   UNL     1       4.312  18.892  34.236  1.00  0.00    -0.000 C 
BRANCH  23  24
ATOM     24  C   UNL     1       3.099  19.698  34.731  1.00  0.00    -0.000 C 
BRANCH  24  25
ATOM     25  C   UNL     1       1.834  19.414  33.907  1.00  0.00    -0.000 C 
BRANCH  25  26
ATOM     26  C   UNL     1       1.545  20.516  32.872  1.00  0.00    -0.000 C 
BRANCH  26  27
ATOM     27  C   UNL     1       0.329  21.374  33.261  1.00  0.00    -0.000 C 
BRANCH  27  28
ATOM     28  C   UNL     1       0.609  22.260  34.488  1.00  0.00    -0.000 C 
BRANCH  28  29
ATOM     29  C   UNL     1      -0.507  23.282  34.748  1.00  0.00    -0.003 C 
ATOM     30  C   UNL     1      -1.254  23.685  33.477  1.00  0.00     0.004 C 
ENDBRANCH  28  29
ENDBRANCH  27  28
ENDBRANCH  26  27
ENDBRANCH  25  26
ENDBRANCH  24  25
ENDBRANCH  23  24
ENDBRANCH  22  23
ENDBRANCH  21  22
ENDBRANCH  20  21
ENDBRANCH  19  20
ENDBRANCH  18  19
ENDBRANCH  17  18
ENDBRANCH   1  17
TORSDOF 26
ENDMDL
