MODEL 1
REMARK VINA RESULT:    -2.498      0.000      0.000
REMARK INTER + INTRA:          -3.173
REMARK INTER:                  -3.082
REMARK INTRA:                  -0.092
REMARK UNBOUND:                -0.092
REMARK SMILES CCCCCC(=O)[O-]
REMARK SMILES IDX 4 1 5 2 6 3 7 4 8 5 3 6 2 7 1 8
REMARK H PARENT
REMARK Flexibility Score: inf
ROOT
ATOM      1  C   UNL     1       2.219  -6.925  11.292  1.00  0.00     0.006 C 
ENDROOT
BRANCH   1   2
ATOM      2  C   UNL     1       0.922  -7.487  11.882  1.00  0.00     0.053 C 
BRANCH   2   3
ATOM      3  C   UNL     1       0.015  -7.968  10.794  1.00  0.00     0.041 C 
ATOM      4  O   UNL     1       0.018  -9.182  10.457  1.00  0.00    -0.550 OA
ATOM      5  O   UNL     1      -0.797  -7.068  10.116  1.00  0.00    -0.550 OA
ENDBRANCH   2   3
ENDBRANCH   1   2
BRANCH   1   6
ATOM      6  C   UNL     1       3.323  -7.993  11.275  1.00  0.00     0.000 C 
BRANCH   6   7
ATOM      7  C   UNL     1       4.298  -7.853  12.454  1.00  0.00    -0.003 C 
ATOM      8  C   UNL     1       5.557  -7.067  12.088  1.00  0.00     0.004 C 
ENDBRANCH   6   7
ENDBRANCH   1   6
TORSDOF 4
ENDMDL
MODEL 2
REMARK VINA RESULT:    -1.190      1.646      2.580
REMARK INTER + INTRA:          -1.560
REMARK INTER:                  -1.411
REMARK INTRA:                  -0.149
REMARK UNBOUND:                -0.092
REMARK SMILES CCCCCC(=O)[O-]
REMARK SMILES IDX 4 1 5 2 6 3 7 4 8 5 3 6 2 7 1 8
REMARK H PARENT
REMARK Flexibility Score: inf
ROOT
ATOM      1  C   UNL     1       3.811  -8.485  12.607  1.00  0.00     0.006 C 
ENDROOT
BRANCH   1   2
ATOM      2  C   UNL     1       3.348  -8.058  11.211  1.00  0.00     0.053 C 
BRANCH   2   3
ATOM      3  C   UNL     1       2.178  -7.130  11.307  1.00  0.00     0.041 C 
ATOM      4  O   UNL     1       2.360  -5.891  11.434  1.00  0.00    -0.550 OA
ATOM      5  O   UNL     1       0.885  -7.639  11.308  1.00  0.00    -0.550 OA
ENDBRANCH   2   3
ENDBRANCH   1   2
BRANCH   1   6
ATOM      6  C   UNL     1       4.915  -7.553  13.129  1.00  0.00     0.000 C 
BRANCH   6   7
ATOM      7  C   UNL     1       5.788  -6.982  12.000  1.00  0.00    -0.003 C 
ATOM      8  C   UNL     1       7.214  -6.673  12.456  1.00  0.00     0.004 C 
ENDBRANCH   6   7
ENDBRANCH   1   6
TORSDOF 4
ENDMDL
MODEL 3
REMARK VINA RESULT:    -0.078      3.543      5.049
REMARK INTER + INTRA:          -0.188
REMARK INTER:                  -0.318
REMARK INTRA:                   0.130
REMARK UNBOUND:                -0.092
REMARK SMILES CCCCCC(=O)[O-]
REMARK SMILES IDX 4 1 5 2 6 3 7 4 8 5 3 6 2 7 1 8
REMARK H PARENT
REMARK Flexibility Score: inf
ROOT
ATOM      1  C   UNL     1       3.428  -7.856  12.682  1.00  0.00     0.006 C 
ENDROOT
BRANCH   1   2
ATOM      2  C   UNL     1       4.902  -8.265  12.613  1.00  0.00     0.053 C 
BRANCH   2   3
ATOM      3  C   UNL     1       5.759  -7.085  12.278  1.00  0.00     0.041 C 
ATOM      4  O   UNL     1       5.292  -6.137  11.592  1.00  0.00    -0.550 OA
ATOM      5  O   UNL     1       7.088  -7.054  12.679  1.00  0.00    -0.550 OA
ENDBRANCH   2   3
ENDBRANCH   1   2
BRANCH   1   6
ATOM      6  C   UNL     1       2.778  -7.906  11.291  1.00  0.00     0.000 C 
BRANCH   6   7
ATOM      7  C   UNL     1       1.552  -6.986  11.178  1.00  0.00    -0.003 C 
ATOM      8  C   UNL     1       0.232  -7.740  11.339  1.00  0.00     0.004 C 
ENDBRANCH   6   7
ENDBRANCH   1   6
TORSDOF 4
ENDMDL
MODEL 4
REMARK VINA RESULT:     0.053      3.060      4.177
REMARK INTER + INTRA:          -0.026
REMARK INTER:                  -0.273
REMARK INTRA:                   0.247
REMARK UNBOUND:                -0.092
REMARK SMILES CCCCCC(=O)[O-]
REMARK SMILES IDX 4 1 5 2 6 3 7 4 8 5 3 6 2 7 1 8
REMARK H PARENT
REMARK Flexibility Score: inf
ROOT
ATOM      1  C   UNL     1       2.346  -8.337  11.240  1.00  0.00     0.006 C 
ENDROOT
BRANCH   1   2
ATOM      2  C   UNL     1       3.828  -8.112  10.924  1.00  0.00     0.053 C 
BRANCH   2   3
ATOM      3  C   UNL     1       4.610  -7.918  12.184  1.00  0.00     0.041 C 
ATOM      4  O   UNL     1       4.287  -8.537  13.232  1.00  0.00    -0.550 OA
ATOM      5  O   UNL     1       5.664  -7.013  12.216  1.00  0.00    -0.550 OA
ENDBRANCH   2   3
ENDBRANCH   1   2
BRANCH   1   6
ATOM      6  C   UNL     1       1.619  -6.999  11.443  1.00  0.00     0.000 C 
BRANCH   6   7
ATOM      7  C   UNL     1       2.553  -5.789  11.287  1.00  0.00    -0.003 C 
ATOM      8  C   UNL     1       2.230  -4.949  10.052  1.00  0.00     0.004 C 
ENDBRANCH   6   7
ENDBRANCH   1   6
TORSDOF 4
ENDMDL
