MODEL 1
REMARK VINA RESULT:    -3.336      0.000      0.000
REMARK INTER + INTRA:          -4.955
REMARK INTER:                  -4.507
REMARK INTRA:                  -0.448
REMARK UNBOUND:                -0.448
REMARK SMILES C=C1C(=O)O[C@H]2[C@@H]1CCC(C)=CCC[C@]1(C)O[C@H]21
REMARK SMILES IDX 6 1 7 2 2 3 1 4 3 5 4 6 5 7 8 8 9 9 10 10 11 11 12 12 18 14
REMARK SMILES IDX 15 15 17 16 16 17 14 18 13 19
REMARK H PARENT
REMARK Flexibility Score: 70.00
ROOT
ATOM      1  C   UNL     1     -10.802 -26.942 -43.790  1.00  0.00     0.216 C 
ATOM      2  C   UNL     1     -10.831 -25.771 -42.724  1.00  0.00     0.070 C 
ATOM      3  C   UNL     1      -9.599 -26.025 -41.905  1.00  0.00     0.037 C 
ATOM      4  C   UNL     1      -9.241 -25.373 -40.798  1.00  0.00     0.021 C 
ATOM      5  C   UNL     1      -8.916 -27.168 -42.467  1.00  0.00     0.334 C 
ATOM      6  O   UNL     1      -7.839 -27.660 -42.035  1.00  0.00    -0.247 OA
ATOM      7  O   UNL     1      -9.585 -27.654 -43.570  1.00  0.00    -0.455 OA
ENDROOT
BRANCH   2   8
ATOM      8  C   UNL     1     -11.001 -24.287 -43.161  1.00  0.00     0.017 C 
BRANCH   8   9
ATOM      9  C   UNL     1     -12.390 -23.854 -43.710  1.00  0.00     0.031 C 
BRANCH   9  10
ATOM     10  C   UNL     1     -13.525 -24.372 -42.847  1.00  0.00    -0.077 C 
ATOM     11  C   UNL     1     -13.603 -23.897 -41.418  1.00  0.00     0.039 C 
ATOM     12  C   UNL     1     -14.443 -25.277 -43.265  1.00  0.00    -0.028 CG0
ATOM     13  G   UNL     1     -14.581 -25.837 -44.665  1.00  0.00     0.000 G0
ENDBRANCH   9  10
ENDBRANCH   8   9
ENDBRANCH   2   8
BRANCH   1  14
ATOM     14  C   UNL     1     -11.090 -26.750 -45.307  1.00  0.00     0.192 C 
ATOM     15  C   UNL     1     -12.480 -26.786 -45.877  1.00  0.00     0.096 C 
ATOM     16  O   UNL     1     -11.605 -27.886 -45.952  1.00  0.00    -0.362 OA
ATOM     17  C   UNL     1     -12.698 -26.155 -47.253  1.00  0.00     0.045 C 
BRANCH  15  18
ATOM     18  C   UNL     1     -13.722 -27.069 -45.008  1.00  0.00     0.042 C 
BRANCH  18  19
ATOM     19  C   UNL     1     -14.585 -25.840 -44.662  1.00  0.00     0.030 CG0
ATOM     20  G   UNL     1     -14.425 -25.284 -43.263  1.00  0.00     0.000 G0
ENDBRANCH  18  19
ENDBRANCH  15  18
ENDBRANCH   1  14
TORSDOF 0
ENDMDL
MODEL 2
REMARK VINA RESULT:    -3.316      5.348      7.423
REMARK INTER + INTRA:          -4.927
REMARK INTER:                  -4.650
REMARK INTRA:                  -0.277
REMARK UNBOUND:                -0.448
REMARK SMILES C=C1C(=O)O[C@H]2[C@@H]1CCC(C)=CCC[C@]1(C)O[C@H]21
REMARK SMILES IDX 6 1 7 2 2 3 1 4 3 5 4 6 5 7 8 8 9 9 10 10 11 11 12 12 18 14
REMARK SMILES IDX 15 15 17 16 16 17 14 18 13 19
REMARK H PARENT
REMARK Flexibility Score: 70.00
ROOT
ATOM      1  C   UNL     1     -15.007 -21.537 -39.930  1.00  0.00     0.216 C 
ATOM      2  C   UNL     1     -15.471 -21.754 -38.431  1.00  0.00     0.070 C 
ATOM      3  C   UNL     1     -15.330 -20.386 -37.830  1.00  0.00     0.037 C 
ATOM      4  C   UNL     1     -15.487 -20.071 -36.544  1.00  0.00     0.021 C 
ATOM      5  C   UNL     1     -14.895 -19.482 -38.870  1.00  0.00     0.334 C 
ATOM      6  O   UNL     1     -14.680 -18.250 -38.723  1.00  0.00    -0.247 OA
ATOM      7  O   UNL     1     -14.760 -20.140 -40.075  1.00  0.00    -0.455 OA
ENDROOT
BRANCH   2   8
ATOM      8  C   UNL     1     -16.821 -22.452 -38.097  1.00  0.00     0.017 C 
BRANCH   8   9
ATOM      9  C   UNL     1     -16.999 -23.929 -38.554  1.00  0.00     0.031 C 
BRANCH   9  10
ATOM     10  C   UNL     1     -15.919 -24.830 -37.987  1.00  0.00    -0.077 C 
ATOM     11  C   UNL     1     -15.769 -24.901 -36.488  1.00  0.00     0.039 C 
ATOM     12  C   UNL     1     -15.045 -25.535 -38.745  1.00  0.00    -0.028 CG0
ATOM     13  G   UNL     1     -15.053 -25.651 -40.255  1.00  0.00     0.000 G0
ENDBRANCH   9  10
ENDBRANCH   8   9
ENDBRANCH   2   8
BRANCH   1  14
ATOM     14  C   UNL     1     -15.750 -22.121 -41.167  1.00  0.00     0.192 C 
ATOM     15  C   UNL     1     -15.512 -23.516 -41.669  1.00  0.00     0.096 C 
ATOM     16  O   UNL     1     -14.926 -22.387 -42.272  1.00  0.00    -0.362 OA
ATOM     17  C   UNL     1     -16.579 -24.137 -42.573  1.00  0.00     0.045 C 
BRANCH  15  18
ATOM     18  C   UNL     1     -14.473 -24.459 -41.029  1.00  0.00     0.042 C 
BRANCH  18  19
ATOM     19  C   UNL     1     -15.054 -25.661 -40.259  1.00  0.00     0.030 CG0
ATOM     20  G   UNL     1     -15.050 -25.553 -38.749  1.00  0.00     0.000 G0
ENDBRANCH  18  19
ENDBRANCH  15  18
ENDBRANCH   1  14
TORSDOF 0
ENDMDL
MODEL 3
REMARK VINA RESULT:    -3.235      2.856      4.857
REMARK INTER + INTRA:          -4.818
REMARK INTER:                  -4.331
REMARK INTRA:                  -0.487
REMARK UNBOUND:                -0.448
REMARK SMILES C=C1C(=O)O[C@H]2[C@@H]1CCC(C)=CCC[C@]1(C)O[C@H]21
REMARK SMILES IDX 6 1 7 2 2 3 1 4 3 5 4 6 5 7 8 8 9 9 10 10 11 11 12 12 18 14
REMARK SMILES IDX 15 15 17 16 16 17 14 18 13 19
REMARK H PARENT
REMARK Flexibility Score: 70.00
ROOT
ATOM      1  C   UNL     1     -14.090 -25.497 -44.974  1.00  0.00     0.216 C 
ATOM      2  C   UNL     1     -12.522 -25.658 -45.134  1.00  0.00     0.070 C 
ATOM      3  C   UNL     1     -12.374 -26.175 -46.535  1.00  0.00     0.037 C 
ATOM      4  C   UNL     1     -11.241 -26.585 -47.107  1.00  0.00     0.021 C 
ATOM      5  C   UNL     1     -13.690 -26.247 -47.128  1.00  0.00     0.334 C 
ATOM      6  O   UNL     1     -13.943 -26.633 -48.300  1.00  0.00    -0.247 OA
ATOM      7  O   UNL     1     -14.656 -25.813 -46.245  1.00  0.00    -0.455 OA
ENDROOT
BRANCH   2   8
ATOM      8  C   UNL     1     -11.552 -24.492 -44.787  1.00  0.00     0.017 C 
BRANCH   8   9
ATOM      9  C   UNL     1     -11.282 -24.206 -43.282  1.00  0.00     0.031 C 
BRANCH   9  10
ATOM     10  C   UNL     1     -11.201 -25.484 -42.469  1.00  0.00    -0.077 C 
ATOM     11  C   UNL     1     -10.054 -26.424 -42.738  1.00  0.00     0.039 C 
ATOM     12  C   UNL     1     -12.127 -25.858 -41.553  1.00  0.00    -0.028 CG0
ATOM     13  G   UNL     1     -13.317 -25.045 -41.092  1.00  0.00     0.000 G0
ENDBRANCH   9  10
ENDBRANCH   8   9
ENDBRANCH   2   8
BRANCH   1  14
ATOM     14  C   UNL     1     -14.780 -24.261 -44.328  1.00  0.00     0.192 C 
ATOM     15  C   UNL     1     -15.014 -24.146 -42.849  1.00  0.00     0.096 C 
ATOM     16  O   UNL     1     -16.030 -24.526 -43.746  1.00  0.00    -0.362 OA
ATOM     17  C   UNL     1     -15.271 -22.751 -42.277  1.00  0.00     0.045 C 
BRANCH  15  18
ATOM     18  C   UNL     1     -14.636 -25.271 -41.863  1.00  0.00     0.042 C 
BRANCH  18  19
ATOM     19  C   UNL     1     -13.328 -25.054 -41.078  1.00  0.00     0.030 CG0
ATOM     20  G   UNL     1     -12.130 -25.854 -41.541  1.00  0.00     0.000 G0
ENDBRANCH  18  19
ENDBRANCH  15  18
ENDBRANCH   1  14
TORSDOF 0
ENDMDL
MODEL 4
REMARK VINA RESULT:    -3.104      2.852      4.983
REMARK INTER + INTRA:          -4.641
REMARK INTER:                  -4.261
REMARK INTRA:                  -0.380
REMARK UNBOUND:                -0.448
REMARK SMILES C=C1C(=O)O[C@H]2[C@@H]1CCC(C)=CCC[C@]1(C)O[C@H]21
REMARK SMILES IDX 6 1 7 2 2 3 1 4 3 5 4 6 5 7 8 8 9 9 10 10 11 11 12 12 18 14
REMARK SMILES IDX 15 15 17 16 16 17 14 18 13 19
REMARK H PARENT
REMARK Flexibility Score: 70.00
ROOT
ATOM      1  C   UNL     1     -12.380 -25.087 -41.507  1.00  0.00     0.216 C 
ATOM      2  C   UNL     1     -12.944 -24.712 -42.939  1.00  0.00     0.070 C 
ATOM      3  C   UNL     1     -13.982 -23.671 -42.634  1.00  0.00     0.037 C 
ATOM      4  C   UNL     1     -14.829 -23.124 -43.507  1.00  0.00     0.021 C 
ATOM      5  C   UNL     1     -13.975 -23.436 -41.209  1.00  0.00     0.334 C 
ATOM      6  O   UNL     1     -14.716 -22.619 -40.600  1.00  0.00    -0.247 OA
ATOM      7  O   UNL     1     -13.025 -24.214 -40.581  1.00  0.00    -0.455 OA
ENDROOT
BRANCH   2   8
ATOM      8  C   UNL     1     -11.990 -24.326 -44.106  1.00  0.00     0.017 C 
BRANCH   8   9
ATOM      9  C   UNL     1     -11.500 -25.468 -45.041  1.00  0.00     0.031 C 
BRANCH   9  10
ATOM     10  C   UNL     1     -12.382 -26.698 -44.941  1.00  0.00    -0.077 C 
ATOM     11  C   UNL     1     -13.704 -26.683 -45.665  1.00  0.00     0.039 C 
ATOM     12  C   UNL     1     -12.078 -27.789 -44.197  1.00  0.00    -0.028 CG0
ATOM     13  G   UNL     1     -10.788 -28.034 -43.444  1.00  0.00     0.000 G0
ENDBRANCH   9  10
ENDBRANCH   8   9
ENDBRANCH   2   8
BRANCH   1  14
ATOM     14  C   UNL     1     -10.868 -25.256 -41.181  1.00  0.00     0.192 C 
ATOM     15  C   UNL     1     -10.133 -26.548 -41.399  1.00  0.00     0.096 C 
ATOM     16  O   UNL     1     -10.592 -26.145 -40.130  1.00  0.00    -0.362 OA
ATOM     17  C   UNL     1      -8.607 -26.491 -41.480  1.00  0.00     0.045 C 
BRANCH  15  18
ATOM     18  C   UNL     1     -10.835 -27.822 -41.912  1.00  0.00     0.042 C 
BRANCH  18  19
ATOM     19  C   UNL     1     -10.788 -28.037 -43.437  1.00  0.00     0.030 CG0
ATOM     20  G   UNL     1     -12.080 -27.792 -44.187  1.00  0.00     0.000 G0
ENDBRANCH  18  19
ENDBRANCH  15  18
ENDBRANCH   1  14
TORSDOF 0
ENDMDL
MODEL 5
REMARK VINA RESULT:    -2.970      1.503      2.082
REMARK INTER + INTRA:          -4.461
REMARK INTER:                  -4.011
REMARK INTRA:                  -0.450
REMARK UNBOUND:                -0.448
REMARK SMILES C=C1C(=O)O[C@H]2[C@@H]1CCC(C)=CCC[C@]1(C)O[C@H]21
REMARK SMILES IDX 6 1 7 2 2 3 1 4 3 5 4 6 5 7 8 8 9 9 10 10 11 11 12 12 18 14
REMARK SMILES IDX 15 15 17 16 16 17 14 18 13 19
REMARK H PARENT
REMARK Flexibility Score: 70.00
ROOT
ATOM      1  C   UNL     1     -12.738 -26.395 -44.360  1.00  0.00     0.216 C 
ATOM      2  C   UNL     1     -12.316 -25.238 -43.364  1.00  0.00     0.070 C 
ATOM      3  C   UNL     1     -10.898 -25.589 -43.016  1.00  0.00     0.037 C 
ATOM      4  C   UNL     1     -10.137 -24.978 -42.108  1.00  0.00     0.021 C 
ATOM      5  C   UNL     1     -10.532 -26.769 -43.765  1.00  0.00     0.334 C 
ATOM      6  O   UNL     1      -9.411 -27.341 -43.724  1.00  0.00    -0.247 OA
ATOM      7  O   UNL     1     -11.573 -27.193 -44.564  1.00  0.00    -0.455 OA
ENDROOT
BRANCH   2   8
ATOM      8  C   UNL     1     -12.521 -23.741 -43.734  1.00  0.00     0.017 C 
BRANCH   8   9
ATOM      9  C   UNL     1     -13.936 -23.133 -43.513  1.00  0.00     0.031 C 
BRANCH   9  10
ATOM     10  C   UNL     1     -14.661 -23.795 -42.357  1.00  0.00    -0.077 C 
ATOM     11  C   UNL     1     -14.164 -23.523 -40.959  1.00  0.00     0.039 C 
ATOM     12  C   UNL     1     -15.695 -24.658 -42.505  1.00  0.00    -0.028 CG0
ATOM     13  G   UNL     1     -16.383 -25.024 -43.803  1.00  0.00     0.000 G0
ENDBRANCH   9  10
ENDBRANCH   8   9
ENDBRANCH   2   8
BRANCH   1  14
ATOM     14  C   UNL     1     -13.517 -26.164 -45.687  1.00  0.00     0.192 C 
ATOM     15  C   UNL     1     -15.016 -26.101 -45.745  1.00  0.00     0.096 C 
ATOM     16  O   UNL     1     -14.295 -27.255 -46.106  1.00  0.00    -0.362 OA
ATOM     17  C   UNL     1     -15.652 -25.438 -46.969  1.00  0.00     0.045 C 
BRANCH  15  18
ATOM     18  C   UNL     1     -15.901 -26.315 -44.500  1.00  0.00     0.042 C 
BRANCH  18  19
ATOM     19  C   UNL     1     -16.383 -25.029 -43.800  1.00  0.00     0.030 CG0
ATOM     20  G   UNL     1     -15.680 -24.668 -42.508  1.00  0.00     0.000 G0
ENDBRANCH  18  19
ENDBRANCH  15  18
ENDBRANCH   1  14
TORSDOF 0
ENDMDL
MODEL 6
REMARK VINA RESULT:    -2.903      3.551      5.576
REMARK INTER + INTRA:          -4.370
REMARK INTER:                  -3.896
REMARK INTRA:                  -0.474
REMARK UNBOUND:                -0.448
REMARK SMILES C=C1C(=O)O[C@H]2[C@@H]1CCC(C)=CCC[C@]1(C)O[C@H]21
REMARK SMILES IDX 6 1 7 2 2 3 1 4 3 5 4 6 5 7 8 8 9 9 10 10 11 11 12 12 18 14
REMARK SMILES IDX 15 15 17 16 16 17 14 18 13 19
REMARK H PARENT
REMARK Flexibility Score: 70.00
ROOT
ATOM      1  C   UNL     1     -13.347 -25.650 -41.781  1.00  0.00     0.216 C 
ATOM      2  C   UNL     1     -11.955 -25.224 -42.406  1.00  0.00     0.070 C 
ATOM      3  C   UNL     1     -12.332 -24.134 -43.367  1.00  0.00     0.037 C 
ATOM      4  C   UNL     1     -11.517 -23.530 -44.232  1.00  0.00     0.021 C 
ATOM      5  C   UNL     1     -13.757 -23.919 -43.263  1.00  0.00     0.334 C 
ATOM      6  O   UNL     1     -14.418 -23.072 -43.921  1.00  0.00    -0.247 OA
ATOM      7  O   UNL     1     -14.319 -24.756 -42.321  1.00  0.00    -0.455 OA
ENDROOT
BRANCH   2   8
ATOM      8  C   UNL     1     -10.738 -24.874 -41.503  1.00  0.00     0.017 C 
BRANCH   8   9
ATOM      9  C   UNL     1     -10.009 -26.050 -40.791  1.00  0.00     0.031 C 
BRANCH   9  10
ATOM     10  C   UNL     1      -9.866 -27.257 -41.698  1.00  0.00    -0.077 C 
ATOM     11  C   UNL     1      -9.004 -27.123 -42.927  1.00  0.00     0.039 C 
ATOM     12  C   UNL     1     -10.508 -28.434 -41.499  1.00  0.00    -0.028 CG0
ATOM     13  G   UNL     1     -11.369 -28.799 -40.309  1.00  0.00     0.000 G0
ENDBRANCH   9  10
ENDBRANCH   8   9
ENDBRANCH   2   8
BRANCH   1  14
ATOM     14  C   UNL     1     -13.581 -25.904 -40.264  1.00  0.00     0.192 C 
ATOM     15  C   UNL     1     -13.327 -27.237 -39.619  1.00  0.00     0.096 C 
ATOM     16  O   UNL     1     -14.619 -26.805 -39.975  1.00  0.00    -0.362 OA
ATOM     17  C   UNL     1     -13.152 -27.268 -38.100  1.00  0.00     0.045 C 
BRANCH  15  18
ATOM     18  C   UNL     1     -12.867 -28.470 -40.423  1.00  0.00     0.042 C 
BRANCH  18  19
ATOM     19  C   UNL     1     -11.368 -28.811 -40.314  1.00  0.00     0.030 CG0
ATOM     20  G   UNL     1     -10.509 -28.438 -41.504  1.00  0.00     0.000 G0
ENDBRANCH  18  19
ENDBRANCH  15  18
ENDBRANCH   1  14
TORSDOF 0
ENDMDL
MODEL 7
REMARK VINA RESULT:    -2.813      3.596      5.399
REMARK INTER + INTRA:          -4.247
REMARK INTER:                  -3.992
REMARK INTRA:                  -0.256
REMARK UNBOUND:                -0.448
REMARK SMILES C=C1C(=O)O[C@H]2[C@@H]1CCC(C)=CCC[C@]1(C)O[C@H]21
REMARK SMILES IDX 6 1 7 2 2 3 1 4 3 5 4 6 5 7 8 8 9 9 10 10 11 11 12 12 18 14
REMARK SMILES IDX 15 15 17 16 16 17 14 18 13 19
REMARK H PARENT
REMARK Flexibility Score: 70.00
ROOT
ATOM      1  C   UNL     1     -13.622 -23.754 -41.993  1.00  0.00     0.216 C 
ATOM      2  C   UNL     1     -13.902 -24.602 -40.686  1.00  0.00     0.070 C 
ATOM      3  C   UNL     1     -15.099 -23.921 -40.087  1.00  0.00     0.037 C 
ATOM      4  C   UNL     1     -15.649 -24.192 -38.904  1.00  0.00     0.021 C 
ATOM      5  C   UNL     1     -15.493 -22.849 -40.972  1.00  0.00     0.334 C 
ATOM      6  O   UNL     1     -16.465 -22.069 -40.787  1.00  0.00    -0.247 OA
ATOM      7  O   UNL     1     -14.673 -22.793 -42.080  1.00  0.00    -0.455 OA
ENDROOT
BRANCH   2   8
ATOM      8  C   UNL     1     -14.023 -26.153 -40.741  1.00  0.00     0.017 C 
BRANCH   8   9
ATOM      9  C   UNL     1     -12.780 -26.953 -41.222  1.00  0.00     0.031 C 
BRANCH   9  10
ATOM     10  C   UNL     1     -11.564 -26.683 -40.357  1.00  0.00    -0.077 C 
ATOM     11  C   UNL     1     -11.670 -26.958 -38.878  1.00  0.00     0.039 C 
ATOM     12  C   UNL     1     -10.404 -26.160 -40.822  1.00  0.00    -0.028 CG0
ATOM     13  G   UNL     1     -10.066 -25.866 -42.268  1.00  0.00     0.000 G0
ENDBRANCH   9  10
ENDBRANCH   8   9
ENDBRANCH   2   8
BRANCH   1  14
ATOM     14  C   UNL     1     -13.294 -24.373 -43.383  1.00  0.00     0.192 C 
ATOM     15  C   UNL     1     -11.903 -24.782 -43.777  1.00  0.00     0.096 C 
ATOM     16  O   UNL     1     -12.483 -23.572 -44.203  1.00  0.00    -0.362 OA
ATOM     17  C   UNL     1     -11.756 -25.766 -44.939  1.00  0.00     0.045 C 
BRANCH  15  18
ATOM     18  C   UNL     1     -10.686 -24.570 -42.854  1.00  0.00     0.042 C 
BRANCH  18  19
ATOM     19  C   UNL     1     -10.065 -25.853 -42.268  1.00  0.00     0.030 CG0
ATOM     20  G   UNL     1     -10.396 -26.155 -40.822  1.00  0.00     0.000 G0
ENDBRANCH  18  19
ENDBRANCH  15  18
ENDBRANCH   1  14
TORSDOF 0
ENDMDL
MODEL 8
REMARK VINA RESULT:    -2.646      1.980      3.682
REMARK INTER + INTRA:          -4.022
REMARK INTER:                  -3.556
REMARK INTRA:                  -0.467
REMARK UNBOUND:                -0.448
REMARK SMILES C=C1C(=O)O[C@H]2[C@@H]1CCC(C)=CCC[C@]1(C)O[C@H]21
REMARK SMILES IDX 6 1 7 2 2 3 1 4 3 5 4 6 5 7 8 8 9 9 10 10 11 11 12 12 18 14
REMARK SMILES IDX 15 15 17 16 16 17 14 18 13 19
REMARK H PARENT
REMARK Flexibility Score: 70.00
ROOT
ATOM      1  C   UNL     1     -11.635 -25.198 -42.109  1.00  0.00     0.216 C 
ATOM      2  C   UNL     1     -11.115 -26.332 -43.084  1.00  0.00     0.070 C 
ATOM      3  C   UNL     1      -9.731 -26.611 -42.573  1.00  0.00     0.037 C 
ATOM      4  C   UNL     1      -8.830 -27.414 -43.140  1.00  0.00     0.021 C 
ATOM      5  C   UNL     1      -9.506 -25.782 -41.412  1.00  0.00     0.334 C 
ATOM      6  O   UNL     1      -8.452 -25.760 -40.723  1.00  0.00    -0.247 OA
ATOM      7  O   UNL     1     -10.617 -25.014 -41.128  1.00  0.00    -0.455 OA
ENDROOT
BRANCH   2   8
ATOM      8  C   UNL     1     -11.956 -27.613 -43.355  1.00  0.00     0.017 C 
BRANCH   8   9
ATOM      9  C   UNL     1     -13.131 -27.499 -44.369  1.00  0.00     0.031 C 
BRANCH   9  10
ATOM     10  C   UNL     1     -12.824 -26.516 -45.481  1.00  0.00    -0.077 C 
ATOM     11  C   UNL     1     -11.758 -26.887 -46.482  1.00  0.00     0.039 C 
ATOM     12  C   UNL     1     -13.411 -25.301 -45.602  1.00  0.00    -0.028 CG0
ATOM     13  G   UNL     1     -14.536 -24.756 -44.748  1.00  0.00     0.000 G0
ENDBRANCH   9  10
ENDBRANCH   8   9
ENDBRANCH   2   8
BRANCH   1  14
ATOM     14  C   UNL     1     -13.056 -25.176 -41.474  1.00  0.00     0.192 C 
ATOM     15  C   UNL     1     -14.244 -24.577 -42.170  1.00  0.00     0.096 C 
ATOM     16  O   UNL     1     -13.538 -23.895 -41.162  1.00  0.00    -0.362 OA
ATOM     17  C   UNL     1     -15.634 -24.995 -41.689  1.00  0.00     0.045 C 
BRANCH  15  18
ATOM     18  C   UNL     1     -14.135 -23.888 -43.546  1.00  0.00     0.042 C 
BRANCH  18  19
ATOM     19  C   UNL     1     -14.548 -24.751 -44.755  1.00  0.00     0.030 CG0
ATOM     20  G   UNL     1     -13.419 -25.301 -45.600  1.00  0.00     0.000 G0
ENDBRANCH  18  19
ENDBRANCH  15  18
ENDBRANCH   1  14
TORSDOF 0
ENDMDL
