MODEL 1
REMARK VINA RESULT:    -4.532      0.000      0.000
REMARK INTER + INTRA:          -4.890
REMARK INTER:                  -4.797
REMARK INTRA:                  -0.093
REMARK UNBOUND:                -0.093
REMARK SMILES C=C(C)[C@H]1CC=C(C)C(=O)C1
REMARK SMILES IDX 8 1 7 2 6 3 5 4 4 5 11 6 9 7 10 8 2 9 1 10 3 11
REMARK H PARENT
REMARK Flexibility Score: inf
ROOT
ATOM      1  C   UNL     1      17.826  61.523  23.068  1.00  0.00     0.048 C 
ATOM      2  C   UNL     1      16.526  61.322  22.339  1.00  0.00    -0.012 C 
ATOM      3  C   UNL     1      15.373  61.714  22.909  1.00  0.00    -0.019 C 
ATOM      4  C   UNL     1      14.042  61.521  22.232  1.00  0.00     0.036 C 
ATOM      5  C   UNL     1      14.177  61.628  20.702  1.00  0.00     0.025 C 
ATOM      6  C   UNL     1      15.241  60.639  20.189  1.00  0.00     0.089 C 
ATOM      7  C   UNL     1      16.529  60.809  20.946  1.00  0.00     0.158 C 
ATOM      8  O   UNL     1      17.613  60.474  20.397  1.00  0.00    -0.295 OA
ENDROOT
BRANCH   5   9
ATOM      9  C   UNL     1      12.839  61.426  20.003  1.00  0.00    -0.077 C 
ATOM     10  C   UNL     1      12.143  60.284  20.142  1.00  0.00     0.008 C 
ATOM     11  C   UNL     1      12.267  62.516  19.135  1.00  0.00     0.039 C 
ENDBRANCH   5   9
TORSDOF 1
ENDMDL
MODEL 2
REMARK VINA RESULT:    -4.493     15.432     16.833
REMARK INTER + INTRA:          -4.849
REMARK INTER:                  -4.756
REMARK INTRA:                  -0.093
REMARK UNBOUND:                -0.093
REMARK SMILES C=C(C)[C@H]1CC=C(C)C(=O)C1
REMARK SMILES IDX 8 1 7 2 6 3 5 4 4 5 11 6 9 7 10 8 2 9 1 10 3 11
REMARK H PARENT
REMARK Flexibility Score: inf
ROOT
ATOM      1  C   UNL     1      19.350  52.104  32.322  1.00  0.00     0.048 C 
ATOM      2  C   UNL     1      18.267  52.325  33.343  1.00  0.00    -0.012 C 
ATOM      3  C   UNL     1      16.995  52.007  33.048  1.00  0.00    -0.019 C 
ATOM      4  C   UNL     1      15.871  52.224  34.026  1.00  0.00     0.036 C 
ATOM      5  C   UNL     1      16.355  52.041  35.477  1.00  0.00     0.025 C 
ATOM      6  C   UNL     1      17.558  52.960  35.759  1.00  0.00     0.089 C 
ATOM      7  C   UNL     1      18.623  52.773  34.713  1.00  0.00     0.158 C 
ATOM      8  O   UNL     1      19.821  53.036  35.003  1.00  0.00    -0.295 OA
ENDROOT
BRANCH   5   9
ATOM      9  C   UNL     1      15.230  52.266  36.478  1.00  0.00    -0.077 C 
ATOM     10  C   UNL     1      14.551  53.426  36.519  1.00  0.00     0.008 C 
ATOM     11  C   UNL     1      14.854  51.178  37.451  1.00  0.00     0.039 C 
ENDBRANCH   5   9
TORSDOF 1
ENDMDL
MODEL 3
REMARK VINA RESULT:    -4.335     15.433     16.501
REMARK INTER + INTRA:          -4.681
REMARK INTER:                  -4.584
REMARK INTRA:                  -0.097
REMARK UNBOUND:                -0.093
REMARK SMILES C=C(C)[C@H]1CC=C(C)C(=O)C1
REMARK SMILES IDX 8 1 7 2 6 3 5 4 4 5 11 6 9 7 10 8 2 9 1 10 3 11
REMARK H PARENT
REMARK Flexibility Score: inf
ROOT
ATOM      1  C   UNL     1      20.418  53.426  33.439  1.00  0.00     0.048 C 
ATOM      2  C   UNL     1      19.038  53.284  34.022  1.00  0.00    -0.012 C 
ATOM      3  C   UNL     1      18.549  52.061  34.292  1.00  0.00    -0.019 C 
ATOM      4  C   UNL     1      17.169  51.861  34.859  1.00  0.00     0.036 C 
ATOM      5  C   UNL     1      16.772  53.030  35.780  1.00  0.00     0.025 C 
ATOM      6  C   UNL     1      16.907  54.369  35.032  1.00  0.00     0.089 C 
ATOM      7  C   UNL     1      18.271  54.494  34.412  1.00  0.00     0.158 C 
ATOM      8  O   UNL     1      18.743  55.642  34.192  1.00  0.00    -0.295 OA
ENDROOT
BRANCH   5   9
ATOM      9  C   UNL     1      15.373  52.845  36.353  1.00  0.00    -0.077 C 
ATOM     10  C   UNL     1      14.421  53.780  36.190  1.00  0.00     0.008 C 
ATOM     11  C   UNL     1      15.029  51.594  37.120  1.00  0.00     0.039 C 
ENDBRANCH   5   9
TORSDOF 1
ENDMDL
MODEL 4
REMARK VINA RESULT:    -4.248     15.571     16.394
REMARK INTER + INTRA:          -4.590
REMARK INTER:                  -4.496
REMARK INTRA:                  -0.094
REMARK UNBOUND:                -0.093
REMARK SMILES C=C(C)[C@H]1CC=C(C)C(=O)C1
REMARK SMILES IDX 8 1 7 2 6 3 5 4 4 5 11 6 9 7 10 8 2 9 1 10 3 11
REMARK H PARENT
REMARK Flexibility Score: inf
ROOT
ATOM      1  C   UNL     1      20.351  52.701  32.919  1.00  0.00     0.048 C 
ATOM      2  C   UNL     1      19.131  52.641  33.798  1.00  0.00    -0.012 C 
ATOM      3  C   UNL     1      19.162  53.194  35.023  1.00  0.00    -0.019 C 
ATOM      4  C   UNL     1      17.977  53.147  35.949  1.00  0.00     0.036 C 
ATOM      5  C   UNL     1      16.654  53.184  35.161  1.00  0.00     0.025 C 
ATOM      6  C   UNL     1      16.623  52.052  34.116  1.00  0.00     0.089 C 
ATOM      7  C   UNL     1      17.863  52.084  33.265  1.00  0.00     0.158 C 
ATOM      8  O   UNL     1      17.822  51.598  32.103  1.00  0.00    -0.295 OA
ENDROOT
BRANCH   5   9
ATOM      9  C   UNL     1      15.445  53.127  36.086  1.00  0.00    -0.077 C 
ATOM     10  C   UNL     1      15.375  52.237  37.091  1.00  0.00     0.008 C 
ATOM     11  C   UNL     1      14.296  54.081  35.887  1.00  0.00     0.039 C 
ENDBRANCH   5   9
TORSDOF 1
ENDMDL
MODEL 5
REMARK VINA RESULT:    -4.236     15.203     15.864
REMARK INTER + INTRA:          -4.576
REMARK INTER:                  -4.479
REMARK INTRA:                  -0.097
REMARK UNBOUND:                -0.093
REMARK SMILES C=C(C)[C@H]1CC=C(C)C(=O)C1
REMARK SMILES IDX 8 1 7 2 6 3 5 4 4 5 11 6 9 7 10 8 2 9 1 10 3 11
REMARK H PARENT
REMARK Flexibility Score: inf
ROOT
ATOM      1  C   UNL     1      14.180  61.084  37.874  1.00  0.00     0.048 C 
ATOM      2  C   UNL     1      13.749  62.420  37.335  1.00  0.00    -0.012 C 
ATOM      3  C   UNL     1      14.654  63.403  37.181  1.00  0.00    -0.019 C 
ATOM      4  C   UNL     1      14.274  64.764  36.662  1.00  0.00     0.036 C 
ATOM      5  C   UNL     1      13.115  64.669  35.651  1.00  0.00     0.025 C 
ATOM      6  C   UNL     1      11.919  63.928  36.278  1.00  0.00     0.089 C 
ATOM      7  C   UNL     1      12.356  62.611  36.857  1.00  0.00     0.158 C 
ATOM      8  O   UNL     1      11.515  61.679  36.967  1.00  0.00    -0.295 OA
ENDROOT
BRANCH   5   9
ATOM      9  C   UNL     1      12.714  66.040  35.124  1.00  0.00    -0.077 C 
ATOM     10  C   UNL     1      11.421  66.385  34.985  1.00  0.00     0.008 C 
ATOM     11  C   UNL     1      13.771  67.045  34.747  1.00  0.00     0.039 C 
ENDBRANCH   5   9
TORSDOF 1
ENDMDL
MODEL 6
REMARK VINA RESULT:    -4.224     15.534     16.618
REMARK INTER + INTRA:          -4.564
REMARK INTER:                  -4.468
REMARK INTRA:                  -0.096
REMARK UNBOUND:                -0.093
REMARK SMILES C=C(C)[C@H]1CC=C(C)C(=O)C1
REMARK SMILES IDX 8 1 7 2 6 3 5 4 4 5 11 6 9 7 10 8 2 9 1 10 3 11
REMARK H PARENT
REMARK Flexibility Score: inf
ROOT
ATOM      1  C   UNL     1      15.249  52.578  36.963  1.00  0.00     0.048 C 
ATOM      2  C   UNL     1      16.252  52.605  35.843  1.00  0.00    -0.012 C 
ATOM      3  C   UNL     1      17.512  53.007  36.083  1.00  0.00    -0.019 C 
ATOM      4  C   UNL     1      18.551  53.071  34.995  1.00  0.00     0.036 C 
ATOM      5  C   UNL     1      18.320  51.970  33.942  1.00  0.00     0.025 C 
ATOM      6  C   UNL     1      16.886  52.055  33.386  1.00  0.00     0.089 C 
ATOM      7  C   UNL     1      15.884  52.072  34.507  1.00  0.00     0.158 C 
ATOM      8  O   UNL     1      14.712  51.661  34.289  1.00  0.00    -0.295 OA
ENDROOT
BRANCH   5   9
ATOM      9  C   UNL     1      19.358  52.028  32.830  1.00  0.00    -0.077 C 
ATOM     10  C   UNL     1      20.434  52.830  32.918  1.00  0.00     0.008 C 
ATOM     11  C   UNL     1      19.196  51.176  31.598  1.00  0.00     0.039 C 
ENDBRANCH   5   9
TORSDOF 1
ENDMDL
MODEL 7
REMARK VINA RESULT:    -4.222      1.777      4.809
REMARK INTER + INTRA:          -4.562
REMARK INTER:                  -4.467
REMARK INTRA:                  -0.095
REMARK UNBOUND:                -0.093
REMARK SMILES C=C(C)[C@H]1CC=C(C)C(=O)C1
REMARK SMILES IDX 8 1 7 2 6 3 5 4 4 5 11 6 9 7 10 8 2 9 1 10 3 11
REMARK H PARENT
REMARK Flexibility Score: inf
ROOT
ATOM      1  C   UNL     1      12.741  61.175  19.463  1.00  0.00     0.048 C 
ATOM      2  C   UNL     1      13.977  61.130  20.319  1.00  0.00    -0.012 C 
ATOM      3  C   UNL     1      15.157  60.787  19.773  1.00  0.00    -0.019 C 
ATOM      4  C   UNL     1      16.420  60.708  20.587  1.00  0.00     0.036 C 
ATOM      5  C   UNL     1      16.413  61.747  21.724  1.00  0.00     0.025 C 
ATOM      6  C   UNL     1      15.150  61.583  22.590  1.00  0.00     0.089 C 
ATOM      7  C   UNL     1      13.916  61.584  21.731  1.00  0.00     0.158 C 
ATOM      8  O   UNL     1      12.817  61.940  22.235  1.00  0.00    -0.295 OA
ENDROOT
BRANCH   5   9
ATOM      9  C   UNL     1      17.683  61.673  22.562  1.00  0.00    -0.077 C 
ATOM     10  C   UNL     1      17.970  62.611  23.482  1.00  0.00     0.008 C 
ATOM     11  C   UNL     1      18.648  60.532  22.374  1.00  0.00     0.039 C 
ENDBRANCH   5   9
TORSDOF 1
ENDMDL
MODEL 8
REMARK VINA RESULT:    -4.156     15.086     16.272
REMARK INTER + INTRA:          -4.492
REMARK INTER:                  -4.399
REMARK INTRA:                  -0.093
REMARK UNBOUND:                -0.093
REMARK SMILES C=C(C)[C@H]1CC=C(C)C(=O)C1
REMARK SMILES IDX 8 1 7 2 6 3 5 4 4 5 11 6 9 7 10 8 2 9 1 10 3 11
REMARK H PARENT
REMARK Flexibility Score: inf
ROOT
ATOM      1  C   UNL     1       9.881  66.022  35.490  1.00  0.00     0.048 C 
ATOM      2  C   UNL     1      11.088  65.148  35.698  1.00  0.00    -0.012 C 
ATOM      3  C   UNL     1      12.289  65.547  35.246  1.00  0.00    -0.019 C 
ATOM      4  C   UNL     1      13.525  64.704  35.412  1.00  0.00     0.036 C 
ATOM      5  C   UNL     1      13.468  63.886  36.716  1.00  0.00     0.025 C 
ATOM      6  C   UNL     1      12.178  63.045  36.763  1.00  0.00     0.089 C 
ATOM      7  C   UNL     1      10.974  63.910  36.511  1.00  0.00     0.158 C 
ATOM      8  O   UNL     1       9.854  63.553  36.967  1.00  0.00    -0.295 OA
ENDROOT
BRANCH   5   9
ATOM      9  C   UNL     1      14.708  63.021  36.892  1.00  0.00    -0.077 C 
ATOM     10  C   UNL     1      15.112  62.616  38.109  1.00  0.00     0.008 C 
ATOM     11  C   UNL     1      15.512  62.597  35.690  1.00  0.00     0.039 C 
ENDBRANCH   5   9
TORSDOF 1
ENDMDL
MODEL 9
REMARK VINA RESULT:    -4.080      1.412      2.316
REMARK INTER + INTRA:          -4.411
REMARK INTER:                  -4.318
REMARK INTRA:                  -0.093
REMARK UNBOUND:                -0.093
REMARK SMILES C=C(C)[C@H]1CC=C(C)C(=O)C1
REMARK SMILES IDX 8 1 7 2 6 3 5 4 4 5 11 6 9 7 10 8 2 9 1 10 3 11
REMARK H PARENT
REMARK Flexibility Score: inf
ROOT
ATOM      1  C   UNL     1      18.696  60.528  22.251  1.00  0.00     0.048 C 
ATOM      2  C   UNL     1      17.318  60.816  21.721  1.00  0.00    -0.012 C 
ATOM      3  C   UNL     1      17.002  60.475  20.460  1.00  0.00    -0.019 C 
ATOM      4  C   UNL     1      15.644  60.756  19.873  1.00  0.00     0.036 C 
ATOM      5  C   UNL     1      14.547  60.677  20.952  1.00  0.00     0.025 C 
ATOM      6  C   UNL     1      14.882  61.618  22.125  1.00  0.00     0.089 C 
ATOM      7  C   UNL     1      16.276  61.360  22.627  1.00  0.00     0.158 C 
ATOM      8  O   UNL     1      16.561  61.647  23.821  1.00  0.00    -0.295 OA
ENDROOT
BRANCH   5   9
ATOM      9  C   UNL     1      13.168  60.969  20.374  1.00  0.00    -0.077 C 
ATOM     10  C   UNL     1      12.899  62.134  19.761  1.00  0.00     0.008 C 
ATOM     11  C   UNL     1      12.071  59.942  20.482  1.00  0.00     0.039 C 
ENDBRANCH   5   9
TORSDOF 1
ENDMDL
