MODEL 1
REMARK VINA RESULT:    -4.121      0.000      0.000
REMARK INTER + INTRA:          -6.384
REMARK INTER:                  -6.289
REMARK INTRA:                  -0.095
REMARK UNBOUND:                -0.095
REMARK SMILES CC1=CCC[C@H](C)C(=O)C[C@@H](C(C)C)C(=O)C1
REMARK SMILES IDX 8 1 9 2 6 3 7 4 5 5 4 6 3 7 2 8 1 9 10 11 11 12 15 13 16 14
REMARK SMILES IDX 17 15 12 17 13 18 14 19
REMARK H PARENT
REMARK Flexibility Score: 70.00
ROOT
ATOM      1  C   UNL     1      50.243  32.728  31.489  1.00  0.00     0.136 C 
ATOM      2  O   UNL     1      49.731  32.388  30.433  1.00  0.00    -0.299 OA
ENDROOT
BRANCH   1   3
ATOM      3  C   UNL     1      51.530  32.077  31.953  1.00  0.00     0.053 C 
ATOM      4  C   UNL     1      51.981  31.053  30.906  1.00  0.00     0.016 C 
BRANCH   3   5
ATOM      5  C   UNL     1      52.658  33.102  32.220  1.00  0.00     0.015 C 
BRANCH   5   6
ATOM      6  C   UNL     1      52.887  34.091  31.064  1.00  0.00     0.028 C 
BRANCH   6   7
ATOM      7  C   UNL     1      53.370  35.431  31.568  1.00  0.00    -0.028 C 
ATOM      8  C   UNL     1      52.655  36.578  31.558  1.00  0.00    -0.070 CG0
ATOM      9  C   UNL     1      53.305  37.822  32.113  1.00  0.00     0.039 C 
ATOM     10  G   UNL     1      51.242  36.667  31.015  1.00  0.00     0.000 G0
ENDBRANCH   6   7
ENDBRANCH   5   6
ENDBRANCH   3   5
ENDBRANCH   1   3
BRANCH   1  11
ATOM     11  C   UNL     1      49.540  33.749  32.353  1.00  0.00     0.087 C 
BRANCH  11  12
ATOM     12  C   UNL     1      49.233  35.048  31.574  1.00  0.00     0.066 C 
BRANCH  12  13
ATOM     13  C   UNL     1      50.191  36.159  31.978  1.00  0.00     0.140 C 
ATOM     14  O   UNL     1      50.121  36.643  33.098  1.00  0.00    -0.299 OA
BRANCH  13  15
ATOM     15  C   UNL     1      51.226  36.694  31.019  1.00  0.00     0.106 CG0
ATOM     16  G   UNL     1      52.637  36.565  31.562  1.00  0.00     0.000 G0
ENDBRANCH  13  15
ENDBRANCH  12  13
BRANCH  12  17
ATOM     17  C   UNL     1      47.735  35.465  31.695  1.00  0.00    -0.006 C 
ATOM     18  C   UNL     1      47.333  36.650  30.798  1.00  0.00     0.008 C 
ATOM     19  C   UNL     1      46.800  34.273  31.439  1.00  0.00     0.008 C 
ENDBRANCH  12  17
ENDBRANCH  11  12
ENDBRANCH   1  11
TORSDOF 1
ENDMDL
MODEL 2
REMARK VINA RESULT:    -4.025      2.007      4.371
REMARK INTER + INTRA:          -6.237
REMARK INTER:                  -6.008
REMARK INTRA:                  -0.230
REMARK UNBOUND:                -0.095
REMARK SMILES CC1=CCC[C@H](C)C(=O)C[C@@H](C(C)C)C(=O)C1
REMARK SMILES IDX 8 1 9 2 6 3 7 4 5 5 4 6 3 7 2 8 1 9 10 11 11 12 15 13 16 14
REMARK SMILES IDX 17 15 12 17 13 18 14 19
REMARK H PARENT
REMARK Flexibility Score: 70.00
ROOT
ATOM      1  C   UNL     1      53.102  32.744  31.813  1.00  0.00     0.136 C 
ATOM      2  O   UNL     1      53.668  31.899  32.492  1.00  0.00    -0.299 OA
ENDROOT
BRANCH   1   3
ATOM      3  C   UNL     1      51.711  32.478  31.275  1.00  0.00     0.053 C 
ATOM      4  C   UNL     1      51.714  31.152  30.506  1.00  0.00     0.016 C 
BRANCH   3   5
ATOM      5  C   UNL     1      50.634  32.450  32.387  1.00  0.00     0.015 C 
BRANCH   5   6
ATOM      6  C   UNL     1      50.288  33.839  32.952  1.00  0.00     0.028 C 
BRANCH   6   7
ATOM      7  C   UNL     1      49.845  34.786  31.860  1.00  0.00    -0.028 C 
ATOM      8  C   UNL     1      50.352  36.019  31.637  1.00  0.00    -0.070 CG0
ATOM      9  C   UNL     1      49.786  36.820  30.491  1.00  0.00     0.039 C 
ATOM     10  G   UNL     1      51.454  36.626  32.484  1.00  0.00     0.000 G0
ENDBRANCH   6   7
ENDBRANCH   5   6
ENDBRANCH   3   5
ENDBRANCH   1   3
BRANCH   1  11
ATOM     11  C   UNL     1      53.834  34.018  31.463  1.00  0.00     0.087 C 
BRANCH  11  12
ATOM     12  C   UNL     1      53.631  35.112  32.536  1.00  0.00     0.066 C 
BRANCH  12  13
ATOM     13  C   UNL     1      52.844  36.284  31.969  1.00  0.00     0.140 C 
ATOM     14  O   UNL     1      53.339  36.980  31.094  1.00  0.00    -0.299 OA
BRANCH  13  15
ATOM     15  C   UNL     1      51.464  36.625  32.472  1.00  0.00     0.106 CG0
ATOM     16  G   UNL     1      50.370  35.999  31.627  1.00  0.00     0.000 G0
ENDBRANCH  13  15
ENDBRANCH  12  13
BRANCH  12  17
ATOM     17  C   UNL     1      54.976  35.546  33.195  1.00  0.00    -0.006 C 
ATOM     18  C   UNL     1      54.829  36.126  34.613  1.00  0.00     0.008 C 
ATOM     19  C   UNL     1      55.992  34.393  33.203  1.00  0.00     0.008 C 
ENDBRANCH  12  17
ENDBRANCH  11  12
ENDBRANCH   1  11
TORSDOF 1
ENDMDL
MODEL 3
REMARK VINA RESULT:    -4.011      2.467      3.546
REMARK INTER + INTRA:          -6.217
REMARK INTER:                  -5.981
REMARK INTRA:                  -0.236
REMARK UNBOUND:                -0.095
REMARK SMILES CC1=CCC[C@H](C)C(=O)C[C@@H](C(C)C)C(=O)C1
REMARK SMILES IDX 8 1 9 2 6 3 7 4 5 5 4 6 3 7 2 8 1 9 10 11 11 12 15 13 16 14
REMARK SMILES IDX 17 15 12 17 13 18 14 19
REMARK H PARENT
REMARK Flexibility Score: 70.00
ROOT
ATOM      1  C   UNL     1      54.091  32.346  32.382  1.00  0.00     0.136 C 
ATOM      2  O   UNL     1      53.589  31.360  31.862  1.00  0.00    -0.299 OA
ENDROOT
BRANCH   1   3
ATOM      3  C   UNL     1      55.596  32.441  32.530  1.00  0.00     0.053 C 
ATOM      4  C   UNL     1      56.232  32.563  31.142  1.00  0.00     0.016 C 
BRANCH   3   5
ATOM      5  C   UNL     1      56.036  33.623  33.427  1.00  0.00     0.015 C 
BRANCH   5   6
ATOM      6  C   UNL     1      56.477  34.870  32.641  1.00  0.00     0.028 C 
BRANCH   6   7
ATOM      7  C   UNL     1      56.015  36.141  33.314  1.00  0.00    -0.028 C 
ATOM      8  C   UNL     1      54.942  36.879  32.947  1.00  0.00    -0.070 CG0
ATOM      9  C   UNL     1      54.630  38.120  33.747  1.00  0.00     0.039 C 
ATOM     10  G   UNL     1      54.050  36.515  31.775  1.00  0.00     0.000 G0
ENDBRANCH   6   7
ENDBRANCH   5   6
ENDBRANCH   3   5
ENDBRANCH   1   3
BRANCH   1  11
ATOM     11  C   UNL     1      53.192  33.428  32.932  1.00  0.00     0.087 C 
BRANCH  11  12
ATOM     12  C   UNL     1      52.614  34.321  31.811  1.00  0.00     0.066 C 
BRANCH  12  13
ATOM     13  C   UNL     1      52.797  35.794  32.147  1.00  0.00     0.140 C 
ATOM     14  O   UNL     1      51.908  36.398  32.730  1.00  0.00    -0.299 OA
BRANCH  13  15
ATOM     15  C   UNL     1      54.050  36.540  31.764  1.00  0.00     0.106 CG0
ATOM     16  G   UNL     1      54.922  36.859  32.963  1.00  0.00     0.000 G0
ENDBRANCH  13  15
ENDBRANCH  12  13
BRANCH  12  17
ATOM     17  C   UNL     1      51.136  33.955  31.471  1.00  0.00    -0.006 C 
ATOM     18  C   UNL     1      50.970  33.105  30.199  1.00  0.00     0.008 C 
ATOM     19  C   UNL     1      50.444  33.267  32.657  1.00  0.00     0.008 C 
ENDBRANCH  12  17
ENDBRANCH  11  12
ENDBRANCH   1  11
TORSDOF 1
ENDMDL
MODEL 4
REMARK VINA RESULT:    -3.953      2.663      4.004
REMARK INTER + INTRA:          -6.127
REMARK INTER:                  -6.196
REMARK INTRA:                   0.069
REMARK UNBOUND:                -0.095
REMARK SMILES CC1=CCC[C@H](C)C(=O)C[C@@H](C(C)C)C(=O)C1
REMARK SMILES IDX 8 1 9 2 6 3 7 4 5 5 4 6 3 7 2 8 1 9 10 11 11 12 15 13 16 14
REMARK SMILES IDX 17 15 12 17 13 18 14 19
REMARK H PARENT
REMARK Flexibility Score: 70.00
ROOT
ATOM      1  C   UNL     1      51.711  33.013  31.245  1.00  0.00     0.136 C 
ATOM      2  O   UNL     1      51.499  33.483  30.136  1.00  0.00    -0.299 OA
ENDROOT
BRANCH   1   3
ATOM      3  C   UNL     1      51.661  31.513  31.454  1.00  0.00     0.053 C 
ATOM      4  C   UNL     1      50.573  30.915  30.556  1.00  0.00     0.016 C 
BRANCH   3   5
ATOM      5  C   UNL     1      53.020  30.824  31.181  1.00  0.00     0.015 C 
BRANCH   5   6
ATOM      6  C   UNL     1      54.002  30.895  32.363  1.00  0.00     0.028 C 
BRANCH   6   7
ATOM      7  C   UNL     1      55.267  31.632  31.989  1.00  0.00    -0.028 C 
ATOM      8  C   UNL     1      55.581  32.893  32.363  1.00  0.00    -0.070 CG0
ATOM      9  C   UNL     1      56.898  33.462  31.896  1.00  0.00     0.039 C 
ATOM     10  G   UNL     1      54.672  33.751  33.222  1.00  0.00     0.000 G0
ENDBRANCH   6   7
ENDBRANCH   5   6
ENDBRANCH   3   5
ENDBRANCH   1   3
BRANCH   1  11
ATOM     11  C   UNL     1      51.953  33.947  32.407  1.00  0.00     0.087 C 
BRANCH  11  12
ATOM     12  C   UNL     1      52.813  35.164  31.998  1.00  0.00     0.066 C 
BRANCH  12  13
ATOM     13  C   UNL     1      54.230  35.027  32.535  1.00  0.00     0.140 C 
ATOM     14  O   UNL     1      55.026  35.944  32.388  1.00  0.00    -0.299 OA
BRANCH  13  15
ATOM     15  C   UNL     1      54.690  33.774  33.237  1.00  0.00     0.106 CG0
ATOM     16  G   UNL     1      55.561  32.902  32.352  1.00  0.00     0.000 G0
ENDBRANCH  13  15
ENDBRANCH  12  13
BRANCH  12  17
ATOM     17  C   UNL     1      52.143  36.516  32.393  1.00  0.00    -0.006 C 
ATOM     18  C   UNL     1      52.304  37.632  31.346  1.00  0.00     0.008 C 
ATOM     19  C   UNL     1      50.656  36.325  32.731  1.00  0.00     0.008 C 
ENDBRANCH  12  17
ENDBRANCH  11  12
ENDBRANCH   1  11
TORSDOF 1
ENDMDL
MODEL 5
REMARK VINA RESULT:    -3.853      3.974      6.420
REMARK INTER + INTRA:          -5.975
REMARK INTER:                  -6.051
REMARK INTRA:                   0.076
REMARK UNBOUND:                -0.095
REMARK SMILES CC1=CCC[C@H](C)C(=O)C[C@@H](C(C)C)C(=O)C1
REMARK SMILES IDX 8 1 9 2 6 3 7 4 5 5 4 6 3 7 2 8 1 9 10 11 11 12 15 13 16 14
REMARK SMILES IDX 17 15 12 17 13 18 14 19
REMARK H PARENT
REMARK Flexibility Score: 70.00
ROOT
ATOM      1  C   UNL     1      54.521  31.676  31.963  1.00  0.00     0.136 C 
ATOM      2  O   UNL     1      54.615  30.698  32.690  1.00  0.00    -0.299 OA
ENDROOT
BRANCH   1   3
ATOM      3  C   UNL     1      53.160  32.132  31.478  1.00  0.00     0.053 C 
ATOM      4  C   UNL     1      52.182  30.955  31.543  1.00  0.00     0.016 C 
BRANCH   3   5
ATOM      5  C   UNL     1      52.608  33.333  32.283  1.00  0.00     0.015 C 
BRANCH   5   6
ATOM      6  C   UNL     1      53.094  34.701  31.772  1.00  0.00     0.028 C 
BRANCH   6   7
ATOM      7  C   UNL     1      53.635  35.552  32.897  1.00  0.00    -0.028 C 
ATOM      8  C   UNL     1      54.944  35.740  33.180  1.00  0.00    -0.070 CG0
ATOM      9  C   UNL     1      55.295  36.633  34.344  1.00  0.00     0.039 C 
ATOM     10  G   UNL     1      56.063  35.093  32.385  1.00  0.00     0.000 G0
ENDBRANCH   6   7
ENDBRANCH   5   6
ENDBRANCH   3   5
ENDBRANCH   1   3
BRANCH   1  11
ATOM     11  C   UNL     1      55.778  32.375  31.503  1.00  0.00     0.087 C 
BRANCH  11  12
ATOM     12  C   UNL     1      56.790  32.559  32.656  1.00  0.00     0.066 C 
BRANCH  12  13
ATOM     13  C   UNL     1      56.799  34.001  33.141  1.00  0.00     0.140 C 
ATOM     14  O   UNL     1      57.386  34.291  34.173  1.00  0.00    -0.299 OA
BRANCH  13  15
ATOM     15  C   UNL     1      56.085  35.092  32.382  1.00  0.00     0.106 CG0
ATOM     16  G   UNL     1      54.971  35.726  33.194  1.00  0.00     0.000 G0
ENDBRANCH  13  15
ENDBRANCH  12  13
BRANCH  12  17
ATOM     17  C   UNL     1      58.210  32.035  32.282  1.00  0.00    -0.006 C 
ATOM     18  C   UNL     1      58.326  30.501  32.226  1.00  0.00     0.008 C 
ATOM     19  C   UNL     1      58.701  32.647  30.961  1.00  0.00     0.008 C 
ENDBRANCH  12  17
ENDBRANCH  11  12
ENDBRANCH   1  11
TORSDOF 1
ENDMDL
MODEL 6
REMARK VINA RESULT:    -3.846      2.457      4.761
REMARK INTER + INTRA:          -5.964
REMARK INTER:                  -6.190
REMARK INTRA:                   0.226
REMARK UNBOUND:                -0.095
REMARK SMILES CC1=CCC[C@H](C)C(=O)C[C@@H](C(C)C)C(=O)C1
REMARK SMILES IDX 8 1 9 2 6 3 7 4 5 5 4 6 3 7 2 8 1 9 10 11 11 12 15 13 16 14
REMARK SMILES IDX 17 15 12 17 13 18 14 19
REMARK H PARENT
REMARK Flexibility Score: 70.00
ROOT
ATOM      1  C   UNL     1      51.913  34.234  30.749  1.00  0.00     0.136 C 
ATOM      2  O   UNL     1      51.357  33.342  30.125  1.00  0.00    -0.299 OA
ENDROOT
BRANCH   1   3
ATOM      3  C   UNL     1      51.148  35.488  31.122  1.00  0.00     0.053 C 
ATOM      4  C   UNL     1      50.678  35.377  32.577  1.00  0.00     0.016 C 
BRANCH   3   5
ATOM      5  C   UNL     1      51.979  36.778  30.925  1.00  0.00     0.015 C 
BRANCH   5   6
ATOM      6  C   UNL     1      52.411  37.447  32.242  1.00  0.00     0.028 C 
BRANCH   6   7
ATOM      7  C   UNL     1      53.911  37.616  32.311  1.00  0.00    -0.028 C 
ATOM      8  C   UNL     1      54.758  36.828  33.011  1.00  0.00    -0.070 CG0
ATOM      9  C   UNL     1      56.232  37.148  32.955  1.00  0.00     0.039 C 
ATOM     10  G   UNL     1      54.293  35.650  33.846  1.00  0.00     0.000 G0
ENDBRANCH   6   7
ENDBRANCH   5   6
ENDBRANCH   3   5
ENDBRANCH   1   3
BRANCH   1  11
ATOM     11  C   UNL     1      53.381  34.099  31.078  1.00  0.00     0.087 C 
BRANCH  11  12
ATOM     12  C   UNL     1      53.603  33.506  32.488  1.00  0.00     0.066 C 
BRANCH  12  13
ATOM     13  C   UNL     1      54.641  34.312  33.255  1.00  0.00     0.140 C 
ATOM     14  O   UNL     1      55.772  33.870  33.394  1.00  0.00    -0.299 OA
BRANCH  13  15
ATOM     15  C   UNL     1      54.305  35.650  33.867  1.00  0.00     0.106 CG0
ATOM     16  G   UNL     1      54.761  36.811  33.004  1.00  0.00     0.000 G0
ENDBRANCH  13  15
ENDBRANCH  12  13
BRANCH  12  17
ATOM     17  C   UNL     1      53.932  31.983  32.440  1.00  0.00    -0.006 C 
ATOM     18  C   UNL     1      52.726  31.083  32.116  1.00  0.00     0.008 C 
ATOM     19  C   UNL     1      55.082  31.690  31.464  1.00  0.00     0.008 C 
ENDBRANCH  12  17
ENDBRANCH  11  12
ENDBRANCH   1  11
TORSDOF 1
ENDMDL
MODEL 7
REMARK VINA RESULT:    -3.836      3.185      4.578
REMARK INTER + INTRA:          -5.948
REMARK INTER:                  -5.611
REMARK INTRA:                  -0.338
REMARK UNBOUND:                -0.095
REMARK SMILES CC1=CCC[C@H](C)C(=O)C[C@@H](C(C)C)C(=O)C1
REMARK SMILES IDX 8 1 9 2 6 3 7 4 5 5 4 6 3 7 2 8 1 9 10 11 11 12 15 13 16 14
REMARK SMILES IDX 17 15 12 17 13 18 14 19
REMARK H PARENT
REMARK Flexibility Score: 70.00
ROOT
ATOM      1  C   UNL     1      53.184  33.296  31.911  1.00  0.00     0.136 C 
ATOM      2  O   UNL     1      52.572  33.287  30.853  1.00  0.00    -0.299 OA
ENDROOT
BRANCH   1   3
ATOM      3  C   UNL     1      53.990  32.083  32.330  1.00  0.00     0.053 C 
ATOM      4  C   UNL     1      53.068  30.860  32.383  1.00  0.00     0.016 C 
BRANCH   3   5
ATOM      5  C   UNL     1      55.191  31.809  31.394  1.00  0.00     0.015 C 
BRANCH   5   6
ATOM      6  C   UNL     1      56.303  32.870  31.483  1.00  0.00     0.028 C 
BRANCH   6   7
ATOM      7  C   UNL     1      56.762  33.073  32.909  1.00  0.00    -0.028 C 
ATOM      8  C   UNL     1      56.826  34.262  33.550  1.00  0.00    -0.070 CG0
ATOM      9  C   UNL     1      57.304  34.268  34.981  1.00  0.00     0.039 C 
ATOM     10  G   UNL     1      56.444  35.576  32.897  1.00  0.00     0.000 G0
ENDBRANCH   6   7
ENDBRANCH   5   6
ENDBRANCH   3   5
ENDBRANCH   1   3
BRANCH   1  11
ATOM     11  C   UNL     1      53.069  34.498  32.818  1.00  0.00     0.087 C 
BRANCH  11  12
ATOM     12  C   UNL     1      53.872  35.703  32.282  1.00  0.00     0.066 C 
BRANCH  12  13
ATOM     13  C   UNL     1      55.035  36.031  33.207  1.00  0.00     0.140 C 
ATOM     14  O   UNL     1      54.838  36.681  34.223  1.00  0.00    -0.299 OA
BRANCH  13  15
ATOM     15  C   UNL     1      56.442  35.585  32.894  1.00  0.00     0.106 CG0
ATOM     16  G   UNL     1      56.791  34.267  33.559  1.00  0.00     0.000 G0
ENDBRANCH  13  15
ENDBRANCH  12  13
BRANCH  12  17
ATOM     17  C   UNL     1      52.961  36.936  31.993  1.00  0.00    -0.006 C 
ATOM     18  C   UNL     1      53.018  37.439  30.539  1.00  0.00     0.008 C 
ATOM     19  C   UNL     1      51.505  36.660  32.396  1.00  0.00     0.008 C 
ENDBRANCH  12  17
ENDBRANCH  11  12
ENDBRANCH   1  11
TORSDOF 1
ENDMDL
MODEL 8
REMARK VINA RESULT:    -3.729      2.630      5.021
REMARK INTER + INTRA:          -5.786
REMARK INTER:                  -5.748
REMARK INTRA:                  -0.038
REMARK UNBOUND:                -0.095
REMARK SMILES CC1=CCC[C@H](C)C(=O)C[C@@H](C(C)C)C(=O)C1
REMARK SMILES IDX 8 1 9 2 6 3 7 4 5 5 4 6 3 7 2 8 1 9 10 11 11 12 15 13 16 14
REMARK SMILES IDX 17 15 12 17 13 18 14 19
REMARK H PARENT
REMARK Flexibility Score: 70.00
ROOT
ATOM      1  C   UNL     1      53.384  32.679  31.832  1.00  0.00     0.136 C 
ATOM      2  O   UNL     1      53.647  31.856  32.697  1.00  0.00    -0.299 OA
ENDROOT
BRANCH   1   3
ATOM      3  C   UNL     1      52.046  32.631  31.122  1.00  0.00     0.053 C 
ATOM      4  C   UNL     1      50.972  32.154  32.105  1.00  0.00     0.016 C 
BRANCH   3   5
ATOM      5  C   UNL     1      51.643  33.995  30.510  1.00  0.00     0.015 C 
BRANCH   5   6
ATOM      6  C   UNL     1      51.129  35.013  31.543  1.00  0.00     0.028 C 
BRANCH   6   7
ATOM      7  C   UNL     1      51.607  36.411  31.228  1.00  0.00    -0.028 C 
ATOM      8  C   UNL     1      52.604  37.063  31.867  1.00  0.00    -0.070 CG0
ATOM      9  C   UNL     1      52.947  38.458  31.406  1.00  0.00     0.039 C 
ATOM     10  G   UNL     1      53.383  36.458  33.020  1.00  0.00     0.000 G0
ENDBRANCH   6   7
ENDBRANCH   5   6
ENDBRANCH   3   5
ENDBRANCH   1   3
BRANCH   1  11
ATOM     11  C   UNL     1      54.432  33.691  31.435  1.00  0.00     0.087 C 
BRANCH  11  12
ATOM     12  C   UNL     1      55.026  34.416  32.663  1.00  0.00     0.066 C 
BRANCH  12  13
ATOM     13  C   UNL     1      54.728  35.907  32.606  1.00  0.00     0.140 C 
ATOM     14  O   UNL     1      55.592  36.684  32.225  1.00  0.00    -0.299 OA
BRANCH  13  15
ATOM     15  C   UNL     1      53.388  36.460  33.024  1.00  0.00     0.106 CG0
ATOM     16  G   UNL     1      52.619  37.052  31.859  1.00  0.00     0.000 G0
ENDBRANCH  13  15
ENDBRANCH  12  13
BRANCH  12  17
ATOM     17  C   UNL     1      56.543  34.108  32.851  1.00  0.00    -0.006 C 
ATOM     18  C   UNL     1      56.967  33.876  34.313  1.00  0.00     0.008 C 
ATOM     19  C   UNL     1      56.984  32.919  31.983  1.00  0.00     0.008 C 
ENDBRANCH  12  17
ENDBRANCH  11  12
ENDBRANCH   1  11
TORSDOF 1
ENDMDL
MODEL 9
REMARK VINA RESULT:    -3.666      2.853      5.013
REMARK INTER + INTRA:          -5.689
REMARK INTER:                  -5.749
REMARK INTRA:                   0.060
REMARK UNBOUND:                -0.095
REMARK SMILES CC1=CCC[C@H](C)C(=O)C[C@@H](C(C)C)C(=O)C1
REMARK SMILES IDX 8 1 9 2 6 3 7 4 5 5 4 6 3 7 2 8 1 9 10 11 11 12 15 13 16 14
REMARK SMILES IDX 17 15 12 17 13 18 14 19
REMARK H PARENT
REMARK Flexibility Score: 70.00
ROOT
ATOM      1  C   UNL     1      52.509  36.391  31.445  1.00  0.00     0.136 C 
ATOM      2  O   UNL     1      51.424  36.900  31.686  1.00  0.00    -0.299 OA
ENDROOT
BRANCH   1   3
ATOM      3  C   UNL     1      53.769  37.229  31.502  1.00  0.00     0.053 C 
ATOM      4  C   UNL     1      53.683  38.340  30.451  1.00  0.00     0.016 C 
BRANCH   3   5
ATOM      5  C   UNL     1      54.023  37.836  32.903  1.00  0.00     0.015 C 
BRANCH   5   6
ATOM      6  C   UNL     1      54.833  36.922  33.839  1.00  0.00     0.028 C 
BRANCH   6   7
ATOM      7  C   UNL     1      56.048  36.354  33.143  1.00  0.00    -0.028 C 
ATOM      8  C   UNL     1      56.268  35.044  32.893  1.00  0.00    -0.070 CG0
ATOM      9  C   UNL     1      57.542  34.665  32.178  1.00  0.00     0.039 C 
ATOM     10  G   UNL     1      55.300  33.949  33.300  1.00  0.00     0.000 G0
ENDBRANCH   6   7
ENDBRANCH   5   6
ENDBRANCH   3   5
ENDBRANCH   1   3
BRANCH   1  11
ATOM     11  C   UNL     1      52.565  34.941  31.024  1.00  0.00     0.087 C 
BRANCH  11  12
ATOM     12  C   UNL     1      52.881  34.008  32.215  1.00  0.00     0.066 C 
BRANCH  12  13
ATOM     13  C   UNL     1      54.340  33.575  32.187  1.00  0.00     0.140 C 
ATOM     14  O   UNL     1      54.756  32.903  31.255  1.00  0.00    -0.299 OA
BRANCH  13  15
ATOM     15  C   UNL     1      55.293  33.945  33.296  1.00  0.00     0.106 CG0
ATOM     16  G   UNL     1      56.269  35.030  32.883  1.00  0.00     0.000 G0
ENDBRANCH  13  15
ENDBRANCH  12  13
BRANCH  12  17
ATOM     17  C   UNL     1      51.893  32.805  32.298  1.00  0.00    -0.006 C 
ATOM     18  C   UNL     1      50.488  33.172  32.807  1.00  0.00     0.008 C 
ATOM     19  C   UNL     1      51.788  32.074  30.950  1.00  0.00     0.008 C 
ENDBRANCH  12  17
ENDBRANCH  11  12
ENDBRANCH   1  11
TORSDOF 1
ENDMDL
