MODEL 1
REMARK VINA RESULT:    -2.085      0.000      0.000
REMARK INTER + INTRA:          -3.270
REMARK INTER:                  -2.939
REMARK INTRA:                  -0.331
REMARK UNBOUND:                -0.331
REMARK SMILES CCCCCCCCC(=O)[O-]
REMARK SMILES IDX 6 1 7 2 8 3 9 4 10 5 11 6 5 7 4 8 3 9 2 10 1 11
REMARK H PARENT
REMARK Flexibility Score: inf
ROOT
ATOM      1  C   UNL     1     116.212  13.397  24.943  1.00  0.00     0.000 C 
ENDROOT
BRANCH   1   2
ATOM      2  C   UNL     1     115.678  13.076  26.346  1.00  0.00     0.006 C 
BRANCH   2   3
ATOM      3  C   UNL     1     115.735  14.291  27.281  1.00  0.00     0.053 C 
BRANCH   3   4
ATOM      4  C   UNL     1     116.897  14.213  28.222  1.00  0.00     0.041 C 
ATOM      5  O   UNL     1     116.979  13.272  29.054  1.00  0.00    -0.550 OA
ATOM      6  O   UNL     1     117.876  15.200  28.202  1.00  0.00    -0.550 OA
ENDBRANCH   3   4
ENDBRANCH   2   3
ENDBRANCH   1   2
BRANCH   1   7
ATOM      7  C   UNL     1     116.440  12.114  24.135  1.00  0.00     0.000 C 
BRANCH   7   8
ATOM      8  C   UNL     1     116.791  12.435  22.677  1.00  0.00    -0.000 C 
BRANCH   8   9
ATOM      9  C   UNL     1     116.821  13.949  22.438  1.00  0.00    -0.000 C 
BRANCH   9  10
ATOM     10  C   UNL     1     117.961  14.334  21.488  1.00  0.00    -0.003 C 
ATOM     11  C   UNL     1     118.850  15.411  22.101  1.00  0.00     0.004 C 
ENDBRANCH   9  10
ENDBRANCH   8   9
ENDBRANCH   7   8
ENDBRANCH   1   7
TORSDOF 7
ENDMDL
MODEL 2
REMARK VINA RESULT:    -2.053      1.372      2.622
REMARK INTER + INTRA:          -3.224
REMARK INTER:                  -2.523
REMARK INTRA:                  -0.701
REMARK UNBOUND:                -0.331
REMARK SMILES CCCCCCCCC(=O)[O-]
REMARK SMILES IDX 6 1 7 2 8 3 9 4 10 5 11 6 5 7 4 8 3 9 2 10 1 11
REMARK H PARENT
REMARK Flexibility Score: inf
ROOT
ATOM      1  C   UNL     1     115.931  15.699  24.797  1.00  0.00     0.000 C 
ENDROOT
BRANCH   1   2
ATOM      2  C   UNL     1     116.915  15.489  25.957  1.00  0.00     0.006 C 
BRANCH   2   3
ATOM      3  C   UNL     1     116.489  14.337  26.877  1.00  0.00     0.053 C 
BRANCH   3   4
ATOM      4  C   UNL     1     117.194  14.392  28.197  1.00  0.00     0.041 C 
ATOM      5  O   UNL     1     116.916  13.560  29.100  1.00  0.00    -0.550 OA
ATOM      6  O   UNL     1     118.136  15.384  28.442  1.00  0.00    -0.550 OA
ENDBRANCH   3   4
ENDBRANCH   2   3
ENDBRANCH   1   2
BRANCH   1   7
ATOM      7  C   UNL     1     116.566  15.298  23.460  1.00  0.00     0.000 C 
BRANCH   7   8
ATOM      8  C   UNL     1     115.886  14.052  22.879  1.00  0.00    -0.000 C 
BRANCH   8   9
ATOM      9  C   UNL     1     116.844  12.856  22.868  1.00  0.00    -0.000 C 
BRANCH   9  10
ATOM     10  C   UNL     1     116.515  11.876  24.000  1.00  0.00    -0.003 C 
ATOM     11  C   UNL     1     115.039  11.947  24.380  1.00  0.00     0.004 C 
ENDBRANCH   9  10
ENDBRANCH   8   9
ENDBRANCH   7   8
ENDBRANCH   1   7
TORSDOF 7
ENDMDL
MODEL 3
REMARK VINA RESULT:    -2.043      1.239      2.059
REMARK INTER + INTRA:          -3.210
REMARK INTER:                  -2.510
REMARK INTRA:                  -0.700
REMARK UNBOUND:                -0.331
REMARK SMILES CCCCCCCCC(=O)[O-]
REMARK SMILES IDX 6 1 7 2 8 3 9 4 10 5 11 6 5 7 4 8 3 9 2 10 1 11
REMARK H PARENT
REMARK Flexibility Score: inf
ROOT
ATOM      1  C   UNL     1     114.694  14.363  25.685  1.00  0.00     0.000 C 
ENDROOT
BRANCH   1   2
ATOM      2  C   UNL     1     115.469  15.379  26.536  1.00  0.00     0.006 C 
BRANCH   2   3
ATOM      3  C   UNL     1     116.987  15.228  26.381  1.00  0.00     0.053 C 
BRANCH   3   4
ATOM      4  C   UNL     1     117.675  15.145  27.709  1.00  0.00     0.041 C 
ATOM      5  O   UNL     1     117.280  14.324  28.578  1.00  0.00    -0.550 OA
ATOM      6  O   UNL     1     118.732  15.999  27.999  1.00  0.00    -0.550 OA
ENDBRANCH   3   4
ENDBRANCH   2   3
ENDBRANCH   1   2
BRANCH   1   7
ATOM      7  C   UNL     1     115.206  12.938  25.929  1.00  0.00     0.000 C 
BRANCH   7   8
ATOM      8  C   UNL     1     115.174  12.112  24.637  1.00  0.00    -0.000 C 
BRANCH   8   9
ATOM      9  C   UNL     1     116.575  11.987  24.028  1.00  0.00    -0.000 C 
BRANCH   9  10
ATOM     10  C   UNL     1     116.638  12.653  22.649  1.00  0.00    -0.003 C 
ATOM     11  C   UNL     1     117.074  14.111  22.760  1.00  0.00     0.004 C 
ENDBRANCH   9  10
ENDBRANCH   8   9
ENDBRANCH   7   8
ENDBRANCH   1   7
TORSDOF 7
ENDMDL
MODEL 4
REMARK VINA RESULT:    -1.999      3.400      5.779
REMARK INTER + INTRA:          -3.148
REMARK INTER:                  -2.504
REMARK INTRA:                  -0.645
REMARK UNBOUND:                -0.331
REMARK SMILES CCCCCCCCC(=O)[O-]
REMARK SMILES IDX 6 1 7 2 8 3 9 4 10 5 11 6 5 7 4 8 3 9 2 10 1 11
REMARK H PARENT
REMARK Flexibility Score: inf
ROOT
ATOM      1  C   UNL     1     115.544  14.088  25.213  1.00  0.00     0.000 C 
ENDROOT
BRANCH   1   2
ATOM      2  C   UNL     1     115.345  12.575  25.042  1.00  0.00     0.006 C 
BRANCH   2   3
ATOM      3  C   UNL     1     116.430  11.944  24.159  1.00  0.00     0.053 C 
BRANCH   3   4
ATOM      4  C   UNL     1     116.263  12.322  22.720  1.00  0.00     0.041 C 
ATOM      5  O   UNL     1     115.154  12.159  22.145  1.00  0.00    -0.550 OA
ATOM      6  O   UNL     1     117.342  12.825  22.003  1.00  0.00    -0.550 OA
ENDBRANCH   3   4
ENDBRANCH   2   3
ENDBRANCH   1   2
BRANCH   1   7
ATOM      7  C   UNL     1     116.530  14.388  26.348  1.00  0.00     0.000 C 
BRANCH   7   8
ATOM      8  C   UNL     1     115.809  14.463  27.699  1.00  0.00    -0.000 C 
BRANCH   8   9
ATOM      9  C   UNL     1     116.410  13.471  28.702  1.00  0.00    -0.000 C 
BRANCH   9  10
ATOM     10  C   UNL     1     115.596  12.173  28.747  1.00  0.00    -0.003 C 
ATOM     11  C   UNL     1     114.099  12.458  28.686  1.00  0.00     0.004 C 
ENDBRANCH   9  10
ENDBRANCH   8   9
ENDBRANCH   7   8
ENDBRANCH   1   7
TORSDOF 7
ENDMDL
MODEL 5
REMARK VINA RESULT:    -1.993      3.131      4.665
REMARK INTER + INTRA:          -3.140
REMARK INTER:                  -2.423
REMARK INTRA:                  -0.717
REMARK UNBOUND:                -0.331
REMARK SMILES CCCCCCCCC(=O)[O-]
REMARK SMILES IDX 6 1 7 2 8 3 9 4 10 5 11 6 5 7 4 8 3 9 2 10 1 11
REMARK H PARENT
REMARK Flexibility Score: inf
ROOT
ATOM      1  C   UNL     1     115.975  15.210  28.258  1.00  0.00     0.000 C 
ENDROOT
BRANCH   1   2
ATOM      2  C   UNL     1     115.262  14.577  27.054  1.00  0.00     0.006 C 
BRANCH   2   3
ATOM      3  C   UNL     1     116.250  13.995  26.035  1.00  0.00     0.053 C 
BRANCH   3   4
ATOM      4  C   UNL     1     115.712  12.756  25.387  1.00  0.00     0.041 C 
ATOM      5  O   UNL     1     116.316  12.236  24.412  1.00  0.00    -0.550 OA
ATOM      6  O   UNL     1     114.524  12.194  25.839  1.00  0.00    -0.550 OA
ENDBRANCH   3   4
ENDBRANCH   2   3
ENDBRANCH   1   2
BRANCH   1   7
ATOM      7  C   UNL     1     117.442  14.765  28.323  1.00  0.00     0.000 C 
BRANCH   7   8
ATOM      8  C   UNL     1     118.379  15.974  28.435  1.00  0.00    -0.000 C 
BRANCH   8   9
ATOM      9  C   UNL     1     118.835  16.449  27.051  1.00  0.00    -0.000 C 
BRANCH   9  10
ATOM     10  C   UNL     1     118.072  17.707  26.622  1.00  0.00    -0.003 C 
ATOM     11  C   UNL     1     117.369  17.497  25.284  1.00  0.00     0.004 C 
ENDBRANCH   9  10
ENDBRANCH   8   9
ENDBRANCH   7   8
ENDBRANCH   1   7
TORSDOF 7
ENDMDL
MODEL 6
REMARK VINA RESULT:    -1.989      1.079      1.855
REMARK INTER + INTRA:          -3.135
REMARK INTER:                  -2.492
REMARK INTRA:                  -0.643
REMARK UNBOUND:                -0.331
REMARK SMILES CCCCCCCCC(=O)[O-]
REMARK SMILES IDX 6 1 7 2 8 3 9 4 10 5 11 6 5 7 4 8 3 9 2 10 1 11
REMARK H PARENT
REMARK Flexibility Score: inf
ROOT
ATOM      1  C   UNL     1     115.216  12.059  24.589  1.00  0.00     0.000 C 
ENDROOT
BRANCH   1   2
ATOM      2  C   UNL     1     115.351  12.754  25.952  1.00  0.00     0.006 C 
BRANCH   2   3
ATOM      3  C   UNL     1     116.300  13.958  25.898  1.00  0.00     0.053 C 
BRANCH   3   4
ATOM      4  C   UNL     1     116.738  14.380  27.267  1.00  0.00     0.041 C 
ATOM      5  O   UNL     1     117.342  15.472  27.431  1.00  0.00    -0.550 OA
ATOM      6  O   UNL     1     116.508  13.550  28.358  1.00  0.00    -0.550 OA
ENDBRANCH   3   4
ENDBRANCH   2   3
ENDBRANCH   1   2
BRANCH   1   7
ATOM      7  C   UNL     1     116.588  11.876  23.929  1.00  0.00     0.000 C 
BRANCH   7   8
ATOM      8  C   UNL     1     116.565  12.350  22.470  1.00  0.00    -0.000 C 
BRANCH   8   9
ATOM      9  C   UNL     1     117.381  13.636  22.296  1.00  0.00    -0.000 C 
BRANCH   9  10
ATOM     10  C   UNL     1     116.466  14.836  22.028  1.00  0.00    -0.003 C 
ATOM     11  C   UNL     1     115.064  14.384  21.633  1.00  0.00     0.004 C 
ENDBRANCH   9  10
ENDBRANCH   8   9
ENDBRANCH   7   8
ENDBRANCH   1   7
TORSDOF 7
ENDMDL
MODEL 7
REMARK VINA RESULT:    -1.964      0.833      1.486
REMARK INTER + INTRA:          -3.098
REMARK INTER:                  -2.767
REMARK INTRA:                  -0.332
REMARK UNBOUND:                -0.331
REMARK SMILES CCCCCCCCC(=O)[O-]
REMARK SMILES IDX 6 1 7 2 8 3 9 4 10 5 11 6 5 7 4 8 3 9 2 10 1 11
REMARK H PARENT
REMARK Flexibility Score: inf
ROOT
ATOM      1  C   UNL     1     116.307  13.446  25.295  1.00  0.00     0.000 C 
ENDROOT
BRANCH   1   2
ATOM      2  C   UNL     1     115.736  13.552  26.717  1.00  0.00     0.006 C 
BRANCH   2   3
ATOM      3  C   UNL     1     116.273  14.777  27.468  1.00  0.00     0.053 C 
BRANCH   3   4
ATOM      4  C   UNL     1     117.203  14.385  28.574  1.00  0.00     0.041 C 
ATOM      5  O   UNL     1     118.066  15.200  28.997  1.00  0.00    -0.550 OA
ATOM      6  O   UNL     1     117.139  13.108  29.118  1.00  0.00    -0.550 OA
ENDBRANCH   3   4
ENDBRANCH   2   3
ENDBRANCH   1   2
BRANCH   1   7
ATOM      7  C   UNL     1     115.748  12.217  24.569  1.00  0.00     0.000 C 
BRANCH   7   8
ATOM      8  C   UNL     1     115.608  12.481  23.065  1.00  0.00    -0.000 C 
BRANCH   8   9
ATOM      9  C   UNL     1     116.784  11.879  22.287  1.00  0.00    -0.000 C 
BRANCH   9  10
ATOM     10  C   UNL     1     117.335  12.877  21.263  1.00  0.00    -0.003 C 
ATOM     11  C   UNL     1     117.490  14.266  21.874  1.00  0.00     0.004 C 
ENDBRANCH   9  10
ENDBRANCH   8   9
ENDBRANCH   7   8
ENDBRANCH   1   7
TORSDOF 7
ENDMDL
MODEL 8
REMARK VINA RESULT:    -1.954      3.029      5.175
REMARK INTER + INTRA:          -3.084
REMARK INTER:                  -2.460
REMARK INTRA:                  -0.624
REMARK UNBOUND:                -0.331
REMARK SMILES CCCCCCCCC(=O)[O-]
REMARK SMILES IDX 6 1 7 2 8 3 9 4 10 5 11 6 5 7 4 8 3 9 2 10 1 11
REMARK H PARENT
REMARK Flexibility Score: inf
ROOT
ATOM      1  C   UNL     1     115.224  14.028  26.949  1.00  0.00     0.000 C 
ENDROOT
BRANCH   1   2
ATOM      2  C   UNL     1     116.015  13.292  25.858  1.00  0.00     0.006 C 
BRANCH   2   3
ATOM      3  C   UNL     1     116.372  14.210  24.682  1.00  0.00     0.053 C 
BRANCH   3   4
ATOM      4  C   UNL     1     116.315  13.483  23.374  1.00  0.00     0.041 C 
ATOM      5  O   UNL     1     117.281  13.547  22.569  1.00  0.00    -0.550 OA
ATOM      6  O   UNL     1     115.179  12.761  23.029  1.00  0.00    -0.550 OA
ENDBRANCH   3   4
ENDBRANCH   2   3
ENDBRANCH   1   2
BRANCH   1   7
ATOM      7  C   UNL     1     115.628  13.539  28.345  1.00  0.00     0.000 C 
BRANCH   7   8
ATOM      8  C   UNL     1     117.060  13.967  28.686  1.00  0.00    -0.000 C 
BRANCH   8   9
ATOM      9  C   UNL     1     117.171  15.493  28.786  1.00  0.00    -0.000 C 
BRANCH   9  10
ATOM     10  C   UNL     1     118.548  15.977  28.320  1.00  0.00    -0.003 C 
ATOM     11  C   UNL     1     118.526  16.368  26.845  1.00  0.00     0.004 C 
ENDBRANCH   9  10
ENDBRANCH   8   9
ENDBRANCH   7   8
ENDBRANCH   1   7
TORSDOF 7
ENDMDL
MODEL 9
REMARK VINA RESULT:    -1.945      1.965      3.377
REMARK INTER + INTRA:          -3.072
REMARK INTER:                  -2.408
REMARK INTRA:                  -0.664
REMARK UNBOUND:                -0.331
REMARK SMILES CCCCCCCCC(=O)[O-]
REMARK SMILES IDX 6 1 7 2 8 3 9 4 10 5 11 6 5 7 4 8 3 9 2 10 1 11
REMARK H PARENT
REMARK Flexibility Score: inf
ROOT
ATOM      1  C   UNL     1     116.008  16.027  25.642  1.00  0.00     0.000 C 
ENDROOT
BRANCH   1   2
ATOM      2  C   UNL     1     117.486  15.612  25.687  1.00  0.00     0.006 C 
BRANCH   2   3
ATOM      3  C   UNL     1     118.366  16.672  26.362  1.00  0.00     0.053 C 
BRANCH   3   4
ATOM      4  C   UNL     1     118.559  16.387  27.819  1.00  0.00     0.041 C 
ATOM      5  O   UNL     1     119.207  17.187  28.543  1.00  0.00    -0.550 OA
ATOM      6  O   UNL     1     118.049  15.218  28.372  1.00  0.00    -0.550 OA
ENDBRANCH   3   4
ENDBRANCH   2   3
ENDBRANCH   1   2
BRANCH   1   7
ATOM      7  C   UNL     1     115.109  14.917  26.200  1.00  0.00     0.000 C 
BRANCH   7   8
ATOM      8  C   UNL     1     115.848  13.574  26.234  1.00  0.00    -0.000 C 
BRANCH   8   9
ATOM      9  C   UNL     1     115.302  12.618  25.167  1.00  0.00    -0.000 C 
BRANCH   9  10
ATOM     10  C   UNL     1     116.411  12.174  24.206  1.00  0.00    -0.003 C 
ATOM     11  C   UNL     1     116.536  13.134  23.027  1.00  0.00     0.004 C 
ENDBRANCH   9  10
ENDBRANCH   8   9
ENDBRANCH   7   8
ENDBRANCH   1   7
TORSDOF 7
ENDMDL
