MODEL 1
REMARK VINA RESULT:    -3.801      0.000      0.000
REMARK INTER + INTRA:          -4.582
REMARK INTER:                  -4.468
REMARK INTRA:                  -0.114
REMARK UNBOUND:                -0.114
REMARK SMILES O=C([O-])CCC(=O)[O-]
REMARK SMILES IDX 4 1 2 2 1 3 3 4 5 5 6 6 7 7 8 8
REMARK H PARENT
REMARK Flexibility Score: inf
ROOT
ATOM      1  C   UNL     1      12.267 -24.544  20.659  1.00  0.00     0.059 C 
ENDROOT
BRANCH   1   2
ATOM      2  C   UNL     1      11.238 -24.458  21.743  1.00  0.00     0.042 C 
ATOM      3  O   UNL     1      11.281 -23.522  22.584  1.00  0.00    -0.550 OA
ATOM      4  O   UNL     1      10.260 -25.437  21.852  1.00  0.00    -0.550 OA
ENDBRANCH   1   2
BRANCH   1   5
ATOM      5  C   UNL     1      12.697 -23.144  20.218  1.00  0.00     0.059 C 
BRANCH   5   6
ATOM      6  C   UNL     1      14.147 -22.924  20.517  1.00  0.00     0.042 C 
ATOM      7  O   UNL     1      14.497 -22.400  21.607  1.00  0.00    -0.550 OA
ATOM      8  O   UNL     1      15.115 -23.342  19.613  1.00  0.00    -0.550 OA
ENDBRANCH   5   6
ENDBRANCH   1   5
TORSDOF 3
ENDMDL
MODEL 2
REMARK VINA RESULT:    -3.785      0.111      3.899
REMARK INTER + INTRA:          -4.562
REMARK INTER:                  -4.454
REMARK INTRA:                  -0.108
REMARK UNBOUND:                -0.114
REMARK SMILES O=C([O-])CCC(=O)[O-]
REMARK SMILES IDX 4 1 2 2 1 3 3 4 5 5 6 6 7 7 8 8
REMARK H PARENT
REMARK Flexibility Score: inf
ROOT
ATOM      1  C   UNL     1      12.788 -23.138  20.286  1.00  0.00     0.059 C 
ENDROOT
BRANCH   1   2
ATOM      2  C   UNL     1      14.253 -23.004  20.562  1.00  0.00     0.042 C 
ATOM      3  O   UNL     1      14.650 -22.551  21.668  1.00  0.00    -0.550 OA
ATOM      4  O   UNL     1      15.179 -23.334  19.581  1.00  0.00    -0.550 OA
ENDBRANCH   1   2
BRANCH   1   5
ATOM      5  C   UNL     1      12.302 -24.541  20.653  1.00  0.00     0.059 C 
BRANCH   5   6
ATOM      6  C   UNL     1      11.261 -24.470  21.726  1.00  0.00     0.042 C 
ATOM      7  O   UNL     1      11.280 -23.531  22.564  1.00  0.00    -0.550 OA
ATOM      8  O   UNL     1      10.242 -25.413  21.770  1.00  0.00    -0.550 OA
ENDBRANCH   5   6
ENDBRANCH   1   5
TORSDOF 3
ENDMDL
MODEL 3
REMARK VINA RESULT:    -3.752      1.490      1.910
REMARK INTER + INTRA:          -4.524
REMARK INTER:                  -4.380
REMARK INTRA:                  -0.144
REMARK UNBOUND:                -0.114
REMARK SMILES O=C([O-])CCC(=O)[O-]
REMARK SMILES IDX 4 1 2 2 1 3 3 4 5 5 6 6 7 7 8 8
REMARK H PARENT
REMARK Flexibility Score: inf
ROOT
ATOM      1  C   UNL     1      12.729 -23.184  20.201  1.00  0.00     0.059 C 
ENDROOT
BRANCH   1   2
ATOM      2  C   UNL     1      12.330 -24.544  20.681  1.00  0.00     0.042 C 
ATOM      3  O   UNL     1      11.314 -24.686  21.410  1.00  0.00    -0.550 OA
ATOM      4  O   UNL     1      13.109 -25.649  20.365  1.00  0.00    -0.550 OA
ENDBRANCH   1   2
BRANCH   1   5
ATOM      5  C   UNL     1      14.252 -23.039  20.212  1.00  0.00     0.059 C 
BRANCH   5   6
ATOM      6  C   UNL     1      14.750 -22.860  21.612  1.00  0.00     0.042 C 
ATOM      7  O   UNL     1      14.203 -22.024  22.377  1.00  0.00    -0.550 OA
ATOM      8  O   UNL     1      15.788 -23.652  22.087  1.00  0.00    -0.550 OA
ENDBRANCH   5   6
ENDBRANCH   1   5
TORSDOF 3
ENDMDL
MODEL 4
REMARK VINA RESULT:    -3.740      1.520      3.491
REMARK INTER + INTRA:          -4.509
REMARK INTER:                  -4.368
REMARK INTRA:                  -0.142
REMARK UNBOUND:                -0.114
REMARK SMILES O=C([O-])CCC(=O)[O-]
REMARK SMILES IDX 4 1 2 2 1 3 3 4 5 5 6 6 7 7 8 8
REMARK H PARENT
REMARK Flexibility Score: inf
ROOT
ATOM      1  C   UNL     1      14.302 -23.028  20.335  1.00  0.00     0.059 C 
ENDROOT
BRANCH   1   2
ATOM      2  C   UNL     1      14.772 -22.922  21.752  1.00  0.00     0.042 C 
ATOM      3  O   UNL     1      14.247 -22.087  22.533  1.00  0.00    -0.550 OA
ATOM      4  O   UNL     1      15.824 -23.713  22.196  1.00  0.00    -0.550 OA
ENDBRANCH   1   2
BRANCH   1   5
ATOM      5  C   UNL     1      12.779 -23.178  20.288  1.00  0.00     0.059 C 
BRANCH   5   6
ATOM      6  C   UNL     1      12.376 -24.552  20.721  1.00  0.00     0.042 C 
ATOM      7  O   UNL     1      11.318 -24.723  21.382  1.00  0.00    -0.550 OA
ATOM      8  O   UNL     1      13.142 -25.651  20.353  1.00  0.00    -0.550 OA
ENDBRANCH   5   6
ENDBRANCH   1   5
TORSDOF 3
ENDMDL
MODEL 5
REMARK VINA RESULT:    -3.666      1.623      3.539
REMARK INTER + INTRA:          -4.422
REMARK INTER:                  -4.248
REMARK INTRA:                  -0.174
REMARK UNBOUND:                -0.114
REMARK SMILES O=C([O-])CCC(=O)[O-]
REMARK SMILES IDX 4 1 2 2 1 3 3 4 5 5 6 6 7 7 8 8
REMARK H PARENT
REMARK Flexibility Score: inf
ROOT
ATOM      1  C   UNL     1      14.493 -23.133  20.179  1.00  0.00     0.059 C 
ENDROOT
BRANCH   1   2
ATOM      2  C   UNL     1      14.831 -24.525  20.612  1.00  0.00     0.042 C 
ATOM      3  O   UNL     1      14.528 -25.506  19.885  1.00  0.00    -0.550 OA
ATOM      4  O   UNL     1      15.439 -24.742  21.842  1.00  0.00    -0.550 OA
ENDBRANCH   1   2
BRANCH   1   5
ATOM      5  C   UNL     1      12.978 -22.918  20.208  1.00  0.00     0.059 C 
BRANCH   5   6
ATOM      6  C   UNL     1      12.463 -23.017  21.609  1.00  0.00     0.042 C 
ATOM      7  O   UNL     1      11.613 -23.895  21.912  1.00  0.00    -0.550 OA
ATOM      8  O   UNL     1      12.956 -22.169  22.593  1.00  0.00    -0.550 OA
ENDBRANCH   5   6
ENDBRANCH   1   5
TORSDOF 3
ENDMDL
MODEL 6
REMARK VINA RESULT:    -3.651      1.657      2.047
REMARK INTER + INTRA:          -4.405
REMARK INTER:                  -4.235
REMARK INTRA:                  -0.170
REMARK UNBOUND:                -0.114
REMARK SMILES O=C([O-])CCC(=O)[O-]
REMARK SMILES IDX 4 1 2 2 1 3 3 4 5 5 6 6 7 7 8 8
REMARK H PARENT
REMARK Flexibility Score: inf
ROOT
ATOM      1  C   UNL     1      12.981 -22.909  20.196  1.00  0.00     0.059 C 
ENDROOT
BRANCH   1   2
ATOM      2  C   UNL     1      12.454 -23.001  21.593  1.00  0.00     0.042 C 
ATOM      3  O   UNL     1      12.850 -22.195  22.475  1.00  0.00    -0.550 OA
ATOM      4  O   UNL     1      11.561 -24.009  21.934  1.00  0.00    -0.550 OA
ENDBRANCH   1   2
BRANCH   1   5
ATOM      5  C   UNL     1      14.491 -23.158  20.177  1.00  0.00     0.059 C 
BRANCH   5   6
ATOM      6  C   UNL     1      14.797 -24.550  20.633  1.00  0.00     0.042 C 
ATOM      7  O   UNL     1      15.410 -24.742  21.715  1.00  0.00    -0.550 OA
ATOM      8  O   UNL     1      14.362 -25.637  19.886  1.00  0.00    -0.550 OA
ENDBRANCH   5   6
ENDBRANCH   1   5
TORSDOF 3
ENDMDL
MODEL 7
REMARK VINA RESULT:    -3.621      2.585      3.354
REMARK INTER + INTRA:          -4.370
REMARK INTER:                  -4.329
REMARK INTRA:                  -0.040
REMARK UNBOUND:                -0.114
REMARK SMILES O=C([O-])CCC(=O)[O-]
REMARK SMILES IDX 4 1 2 2 1 3 3 4 5 5 6 6 7 7 8 8
REMARK H PARENT
REMARK Flexibility Score: inf
ROOT
ATOM      1  C   UNL     1      13.402 -22.606  22.579  1.00  0.00     0.059 C 
ENDROOT
BRANCH   1   2
ATOM      2  C   UNL     1      13.810 -22.029  23.898  1.00  0.00     0.042 C 
ATOM      3  O   UNL     1      14.425 -20.932  23.946  1.00  0.00    -0.550 OA
ATOM      4  O   UNL     1      13.553 -22.726  25.071  1.00  0.00    -0.550 OA
ENDBRANCH   1   2
BRANCH   1   5
ATOM      5  C   UNL     1      14.636 -22.983  21.755  1.00  0.00     0.059 C 
BRANCH   5   6
ATOM      6  C   UNL     1      14.302 -23.014  20.297  1.00  0.00     0.042 C 
ATOM      7  O   UNL     1      15.170 -23.364  19.456  1.00  0.00    -0.550 OA
ATOM      8  O   UNL     1      13.017 -22.703  19.871  1.00  0.00    -0.550 OA
ENDBRANCH   5   6
ENDBRANCH   1   5
TORSDOF 3
ENDMDL
MODEL 8
REMARK VINA RESULT:    -3.538      2.530      3.869
REMARK INTER + INTRA:          -4.272
REMARK INTER:                  -4.223
REMARK INTRA:                  -0.049
REMARK UNBOUND:                -0.114
REMARK SMILES O=C([O-])CCC(=O)[O-]
REMARK SMILES IDX 4 1 2 2 1 3 3 4 5 5 6 6 7 7 8 8
REMARK H PARENT
REMARK Flexibility Score: inf
ROOT
ATOM      1  C   UNL     1      14.278 -23.413  21.809  1.00  0.00     0.059 C 
ENDROOT
BRANCH   1   2
ATOM      2  C   UNL     1      14.162 -23.120  20.346  1.00  0.00     0.042 C 
ATOM      3  O   UNL     1      15.155 -23.274  19.588  1.00  0.00    -0.550 OA
ATOM      4  O   UNL     1      12.970 -22.632  19.827  1.00  0.00    -0.550 OA
ENDBRANCH   1   2
BRANCH   1   5
ATOM      5  C   UNL     1      13.156 -22.719  22.584  1.00  0.00     0.059 C 
BRANCH   5   6
ATOM      6  C   UNL     1      13.689 -22.106  23.840  1.00  0.00     0.042 C 
ATOM      7  O   UNL     1      14.286 -20.998  23.800  1.00  0.00    -0.550 OA
ATOM      8  O   UNL     1      13.486 -22.734  25.061  1.00  0.00    -0.550 OA
ENDBRANCH   5   6
ENDBRANCH   1   5
TORSDOF 3
ENDMDL
MODEL 9
REMARK VINA RESULT:    -3.529      2.257      3.105
REMARK INTER + INTRA:          -4.262
REMARK INTER:                  -4.085
REMARK INTRA:                  -0.177
REMARK UNBOUND:                -0.114
REMARK SMILES O=C([O-])CCC(=O)[O-]
REMARK SMILES IDX 4 1 2 2 1 3 3 4 5 5 6 6 7 7 8 8
REMARK H PARENT
REMARK Flexibility Score: inf
ROOT
ATOM      1  C   UNL     1      15.292 -23.409  22.187  1.00  0.00     0.059 C 
ENDROOT
BRANCH   1   2
ATOM      2  C   UNL     1      14.316 -22.765  23.121  1.00  0.00     0.042 C 
ATOM      3  O   UNL     1      14.251 -21.510  23.203  1.00  0.00    -0.550 OA
ATOM      4  O   UNL     1      13.512 -23.550  23.937  1.00  0.00    -0.550 OA
ENDBRANCH   1   2
BRANCH   1   5
ATOM      5  C   UNL     1      14.995 -23.005  20.742  1.00  0.00     0.059 C 
BRANCH   5   6
ATOM      6  C   UNL     1      13.620 -23.447  20.348  1.00  0.00     0.042 C 
ATOM      7  O   UNL     1      12.805 -22.621  19.860  1.00  0.00    -0.550 OA
ATOM      8  O   UNL     1      13.256 -24.781  20.475  1.00  0.00    -0.550 OA
ENDBRANCH   5   6
ENDBRANCH   1   5
TORSDOF 3
ENDMDL
