MODEL 1
REMARK VINA RESULT:    -3.831      0.000      0.000
REMARK INTER + INTRA:          -4.443
REMARK INTER:                  -4.391
REMARK INTRA:                  -0.052
REMARK UNBOUND:                -0.052
REMARK SMILES O=C([O-])c1cc(O)c(O)c(O)c1
REMARK SMILES IDX 4 1 5 2 12 3 6 4 10 5 8 6 2 7 1 8 3 9 7 10 11 12 9 14
REMARK H PARENT 7 11 11 13 9 15
REMARK Flexibility Score: inf
ROOT
ATOM      1  C   UNL     1      -6.327 -18.993  -9.962  1.00  0.00     0.005 A 
ATOM      2  C   UNL     1      -5.016 -19.492 -10.043  1.00  0.00     0.060 A 
ATOM      3  C   UNL     1      -6.658 -18.112  -8.918  1.00  0.00     0.060 A 
ATOM      4  C   UNL     1      -4.051 -19.121  -9.101  1.00  0.00     0.162 A 
ATOM      5  C   UNL     1      -5.696 -17.736  -7.969  1.00  0.00     0.162 A 
ATOM      6  C   UNL     1      -4.389 -18.240  -8.059  1.00  0.00     0.200 A 
ENDROOT
BRANCH   1   7
ATOM      7  C   UNL     1      -7.341 -19.391 -10.963  1.00  0.00     0.072 C 
ATOM      8  O   UNL     1      -6.991 -19.827 -12.091  1.00  0.00    -0.545 OA
ATOM      9  O   UNL     1      -8.697 -19.289 -10.672  1.00  0.00    -0.545 OA
ENDBRANCH   1   7
BRANCH   4  10
ATOM     10  O   UNL     1      -2.761 -19.638  -9.218  1.00  0.00    -0.504 OA
ATOM     11  H   UNL     1      -1.940 -19.098  -8.972  1.00  0.00     0.293 HD
ENDBRANCH   4  10
BRANCH   5  12
ATOM     12  O   UNL     1      -6.038 -16.863  -6.938  1.00  0.00    -0.504 OA
ATOM     13  H   UNL     1      -5.415 -16.693  -6.156  1.00  0.00     0.293 HD
ENDBRANCH   5  12
BRANCH   6  14
ATOM     14  O   UNL     1      -3.419 -17.875  -7.124  1.00  0.00    -0.502 OA
ATOM     15  H   UNL     1      -2.515 -17.510  -7.398  1.00  0.00     0.293 HD
ENDBRANCH   6  14
TORSDOF 4
ENDMDL
MODEL 2
REMARK VINA RESULT:    -3.778      0.212      2.605
REMARK INTER + INTRA:          -4.382
REMARK INTER:                  -4.332
REMARK INTRA:                  -0.050
REMARK UNBOUND:                -0.052
REMARK SMILES O=C([O-])c1cc(O)c(O)c(O)c1
REMARK SMILES IDX 4 1 5 2 12 3 6 4 10 5 8 6 2 7 1 8 3 9 7 10 11 12 9 14
REMARK H PARENT 7 11 11 13 9 15
REMARK Flexibility Score: inf
ROOT
ATOM      1  C   UNL     1      -6.438 -18.856  -9.851  1.00  0.00     0.005 A 
ATOM      2  C   UNL     1      -6.692 -17.988  -8.776  1.00  0.00     0.060 A 
ATOM      3  C   UNL     1      -5.155 -19.415  -9.987  1.00  0.00     0.060 A 
ATOM      4  C   UNL     1      -5.687 -17.681  -7.852  1.00  0.00     0.162 A 
ATOM      5  C   UNL     1      -4.143 -19.112  -9.065  1.00  0.00     0.162 A 
ATOM      6  C   UNL     1      -4.407 -18.243  -7.994  1.00  0.00     0.200 A 
ENDROOT
BRANCH   1   7
ATOM      7  C   UNL     1      -7.507 -19.174 -10.823  1.00  0.00     0.072 C 
ATOM      8  O   UNL     1      -8.710 -19.225 -10.457  1.00  0.00    -0.545 OA
ATOM      9  O   UNL     1      -7.197 -19.421 -12.156  1.00  0.00    -0.545 OA
ENDBRANCH   1   7
BRANCH   4  10
ATOM     10  O   UNL     1      -5.981 -16.816  -6.799  1.00  0.00    -0.504 OA
ATOM     11  H   UNL     1      -6.930 -16.545  -6.572  1.00  0.00     0.293 HD
ENDBRANCH   4  10
BRANCH   5  12
ATOM     12  O   UNL     1      -2.875 -19.673  -9.213  1.00  0.00    -0.504 OA
ATOM     13  H   UNL     1      -2.679 -20.365  -9.927  1.00  0.00     0.293 HD
ENDBRANCH   5  12
BRANCH   6  14
ATOM     14  O   UNL     1      -3.411 -17.932  -7.067  1.00  0.00    -0.502 OA
ATOM     15  H   UNL     1      -2.964 -18.640  -6.498  1.00  0.00     0.293 HD
ENDBRANCH   6  14
TORSDOF 4
ENDMDL
MODEL 3
REMARK VINA RESULT:    -3.558      1.322      4.809
REMARK INTER + INTRA:          -4.130
REMARK INTER:                  -4.084
REMARK INTRA:                  -0.046
REMARK UNBOUND:                -0.052
REMARK SMILES O=C([O-])c1cc(O)c(O)c(O)c1
REMARK SMILES IDX 4 1 5 2 12 3 6 4 10 5 8 6 2 7 1 8 3 9 7 10 11 12 9 14
REMARK H PARENT 7 11 11 13 9 15
REMARK Flexibility Score: inf
ROOT
ATOM      1  C   UNL     1      -5.562 -18.603  -8.493  1.00  0.00     0.005 A 
ATOM      2  C   UNL     1      -6.787 -17.925  -8.381  1.00  0.00     0.060 A 
ATOM      3  C   UNL     1      -5.292 -19.336  -9.661  1.00  0.00     0.060 A 
ATOM      4  C   UNL     1      -7.729 -17.976  -9.415  1.00  0.00     0.162 A 
ATOM      5  C   UNL     1      -6.230 -19.393 -10.701  1.00  0.00     0.162 A 
ATOM      6  C   UNL     1      -7.452 -18.711 -10.580  1.00  0.00     0.200 A 
ENDROOT
BRANCH   1   7
ATOM      7  C   UNL     1      -4.573 -18.543  -7.394  1.00  0.00     0.072 C 
ATOM      8  O   UNL     1      -4.069 -17.443  -7.044  1.00  0.00    -0.545 OA
ATOM      9  O   UNL     1      -4.186 -19.702  -6.730  1.00  0.00    -0.545 OA
ENDBRANCH   1   7
BRANCH   4  10
ATOM     10  O   UNL     1      -8.932 -17.288  -9.266  1.00  0.00    -0.504 OA
ATOM     11  H   UNL     1      -9.052 -16.335  -9.588  1.00  0.00     0.293 HD
ENDBRANCH   4  10
BRANCH   5  12
ATOM     12  O   UNL     1      -5.950 -20.125 -11.854  1.00  0.00    -0.504 OA
ATOM     13  H   UNL     1      -6.590 -20.145 -12.640  1.00  0.00     0.293 HD
ENDBRANCH   5  12
BRANCH   6  14
ATOM     14  O   UNL     1      -8.397 -18.757 -11.607  1.00  0.00    -0.502 OA
ATOM     15  H   UNL     1      -8.878 -19.611 -11.861  1.00  0.00     0.293 HD
ENDBRANCH   6  14
TORSDOF 4
ENDMDL
MODEL 4
REMARK VINA RESULT:    -3.512     16.521     17.453
REMARK INTER + INTRA:          -4.077
REMARK INTER:                  -4.025
REMARK INTRA:                  -0.052
REMARK UNBOUND:                -0.052
REMARK SMILES O=C([O-])c1cc(O)c(O)c(O)c1
REMARK SMILES IDX 4 1 5 2 12 3 6 4 10 5 8 6 2 7 1 8 3 9 7 10 11 12 9 14
REMARK H PARENT 7 11 11 13 9 15
REMARK Flexibility Score: inf
ROOT
ATOM      1  C   UNL     1      -4.404  -2.547  -4.795  1.00  0.00     0.005 A 
ATOM      2  C   UNL     1      -3.575  -1.870  -5.705  1.00  0.00     0.060 A 
ATOM      3  C   UNL     1      -5.774  -2.674  -5.085  1.00  0.00     0.060 A 
ATOM      4  C   UNL     1      -4.099  -1.329  -6.884  1.00  0.00     0.162 A 
ATOM      5  C   UNL     1      -6.307  -2.134  -6.265  1.00  0.00     0.162 A 
ATOM      6  C   UNL     1      -5.469  -1.459  -7.168  1.00  0.00     0.200 A 
ENDROOT
BRANCH   1   7
ATOM      7  C   UNL     1      -3.841  -3.117  -3.551  1.00  0.00     0.072 C 
ATOM      8  O   UNL     1      -4.495  -3.954  -2.876  1.00  0.00    -0.545 OA
ATOM      9  O   UNL     1      -2.578  -2.735  -3.111  1.00  0.00    -0.545 OA
ENDBRANCH   1   7
BRANCH   4  10
ATOM     10  O   UNL     1      -3.242  -0.666  -7.761  1.00  0.00    -0.504 OA
ATOM     11  H   UNL     1      -2.476  -1.138  -8.226  1.00  0.00     0.293 HD
ENDBRANCH   4  10
BRANCH   5  12
ATOM     12  O   UNL     1      -7.667  -2.266  -6.540  1.00  0.00    -0.504 OA
ATOM     13  H   UNL     1      -8.324  -1.519  -6.347  1.00  0.00     0.293 HD
ENDBRANCH   5  12
BRANCH   6  14
ATOM     14  O   UNL     1      -5.984  -0.916  -8.346  1.00  0.00    -0.502 OA
ATOM     15  H   UNL     1      -6.779  -0.289  -8.349  1.00  0.00     0.293 HD
ENDBRANCH   6  14
TORSDOF 4
ENDMDL
MODEL 5
REMARK VINA RESULT:    -3.507     16.529     17.552
REMARK INTER + INTRA:          -4.072
REMARK INTER:                  -4.019
REMARK INTRA:                  -0.052
REMARK UNBOUND:                -0.052
REMARK SMILES O=C([O-])c1cc(O)c(O)c(O)c1
REMARK SMILES IDX 4 1 5 2 12 3 6 4 10 5 8 6 2 7 1 8 3 9 7 10 11 12 9 14
REMARK H PARENT 7 11 11 13 9 15
REMARK Flexibility Score: inf
ROOT
ATOM      1  C   UNL     1      -4.304  -2.537  -4.799  1.00  0.00     0.005 A 
ATOM      2  C   UNL     1      -5.676  -2.672  -5.069  1.00  0.00     0.060 A 
ATOM      3  C   UNL     1      -3.490  -1.862  -5.725  1.00  0.00     0.060 A 
ATOM      4  C   UNL     1      -6.229  -2.144  -6.241  1.00  0.00     0.162 A 
ATOM      5  C   UNL     1      -4.037  -1.329  -6.902  1.00  0.00     0.162 A 
ATOM      6  C   UNL     1      -5.410  -1.469  -7.162  1.00  0.00     0.200 A 
ENDROOT
BRANCH   1   7
ATOM      7  C   UNL     1      -3.728  -3.100  -3.558  1.00  0.00     0.072 C 
ATOM      8  O   UNL     1      -4.373  -3.938  -2.875  1.00  0.00    -0.545 OA
ATOM      9  O   UNL     1      -2.465  -2.710  -3.127  1.00  0.00    -0.545 OA
ENDBRANCH   1   7
BRANCH   4  10
ATOM     10  O   UNL     1      -7.596  -2.298  -6.470  1.00  0.00    -0.504 OA
ATOM     11  H   UNL     1      -8.009  -2.148  -7.383  1.00  0.00     0.293 HD
ENDBRANCH   4  10
BRANCH   5  12
ATOM     12  O   UNL     1      -3.218  -0.663  -7.812  1.00  0.00    -0.504 OA
ATOM     13  H   UNL     1      -2.353  -1.070  -8.148  1.00  0.00     0.293 HD
ENDBRANCH   5  12
BRANCH   6  14
ATOM     14  O   UNL     1      -5.970  -0.945  -8.328  1.00  0.00    -0.502 OA
ATOM     15  H   UNL     1      -6.963  -0.767  -8.417  1.00  0.00     0.293 HD
ENDBRANCH   6  14
TORSDOF 4
ENDMDL
MODEL 6
REMARK VINA RESULT:    -3.444     16.579     17.264
REMARK INTER + INTRA:          -3.999
REMARK INTER:                  -3.953
REMARK INTRA:                  -0.046
REMARK UNBOUND:                -0.052
REMARK SMILES O=C([O-])c1cc(O)c(O)c(O)c1
REMARK SMILES IDX 4 1 5 2 12 3 6 4 10 5 8 6 2 7 1 8 3 9 7 10 11 12 9 14
REMARK H PARENT 7 11 11 13 9 15
REMARK Flexibility Score: inf
ROOT
ATOM      1  C   UNL     1      -3.674  -1.919  -6.745  1.00  0.00     0.005 A 
ATOM      2  C   UNL     1      -4.938  -2.045  -7.344  1.00  0.00     0.060 A 
ATOM      3  C   UNL     1      -3.549  -2.142  -5.363  1.00  0.00     0.060 A 
ATOM      4  C   UNL     1      -6.060  -2.388  -6.581  1.00  0.00     0.162 A 
ATOM      5  C   UNL     1      -4.669  -2.486  -4.591  1.00  0.00     0.162 A 
ATOM      6  C   UNL     1      -5.928  -2.610  -5.200  1.00  0.00     0.200 A 
ENDROOT
BRANCH   1   7
ATOM      7  C   UNL     1      -2.494  -1.556  -7.560  1.00  0.00     0.072 C 
ATOM      8  O   UNL     1      -2.414  -0.423  -8.103  1.00  0.00    -0.545 OA
ATOM      9  O   UNL     1      -1.454  -2.462  -7.738  1.00  0.00    -0.545 OA
ENDBRANCH   1   7
BRANCH   4  10
ATOM     10  O   UNL     1      -7.297  -2.505  -7.215  1.00  0.00    -0.504 OA
ATOM     11  H   UNL     1      -7.436  -2.229  -8.179  1.00  0.00     0.293 HD
ENDBRANCH   4  10
BRANCH   5  12
ATOM     12  O   UNL     1      -4.532  -2.704  -3.221  1.00  0.00    -0.504 OA
ATOM     13  H   UNL     1      -5.333  -2.706  -2.600  1.00  0.00     0.293 HD
ENDBRANCH   5  12
BRANCH   6  14
ATOM     14  O   UNL     1      -7.053  -2.952  -4.447  1.00  0.00    -0.502 OA
ATOM     15  H   UNL     1      -7.979  -2.615  -4.677  1.00  0.00     0.293 HD
ENDBRANCH   6  14
TORSDOF 4
ENDMDL
MODEL 7
REMARK VINA RESULT:    -3.425     16.577     17.263
REMARK INTER + INTRA:          -3.977
REMARK INTER:                  -3.932
REMARK INTRA:                  -0.046
REMARK UNBOUND:                -0.052
REMARK SMILES O=C([O-])c1cc(O)c(O)c(O)c1
REMARK SMILES IDX 4 1 5 2 12 3 6 4 10 5 8 6 2 7 1 8 3 9 7 10 11 12 9 14
REMARK H PARENT 7 11 11 13 9 15
REMARK Flexibility Score: inf
ROOT
ATOM      1  C   UNL     1      -3.674  -1.919  -6.762  1.00  0.00     0.005 A 
ATOM      2  C   UNL     1      -3.554  -2.130  -5.378  1.00  0.00     0.060 A 
ATOM      3  C   UNL     1      -4.937  -2.051  -7.365  1.00  0.00     0.060 A 
ATOM      4  C   UNL     1      -4.672  -2.465  -4.607  1.00  0.00     0.162 A 
ATOM      5  C   UNL     1      -6.063  -2.387  -6.598  1.00  0.00     0.162 A 
ATOM      6  C   UNL     1      -5.932  -2.596  -5.216  1.00  0.00     0.200 A 
ENDROOT
BRANCH   1   7
ATOM      7  C   UNL     1      -2.486  -1.564  -7.570  1.00  0.00     0.072 C 
ATOM      8  O   UNL     1      -2.394  -0.431  -8.110  1.00  0.00    -0.545 OA
ATOM      9  O   UNL     1      -1.453  -2.479  -7.742  1.00  0.00    -0.545 OA
ENDBRANCH   1   7
BRANCH   4  10
ATOM     10  O   UNL     1      -4.511  -2.665  -3.236  1.00  0.00    -0.504 OA
ATOM     11  H   UNL     1      -3.703  -3.139  -2.852  1.00  0.00     0.293 HD
ENDBRANCH   4  10
BRANCH   5  12
ATOM     12  O   UNL     1      -7.309  -2.516  -7.209  1.00  0.00    -0.504 OA
ATOM     13  H   UNL     1      -7.431  -3.048  -8.063  1.00  0.00     0.293 HD
ENDBRANCH   5  12
BRANCH   6  14
ATOM     14  O   UNL     1      -7.042  -2.931  -4.438  1.00  0.00    -0.502 OA
ATOM     15  H   UNL     1      -7.753  -2.253  -4.193  1.00  0.00     0.293 HD
ENDBRANCH   6  14
TORSDOF 4
ENDMDL
MODEL 8
REMARK VINA RESULT:    -3.423      1.595      4.252
REMARK INTER + INTRA:          -3.975
REMARK INTER:                  -3.923
REMARK INTRA:                  -0.051
REMARK UNBOUND:                -0.052
REMARK SMILES O=C([O-])c1cc(O)c(O)c(O)c1
REMARK SMILES IDX 4 1 5 2 12 3 6 4 10 5 8 6 2 7 1 8 3 9 7 10 11 12 9 14
REMARK H PARENT 7 11 11 13 9 15
REMARK Flexibility Score: inf
ROOT
ATOM      1  C   UNL     1      -5.188 -17.096  -7.122  1.00  0.00     0.005 A 
ATOM      2  C   UNL     1      -4.084 -17.847  -7.561  1.00  0.00     0.060 A 
ATOM      3  C   UNL     1      -6.398 -17.185  -7.831  1.00  0.00     0.060 A 
ATOM      4  C   UNL     1      -4.184 -18.672  -8.687  1.00  0.00     0.162 A 
ATOM      5  C   UNL     1      -6.506 -18.009  -8.960  1.00  0.00     0.162 A 
ATOM      6  C   UNL     1      -5.397 -18.756  -9.391  1.00  0.00     0.200 A 
ENDROOT
BRANCH   1   7
ATOM      7  C   UNL     1      -5.073 -16.227  -5.930  1.00  0.00     0.072 C 
ATOM      8  O   UNL     1      -3.949 -15.802  -5.554  1.00  0.00    -0.545 OA
ATOM      9  O   UNL     1      -6.206 -15.866  -5.210  1.00  0.00    -0.545 OA
ENDBRANCH   1   7
BRANCH   4  10
ATOM     10  O   UNL     1      -3.065 -19.402  -9.089  1.00  0.00    -0.504 OA
ATOM     11  H   UNL     1      -2.132 -19.011  -9.070  1.00  0.00     0.293 HD
ENDBRANCH   4  10
BRANCH   5  12
ATOM     12  O   UNL     1      -7.712 -18.087  -9.655  1.00  0.00    -0.504 OA
ATOM     13  H   UNL     1      -8.122 -17.275 -10.102  1.00  0.00     0.293 HD
ENDBRANCH   5  12
BRANCH   6  14
ATOM     14  O   UNL     1      -5.487 -19.582 -10.513  1.00  0.00    -0.502 OA
ATOM     15  H   UNL     1      -5.376 -19.227 -11.454  1.00  0.00     0.293 HD
ENDBRANCH   6  14
TORSDOF 4
ENDMDL
MODEL 9
REMARK VINA RESULT:    -3.409      1.639      4.765
REMARK INTER + INTRA:          -3.959
REMARK INTER:                  -3.908
REMARK INTRA:                  -0.051
REMARK UNBOUND:                -0.052
REMARK SMILES O=C([O-])c1cc(O)c(O)c(O)c1
REMARK SMILES IDX 4 1 5 2 12 3 6 4 10 5 8 6 2 7 1 8 3 9 7 10 11 12 9 14
REMARK H PARENT 7 11 11 13 9 15
REMARK Flexibility Score: inf
ROOT
ATOM      1  C   UNL     1      -5.198 -17.073  -7.071  1.00  0.00     0.005 A 
ATOM      2  C   UNL     1      -6.413 -17.166  -7.770  1.00  0.00     0.060 A 
ATOM      3  C   UNL     1      -4.100 -17.833  -7.508  1.00  0.00     0.060 A 
ATOM      4  C   UNL     1      -6.534 -18.002  -8.885  1.00  0.00     0.162 A 
ATOM      5  C   UNL     1      -4.213 -18.674  -8.625  1.00  0.00     0.162 A 
ATOM      6  C   UNL     1      -5.432 -18.759  -9.317  1.00  0.00     0.200 A 
ENDROOT
BRANCH   1   7
ATOM      7  C   UNL     1      -5.081 -16.186  -5.892  1.00  0.00     0.072 C 
ATOM      8  O   UNL     1      -3.972 -15.677  -5.581  1.00  0.00    -0.545 OA
ATOM      9  O   UNL     1      -6.195 -15.901  -5.111  1.00  0.00    -0.545 OA
ENDBRANCH   1   7
BRANCH   4  10
ATOM     10  O   UNL     1      -7.757 -18.065  -9.552  1.00  0.00    -0.504 OA
ATOM     11  H   UNL     1      -7.942 -18.750 -10.274  1.00  0.00     0.293 HD
ENDBRANCH   4  10
BRANCH   5  12
ATOM     12  O   UNL     1      -3.116 -19.423  -9.048  1.00  0.00    -0.504 OA
ATOM     13  H   UNL     1      -2.256 -18.982  -9.355  1.00  0.00     0.293 HD
ENDBRANCH   5  12
BRANCH   6  14
ATOM     14  O   UNL     1      -5.561 -19.591 -10.431  1.00  0.00    -0.502 OA
ATOM     15  H   UNL     1      -4.817 -20.208 -10.733  1.00  0.00     0.293 HD
ENDBRANCH   6  14
TORSDOF 4
ENDMDL
