MODEL 1
REMARK VINA RESULT:    -2.744      0.000      0.000
REMARK INTER + INTRA:          -7.033
REMARK INTER:                  -5.952
REMARK INTRA:                  -1.080
REMARK UNBOUND:                -1.080
REMARK SMILES CCCCCCCCCCCCCCCCCCCCCC(=O)[O-]
REMARK SMILES IDX 12 1 11 2 10 3 9 4 8 5 7 6 6 7 5 8 4 9 3 10 2 11 1 12 13 13
REMARK SMILES IDX 14 14 15 15 16 16 17 17 18 18 19 19 20 20 21 21 22 22 23 23
REMARK SMILES IDX 24 24
REMARK H PARENT
REMARK Flexibility Score: inf
ROOT
ATOM      1  C   UNL     1      -9.996   8.060   7.436  1.00  0.00     0.000 C 
ENDROOT
BRANCH   1   2
ATOM      2  C   UNL     1      -8.609   8.018   8.092  1.00  0.00     0.000 C 
BRANCH   2   3
ATOM      3  C   UNL     1      -8.524   9.001   9.268  1.00  0.00     0.000 C 
BRANCH   3   4
ATOM      4  C   UNL     1      -7.168   9.739   9.317  1.00  0.00    -0.000 C 
BRANCH   4   5
ATOM      5  C   UNL     1      -6.275   9.475   8.089  1.00  0.00    -0.000 C 
BRANCH   5   6
ATOM      6  C   UNL     1      -4.914   8.832   8.406  1.00  0.00    -0.000 C 
BRANCH   6   7
ATOM      7  C   UNL     1      -4.960   7.317   8.689  1.00  0.00    -0.000 C 
BRANCH   7   8
ATOM      8  C   UNL     1      -5.546   6.959  10.071  1.00  0.00    -0.000 C 
BRANCH   8   9
ATOM      9  C   UNL     1      -6.079   5.516  10.125  1.00  0.00    -0.000 C 
BRANCH   9  10
ATOM     10  C   UNL     1      -7.615   5.455   9.991  1.00  0.00    -0.000 C 
BRANCH  10  11
ATOM     11  C   UNL     1      -8.126   4.168   9.320  1.00  0.00    -0.003 C 
ATOM     12  C   UNL     1      -9.637   3.988   9.446  1.00  0.00     0.004 C 
ENDBRANCH  10  11
ENDBRANCH   9  10
ENDBRANCH   8   9
ENDBRANCH   7   8
ENDBRANCH   6   7
ENDBRANCH   5   6
ENDBRANCH   4   5
ENDBRANCH   3   4
ENDBRANCH   2   3
ENDBRANCH   1   2
BRANCH   1  13
ATOM     13  C   UNL     1      -9.894   8.496   5.966  1.00  0.00     0.000 C 
BRANCH  13  14
ATOM     14  C   UNL     1     -10.087   7.328   4.986  1.00  0.00     0.000 C 
BRANCH  14  15
ATOM     15  C   UNL     1      -9.183   7.442   3.745  1.00  0.00     0.000 C 
BRANCH  15  16
ATOM     16  C   UNL     1      -7.910   8.264   4.012  1.00  0.00     0.000 C 
BRANCH  16  17
ATOM     17  C   UNL     1      -7.191   8.784   2.751  1.00  0.00     0.000 C 
BRANCH  17  18
ATOM     18  C   UNL     1      -7.960   9.896   2.008  1.00  0.00     0.000 C 
BRANCH  18  19
ATOM     19  C   UNL     1      -9.474   9.619   1.949  1.00  0.00     0.000 C 
BRANCH  19  20
ATOM     20  C   UNL     1     -10.125  10.125   0.648  1.00  0.00     0.006 C 
BRANCH  20  21
ATOM     21  C   UNL     1      -9.388   9.676  -0.626  1.00  0.00     0.053 C 
BRANCH  21  22
ATOM     22  C   UNL     1      -9.858   8.343  -1.121  1.00  0.00     0.041 C 
ATOM     23  O   UNL     1     -10.016   8.144  -2.354  1.00  0.00    -0.550 OA
ATOM     24  O   UNL     1     -10.122   7.319  -0.220  1.00  0.00    -0.550 OA
ENDBRANCH  21  22
ENDBRANCH  20  21
ENDBRANCH  19  20
ENDBRANCH  18  19
ENDBRANCH  17  18
ENDBRANCH  16  17
ENDBRANCH  15  16
ENDBRANCH  14  15
ENDBRANCH  13  14
ENDBRANCH   1  13
TORSDOF 20
ENDMDL
MODEL 2
REMARK VINA RESULT:    -2.558      3.128      8.718
REMARK INTER + INTRA:          -6.630
REMARK INTER:                  -5.307
REMARK INTRA:                  -1.323
REMARK UNBOUND:                -1.080
REMARK SMILES CCCCCCCCCCCCCCCCCCCCCC(=O)[O-]
REMARK SMILES IDX 12 1 11 2 10 3 9 4 8 5 7 6 6 7 5 8 4 9 3 10 2 11 1 12 13 13
REMARK SMILES IDX 14 14 15 15 16 16 17 17 18 18 19 19 20 20 21 21 22 22 23 23
REMARK SMILES IDX 24 24
REMARK H PARENT
REMARK Flexibility Score: inf
ROOT
ATOM      1  C   UNL     1      -8.060   9.441   6.560  1.00  0.00     0.000 C 
ENDROOT
BRANCH   1   2
ATOM      2  C   UNL     1      -8.432   7.989   6.887  1.00  0.00     0.000 C 
BRANCH   2   3
ATOM      3  C   UNL     1      -9.864   7.669   6.436  1.00  0.00     0.000 C 
BRANCH   3   4
ATOM      4  C   UNL     1     -10.124   8.085   4.972  1.00  0.00    -0.000 C 
BRANCH   4   5
ATOM      5  C   UNL     1      -8.931   7.818   4.032  1.00  0.00    -0.000 C 
BRANCH   5   6
ATOM      6  C   UNL     1      -8.353   9.070   3.351  1.00  0.00    -0.000 C 
BRANCH   6   7
ATOM      7  C   UNL     1      -9.402  10.030   2.756  1.00  0.00    -0.000 C 
BRANCH   7   8
ATOM      8  C   UNL     1     -10.062   9.508   1.462  1.00  0.00    -0.000 C 
BRANCH   8   9
ATOM      9  C   UNL     1      -9.026   9.131   0.388  1.00  0.00    -0.000 C 
BRANCH   9  10
ATOM     10  C   UNL     1      -9.550   8.040  -0.571  1.00  0.00    -0.000 C 
BRANCH  10  11
ATOM     11  C   UNL     1     -10.085   8.594  -1.902  1.00  0.00    -0.003 C 
ATOM     12  C   UNL     1      -9.425   9.910  -2.310  1.00  0.00     0.004 C 
ENDBRANCH  10  11
ENDBRANCH   9  10
ENDBRANCH   8   9
ENDBRANCH   7   8
ENDBRANCH   6   7
ENDBRANCH   5   6
ENDBRANCH   4   5
ENDBRANCH   3   4
ENDBRANCH   2   3
ENDBRANCH   1   2
BRANCH   1  13
ATOM     13  C   UNL     1      -7.382  10.116   7.762  1.00  0.00     0.000 C 
BRANCH  13  14
ATOM     14  C   UNL     1      -6.036   9.470   8.124  1.00  0.00     0.000 C 
BRANCH  14  15
ATOM     15  C   UNL     1      -5.812   9.383   9.644  1.00  0.00     0.000 C 
BRANCH  15  16
ATOM     16  C   UNL     1      -4.323   9.436  10.029  1.00  0.00     0.000 C 
BRANCH  16  17
ATOM     17  C   UNL     1      -3.502   8.190   9.641  1.00  0.00     0.000 C 
BRANCH  17  18
ATOM     18  C   UNL     1      -4.118   6.861  10.125  1.00  0.00     0.000 C 
BRANCH  18  19
ATOM     19  C   UNL     1      -4.871   6.125   9.003  1.00  0.00     0.000 C 
BRANCH  19  20
ATOM     20  C   UNL     1      -6.016   5.239   9.531  1.00  0.00     0.006 C 
BRANCH  20  21
ATOM     21  C   UNL     1      -7.288   6.026   9.895  1.00  0.00     0.053 C 
BRANCH  21  22
ATOM     22  C   UNL     1      -8.531   5.384   9.361  1.00  0.00     0.041 C 
ATOM     23  O   UNL     1      -9.604   5.437  10.018  1.00  0.00    -0.550 OA
ATOM     24  O   UNL     1      -8.505   4.726   8.137  1.00  0.00    -0.550 OA
ENDBRANCH  21  22
ENDBRANCH  20  21
ENDBRANCH  19  20
ENDBRANCH  18  19
ENDBRANCH  17  18
ENDBRANCH  16  17
ENDBRANCH  15  16
ENDBRANCH  14  15
ENDBRANCH  13  14
ENDBRANCH   1  13
TORSDOF 20
ENDMDL
MODEL 3
REMARK VINA RESULT:    -2.340      3.395      9.033
REMARK INTER + INTRA:          -6.156
REMARK INTER:                  -4.753
REMARK INTRA:                  -1.403
REMARK UNBOUND:                -1.080
REMARK SMILES CCCCCCCCCCCCCCCCCCCCCC(=O)[O-]
REMARK SMILES IDX 12 1 11 2 10 3 9 4 8 5 7 6 6 7 5 8 4 9 3 10 2 11 1 12 13 13
REMARK SMILES IDX 14 14 15 15 16 16 17 17 18 18 19 19 20 20 21 21 22 22 23 23
REMARK SMILES IDX 24 24
REMARK H PARENT
REMARK Flexibility Score: inf
ROOT
ATOM      1  C   UNL     1      -9.164   7.594   6.320  1.00  0.00     0.000 C 
ENDROOT
BRANCH   1   2
ATOM      2  C   UNL     1      -8.446   8.873   6.772  1.00  0.00     0.000 C 
BRANCH   2   3
ATOM      3  C   UNL     1      -9.130  10.124   6.201  1.00  0.00     0.000 C 
BRANCH   3   4
ATOM      4  C   UNL     1      -9.846   9.840   4.863  1.00  0.00    -0.000 C 
BRANCH   4   5
ATOM      5  C   UNL     1      -8.893   9.775   3.654  1.00  0.00    -0.000 C 
BRANCH   5   6
ATOM      6  C   UNL     1      -9.490   9.122   2.395  1.00  0.00    -0.000 C 
BRANCH   6   7
ATOM      7  C   UNL     1     -10.124  10.104   1.391  1.00  0.00    -0.000 C 
BRANCH   7   8
ATOM      8  C   UNL     1     -10.125   9.593  -0.066  1.00  0.00    -0.000 C 
BRANCH   8   9
ATOM      9  C   UNL     1      -8.701   9.405  -0.621  1.00  0.00    -0.000 C 
BRANCH   9  10
ATOM     10  C   UNL     1      -8.536  10.021  -2.026  1.00  0.00    -0.000 C 
BRANCH  10  11
ATOM     11  C   UNL     1      -9.629   9.593  -3.020  1.00  0.00    -0.003 C 
ATOM     12  C   UNL     1      -9.825   8.079  -3.077  1.00  0.00     0.004 C 
ENDBRANCH  10  11
ENDBRANCH   9  10
ENDBRANCH   8   9
ENDBRANCH   7   8
ENDBRANCH   6   7
ENDBRANCH   5   6
ENDBRANCH   4   5
ENDBRANCH   3   4
ENDBRANCH   2   3
ENDBRANCH   1   2
BRANCH   1  13
ATOM     13  C   UNL     1      -8.378   6.345   6.746  1.00  0.00     0.000 C 
BRANCH  13  14
ATOM     14  C   UNL     1      -9.291   5.190   7.184  1.00  0.00     0.000 C 
BRANCH  14  15
ATOM     15  C   UNL     1      -9.471   5.125   8.711  1.00  0.00     0.000 C 
BRANCH  15  16
ATOM     16  C   UNL     1      -8.822   3.876   9.332  1.00  0.00     0.000 C 
BRANCH  16  17
ATOM     17  C   UNL     1      -7.295   3.773   9.152  1.00  0.00     0.000 C 
BRANCH  17  18
ATOM     18  C   UNL     1      -6.494   4.729  10.060  1.00  0.00     0.000 C 
BRANCH  18  19
ATOM     19  C   UNL     1      -5.537   5.631   9.259  1.00  0.00     0.000 C 
BRANCH  19  20
ATOM     20  C   UNL     1      -5.339   7.016   9.903  1.00  0.00     0.006 C 
BRANCH  20  21
ATOM     21  C   UNL     1      -6.114   8.142   9.196  1.00  0.00     0.053 C 
BRANCH  21  22
ATOM     22  C   UNL     1      -5.229   9.284   8.799  1.00  0.00     0.041 C 
ATOM     23  O   UNL     1      -5.104   9.597   7.586  1.00  0.00    -0.550 OA
ATOM     24  O   UNL     1      -4.540  10.002   9.769  1.00  0.00    -0.550 OA
ENDBRANCH  21  22
ENDBRANCH  20  21
ENDBRANCH  19  20
ENDBRANCH  18  19
ENDBRANCH  17  18
ENDBRANCH  16  17
ENDBRANCH  15  16
ENDBRANCH  14  15
ENDBRANCH  13  14
ENDBRANCH   1  13
TORSDOF 20
ENDMDL
MODEL 4
REMARK VINA RESULT:    -1.997      3.584      9.072
REMARK INTER + INTRA:          -5.411
REMARK INTER:                  -4.635
REMARK INTRA:                  -0.776
REMARK UNBOUND:                -1.080
REMARK SMILES CCCCCCCCCCCCCCCCCCCCCC(=O)[O-]
REMARK SMILES IDX 12 1 11 2 10 3 9 4 8 5 7 6 6 7 5 8 4 9 3 10 2 11 1 12 13 13
REMARK SMILES IDX 14 14 15 15 16 16 17 17 18 18 19 19 20 20 21 21 22 22 23 23
REMARK SMILES IDX 24 24
REMARK H PARENT
REMARK Flexibility Score: inf
ROOT
ATOM      1  C   UNL     1      -8.929   7.884   5.707  1.00  0.00     0.000 C 
ENDROOT
BRANCH   1   2
ATOM      2  C   UNL     1     -10.092   8.260   4.779  1.00  0.00     0.000 C 
BRANCH   2   3
ATOM      3  C   UNL     1     -10.101   9.767   4.486  1.00  0.00     0.000 C 
BRANCH   3   4
ATOM      4  C   UNL     1      -9.914  10.072   2.984  1.00  0.00    -0.000 C 
BRANCH   4   5
ATOM      5  C   UNL     1      -9.879   8.813   2.096  1.00  0.00    -0.000 C 
BRANCH   5   6
ATOM      6  C   UNL     1      -9.720   9.088   0.591  1.00  0.00    -0.000 C 
BRANCH   6   7
ATOM      7  C   UNL     1      -8.294   9.472   0.147  1.00  0.00    -0.000 C 
BRANCH   7   8
ATOM      8  C   UNL     1      -8.048   9.310  -1.368  1.00  0.00    -0.000 C 
BRANCH   8   9
ATOM      9  C   UNL     1      -9.049  10.118  -2.214  1.00  0.00    -0.000 C 
BRANCH   9  10
ATOM     10  C   UNL     1     -10.125   9.221  -2.861  1.00  0.00    -0.000 C 
BRANCH  10  11
ATOM     11  C   UNL     1      -9.752   7.729  -2.884  1.00  0.00    -0.003 C 
ATOM     12  C   UNL     1     -10.088   7.009  -1.579  1.00  0.00     0.004 C 
ENDBRANCH  10  11
ENDBRANCH   9  10
ENDBRANCH   8   9
ENDBRANCH   7   8
ENDBRANCH   6   7
ENDBRANCH   5   6
ENDBRANCH   4   5
ENDBRANCH   3   4
ENDBRANCH   2   3
ENDBRANCH   1   2
BRANCH   1  13
ATOM     13  C   UNL     1      -9.376   7.894   7.177  1.00  0.00     0.000 C 
BRANCH  13  14
ATOM     14  C   UNL     1      -9.002   9.196   7.902  1.00  0.00     0.000 C 
BRANCH  14  15
ATOM     15  C   UNL     1      -8.332   8.942   9.264  1.00  0.00     0.000 C 
BRANCH  15  16
ATOM     16  C   UNL     1      -7.040   9.756   9.452  1.00  0.00     0.000 C 
BRANCH  16  17
ATOM     17  C   UNL     1      -5.915   9.439   8.446  1.00  0.00     0.000 C 
BRANCH  17  18
ATOM     18  C   UNL     1      -4.834   8.487   8.999  1.00  0.00     0.000 C 
BRANCH  18  19
ATOM     19  C   UNL     1      -4.982   7.056   8.451  1.00  0.00     0.000 C 
BRANCH  19  20
ATOM     20  C   UNL     1      -5.943   6.190   9.287  1.00  0.00     0.006 C 
BRANCH  20  21
ATOM     21  C   UNL     1      -7.142   5.650   8.487  1.00  0.00     0.053 C 
BRANCH  21  22
ATOM     22  C   UNL     1      -7.964   4.676   9.274  1.00  0.00     0.041 C 
ATOM     23  O   UNL     1      -8.947   5.077   9.951  1.00  0.00    -0.550 OA
ATOM     24  O   UNL     1      -7.644   3.324   9.261  1.00  0.00    -0.550 OA
ENDBRANCH  21  22
ENDBRANCH  20  21
ENDBRANCH  19  20
ENDBRANCH  18  19
ENDBRANCH  17  18
ENDBRANCH  16  17
ENDBRANCH  15  16
ENDBRANCH  14  15
ENDBRANCH  13  14
ENDBRANCH   1  13
TORSDOF 20
ENDMDL
MODEL 5
REMARK VINA RESULT:    -1.877      1.301      2.841
REMARK INTER + INTRA:          -5.151
REMARK INTER:                  -4.934
REMARK INTRA:                  -0.218
REMARK UNBOUND:                -1.080
REMARK SMILES CCCCCCCCCCCCCCCCCCCCCC(=O)[O-]
REMARK SMILES IDX 12 1 11 2 10 3 9 4 8 5 7 6 6 7 5 8 4 9 3 10 2 11 1 12 13 13
REMARK SMILES IDX 14 14 15 15 16 16 17 17 18 18 19 19 20 20 21 21 22 22 23 23
REMARK SMILES IDX 24 24
REMARK H PARENT
REMARK Flexibility Score: inf
ROOT
ATOM      1  C   UNL     1      -9.822   7.633   4.965  1.00  0.00     0.000 C 
ENDROOT
BRANCH   1   2
ATOM      2  C   UNL     1      -9.961   7.792   6.485  1.00  0.00     0.000 C 
BRANCH   2   3
ATOM      3  C   UNL     1     -10.046   9.272   6.882  1.00  0.00     0.000 C 
BRANCH   3   4
ATOM      4  C   UNL     1     -10.110   9.466   8.412  1.00  0.00    -0.000 C 
BRANCH   4   5
ATOM      5  C   UNL     1      -8.732   9.687   9.066  1.00  0.00    -0.000 C 
BRANCH   5   6
ATOM      6  C   UNL     1      -8.341   8.636  10.119  1.00  0.00    -0.000 C 
BRANCH   6   7
ATOM      7  C   UNL     1      -9.193   7.351  10.103  1.00  0.00    -0.000 C 
BRANCH   7   8
ATOM      8  C   UNL     1      -8.394   6.078   9.751  1.00  0.00    -0.000 C 
BRANCH   8   9
ATOM      9  C   UNL     1      -6.886   6.242  10.012  1.00  0.00    -0.000 C 
BRANCH   9  10
ATOM     10  C   UNL     1      -6.051   6.101   8.722  1.00  0.00    -0.000 C 
BRANCH  10  11
ATOM     11  C   UNL     1      -4.632   6.685   8.838  1.00  0.00    -0.003 C 
ATOM     12  C   UNL     1      -4.612   8.212   8.819  1.00  0.00     0.004 C 
ENDBRANCH  10  11
ENDBRANCH   9  10
ENDBRANCH   8   9
ENDBRANCH   7   8
ENDBRANCH   6   7
ENDBRANCH   5   6
ENDBRANCH   4   5
ENDBRANCH   3   4
ENDBRANCH   2   3
ENDBRANCH   1   2
BRANCH   1  13
ATOM     13  C   UNL     1      -8.347   7.711   4.540  1.00  0.00     0.000 C 
BRANCH  13  14
ATOM     14  C   UNL     1      -7.403   7.986   5.720  1.00  0.00     0.000 C 
BRANCH  14  15
ATOM     15  C   UNL     1      -6.907   9.443   5.753  1.00  0.00     0.000 C 
BRANCH  15  16
ATOM     16  C   UNL     1      -6.963  10.120   4.372  1.00  0.00     0.000 C 
BRANCH  16  17
ATOM     17  C   UNL     1      -7.056   9.155   3.174  1.00  0.00     0.000 C 
BRANCH  17  18
ATOM     18  C   UNL     1      -7.815   9.735   1.963  1.00  0.00     0.000 C 
BRANCH  18  19
ATOM     19  C   UNL     1      -9.342   9.686   2.153  1.00  0.00     0.000 C 
BRANCH  19  20
ATOM     20  C   UNL     1     -10.109   9.592   0.820  1.00  0.00     0.006 C 
BRANCH  20  21
ATOM     21  C   UNL     1      -9.581   8.494  -0.120  1.00  0.00     0.053 C 
BRANCH  21  22
ATOM     22  C   UNL     1      -9.399   8.982  -1.525  1.00  0.00     0.041 C 
ATOM     23  O   UNL     1      -9.938   8.369  -2.484  1.00  0.00    -0.550 OA
ATOM     24  O   UNL     1      -8.632  10.113  -1.776  1.00  0.00    -0.550 OA
ENDBRANCH  21  22
ENDBRANCH  20  21
ENDBRANCH  19  20
ENDBRANCH  18  19
ENDBRANCH  17  18
ENDBRANCH  16  17
ENDBRANCH  15  16
ENDBRANCH  14  15
ENDBRANCH  13  14
ENDBRANCH   1  13
TORSDOF 20
ENDMDL
MODEL 6
REMARK VINA RESULT:    -1.530      2.989      9.235
REMARK INTER + INTRA:          -4.398
REMARK INTER:                  -2.914
REMARK INTRA:                  -1.484
REMARK UNBOUND:                -1.080
REMARK SMILES CCCCCCCCCCCCCCCCCCCCCC(=O)[O-]
REMARK SMILES IDX 12 1 11 2 10 3 9 4 8 5 7 6 6 7 5 8 4 9 3 10 2 11 1 12 13 13
REMARK SMILES IDX 14 14 15 15 16 16 17 17 18 18 19 19 20 20 21 21 22 22 23 23
REMARK SMILES IDX 24 24
REMARK H PARENT
REMARK Flexibility Score: inf
ROOT
ATOM      1  C   UNL     1      -8.545   9.948   5.552  1.00  0.00     0.000 C 
ENDROOT
BRANCH   1   2
ATOM      2  C   UNL     1      -8.608   8.490   5.079  1.00  0.00     0.000 C 
BRANCH   2   3
ATOM      3  C   UNL     1     -10.030   8.111   4.640  1.00  0.00     0.000 C 
BRANCH   3   4
ATOM      4  C   UNL     1     -10.117   7.816   3.127  1.00  0.00    -0.000 C 
BRANCH   4   5
ATOM      5  C   UNL     1      -9.131   8.642   2.278  1.00  0.00    -0.000 C 
BRANCH   5   6
ATOM      6  C   UNL     1      -9.634   8.999   0.868  1.00  0.00    -0.000 C 
BRANCH   6   7
ATOM      7  C   UNL     1      -9.787   7.802  -0.091  1.00  0.00    -0.000 C 
BRANCH   7   8
ATOM      8  C   UNL     1      -9.218   8.057  -1.503  1.00  0.00    -0.000 C 
BRANCH   8   9
ATOM      9  C   UNL     1     -10.124   7.488  -2.610  1.00  0.00    -0.000 C 
BRANCH   9  10
ATOM     10  C   UNL     1     -10.125   5.945  -2.629  1.00  0.00    -0.000 C 
BRANCH  10  11
ATOM     11  C   UNL     1      -9.963   5.345  -4.036  1.00  0.00    -0.003 C 
ATOM     12  C   UNL     1     -10.109   6.382  -5.148  1.00  0.00     0.004 C 
ENDBRANCH  10  11
ENDBRANCH   9  10
ENDBRANCH   8   9
ENDBRANCH   7   8
ENDBRANCH   6   7
ENDBRANCH   5   6
ENDBRANCH   4   5
ENDBRANCH   3   4
ENDBRANCH   2   3
ENDBRANCH   1   2
BRANCH   1  13
ATOM     13  C   UNL     1      -8.049  10.031   7.004  1.00  0.00     0.000 C 
BRANCH  13  14
ATOM     14  C   UNL     1      -6.687   9.349   7.205  1.00  0.00     0.000 C 
BRANCH  14  15
ATOM     15  C   UNL     1      -6.465   8.890   8.658  1.00  0.00     0.000 C 
BRANCH  15  16
ATOM     16  C   UNL     1      -4.983   8.632   8.979  1.00  0.00     0.000 C 
BRANCH  16  17
ATOM     17  C   UNL     1      -4.659   7.207   9.471  1.00  0.00     0.000 C 
BRANCH  17  18
ATOM     18  C   UNL     1      -5.550   6.113   8.846  1.00  0.00     0.000 C 
BRANCH  18  19
ATOM     19  C   UNL     1      -6.067   5.112   9.895  1.00  0.00     0.000 C 
BRANCH  19  20
ATOM     20  C   UNL     1      -7.568   4.803   9.740  1.00  0.00     0.006 C 
BRANCH  20  21
ATOM     21  C   UNL     1      -8.470   6.043   9.870  1.00  0.00     0.053 C 
BRANCH  21  22
ATOM     22  C   UNL     1      -9.110   6.424   8.571  1.00  0.00     0.041 C 
ATOM     23  O   UNL     1     -10.040   7.273   8.547  1.00  0.00    -0.550 OA
ATOM     24  O   UNL     1      -8.681   5.841   7.385  1.00  0.00    -0.550 OA
ENDBRANCH  21  22
ENDBRANCH  20  21
ENDBRANCH  19  20
ENDBRANCH  18  19
ENDBRANCH  17  18
ENDBRANCH  16  17
ENDBRANCH  15  16
ENDBRANCH  14  15
ENDBRANCH  13  14
ENDBRANCH   1  13
TORSDOF 20
ENDMDL
MODEL 7
REMARK VINA RESULT:    -0.510      1.586      3.620
REMARK INTER + INTRA:          -2.185
REMARK INTER:                  -1.578
REMARK INTRA:                  -0.608
REMARK UNBOUND:                -1.080
REMARK SMILES CCCCCCCCCCCCCCCCCCCCCC(=O)[O-]
REMARK SMILES IDX 12 1 11 2 10 3 9 4 8 5 7 6 6 7 5 8 4 9 3 10 2 11 1 12 13 13
REMARK SMILES IDX 14 14 15 15 16 16 17 17 18 18 19 19 20 20 21 21 22 22 23 23
REMARK SMILES IDX 24 24
REMARK H PARENT
REMARK Flexibility Score: inf
ROOT
ATOM      1  C   UNL     1      -8.824   7.393   3.975  1.00  0.00     0.000 C 
ENDROOT
BRANCH   1   2
ATOM      2  C   UNL     1     -10.011   7.693   4.900  1.00  0.00     0.000 C 
BRANCH   2   3
ATOM      3  C   UNL     1      -9.907   6.899   6.210  1.00  0.00     0.000 C 
BRANCH   3   4
ATOM      4  C   UNL     1      -9.133   7.669   7.302  1.00  0.00    -0.000 C 
BRANCH   4   5
ATOM      5  C   UNL     1      -9.532   7.275   8.738  1.00  0.00    -0.000 C 
BRANCH   5   6
ATOM      6  C   UNL     1      -9.511   5.763   9.023  1.00  0.00    -0.000 C 
BRANCH   6   7
ATOM      7  C   UNL     1      -8.505   5.319  10.103  1.00  0.00    -0.000 C 
BRANCH   7   8
ATOM      8  C   UNL     1      -7.106   4.977   9.549  1.00  0.00    -0.000 C 
BRANCH   8   9
ATOM      9  C   UNL     1      -6.041   6.005   9.973  1.00  0.00    -0.000 C 
BRANCH   9  10
ATOM     10  C   UNL     1      -5.294   6.605   8.763  1.00  0.00    -0.000 C 
BRANCH  10  11
ATOM     11  C   UNL     1      -5.125   8.132   8.838  1.00  0.00    -0.003 C 
ATOM     12  C   UNL     1      -6.199   8.811   9.686  1.00  0.00     0.004 C 
ENDBRANCH  10  11
ENDBRANCH   9  10
ENDBRANCH   8   9
ENDBRANCH   7   8
ENDBRANCH   6   7
ENDBRANCH   5   6
ENDBRANCH   4   5
ENDBRANCH   3   4
ENDBRANCH   2   3
ENDBRANCH   1   2
BRANCH   1  13
ATOM     13  C   UNL     1      -7.504   7.856   4.611  1.00  0.00     0.000 C 
BRANCH  13  14
ATOM     14  C   UNL     1      -6.790   8.932   3.778  1.00  0.00     0.000 C 
BRANCH  14  15
ATOM     15  C   UNL     1      -7.705  10.124   3.444  1.00  0.00     0.000 C 
BRANCH  15  16
ATOM     16  C   UNL     1      -8.217  10.091   1.993  1.00  0.00     0.000 C 
BRANCH  16  17
ATOM     17  C   UNL     1      -8.490   8.684   1.427  1.00  0.00     0.000 C 
BRANCH  17  18
ATOM     18  C   UNL     1      -9.758   8.598   0.553  1.00  0.00     0.000 C 
BRANCH  18  19
ATOM     19  C   UNL     1      -9.441   8.725  -0.948  1.00  0.00     0.000 C 
BRANCH  19  20
ATOM     20  C   UNL     1     -10.124   7.637  -1.799  1.00  0.00     0.006 C 
BRANCH  20  21
ATOM     21  C   UNL     1     -10.027   7.886  -3.314  1.00  0.00     0.053 C 
BRANCH  21  22
ATOM     22  C   UNL     1     -10.033   6.614  -4.105  1.00  0.00     0.041 C 
ATOM     23  O   UNL     1     -10.036   6.650  -5.364  1.00  0.00    -0.550 OA
ATOM     24  O   UNL     1     -10.036   5.387  -3.452  1.00  0.00    -0.550 OA
ENDBRANCH  21  22
ENDBRANCH  20  21
ENDBRANCH  19  20
ENDBRANCH  18  19
ENDBRANCH  17  18
ENDBRANCH  16  17
ENDBRANCH  15  16
ENDBRANCH  14  15
ENDBRANCH  13  14
ENDBRANCH   1  13
TORSDOF 20
ENDMDL
MODEL 8
REMARK VINA RESULT:    -0.436      3.615      9.481
REMARK INTER + INTRA:          -2.026
REMARK INTER:                  -1.050
REMARK INTRA:                  -0.976
REMARK UNBOUND:                -1.080
REMARK SMILES CCCCCCCCCCCCCCCCCCCCCC(=O)[O-]
REMARK SMILES IDX 12 1 11 2 10 3 9 4 8 5 7 6 6 7 5 8 4 9 3 10 2 11 1 12 13 13
REMARK SMILES IDX 14 14 15 15 16 16 17 17 18 18 19 19 20 20 21 21 22 22 23 23
REMARK SMILES IDX 24 24
REMARK H PARENT
REMARK Flexibility Score: inf
ROOT
ATOM      1  C   UNL     1      -8.696   8.109   5.326  1.00  0.00     0.000 C 
ENDROOT
BRANCH   1   2
ATOM      2  C   UNL     1      -8.172   9.537   5.125  1.00  0.00     0.000 C 
BRANCH   2   3
ATOM      3  C   UNL     1      -7.543   9.706   3.735  1.00  0.00     0.000 C 
BRANCH   3   4
ATOM      4  C   UNL     1      -8.579  10.125   2.670  1.00  0.00    -0.000 C 
BRANCH   4   5
ATOM      5  C   UNL     1      -8.571   9.232   1.414  1.00  0.00    -0.000 C 
BRANCH   5   6
ATOM      6  C   UNL     1      -8.929   9.955   0.104  1.00  0.00    -0.000 C 
BRANCH   6   7
ATOM      7  C   UNL     1      -8.839   9.085  -1.165  1.00  0.00    -0.000 C 
BRANCH   7   8
ATOM      8  C   UNL     1     -10.059   8.162  -1.376  1.00  0.00    -0.000 C 
BRANCH   8   9
ATOM      9  C   UNL     1     -10.124   7.597  -2.806  1.00  0.00    -0.000 C 
BRANCH   9  10
ATOM     10  C   UNL     1      -9.442   6.217  -2.921  1.00  0.00    -0.000 C 
BRANCH  10  11
ATOM     11  C   UNL     1      -9.950   5.375  -4.104  1.00  0.00    -0.003 C 
ATOM     12  C   UNL     1      -8.885   4.437  -4.669  1.00  0.00     0.004 C 
ENDBRANCH  10  11
ENDBRANCH   9  10
ENDBRANCH   8   9
ENDBRANCH   7   8
ENDBRANCH   6   7
ENDBRANCH   5   6
ENDBRANCH   4   5
ENDBRANCH   3   4
ENDBRANCH   2   3
ENDBRANCH   1   2
BRANCH   1  13
ATOM     13  C   UNL     1      -8.348   7.591   6.730  1.00  0.00     0.000 C 
BRANCH  13  14
ATOM     14  C   UNL     1      -8.953   6.208   7.019  1.00  0.00     0.000 C 
BRANCH  14  15
ATOM     15  C   UNL     1      -9.471   6.080   8.463  1.00  0.00     0.000 C 
BRANCH  15  16
ATOM     16  C   UNL     1      -9.098   4.736   9.111  1.00  0.00     0.000 C 
BRANCH  16  17
ATOM     17  C   UNL     1      -7.726   4.706   9.813  1.00  0.00     0.000 C 
BRANCH  17  18
ATOM     18  C   UNL     1      -6.931   6.021   9.686  1.00  0.00     0.000 C 
BRANCH  18  19
ATOM     19  C   UNL     1      -5.710   5.878   8.760  1.00  0.00     0.000 C 
BRANCH  19  20
ATOM     20  C   UNL     1      -4.437   6.521   9.343  1.00  0.00     0.006 C 
BRANCH  20  21
ATOM     21  C   UNL     1      -3.966   7.767   8.573  1.00  0.00     0.053 C 
BRANCH  21  22
ATOM     22  C   UNL     1      -4.866   8.945   8.784  1.00  0.00     0.041 C 
ATOM     23  O   UNL     1      -5.194   9.675   7.811  1.00  0.00    -0.550 OA
ATOM     24  O   UNL     1      -5.344   9.239  10.055  1.00  0.00    -0.550 OA
ENDBRANCH  21  22
ENDBRANCH  20  21
ENDBRANCH  19  20
ENDBRANCH  18  19
ENDBRANCH  17  18
ENDBRANCH  16  17
ENDBRANCH  15  16
ENDBRANCH  14  15
ENDBRANCH  13  14
ENDBRANCH   1  13
TORSDOF 20
ENDMDL
MODEL 9
REMARK VINA RESULT:    -0.226      1.712      2.781
REMARK INTER + INTRA:          -1.570
REMARK INTER:                  -0.677
REMARK INTRA:                  -0.893
REMARK UNBOUND:                -1.080
REMARK SMILES CCCCCCCCCCCCCCCCCCCCCC(=O)[O-]
REMARK SMILES IDX 12 1 11 2 10 3 9 4 8 5 7 6 6 7 5 8 4 9 3 10 2 11 1 12 13 13
REMARK SMILES IDX 14 14 15 15 16 16 17 17 18 18 19 19 20 20 21 21 22 22 23 23
REMARK SMILES IDX 24 24
REMARK H PARENT
REMARK Flexibility Score: inf
ROOT
ATOM      1  C   UNL     1      -9.000   7.633   5.348  1.00  0.00     0.000 C 
ENDROOT
BRANCH   1   2
ATOM      2  C   UNL     1      -8.095   7.778   6.578  1.00  0.00     0.000 C 
BRANCH   2   3
ATOM      3  C   UNL     1      -8.645   8.834   7.548  1.00  0.00     0.000 C 
BRANCH   3   4
ATOM      4  C   UNL     1      -7.646   9.168   8.678  1.00  0.00    -0.000 C 
BRANCH   4   5
ATOM      5  C   UNL     1      -6.200   9.372   8.185  1.00  0.00    -0.000 C 
BRANCH   5   6
ATOM      6  C   UNL     1      -5.111   8.963   9.192  1.00  0.00    -0.000 C 
BRANCH   6   7
ATOM      7  C   UNL     1      -4.164   7.847   8.708  1.00  0.00    -0.000 C 
BRANCH   7   8
ATOM      8  C   UNL     1      -3.733   6.869   9.823  1.00  0.00    -0.000 C 
BRANCH   8   9
ATOM      9  C   UNL     1      -4.811   5.811  10.121  1.00  0.00    -0.000 C 
BRANCH   9  10
ATOM     10  C   UNL     1      -5.973   5.858   9.106  1.00  0.00    -0.000 C 
BRANCH  10  11
ATOM     11  C   UNL     1      -7.314   5.373   9.682  1.00  0.00    -0.003 C 
ATOM     12  C   UNL     1      -8.265   4.838   8.612  1.00  0.00     0.004 C 
ENDBRANCH  10  11
ENDBRANCH   9  10
ENDBRANCH   8   9
ENDBRANCH   7   8
ENDBRANCH   6   7
ENDBRANCH   5   6
ENDBRANCH   4   5
ENDBRANCH   3   4
ENDBRANCH   2   3
ENDBRANCH   1   2
BRANCH   1  13
ATOM     13  C   UNL     1      -8.170   7.334   4.090  1.00  0.00     0.000 C 
BRANCH  13  14
ATOM     14  C   UNL     1      -8.321   8.416   3.009  1.00  0.00     0.000 C 
BRANCH  14  15
ATOM     15  C   UNL     1      -9.793   8.713   2.672  1.00  0.00     0.000 C 
BRANCH  15  16
ATOM     16  C   UNL     1      -9.947   9.683   1.489  1.00  0.00     0.000 C 
BRANCH  16  17
ATOM     17  C   UNL     1      -9.249   9.243   0.187  1.00  0.00     0.000 C 
BRANCH  17  18
ATOM     18  C   UNL     1     -10.123   9.400  -1.074  1.00  0.00     0.000 C 
BRANCH  18  19
ATOM     19  C   UNL     1      -9.782   8.358  -2.155  1.00  0.00     0.000 C 
BRANCH  19  20
ATOM     20  C   UNL     1     -10.087   6.914  -1.711  1.00  0.00     0.006 C 
BRANCH  20  21
ATOM     21  C   UNL     1      -9.418   5.844  -2.592  1.00  0.00     0.053 C 
BRANCH  21  22
ATOM     22  C   UNL     1      -9.890   5.893  -4.012  1.00  0.00     0.041 C 
ATOM     23  O   UNL     1     -10.077   7.002  -4.580  1.00  0.00    -0.550 OA
ATOM     24  O   UNL     1     -10.125   4.715  -4.710  1.00  0.00    -0.550 OA
ENDBRANCH  21  22
ENDBRANCH  20  21
ENDBRANCH  19  20
ENDBRANCH  18  19
ENDBRANCH  17  18
ENDBRANCH  16  17
ENDBRANCH  15  16
ENDBRANCH  14  15
ENDBRANCH  13  14
ENDBRANCH   1  13
TORSDOF 20
ENDMDL
