MODEL 1
REMARK VINA RESULT:    -3.683      0.000      0.000
REMARK INTER + INTRA:          -7.122
REMARK INTER:                  -5.836
REMARK INTRA:                  -1.286
REMARK UNBOUND:                -1.286
REMARK SMILES CCCCCCCCCCCC(=O)[O-]
REMARK SMILES IDX 7 1 8 2 9 3 10 4 11 5 12 6 13 7 14 8 6 9 5 10 4 11 3 12 2 13
REMARK SMILES IDX 1 14
REMARK H PARENT
REMARK Flexibility Score: inf
ROOT
ATOM      1  C   UNL     1      27.169 -20.860  25.501  1.00  0.00     0.000 C 
ENDROOT
BRANCH   1   2
ATOM      2  C   UNL     1      27.553 -19.646  26.364  1.00  0.00     0.000 C 
BRANCH   2   3
ATOM      3  C   UNL     1      28.965 -19.122  26.049  1.00  0.00     0.000 C 
BRANCH   3   4
ATOM      4  C   UNL     1      29.740 -18.704  27.313  1.00  0.00     0.006 C 
BRANCH   4   5
ATOM      5  C   UNL     1      29.472 -19.585  28.543  1.00  0.00     0.053 C 
BRANCH   5   6
ATOM      6  C   UNL     1      30.324 -20.818  28.548  1.00  0.00     0.041 C 
ATOM      7  O   UNL     1      29.829 -21.927  28.881  1.00  0.00    -0.550 OA
ATOM      8  O   UNL     1      31.653 -20.747  28.153  1.00  0.00    -0.550 OA
ENDBRANCH   5   6
ENDBRANCH   4   5
ENDBRANCH   3   4
ENDBRANCH   2   3
ENDBRANCH   1   2
BRANCH   1   9
ATOM      9  C   UNL     1      27.610 -22.192  26.131  1.00  0.00     0.000 C 
BRANCH   9  10
ATOM     10  C   UNL     1      28.934 -22.712  25.546  1.00  0.00    -0.000 C 
BRANCH  10  11
ATOM     11  C   UNL     1      28.763 -23.335  24.152  1.00  0.00    -0.000 C 
BRANCH  11  12
ATOM     12  C   UNL     1      29.546 -22.538  23.097  1.00  0.00    -0.000 C 
BRANCH  12  13
ATOM     13  C   UNL     1      28.645 -21.614  22.264  1.00  0.00    -0.003 C 
ATOM     14  C   UNL     1      29.045 -20.143  22.373  1.00  0.00     0.004 C 
ENDBRANCH  12  13
ENDBRANCH  11  12
ENDBRANCH  10  11
ENDBRANCH   9  10
ENDBRANCH   1   9
TORSDOF 10
ENDMDL
MODEL 2
REMARK VINA RESULT:    -3.666      3.161      5.256
REMARK INTER + INTRA:          -7.096
REMARK INTER:                  -5.629
REMARK INTRA:                  -1.466
REMARK UNBOUND:                -1.286
REMARK SMILES CCCCCCCCCCCC(=O)[O-]
REMARK SMILES IDX 7 1 8 2 9 3 10 4 11 5 12 6 13 7 14 8 6 9 5 10 4 11 3 12 2 13
REMARK SMILES IDX 1 14
REMARK H PARENT
REMARK Flexibility Score: inf
ROOT
ATOM      1  C   UNL     1      29.618 -22.858  23.470  1.00  0.00     0.000 C 
ENDROOT
BRANCH   1   2
ATOM      2  C   UNL     1      28.633 -22.201  22.487  1.00  0.00     0.000 C 
BRANCH   2   3
ATOM      3  C   UNL     1      28.917 -20.704  22.279  1.00  0.00     0.000 C 
BRANCH   3   4
ATOM      4  C   UNL     1      30.343 -20.304  22.702  1.00  0.00     0.006 C 
BRANCH   4   5
ATOM      5  C   UNL     1      31.212 -19.753  21.560  1.00  0.00     0.053 C 
BRANCH   5   6
ATOM      6  C   UNL     1      31.983 -20.835  20.867  1.00  0.00     0.041 C 
ATOM      7  O   UNL     1      32.220 -20.751  19.633  1.00  0.00    -0.550 OA
ATOM      8  O   UNL     1      32.467 -21.917  21.590  1.00  0.00    -0.550 OA
ENDBRANCH   5   6
ENDBRANCH   4   5
ENDBRANCH   3   4
ENDBRANCH   2   3
ENDBRANCH   1   2
BRANCH   1   9
ATOM      9  C   UNL     1      28.902 -23.633  24.589  1.00  0.00     0.000 C 
BRANCH   9  10
ATOM     10  C   UNL     1      28.723 -22.794  25.866  1.00  0.00    -0.000 C 
BRANCH  10  11
ATOM     11  C   UNL     1      27.309 -22.208  25.998  1.00  0.00    -0.000 C 
BRANCH  11  12
ATOM     12  C   UNL     1      27.316 -20.696  25.722  1.00  0.00    -0.000 C 
BRANCH  12  13
ATOM     13  C   UNL     1      28.691 -20.056  25.968  1.00  0.00    -0.003 C 
ATOM     14  C   UNL     1      28.715 -18.564  25.638  1.00  0.00     0.004 C 
ENDBRANCH  12  13
ENDBRANCH  11  12
ENDBRANCH  10  11
ENDBRANCH   9  10
ENDBRANCH   1   9
TORSDOF 10
ENDMDL
MODEL 3
REMARK VINA RESULT:    -3.610      2.157      3.967
REMARK INTER + INTRA:          -7.006
REMARK INTER:                  -6.005
REMARK INTRA:                  -1.001
REMARK UNBOUND:                -1.286
REMARK SMILES CCCCCCCCCCCC(=O)[O-]
REMARK SMILES IDX 7 1 8 2 9 3 10 4 11 5 12 6 13 7 14 8 6 9 5 10 4 11 3 12 2 13
REMARK SMILES IDX 1 14
REMARK H PARENT
REMARK Flexibility Score: inf
ROOT
ATOM      1  C   UNL     1      28.768 -22.552  22.870  1.00  0.00     0.000 C 
ENDROOT
BRANCH   1   2
ATOM      2  C   UNL     1      29.244 -22.208  24.292  1.00  0.00     0.000 C 
BRANCH   2   3
ATOM      3  C   UNL     1      28.529 -23.040  25.371  1.00  0.00     0.000 C 
BRANCH   3   4
ATOM      4  C   UNL     1      27.574 -22.197  26.236  1.00  0.00     0.006 C 
BRANCH   4   5
ATOM      5  C   UNL     1      27.276 -20.798  25.674  1.00  0.00     0.053 C 
BRANCH   5   6
ATOM      6  C   UNL     1      28.076 -19.734  26.361  1.00  0.00     0.041 C 
ATOM      7  O   UNL     1      27.954 -18.529  26.017  1.00  0.00    -0.550 OA
ATOM      8  O   UNL     1      28.931 -20.069  27.404  1.00  0.00    -0.550 OA
ENDBRANCH   5   6
ENDBRANCH   4   5
ENDBRANCH   3   4
ENDBRANCH   2   3
ENDBRANCH   1   2
BRANCH   1   9
ATOM      9  C   UNL     1      28.574 -21.301  21.996  1.00  0.00     0.000 C 
BRANCH   9  10
ATOM     10  C   UNL     1      29.114 -20.025  22.664  1.00  0.00    -0.000 C 
BRANCH  10  11
ATOM     11  C   UNL     1      30.011 -19.199  21.729  1.00  0.00    -0.000 C 
BRANCH  11  12
ATOM     12  C   UNL     1      31.479 -19.635  21.853  1.00  0.00    -0.000 C 
BRANCH  12  13
ATOM     13  C   UNL     1      31.937 -20.513  20.678  1.00  0.00    -0.003 C 
ATOM     14  C   UNL     1      32.382 -21.907  21.120  1.00  0.00     0.004 C 
ENDBRANCH  12  13
ENDBRANCH  11  12
ENDBRANCH  10  11
ENDBRANCH   9  10
ENDBRANCH   1   9
TORSDOF 10
ENDMDL
MODEL 4
REMARK VINA RESULT:    -3.585      2.592      3.281
REMARK INTER + INTRA:          -6.967
REMARK INTER:                  -5.659
REMARK INTRA:                  -1.309
REMARK UNBOUND:                -1.286
REMARK SMILES CCCCCCCCCCCC(=O)[O-]
REMARK SMILES IDX 7 1 8 2 9 3 10 4 11 5 12 6 13 7 14 8 6 9 5 10 4 11 3 12 2 13
REMARK SMILES IDX 1 14
REMARK H PARENT
REMARK Flexibility Score: inf
ROOT
ATOM      1  C   UNL     1      28.791 -22.939  25.604  1.00  0.00     0.000 C 
ENDROOT
BRANCH   1   2
ATOM      2  C   UNL     1      27.478 -22.222  25.964  1.00  0.00     0.000 C 
BRANCH   2   3
ATOM      3  C   UNL     1      27.504 -20.727  25.602  1.00  0.00     0.000 C 
BRANCH   3   4
ATOM      4  C   UNL     1      28.910 -20.110  25.718  1.00  0.00     0.006 C 
BRANCH   4   5
ATOM      5  C   UNL     1      28.934 -18.692  26.309  1.00  0.00     0.053 C 
BRANCH   5   6
ATOM      6  C   UNL     1      28.871 -17.638  25.246  1.00  0.00     0.041 C 
ATOM      7  O   UNL     1      28.187 -16.597  25.428  1.00  0.00    -0.550 OA
ATOM      8  O   UNL     1      29.595 -17.791  24.070  1.00  0.00    -0.550 OA
ENDBRANCH   5   6
ENDBRANCH   4   5
ENDBRANCH   3   4
ENDBRANCH   2   3
ENDBRANCH   1   2
BRANCH   1   9
ATOM      9  C   UNL     1      28.627 -23.908  24.422  1.00  0.00     0.000 C 
BRANCH   9  10
ATOM     10  C   UNL     1      29.857 -23.928  23.499  1.00  0.00    -0.000 C 
BRANCH  10  11
ATOM     11  C   UNL     1      30.761 -22.701  23.688  1.00  0.00    -0.000 C 
BRANCH  11  12
ATOM     12  C   UNL     1      30.971 -21.966  22.355  1.00  0.00    -0.000 C 
BRANCH  12  13
ATOM     13  C   UNL     1      30.165 -20.661  22.266  1.00  0.00    -0.003 C 
ATOM     14  C   UNL     1      28.668 -20.903  22.071  1.00  0.00     0.004 C 
ENDBRANCH  12  13
ENDBRANCH  11  12
ENDBRANCH  10  11
ENDBRANCH   9  10
ENDBRANCH   1   9
TORSDOF 10
ENDMDL
MODEL 5
REMARK VINA RESULT:    -3.569      3.279      3.918
REMARK INTER + INTRA:          -6.941
REMARK INTER:                  -5.970
REMARK INTRA:                  -0.971
REMARK UNBOUND:                -1.286
REMARK SMILES CCCCCCCCCCCC(=O)[O-]
REMARK SMILES IDX 7 1 8 2 9 3 10 4 11 5 12 6 13 7 14 8 6 9 5 10 4 11 3 12 2 13
REMARK SMILES IDX 1 14
REMARK H PARENT
REMARK Flexibility Score: inf
ROOT
ATOM      1  C   UNL     1      27.184 -20.904  25.668  1.00  0.00     0.000 C 
ENDROOT
BRANCH   1   2
ATOM      2  C   UNL     1      28.107 -19.849  26.301  1.00  0.00     0.000 C 
BRANCH   2   3
ATOM      3  C   UNL     1      28.919 -19.070  25.252  1.00  0.00     0.000 C 
BRANCH   3   4
ATOM      4  C   UNL     1      29.205 -17.618  25.679  1.00  0.00     0.006 C 
BRANCH   4   5
ATOM      5  C   UNL     1      29.456 -16.651  24.510  1.00  0.00     0.053 C 
BRANCH   5   6
ATOM      6  C   UNL     1      28.460 -15.533  24.481  1.00  0.00     0.041 C 
ATOM      7  O   UNL     1      28.009 -15.115  23.382  1.00  0.00    -0.550 OA
ATOM      8  O   UNL     1      28.003 -14.975  25.669  1.00  0.00    -0.550 OA
ENDBRANCH   5   6
ENDBRANCH   4   5
ENDBRANCH   3   4
ENDBRANCH   2   3
ENDBRANCH   1   2
BRANCH   1   9
ATOM      9  C   UNL     1      27.563 -22.338  26.076  1.00  0.00     0.000 C 
BRANCH   9  10
ATOM     10  C   UNL     1      28.992 -22.715  25.650  1.00  0.00    -0.000 C 
BRANCH  10  11
ATOM     11  C   UNL     1      29.025 -23.863  24.630  1.00  0.00    -0.000 C 
BRANCH  11  12
ATOM     12  C   UNL     1      28.789 -23.337  23.206  1.00  0.00    -0.000 C 
BRANCH  12  13
ATOM     13  C   UNL     1      29.518 -22.011  22.937  1.00  0.00    -0.003 C 
ATOM     14  C   UNL     1      28.670 -21.023  22.136  1.00  0.00     0.004 C 
ENDBRANCH  12  13
ENDBRANCH  11  12
ENDBRANCH  10  11
ENDBRANCH   9  10
ENDBRANCH   1   9
TORSDOF 10
ENDMDL
MODEL 6
REMARK VINA RESULT:    -3.554      4.143      5.643
REMARK INTER + INTRA:          -6.918
REMARK INTER:                  -6.079
REMARK INTRA:                  -0.838
REMARK UNBOUND:                -1.286
REMARK SMILES CCCCCCCCCCCC(=O)[O-]
REMARK SMILES IDX 7 1 8 2 9 3 10 4 11 5 12 6 13 7 14 8 6 9 5 10 4 11 3 12 2 13
REMARK SMILES IDX 1 14
REMARK H PARENT
REMARK Flexibility Score: inf
ROOT
ATOM      1  C   UNL     1      30.010 -20.550  22.721  1.00  0.00     0.000 C 
ENDROOT
BRANCH   1   2
ATOM      2  C   UNL     1      29.717 -19.145  23.275  1.00  0.00     0.000 C 
BRANCH   2   3
ATOM      3  C   UNL     1      29.493 -18.107  22.162  1.00  0.00     0.000 C 
BRANCH   3   4
ATOM      4  C   UNL     1      29.415 -16.666  22.698  1.00  0.00     0.006 C 
BRANCH   4   5
ATOM      5  C   UNL     1      28.307 -15.811  22.062  1.00  0.00     0.053 C 
BRANCH   5   6
ATOM      6  C   UNL     1      27.863 -14.701  22.966  1.00  0.00     0.041 C 
ATOM      7  O   UNL     1      28.193 -14.705  24.181  1.00  0.00    -0.550 OA
ATOM      8  O   UNL     1      27.115 -13.647  22.458  1.00  0.00    -0.550 OA
ENDBRANCH   5   6
ENDBRANCH   4   5
ENDBRANCH   3   4
ENDBRANCH   2   3
ENDBRANCH   1   2
BRANCH   1   9
ATOM      9  C   UNL     1      28.727 -21.314  22.350  1.00  0.00     0.000 C 
BRANCH   9  10
ATOM     10  C   UNL     1      28.764 -22.784  22.804  1.00  0.00    -0.000 C 
BRANCH  10  11
ATOM     11  C   UNL     1      29.432 -22.965  24.175  1.00  0.00    -0.000 C 
BRANCH  11  12
ATOM     12  C   UNL     1      28.381 -22.998  25.296  1.00  0.00    -0.000 C 
BRANCH  12  13
ATOM     13  C   UNL     1      28.308 -21.676  26.077  1.00  0.00    -0.003 C 
ATOM     14  C   UNL     1      27.085 -20.837  25.705  1.00  0.00     0.004 C 
ENDBRANCH  12  13
ENDBRANCH  11  12
ENDBRANCH  10  11
ENDBRANCH   9  10
ENDBRANCH   1   9
TORSDOF 10
ENDMDL
MODEL 7
REMARK VINA RESULT:    -3.520      1.903      2.595
REMARK INTER + INTRA:          -6.864
REMARK INTER:                  -6.047
REMARK INTRA:                  -0.817
REMARK UNBOUND:                -1.286
REMARK SMILES CCCCCCCCCCCC(=O)[O-]
REMARK SMILES IDX 7 1 8 2 9 3 10 4 11 5 12 6 13 7 14 8 6 9 5 10 4 11 3 12 2 13
REMARK SMILES IDX 1 14
REMARK H PARENT
REMARK Flexibility Score: inf
ROOT
ATOM      1  C   UNL     1      28.630 -22.481  26.884  1.00  0.00     0.000 C 
ENDROOT
BRANCH   1   2
ATOM      2  C   UNL     1      29.043 -20.999  26.898  1.00  0.00     0.000 C 
BRANCH   2   3
ATOM      3  C   UNL     1      29.858 -20.626  28.149  1.00  0.00     0.000 C 
BRANCH   3   4
ATOM      4  C   UNL     1      30.090 -21.824  29.088  1.00  0.00     0.006 C 
BRANCH   4   5
ATOM      5  C   UNL     1      31.479 -21.856  29.745  1.00  0.00     0.053 C 
BRANCH   5   6
ATOM      6  C   UNL     1      31.635 -23.021  30.674  1.00  0.00     0.041 C 
ATOM      7  O   UNL     1      32.530 -23.009  31.559  1.00  0.00    -0.550 OA
ATOM      8  O   UNL     1      30.770 -24.104  30.584  1.00  0.00    -0.550 OA
ENDBRANCH   5   6
ENDBRANCH   4   5
ENDBRANCH   3   4
ENDBRANCH   2   3
ENDBRANCH   1   2
BRANCH   1   9
ATOM      9  C   UNL     1      27.945 -22.887  25.568  1.00  0.00     0.000 C 
BRANCH   9  10
ATOM     10  C   UNL     1      28.878 -23.681  24.637  1.00  0.00    -0.000 C 
BRANCH  10  11
ATOM     11  C   UNL     1      29.624 -22.785  23.639  1.00  0.00    -0.000 C 
BRANCH  11  12
ATOM     12  C   UNL     1      28.666 -22.244  22.566  1.00  0.00    -0.000 C 
BRANCH  12  13
ATOM     13  C   UNL     1      28.715 -20.712  22.448  1.00  0.00    -0.003 C 
ATOM     14  C   UNL     1      29.752 -20.081  23.376  1.00  0.00     0.004 C 
ENDBRANCH  12  13
ENDBRANCH  11  12
ENDBRANCH  10  11
ENDBRANCH   9  10
ENDBRANCH   1   9
TORSDOF 10
ENDMDL
MODEL 8
REMARK VINA RESULT:    -3.499     10.256     12.361
REMARK INTER + INTRA:          -6.831
REMARK INTER:                  -6.205
REMARK INTRA:                  -0.625
REMARK UNBOUND:                -1.286
REMARK SMILES CCCCCCCCCCCC(=O)[O-]
REMARK SMILES IDX 7 1 8 2 9 3 10 4 11 5 12 6 13 7 14 8 6 9 5 10 4 11 3 12 2 13
REMARK SMILES IDX 1 14
REMARK H PARENT
REMARK Flexibility Score: inf
ROOT
ATOM      1  C   UNL     1      32.218 -12.914  18.176  1.00  0.00     0.000 C 
ENDROOT
BRANCH   1   2
ATOM      2  C   UNL     1      31.296 -13.405  19.305  1.00  0.00     0.000 C 
BRANCH   2   3
ATOM      3  C   UNL     1      31.105 -12.353  20.411  1.00  0.00     0.000 C 
BRANCH   3   4
ATOM      4  C   UNL     1      29.888 -12.646  21.308  1.00  0.00     0.006 C 
BRANCH   4   5
ATOM      5  C   UNL     1      28.767 -13.438  20.618  1.00  0.00     0.053 C 
BRANCH   5   6
ATOM      6  C   UNL     1      28.161 -14.464  21.527  1.00  0.00     0.041 C 
ATOM      7  O   UNL     1      28.347 -15.690  21.310  1.00  0.00    -0.550 OA
ATOM      8  O   UNL     1      27.419 -14.064  22.631  1.00  0.00    -0.550 OA
ENDBRANCH   5   6
ENDBRANCH   4   5
ENDBRANCH   3   4
ENDBRANCH   2   3
ENDBRANCH   1   2
BRANCH   1   9
ATOM      9  C   UNL     1      32.619 -11.438  18.345  1.00  0.00     0.000 C 
BRANCH   9  10
ATOM     10  C   UNL     1      32.724 -10.697  17.001  1.00  0.00    -0.000 C 
BRANCH  10  11
ATOM     11  C   UNL     1      32.198  -9.256  17.075  1.00  0.00    -0.000 C 
BRANCH  11  12
ATOM     12  C   UNL     1      32.087  -8.788  18.534  1.00  0.00    -0.000 C 
BRANCH  12  13
ATOM     13  C   UNL     1      31.413  -7.413  18.664  1.00  0.00    -0.003 C 
ATOM     14  C   UNL     1      32.049  -6.355  17.763  1.00  0.00     0.004 C 
ENDBRANCH  12  13
ENDBRANCH  11  12
ENDBRANCH  10  11
ENDBRANCH   9  10
ENDBRANCH   1   9
TORSDOF 10
ENDMDL
MODEL 9
REMARK VINA RESULT:    -3.417     12.673     14.438
REMARK INTER + INTRA:          -6.701
REMARK INTER:                  -5.594
REMARK INTRA:                  -1.107
REMARK UNBOUND:                -1.286
REMARK SMILES CCCCCCCCCCCC(=O)[O-]
REMARK SMILES IDX 7 1 8 2 9 3 10 4 11 5 12 6 13 7 14 8 6 9 5 10 4 11 3 12 2 13
REMARK SMILES IDX 1 14
REMARK H PARENT
REMARK Flexibility Score: inf
ROOT
ATOM      1  C   UNL     1      32.364  -6.268  18.114  1.00  0.00     0.000 C 
ENDROOT
BRANCH   1   2
ATOM      2  C   UNL     1      32.418  -6.349  19.649  1.00  0.00     0.000 C 
BRANCH   2   3
ATOM      3  C   UNL     1      31.400  -7.349  20.224  1.00  0.00     0.000 C 
BRANCH   3   4
ATOM      4  C   UNL     1      31.180  -7.172  21.738  1.00  0.00     0.006 C 
BRANCH   4   5
ATOM      5  C   UNL     1      29.823  -7.683  22.246  1.00  0.00     0.053 C 
BRANCH   5   6
ATOM      6  C   UNL     1      29.977  -8.720  23.317  1.00  0.00     0.041 C 
ATOM      7  O   UNL     1      30.259  -9.908  23.011  1.00  0.00    -0.550 OA
ATOM      8  O   UNL     1      29.842  -8.365  24.653  1.00  0.00    -0.550 OA
ENDBRANCH   5   6
ENDBRANCH   4   5
ENDBRANCH   3   4
ENDBRANCH   2   3
ENDBRANCH   1   2
BRANCH   1   9
ATOM      9  C   UNL     1      31.442  -7.336  17.501  1.00  0.00     0.000 C 
BRANCH   9  10
ATOM     10  C   UNL     1      32.125  -8.127  16.373  1.00  0.00    -0.000 C 
BRANCH  10  11
ATOM     11  C   UNL     1      33.182  -9.112  16.894  1.00  0.00    -0.000 C 
BRANCH  11  12
ATOM     12  C   UNL     1      32.517 -10.328  17.557  1.00  0.00    -0.000 C 
BRANCH  12  13
ATOM     13  C   UNL     1      32.944 -10.509  19.022  1.00  0.00    -0.003 C 
ATOM     14  C   UNL     1      31.789 -10.945  19.924  1.00  0.00     0.004 C 
ENDBRANCH  12  13
ENDBRANCH  11  12
ENDBRANCH  10  11
ENDBRANCH   9  10
ENDBRANCH   1   9
TORSDOF 10
ENDMDL
