MODEL 1
REMARK VINA RESULT:    -5.078      0.000      0.000
REMARK INTER + INTRA:         -13.657
REMARK INTER:                 -11.015
REMARK INTRA:                  -2.642
REMARK UNBOUND:                -2.642
REMARK SMILES CCCCCCCCCCCCCCCCCCCCCC(=O)[O-]
REMARK SMILES IDX 12 1 11 2 10 3 9 4 8 5 7 6 6 7 5 8 4 9 3 10 2 11 1 12 13 13
REMARK SMILES IDX 14 14 15 15 16 16 17 17 18 18 19 19 20 20 21 21 22 22 23 23
REMARK SMILES IDX 24 24
REMARK H PARENT
REMARK Flexibility Score: inf
ROOT
ATOM      1  C   UNL     1     -10.538 -39.933  47.996  1.00  0.00     0.000 C 
ENDROOT
BRANCH   1   2
ATOM      2  C   UNL     1      -9.077 -39.524  47.736  1.00  0.00     0.000 C 
BRANCH   2   3
ATOM      3  C   UNL     1      -8.952 -38.143  47.078  1.00  0.00     0.000 C 
BRANCH   3   4
ATOM      4  C   UNL     1      -8.467 -38.268  45.625  1.00  0.00    -0.000 C 
BRANCH   4   5
ATOM      5  C   UNL     1      -9.404 -37.576  44.619  1.00  0.00    -0.000 C 
BRANCH   5   6
ATOM      6  C   UNL     1     -10.437 -36.618  45.246  1.00  0.00    -0.000 C 
BRANCH   6   7
ATOM      7  C   UNL     1     -10.045 -35.128  45.221  1.00  0.00    -0.000 C 
BRANCH   7   8
ATOM      8  C   UNL     1      -9.398 -34.646  43.906  1.00  0.00    -0.000 C 
BRANCH   8   9
ATOM      9  C   UNL     1     -10.317 -33.808  43.001  1.00  0.00    -0.000 C 
BRANCH   9  10
ATOM     10  C   UNL     1      -9.933 -33.899  41.514  1.00  0.00    -0.000 C 
BRANCH  10  11
ATOM     11  C   UNL     1      -9.026 -32.740  41.069  1.00  0.00    -0.003 C 
ATOM     12  C   UNL     1      -7.540 -33.085  41.161  1.00  0.00     0.004 C 
ENDBRANCH  10  11
ENDBRANCH   9  10
ENDBRANCH   8   9
ENDBRANCH   7   8
ENDBRANCH   6   7
ENDBRANCH   5   6
ENDBRANCH   4   5
ENDBRANCH   3   4
ENDBRANCH   2   3
ENDBRANCH   1   2
BRANCH   1  13
ATOM     13  C   UNL     1     -11.234 -40.650  46.821  1.00  0.00     0.000 C 
BRANCH  13  14
ATOM     14  C   UNL     1     -12.326 -39.829  46.112  1.00  0.00     0.000 C 
BRANCH  14  15
ATOM     15  C   UNL     1     -12.206 -39.869  44.582  1.00  0.00     0.000 C 
BRANCH  15  16
ATOM     16  C   UNL     1     -11.070 -40.807  44.145  1.00  0.00     0.000 C 
BRANCH  16  17
ATOM     17  C   UNL     1     -10.926 -40.895  42.617  1.00  0.00     0.000 C 
BRANCH  17  18
ATOM     18  C   UNL     1      -9.501 -41.257  42.175  1.00  0.00     0.000 C 
BRANCH  18  19
ATOM     19  C   UNL     1      -8.481 -40.900  43.267  1.00  0.00     0.000 C 
BRANCH  19  20
ATOM     20  C   UNL     1      -7.167 -41.686  43.130  1.00  0.00     0.006 C 
BRANCH  20  21
ATOM     21  C   UNL     1      -6.154 -41.338  44.228  1.00  0.00     0.053 C 
BRANCH  21  22
ATOM     22  C   UNL     1      -5.404 -42.561  44.652  1.00  0.00     0.041 C 
ATOM     23  O   UNL     1      -5.576 -43.651  44.046  1.00  0.00    -0.550 OA
ATOM     24  O   UNL     1      -4.552 -42.509  45.748  1.00  0.00    -0.550 OA
ENDBRANCH  21  22
ENDBRANCH  20  21
ENDBRANCH  19  20
ENDBRANCH  18  19
ENDBRANCH  17  18
ENDBRANCH  16  17
ENDBRANCH  15  16
ENDBRANCH  14  15
ENDBRANCH  13  14
ENDBRANCH   1  13
TORSDOF 20
ENDMDL
MODEL 2
REMARK VINA RESULT:    -5.073      2.709      5.053
REMARK INTER + INTRA:         -13.647
REMARK INTER:                 -10.975
REMARK INTRA:                  -2.672
REMARK UNBOUND:                -2.642
REMARK SMILES CCCCCCCCCCCCCCCCCCCCCC(=O)[O-]
REMARK SMILES IDX 12 1 11 2 10 3 9 4 8 5 7 6 6 7 5 8 4 9 3 10 2 11 1 12 13 13
REMARK SMILES IDX 14 14 15 15 16 16 17 17 18 18 19 19 20 20 21 21 22 22 23 23
REMARK SMILES IDX 24 24
REMARK H PARENT
REMARK Flexibility Score: inf
ROOT
ATOM      1  C   UNL     1      -9.487 -36.590  44.510  1.00  0.00     0.000 C 
ENDROOT
BRANCH   1   2
ATOM      2  C   UNL     1      -9.142 -35.219  43.902  1.00  0.00     0.000 C 
BRANCH   2   3
ATOM      3  C   UNL     1     -10.200 -34.149  44.205  1.00  0.00     0.000 C 
BRANCH   3   4
ATOM      4  C   UNL     1     -10.666 -33.456  42.916  1.00  0.00    -0.000 C 
BRANCH   4   5
ATOM      5  C   UNL     1      -9.982 -34.016  41.655  1.00  0.00    -0.000 C 
BRANCH   5   6
ATOM      6  C   UNL     1      -9.337 -32.956  40.740  1.00  0.00    -0.000 C 
BRANCH   6   7
ATOM      7  C   UNL     1      -7.844 -32.684  41.008  1.00  0.00    -0.000 C 
BRANCH   7   8
ATOM      8  C   UNL     1      -7.557 -31.700  42.160  1.00  0.00    -0.000 C 
BRANCH   8   9
ATOM      9  C   UNL     1      -7.028 -32.351  43.450  1.00  0.00    -0.000 C 
BRANCH   9  10
ATOM     10  C   UNL     1      -6.953 -31.363  44.628  1.00  0.00    -0.000 C 
BRANCH  10  11
ATOM     11  C   UNL     1      -7.222 -32.040  45.981  1.00  0.00    -0.003 C 
ATOM     12  C   UNL     1      -8.555 -31.618  46.597  1.00  0.00     0.004 C 
ENDBRANCH  10  11
ENDBRANCH   9  10
ENDBRANCH   8   9
ENDBRANCH   7   8
ENDBRANCH   6   7
ENDBRANCH   5   6
ENDBRANCH   4   5
ENDBRANCH   3   4
ENDBRANCH   2   3
ENDBRANCH   1   2
BRANCH   1  13
ATOM     13  C   UNL     1     -10.919 -37.089  44.225  1.00  0.00     0.000 C 
BRANCH  13  14
ATOM     14  C   UNL     1     -11.049 -38.608  44.010  1.00  0.00     0.000 C 
BRANCH  14  15
ATOM     15  C   UNL     1     -12.365 -39.004  43.327  1.00  0.00     0.000 C 
BRANCH  15  16
ATOM     16  C   UNL     1     -13.280 -39.766  44.298  1.00  0.00     0.000 C 
BRANCH  16  17
ATOM     17  C   UNL     1     -12.718 -39.817  45.727  1.00  0.00     0.000 C 
BRANCH  17  18
ATOM     18  C   UNL     1     -13.340 -38.756  46.648  1.00  0.00     0.000 C 
BRANCH  18  19
ATOM     19  C   UNL     1     -12.311 -38.244  47.666  1.00  0.00     0.000 C 
BRANCH  19  20
ATOM     20  C   UNL     1     -11.150 -39.228  47.881  1.00  0.00     0.006 C 
BRANCH  20  21
ATOM     21  C   UNL     1      -9.776 -38.554  47.765  1.00  0.00     0.053 C 
BRANCH  21  22
ATOM     22  C   UNL     1      -8.740 -39.551  47.351  1.00  0.00     0.041 C 
ATOM     23  O   UNL     1      -8.207 -40.304  48.208  1.00  0.00    -0.550 OA
ATOM     24  O   UNL     1      -8.326 -39.615  46.026  1.00  0.00    -0.550 OA
ENDBRANCH  21  22
ENDBRANCH  20  21
ENDBRANCH  19  20
ENDBRANCH  18  19
ENDBRANCH  17  18
ENDBRANCH  16  17
ENDBRANCH  15  16
ENDBRANCH  14  15
ENDBRANCH  13  14
ENDBRANCH   1  13
TORSDOF 20
ENDMDL
MODEL 3
REMARK VINA RESULT:    -5.019      3.368      6.854
REMARK INTER + INTRA:         -13.529
REMARK INTER:                 -11.139
REMARK INTRA:                  -2.390
REMARK UNBOUND:                -2.642
REMARK SMILES CCCCCCCCCCCCCCCCCCCCCC(=O)[O-]
REMARK SMILES IDX 12 1 11 2 10 3 9 4 8 5 7 6 6 7 5 8 4 9 3 10 2 11 1 12 13 13
REMARK SMILES IDX 14 14 15 15 16 16 17 17 18 18 19 19 20 20 21 21 22 22 23 23
REMARK SMILES IDX 24 24
REMARK H PARENT
REMARK Flexibility Score: inf
ROOT
ATOM      1  C   UNL     1      -9.608 -40.305  48.980  1.00  0.00     0.000 C 
ENDROOT
BRANCH   1   2
ATOM      2  C   UNL     1     -11.071 -40.168  48.523  1.00  0.00     0.000 C 
BRANCH   2   3
ATOM      3  C   UNL     1     -11.312 -40.731  47.116  1.00  0.00     0.000 C 
BRANCH   3   4
ATOM      4  C   UNL     1     -12.453 -39.981  46.412  1.00  0.00    -0.000 C 
BRANCH   4   5
ATOM      5  C   UNL     1     -12.767 -40.544  45.014  1.00  0.00    -0.000 C 
BRANCH   5   6
ATOM      6  C   UNL     1     -12.608 -39.538  43.857  1.00  0.00    -0.000 C 
BRANCH   6   7
ATOM      7  C   UNL     1     -11.545 -39.914  42.807  1.00  0.00    -0.000 C 
BRANCH   7   8
ATOM      8  C   UNL     1     -10.280 -40.591  43.373  1.00  0.00    -0.000 C 
BRANCH   8   9
ATOM      9  C   UNL     1      -9.613 -41.608  42.430  1.00  0.00    -0.000 C 
BRANCH   9  10
ATOM     10  C   UNL     1      -8.220 -41.156  41.956  1.00  0.00    -0.000 C 
BRANCH  10  11
ATOM     11  C   UNL     1      -7.090 -42.007  42.556  1.00  0.00    -0.003 C 
ATOM     12  C   UNL     1      -7.405 -43.502  42.539  1.00  0.00     0.004 C 
ENDBRANCH  10  11
ENDBRANCH   9  10
ENDBRANCH   8   9
ENDBRANCH   7   8
ENDBRANCH   6   7
ENDBRANCH   5   6
ENDBRANCH   4   5
ENDBRANCH   3   4
ENDBRANCH   2   3
ENDBRANCH   1   2
BRANCH   1  13
ATOM     13  C   UNL     1      -8.558 -39.827  47.956  1.00  0.00     0.000 C 
BRANCH  13  14
ATOM     14  C   UNL     1      -8.361 -38.302  47.888  1.00  0.00     0.000 C 
BRANCH  14  15
ATOM     15  C   UNL     1      -9.377 -37.609  46.969  1.00  0.00     0.000 C 
BRANCH  15  16
ATOM     16  C   UNL     1      -9.125 -37.976  45.498  1.00  0.00     0.000 C 
BRANCH  16  17
ATOM     17  C   UNL     1      -9.885 -37.065  44.520  1.00  0.00     0.000 C 
BRANCH  17  18
ATOM     18  C   UNL     1     -10.685 -35.965  45.234  1.00  0.00     0.000 C 
BRANCH  18  19
ATOM     19  C   UNL     1     -10.212 -34.572  44.794  1.00  0.00     0.000 C 
BRANCH  19  20
ATOM     20  C   UNL     1      -9.532 -34.585  43.416  1.00  0.00     0.006 C 
BRANCH  20  21
ATOM     21  C   UNL     1     -10.167 -33.590  42.435  1.00  0.00     0.053 C 
BRANCH  21  22
ATOM     22  C   UNL     1      -9.290 -33.410  41.235  1.00  0.00     0.041 C 
ATOM     23  O   UNL     1      -9.799 -33.165  40.110  1.00  0.00    -0.550 OA
ATOM     24  O   UNL     1      -7.914 -33.561  41.351  1.00  0.00    -0.550 OA
ENDBRANCH  21  22
ENDBRANCH  20  21
ENDBRANCH  19  20
ENDBRANCH  18  19
ENDBRANCH  17  18
ENDBRANCH  16  17
ENDBRANCH  15  16
ENDBRANCH  14  15
ENDBRANCH  13  14
ENDBRANCH   1  13
TORSDOF 20
ENDMDL
MODEL 4
REMARK VINA RESULT:    -4.989      1.599      2.824
REMARK INTER + INTRA:         -13.463
REMARK INTER:                 -11.085
REMARK INTRA:                  -2.378
REMARK UNBOUND:                -2.642
REMARK SMILES CCCCCCCCCCCCCCCCCCCCCC(=O)[O-]
REMARK SMILES IDX 12 1 11 2 10 3 9 4 8 5 7 6 6 7 5 8 4 9 3 10 2 11 1 12 13 13
REMARK SMILES IDX 14 14 15 15 16 16 17 17 18 18 19 19 20 20 21 21 22 22 23 23
REMARK SMILES IDX 24 24
REMARK H PARENT
REMARK Flexibility Score: inf
ROOT
ATOM      1  C   UNL     1     -11.054 -38.610  48.965  1.00  0.00     0.000 C 
ENDROOT
BRANCH   1   2
ATOM      2  C   UNL     1     -12.235 -38.325  48.021  1.00  0.00     0.000 C 
BRANCH   2   3
ATOM      3  C   UNL     1     -12.124 -36.964  47.319  1.00  0.00     0.000 C 
BRANCH   3   4
ATOM      4  C   UNL     1     -10.841 -36.231  47.742  1.00  0.00    -0.000 C 
BRANCH   4   5
ATOM      5  C   UNL     1     -10.163 -35.490  46.575  1.00  0.00    -0.000 C 
BRANCH   5   6
ATOM      6  C   UNL     1     -10.674 -35.879  45.173  1.00  0.00    -0.000 C 
BRANCH   6   7
ATOM      7  C   UNL     1      -9.680 -35.624  44.023  1.00  0.00    -0.000 C 
BRANCH   7   8
ATOM      8  C   UNL     1      -9.390 -34.138  43.729  1.00  0.00    -0.000 C 
BRANCH   8   9
ATOM      9  C   UNL     1     -10.305 -33.497  42.671  1.00  0.00    -0.000 C 
BRANCH   9  10
ATOM     10  C   UNL     1      -9.722 -33.583  41.249  1.00  0.00    -0.000 C 
BRANCH  10  11
ATOM     11  C   UNL     1      -8.244 -33.169  41.193  1.00  0.00    -0.003 C 
ATOM     12  C   UNL     1      -8.035 -31.685  41.494  1.00  0.00     0.004 C 
ENDBRANCH  10  11
ENDBRANCH   9  10
ENDBRANCH   8   9
ENDBRANCH   7   8
ENDBRANCH   6   7
ENDBRANCH   5   6
ENDBRANCH   4   5
ENDBRANCH   3   4
ENDBRANCH   2   3
ENDBRANCH   1   2
BRANCH   1  13
ATOM     13  C   UNL     1     -10.479 -40.039  48.878  1.00  0.00     0.000 C 
BRANCH  13  14
ATOM     14  C   UNL     1      -9.041 -40.131  48.336  1.00  0.00     0.000 C 
BRANCH  14  15
ATOM     15  C   UNL     1      -8.476 -38.769  47.908  1.00  0.00     0.000 C 
BRANCH  15  16
ATOM     16  C   UNL     1      -8.346 -38.685  46.379  1.00  0.00     0.000 C 
BRANCH  16  17
ATOM     17  C   UNL     1      -9.321 -39.620  45.647  1.00  0.00     0.000 C 
BRANCH  17  18
ATOM     18  C   UNL     1      -9.233 -39.493  44.119  1.00  0.00     0.000 C 
BRANCH  18  19
ATOM     19  C   UNL     1     -10.189 -40.478  43.431  1.00  0.00     0.000 C 
BRANCH  19  20
ATOM     20  C   UNL     1      -9.547 -41.181  42.224  1.00  0.00     0.006 C 
BRANCH  20  21
ATOM     21  C   UNL     1      -8.524 -42.247  42.638  1.00  0.00     0.053 C 
BRANCH  21  22
ATOM     22  C   UNL     1      -7.132 -41.757  42.390  1.00  0.00     0.041 C 
ATOM     23  O   UNL     1      -6.865 -41.111  41.343  1.00  0.00    -0.550 OA
ATOM     24  O   UNL     1      -6.118 -42.058  43.291  1.00  0.00    -0.550 OA
ENDBRANCH  21  22
ENDBRANCH  20  21
ENDBRANCH  19  20
ENDBRANCH  18  19
ENDBRANCH  17  18
ENDBRANCH  16  17
ENDBRANCH  15  16
ENDBRANCH  14  15
ENDBRANCH  13  14
ENDBRANCH   1  13
TORSDOF 20
ENDMDL
MODEL 5
REMARK VINA RESULT:    -4.985      4.082      7.933
REMARK INTER + INTRA:         -13.456
REMARK INTER:                 -10.878
REMARK INTRA:                  -2.578
REMARK UNBOUND:                -2.642
REMARK SMILES CCCCCCCCCCCCCCCCCCCCCC(=O)[O-]
REMARK SMILES IDX 12 1 11 2 10 3 9 4 8 5 7 6 6 7 5 8 4 9 3 10 2 11 1 12 13 13
REMARK SMILES IDX 14 14 15 15 16 16 17 17 18 18 19 19 20 20 21 21 22 22 23 23
REMARK SMILES IDX 24 24
REMARK H PARENT
REMARK Flexibility Score: inf
ROOT
ATOM      1  C   UNL     1     -10.884 -36.758  44.264  1.00  0.00     0.000 C 
ENDROOT
BRANCH   1   2
ATOM      2  C   UNL     1     -10.437 -38.217  44.467  1.00  0.00     0.000 C 
BRANCH   2   3
ATOM      3  C   UNL     1      -8.911 -38.379  44.462  1.00  0.00     0.000 C 
BRANCH   3   4
ATOM      4  C   UNL     1      -8.426 -39.058  45.752  1.00  0.00    -0.000 C 
BRANCH   4   5
ATOM      5  C   UNL     1      -8.293 -38.077  46.931  1.00  0.00    -0.000 C 
BRANCH   5   6
ATOM      6  C   UNL     1      -9.356 -38.240  48.036  1.00  0.00    -0.000 C 
BRANCH   6   7
ATOM      7  C   UNL     1      -9.560 -39.682  48.538  1.00  0.00    -0.000 C 
BRANCH   7   8
ATOM      8  C   UNL     1     -10.959 -40.274  48.273  1.00  0.00    -0.000 C 
BRANCH   8   9
ATOM      9  C   UNL     1     -11.910 -39.359  47.481  1.00  0.00    -0.000 C 
BRANCH   9  10
ATOM     10  C   UNL     1     -12.752 -40.128  46.448  1.00  0.00    -0.000 C 
BRANCH  10  11
ATOM     11  C   UNL     1     -12.130 -41.481  46.071  1.00  0.00    -0.003 C 
ATOM     12  C   UNL     1     -11.731 -41.558  44.598  1.00  0.00     0.004 C 
ENDBRANCH  10  11
ENDBRANCH   9  10
ENDBRANCH   8   9
ENDBRANCH   7   8
ENDBRANCH   6   7
ENDBRANCH   5   6
ENDBRANCH   4   5
ENDBRANCH   3   4
ENDBRANCH   2   3
ENDBRANCH   1   2
BRANCH   1  13
ATOM     13  C   UNL     1      -9.757 -35.710  44.362  1.00  0.00     0.000 C 
BRANCH  13  14
ATOM     14  C   UNL     1     -10.231 -34.260  44.565  1.00  0.00     0.000 C 
BRANCH  14  15
ATOM     15  C   UNL     1     -10.626 -33.571  43.251  1.00  0.00     0.000 C 
BRANCH  15  16
ATOM     16  C   UNL     1      -9.799 -34.114  42.076  1.00  0.00     0.000 C 
BRANCH  16  17
ATOM     17  C   UNL     1      -9.447 -33.029  41.046  1.00  0.00     0.000 C 
BRANCH  17  18
ATOM     18  C   UNL     1      -7.974 -32.598  41.116  1.00  0.00     0.000 C 
BRANCH  18  19
ATOM     19  C   UNL     1      -7.378 -32.911  42.497  1.00  0.00     0.000 C 
BRANCH  19  20
ATOM     20  C   UNL     1      -7.184 -31.652  43.357  1.00  0.00     0.006 C 
BRANCH  20  21
ATOM     21  C   UNL     1      -7.057 -31.973  44.852  1.00  0.00     0.053 C 
BRANCH  21  22
ATOM     22  C   UNL     1      -6.152 -30.986  45.521  1.00  0.00     0.041 C 
ATOM     23  O   UNL     1      -6.521 -30.402  46.574  1.00  0.00    -0.550 OA
ATOM     24  O   UNL     1      -4.923 -30.675  44.956  1.00  0.00    -0.550 OA
ENDBRANCH  21  22
ENDBRANCH  20  21
ENDBRANCH  19  20
ENDBRANCH  18  19
ENDBRANCH  17  18
ENDBRANCH  16  17
ENDBRANCH  15  16
ENDBRANCH  14  15
ENDBRANCH  13  14
ENDBRANCH   1  13
TORSDOF 20
ENDMDL
MODEL 6
REMARK VINA RESULT:    -4.962      4.127      7.524
REMARK INTER + INTRA:         -13.405
REMARK INTER:                 -10.328
REMARK INTRA:                  -3.077
REMARK UNBOUND:                -2.642
REMARK SMILES CCCCCCCCCCCCCCCCCCCCCC(=O)[O-]
REMARK SMILES IDX 12 1 11 2 10 3 9 4 8 5 7 6 6 7 5 8 4 9 3 10 2 11 1 12 13 13
REMARK SMILES IDX 14 14 15 15 16 16 17 17 18 18 19 19 20 20 21 21 22 22 23 23
REMARK SMILES IDX 24 24
REMARK H PARENT
REMARK Flexibility Score: inf
ROOT
ATOM      1  C   UNL     1      -7.948 -40.017  44.644  1.00  0.00     0.000 C 
ENDROOT
BRANCH   1   2
ATOM      2  C   UNL     1      -8.753 -40.305  43.364  1.00  0.00     0.000 C 
BRANCH   2   3
ATOM      3  C   UNL     1      -7.868 -40.738  42.187  1.00  0.00     0.000 C 
BRANCH   3   4
ATOM      4  C   UNL     1      -8.573 -41.803  41.333  1.00  0.00    -0.000 C 
BRANCH   4   5
ATOM      5  C   UNL     1     -10.009 -42.095  41.805  1.00  0.00    -0.000 C 
BRANCH   5   6
ATOM      6  C   UNL     1     -10.336 -43.588  42.007  1.00  0.00    -0.000 C 
BRANCH   6   7
ATOM      7  C   UNL     1      -9.393 -44.338  42.968  1.00  0.00    -0.000 C 
BRANCH   7   8
ATOM      8  C   UNL     1      -8.415 -45.318  42.290  1.00  0.00    -0.000 C 
BRANCH   8   9
ATOM      9  C   UNL     1      -6.936 -44.899  42.344  1.00  0.00    -0.000 C 
BRANCH   9  10
ATOM     10  C   UNL     1      -6.503 -44.420  43.741  1.00  0.00    -0.000 C 
BRANCH  10  11
ATOM     11  C   UNL     1      -5.653 -43.141  43.688  1.00  0.00    -0.003 C 
ATOM     12  C   UNL     1      -5.196 -42.678  45.071  1.00  0.00     0.004 C 
ENDBRANCH  10  11
ENDBRANCH   9  10
ENDBRANCH   8   9
ENDBRANCH   7   8
ENDBRANCH   6   7
ENDBRANCH   5   6
ENDBRANCH   4   5
ENDBRANCH   3   4
ENDBRANCH   2   3
ENDBRANCH   1   2
BRANCH   1  13
ATOM     13  C   UNL     1      -8.719 -39.257  45.743  1.00  0.00     0.000 C 
BRANCH  13  14
ATOM     14  C   UNL     1      -8.471 -39.758  47.177  1.00  0.00     0.000 C 
BRANCH  14  15
ATOM     15  C   UNL     1      -8.854 -38.724  48.245  1.00  0.00     0.000 C 
BRANCH  15  16
ATOM     16  C   UNL     1     -10.373 -38.493  48.267  1.00  0.00     0.000 C 
BRANCH  16  17
ATOM     17  C   UNL     1     -11.174 -39.804  48.231  1.00  0.00     0.000 C 
BRANCH  17  18
ATOM     18  C   UNL     1     -12.166 -39.862  47.060  1.00  0.00     0.000 C 
BRANCH  18  19
ATOM     19  C   UNL     1     -12.058 -41.201  46.316  1.00  0.00     0.000 C 
BRANCH  19  20
ATOM     20  C   UNL     1     -12.038 -41.031  44.789  1.00  0.00     0.006 C 
BRANCH  20  21
ATOM     21  C   UNL     1     -13.039 -39.975  44.300  1.00  0.00     0.053 C 
BRANCH  21  22
ATOM     22  C   UNL     1     -12.462 -39.201  43.156  1.00  0.00     0.041 C 
ATOM     23  O   UNL     1     -11.731 -38.199  43.374  1.00  0.00    -0.550 OA
ATOM     24  O   UNL     1     -12.773 -39.556  41.850  1.00  0.00    -0.550 OA
ENDBRANCH  21  22
ENDBRANCH  20  21
ENDBRANCH  19  20
ENDBRANCH  18  19
ENDBRANCH  17  18
ENDBRANCH  16  17
ENDBRANCH  15  16
ENDBRANCH  14  15
ENDBRANCH  13  14
ENDBRANCH   1  13
TORSDOF 20
ENDMDL
MODEL 7
REMARK VINA RESULT:    -4.923      5.003      9.191
REMARK INTER + INTRA:         -13.320
REMARK INTER:                 -10.910
REMARK INTRA:                  -2.410
REMARK UNBOUND:                -2.642
REMARK SMILES CCCCCCCCCCCCCCCCCCCCCC(=O)[O-]
REMARK SMILES IDX 12 1 11 2 10 3 9 4 8 5 7 6 6 7 5 8 4 9 3 10 2 11 1 12 13 13
REMARK SMILES IDX 14 14 15 15 16 16 17 17 18 18 19 19 20 20 21 21 22 22 23 23
REMARK SMILES IDX 24 24
REMARK H PARENT
REMARK Flexibility Score: inf
ROOT
ATOM      1  C   UNL     1     -10.286 -33.735  43.881  1.00  0.00     0.000 C 
ENDROOT
BRANCH   1   2
ATOM      2  C   UNL     1     -10.232 -34.574  45.170  1.00  0.00     0.000 C 
BRANCH   2   3
ATOM      3  C   UNL     1     -10.592 -36.048  44.937  1.00  0.00     0.000 C 
BRANCH   3   4
ATOM      4  C   UNL     1      -9.528 -36.975  45.543  1.00  0.00    -0.000 C 
BRANCH   4   5
ATOM      5  C   UNL     1      -9.126 -36.571  46.974  1.00  0.00    -0.000 C 
BRANCH   5   6
ATOM      6  C   UNL     1      -8.635 -37.731  47.863  1.00  0.00    -0.000 C 
BRANCH   6   7
ATOM      7  C   UNL     1      -8.664 -39.121  47.198  1.00  0.00    -0.000 C 
BRANCH   7   8
ATOM      8  C   UNL     1      -9.614 -40.140  47.860  1.00  0.00    -0.000 C 
BRANCH   8   9
ATOM      9  C   UNL     1     -10.878 -39.533  48.491  1.00  0.00    -0.000 C 
BRANCH   9  10
ATOM     10  C   UNL     1     -11.969 -39.214  47.453  1.00  0.00    -0.000 C 
BRANCH  10  11
ATOM     11  C   UNL     1     -12.561 -37.808  47.636  1.00  0.00    -0.003 C 
ATOM     12  C   UNL     1     -12.200 -37.186  48.985  1.00  0.00     0.004 C 
ENDBRANCH  10  11
ENDBRANCH   9  10
ENDBRANCH   8   9
ENDBRANCH   7   8
ENDBRANCH   6   7
ENDBRANCH   5   6
ENDBRANCH   4   5
ENDBRANCH   3   4
ENDBRANCH   2   3
ENDBRANCH   1   2
BRANCH   1  13
ATOM     13  C   UNL     1     -10.188 -34.543  42.571  1.00  0.00     0.000 C 
BRANCH  13  14
ATOM     14  C   UNL     1      -9.617 -33.770  41.369  1.00  0.00     0.000 C 
BRANCH  14  15
ATOM     15  C   UNL     1      -8.185 -33.270  41.606  1.00  0.00     0.000 C 
BRANCH  15  16
ATOM     16  C   UNL     1      -8.098 -31.747  41.427  1.00  0.00     0.000 C 
BRANCH  16  17
ATOM     17  C   UNL     1      -7.372 -31.052  42.590  1.00  0.00     0.000 C 
BRANCH  17  18
ATOM     18  C   UNL     1      -6.953 -32.031  43.697  1.00  0.00     0.000 C 
BRANCH  18  19
ATOM     19  C   UNL     1      -6.301 -31.285  44.870  1.00  0.00     0.000 C 
BRANCH  19  20
ATOM     20  C   UNL     1      -5.768 -29.901  44.468  1.00  0.00     0.006 C 
BRANCH  20  21
ATOM     21  C   UNL     1      -4.281 -29.721  44.802  1.00  0.00     0.053 C 
BRANCH  21  22
ATOM     22  C   UNL     1      -4.105 -28.668  45.850  1.00  0.00     0.041 C 
ATOM     23  O   UNL     1      -4.255 -28.954  47.067  1.00  0.00    -0.550 OA
ATOM     24  O   UNL     1      -3.825 -27.359  45.480  1.00  0.00    -0.550 OA
ENDBRANCH  21  22
ENDBRANCH  20  21
ENDBRANCH  19  20
ENDBRANCH  18  19
ENDBRANCH  17  18
ENDBRANCH  16  17
ENDBRANCH  15  16
ENDBRANCH  14  15
ENDBRANCH  13  14
ENDBRANCH   1  13
TORSDOF 20
ENDMDL
MODEL 8
REMARK VINA RESULT:    -4.885      2.220      3.083
REMARK INTER + INTRA:         -13.238
REMARK INTER:                 -10.670
REMARK INTRA:                  -2.568
REMARK UNBOUND:                -2.642
REMARK SMILES CCCCCCCCCCCCCCCCCCCCCC(=O)[O-]
REMARK SMILES IDX 12 1 11 2 10 3 9 4 8 5 7 6 6 7 5 8 4 9 3 10 2 11 1 12 13 13
REMARK SMILES IDX 14 14 15 15 16 16 17 17 18 18 19 19 20 20 21 21 22 22 23 23
REMARK SMILES IDX 24 24
REMARK H PARENT
REMARK Flexibility Score: inf
ROOT
ATOM      1  C   UNL     1      -9.356 -40.024  48.602  1.00  0.00     0.000 C 
ENDROOT
BRANCH   1   2
ATOM      2  C   UNL     1      -8.646 -39.005  47.694  1.00  0.00     0.000 C 
BRANCH   2   3
ATOM      3  C   UNL     1      -8.709 -39.384  46.208  1.00  0.00     0.000 C 
BRANCH   3   4
ATOM      4  C   UNL     1      -8.611 -38.135  45.318  1.00  0.00    -0.000 C 
BRANCH   4   5
ATOM      5  C   UNL     1      -9.844 -37.944  44.416  1.00  0.00    -0.000 C 
BRANCH   5   6
ATOM      6  C   UNL     1     -10.700 -36.704  44.739  1.00  0.00    -0.000 C 
BRANCH   6   7
ATOM      7  C   UNL     1     -10.010 -35.350  44.484  1.00  0.00    -0.000 C 
BRANCH   7   8
ATOM      8  C   UNL     1     -10.273 -34.735  43.094  1.00  0.00    -0.000 C 
BRANCH   8   9
ATOM      9  C   UNL     1      -9.163 -33.804  42.578  1.00  0.00    -0.000 C 
BRANCH   9  10
ATOM     10  C   UNL     1      -8.346 -33.163  43.714  1.00  0.00    -0.000 C 
BRANCH  10  11
ATOM     11  C   UNL     1      -7.230 -32.245  43.191  1.00  0.00    -0.003 C 
ATOM     12  C   UNL     1      -6.805 -31.192  44.213  1.00  0.00     0.004 C 
ENDBRANCH  10  11
ENDBRANCH   9  10
ENDBRANCH   8   9
ENDBRANCH   7   8
ENDBRANCH   6   7
ENDBRANCH   5   6
ENDBRANCH   4   5
ENDBRANCH   3   4
ENDBRANCH   2   3
ENDBRANCH   1   2
BRANCH   1  13
ATOM     13  C   UNL     1     -10.839 -39.715  48.896  1.00  0.00     0.000 C 
BRANCH  13  14
ATOM     14  C   UNL     1     -11.299 -38.300  48.503  1.00  0.00     0.000 C 
BRANCH  14  15
ATOM     15  C   UNL     1     -12.406 -38.306  47.439  1.00  0.00     0.000 C 
BRANCH  15  16
ATOM     16  C   UNL     1     -12.476 -39.665  46.727  1.00  0.00     0.000 C 
BRANCH  16  17
ATOM     17  C   UNL     1     -13.091 -39.569  45.321  1.00  0.00     0.000 C 
BRANCH  17  18
ATOM     18  C   UNL     1     -12.665 -40.727  44.406  1.00  0.00     0.000 C 
BRANCH  18  19
ATOM     19  C   UNL     1     -12.239 -40.205  43.026  1.00  0.00     0.000 C 
BRANCH  19  20
ATOM     20  C   UNL     1     -11.313 -41.182  42.284  1.00  0.00     0.006 C 
BRANCH  20  21
ATOM     21  C   UNL     1      -9.855 -41.085  42.753  1.00  0.00     0.053 C 
BRANCH  21  22
ATOM     22  C   UNL     1      -8.929 -41.567  41.680  1.00  0.00     0.041 C 
ATOM     23  O   UNL     1      -9.195 -42.617  41.039  1.00  0.00    -0.550 OA
ATOM     24  O   UNL     1      -7.748 -40.883  41.422  1.00  0.00    -0.550 OA
ENDBRANCH  21  22
ENDBRANCH  20  21
ENDBRANCH  19  20
ENDBRANCH  18  19
ENDBRANCH  17  18
ENDBRANCH  16  17
ENDBRANCH  15  16
ENDBRANCH  14  15
ENDBRANCH  13  14
ENDBRANCH   1  13
TORSDOF 20
ENDMDL
MODEL 9
REMARK VINA RESULT:    -4.882      3.239      7.226
REMARK INTER + INTRA:         -13.233
REMARK INTER:                 -10.486
REMARK INTRA:                  -2.747
REMARK UNBOUND:                -2.642
REMARK SMILES CCCCCCCCCCCCCCCCCCCCCC(=O)[O-]
REMARK SMILES IDX 12 1 11 2 10 3 9 4 8 5 7 6 6 7 5 8 4 9 3 10 2 11 1 12 13 13
REMARK SMILES IDX 14 14 15 15 16 16 17 17 18 18 19 19 20 20 21 21 22 22 23 23
REMARK SMILES IDX 24 24
REMARK H PARENT
REMARK Flexibility Score: inf
ROOT
ATOM      1  C   UNL     1     -12.477 -40.067  45.447  1.00  0.00     0.000 C 
ENDROOT
BRANCH   1   2
ATOM      2  C   UNL     1     -13.045 -39.223  44.293  1.00  0.00     0.000 C 
BRANCH   2   3
ATOM      3  C   UNL     1     -12.205 -39.321  43.012  1.00  0.00     0.000 C 
BRANCH   3   4
ATOM      4  C   UNL     1     -12.184 -40.761  42.477  1.00  0.00    -0.000 C 
BRANCH   4   5
ATOM      5  C   UNL     1     -10.765 -41.256  42.145  1.00  0.00    -0.000 C 
BRANCH   5   6
ATOM      6  C   UNL     1      -9.792 -41.289  43.341  1.00  0.00    -0.000 C 
BRANCH   6   7
ATOM      7  C   UNL     1      -8.441 -40.587  43.102  1.00  0.00    -0.000 C 
BRANCH   7   8
ATOM      8  C   UNL     1      -7.661 -41.076  41.864  1.00  0.00    -0.000 C 
BRANCH   8   9
ATOM      9  C   UNL     1      -7.424 -42.595  41.807  1.00  0.00    -0.000 C 
BRANCH   9  10
ATOM     10  C   UNL     1      -6.490 -43.094  42.924  1.00  0.00    -0.000 C 
BRANCH  10  11
ATOM     11  C   UNL     1      -6.822 -44.525  43.373  1.00  0.00    -0.003 C 
ATOM     12  C   UNL     1      -6.868 -45.513  42.208  1.00  0.00     0.004 C 
ENDBRANCH  10  11
ENDBRANCH   9  10
ENDBRANCH   8   9
ENDBRANCH   7   8
ENDBRANCH   6   7
ENDBRANCH   5   6
ENDBRANCH   4   5
ENDBRANCH   3   4
ENDBRANCH   2   3
ENDBRANCH   1   2
BRANCH   1  13
ATOM     13  C   UNL     1     -12.437 -39.358  46.817  1.00  0.00     0.000 C 
BRANCH  13  14
ATOM     14  C   UNL     1     -11.296 -39.804  47.749  1.00  0.00     0.000 C 
BRANCH  14  15
ATOM     15  C   UNL     1      -9.920 -39.766  47.069  1.00  0.00     0.000 C 
BRANCH  15  16
ATOM     16  C   UNL     1      -9.469 -38.317  46.824  1.00  0.00     0.000 C 
BRANCH  16  17
ATOM     17  C   UNL     1      -8.887 -38.107  45.417  1.00  0.00     0.000 C 
BRANCH  17  18
ATOM     18  C   UNL     1      -9.780 -37.227  44.531  1.00  0.00     0.000 C 
BRANCH  18  19
ATOM     19  C   UNL     1     -10.495 -36.155  45.367  1.00  0.00     0.000 C 
BRANCH  19  20
ATOM     20  C   UNL     1     -10.633 -34.817  44.623  1.00  0.00     0.006 C 
BRANCH  20  21
ATOM     21  C   UNL     1     -10.058 -34.871  43.201  1.00  0.00     0.053 C 
BRANCH  21  22
ATOM     22  C   UNL     1      -8.865 -33.975  43.087  1.00  0.00     0.041 C 
ATOM     23  O   UNL     1      -8.487 -33.294  44.076  1.00  0.00    -0.550 OA
ATOM     24  O   UNL     1      -8.200 -33.855  41.873  1.00  0.00    -0.550 OA
ENDBRANCH  21  22
ENDBRANCH  20  21
ENDBRANCH  19  20
ENDBRANCH  18  19
ENDBRANCH  17  18
ENDBRANCH  16  17
ENDBRANCH  15  16
ENDBRANCH  14  15
ENDBRANCH  13  14
ENDBRANCH   1  13
TORSDOF 20
ENDMDL
