MODEL 1
REMARK VINA RESULT:    -6.214      0.000      0.000
REMARK INTER + INTRA:          -6.214
REMARK INTER:                  -6.214
REMARK INTRA:                   0.000
REMARK UNBOUND:                 0.000
REMARK SMILES Cc1cc2cc3c(C)cc(=O)oc3c(C)c2o1
REMARK SMILES IDX 8 1 7 2 9 3 10 4 11 5 12 6 13 7 6 8 5 9 4 10 3 11 2 12 17 13
REMARK SMILES IDX 16 14 14 15 15 16 1 17
REMARK H PARENT
REMARK Flexibility Score: inf
ROOT
ATOM      1  C   UNL     1     178.731 181.499 176.239  1.00  0.00     0.045 C 
ATOM      2  C   UNL     1     179.795 180.695 176.940  1.00  0.00    -0.033 A 
ATOM      3  C   UNL     1     179.592 180.302 178.269  1.00  0.00     0.098 A 
ATOM      4  C   UNL     1     180.573 179.558 178.926  1.00  0.00     0.336 A 
ATOM      5  O   UNL     1     180.395 179.203 180.121  1.00  0.00    -0.246 OA
ATOM      6  O   UNL     1     181.695 179.220 178.302  1.00  0.00    -0.422 OA
ATOM      7  C   UNL     1     181.952 179.559 177.042  1.00  0.00     0.145 A 
ATOM      8  C   UNL     1     180.997 180.324 176.298  1.00  0.00     0.022 A 
ATOM      9  C   UNL     1     181.285 180.689 174.960  1.00  0.00     0.024 A 
ATOM     10  C   UNL     1     182.499 180.285 174.417  1.00  0.00     0.022 A 
ATOM     11  C   UNL     1     183.037 180.504 173.170  1.00  0.00     0.054 A 
ATOM     12  C   UNL     1     184.273 179.868 173.215  1.00  0.00     0.102 A 
ATOM     13  O   UNL     1     184.471 179.312 174.395  1.00  0.00    -0.461 OA
ATOM     14  C   UNL     1     183.410 179.552 175.129  1.00  0.00     0.140 A 
ATOM     15  C   UNL     1     183.171 179.157 176.447  1.00  0.00     0.036 A 
ATOM     16  C   UNL     1     184.197 178.378 177.222  1.00  0.00     0.052 C 
ATOM     17  C   UNL     1     185.261 179.829 172.099  1.00  0.00     0.087 C 
ENDROOT
TORSDOF 0
ENDMDL
MODEL 2
REMARK VINA RESULT:    -6.196      2.953      5.385
REMARK INTER + INTRA:          -6.196
REMARK INTER:                  -6.196
REMARK INTRA:                   0.000
REMARK UNBOUND:                 0.000
REMARK SMILES Cc1cc2cc3c(C)cc(=O)oc3c(C)c2o1
REMARK SMILES IDX 8 1 7 2 9 3 10 4 11 5 12 6 13 7 6 8 5 9 4 10 3 11 2 12 17 13
REMARK SMILES IDX 16 14 14 15 15 16 1 17
REMARK H PARENT
REMARK Flexibility Score: inf
ROOT
ATOM      1  C   UNL     1     182.000 179.312 176.166  1.00  0.00     0.045 C 
ATOM      2  C   UNL     1     180.923 180.083 176.884  1.00  0.00    -0.033 A 
ATOM      3  C   UNL     1     181.124 180.461 178.217  1.00  0.00     0.098 A 
ATOM      4  C   UNL     1     180.130 181.174 178.889  1.00  0.00     0.336 A 
ATOM      5  O   UNL     1     180.307 181.516 180.088  1.00  0.00    -0.246 OA
ATOM      6  O   UNL     1     178.998 181.496 178.277  1.00  0.00    -0.422 OA
ATOM      7  C   UNL     1     178.741 181.169 177.013  1.00  0.00     0.145 A 
ATOM      8  C   UNL     1     179.709 180.435 176.253  1.00  0.00     0.022 A 
ATOM      9  C   UNL     1     179.422 180.083 174.912  1.00  0.00     0.024 A 
ATOM     10  C   UNL     1     178.196 180.467 174.381  1.00  0.00     0.022 A 
ATOM     11  C   UNL     1     177.656 180.254 173.134  1.00  0.00     0.054 A 
ATOM     12  C   UNL     1     176.407 180.861 173.194  1.00  0.00     0.102 A 
ATOM     13  O   UNL     1     176.203 181.397 174.383  1.00  0.00    -0.461 OA
ATOM     14  C   UNL     1     177.273 181.170 175.108  1.00  0.00     0.140 A 
ATOM     15  C   UNL     1     177.510 181.552 176.430  1.00  0.00     0.036 A 
ATOM     16  C   UNL     1     176.472 182.297 177.222  1.00  0.00     0.052 C 
ATOM     17  C   UNL     1     175.411 180.894 172.085  1.00  0.00     0.087 C 
ENDROOT
TORSDOF 0
ENDMDL
MODEL 3
REMARK VINA RESULT:    -6.184      3.785      6.232
REMARK INTER + INTRA:          -6.184
REMARK INTER:                  -6.184
REMARK INTRA:                   0.000
REMARK UNBOUND:                 0.000
REMARK SMILES Cc1cc2cc3c(C)cc(=O)oc3c(C)c2o1
REMARK SMILES IDX 8 1 7 2 9 3 10 4 11 5 12 6 13 7 6 8 5 9 4 10 3 11 2 12 17 13
REMARK SMILES IDX 16 14 14 15 15 16 1 17
REMARK H PARENT
REMARK Flexibility Score: inf
ROOT
ATOM      1  C   UNL     1     181.633 184.591 173.452  1.00  0.00     0.045 C 
ATOM      2  C   UNL     1     180.239 184.032 173.574  1.00  0.00    -0.033 A 
ATOM      3  C   UNL     1     179.236 184.497 172.715  1.00  0.00     0.098 A 
ATOM      4  C   UNL     1     177.942 183.986 172.823  1.00  0.00     0.336 A 
ATOM      5  O   UNL     1     177.037 184.401 172.053  1.00  0.00    -0.246 OA
ATOM      6  O   UNL     1     177.655 183.063 173.733  1.00  0.00    -0.422 OA
ATOM      7  C   UNL     1     178.558 182.577 174.581  1.00  0.00     0.145 A 
ATOM      8  C   UNL     1     179.908 183.051 174.536  1.00  0.00     0.022 A 
ATOM      9  C   UNL     1     180.860 182.535 175.449  1.00  0.00     0.024 A 
ATOM     10  C   UNL     1     180.438 181.578 176.364  1.00  0.00     0.022 A 
ATOM     11  C   UNL     1     181.131 180.924 177.357  1.00  0.00     0.054 A 
ATOM     12  C   UNL     1     180.182 180.095 177.946  1.00  0.00     0.102 A 
ATOM     13  O   UNL     1     179.008 180.237 177.361  1.00  0.00    -0.461 OA
ATOM     14  C   UNL     1     179.147 181.125 176.405  1.00  0.00     0.140 A 
ATOM     15  C   UNL     1     178.172 181.592 175.520  1.00  0.00     0.036 A 
ATOM     16  C   UNL     1     176.753 181.104 175.600  1.00  0.00     0.052 C 
ATOM     17  C   UNL     1     180.434 179.181 179.096  1.00  0.00     0.087 C 
ENDROOT
TORSDOF 0
ENDMDL
MODEL 4
REMARK VINA RESULT:    -6.181      2.757      5.337
REMARK INTER + INTRA:          -6.181
REMARK INTER:                  -6.181
REMARK INTRA:                   0.000
REMARK UNBOUND:                 0.000
REMARK SMILES Cc1cc2cc3c(C)cc(=O)oc3c(C)c2o1
REMARK SMILES IDX 8 1 7 2 9 3 10 4 11 5 12 6 13 7 6 8 5 9 4 10 3 11 2 12 17 13
REMARK SMILES IDX 16 14 14 15 15 16 1 17
REMARK H PARENT
REMARK Flexibility Score: inf
ROOT
ATOM      1  C   UNL     1     179.127 176.090 173.468  1.00  0.00     0.045 C 
ATOM      2  C   UNL     1     180.511 176.675 173.584  1.00  0.00    -0.033 A 
ATOM      3  C   UNL     1     181.522 176.216 172.730  1.00  0.00     0.098 A 
ATOM      4  C   UNL     1     182.807 176.751 172.833  1.00  0.00     0.336 A 
ATOM      5  O   UNL     1     183.719 176.341 172.067  1.00  0.00    -0.246 OA
ATOM      6  O   UNL     1     183.078 177.690 173.731  1.00  0.00    -0.422 OA
ATOM      7  C   UNL     1     182.166 178.171 174.572  1.00  0.00     0.145 A 
ATOM      8  C   UNL     1     180.824 177.673 174.533  1.00  0.00     0.022 A 
ATOM      9  C   UNL     1     179.863 178.185 175.439  1.00  0.00     0.024 A 
ATOM     10  C   UNL     1     180.268 179.160 176.342  1.00  0.00     0.022 A 
ATOM     11  C   UNL     1     179.564 179.814 177.326  1.00  0.00     0.054 A 
ATOM     12  C   UNL     1     180.497 180.667 177.905  1.00  0.00     0.102 A 
ATOM     13  O   UNL     1     181.674 180.538 177.322  1.00  0.00    -0.461 OA
ATOM     14  C   UNL     1     181.551 179.636 176.377  1.00  0.00     0.140 A 
ATOM     15  C   UNL     1     182.534 179.175 175.499  1.00  0.00     0.036 A 
ATOM     16  C   UNL     1     183.945 179.688 175.572  1.00  0.00     0.052 C 
ATOM     17  C   UNL     1     180.229 181.591 179.043  1.00  0.00     0.087 C 
ENDROOT
TORSDOF 0
ENDMDL
MODEL 5
REMARK VINA RESULT:    -6.152      1.950      5.271
REMARK INTER + INTRA:          -6.152
REMARK INTER:                  -6.152
REMARK INTRA:                   0.000
REMARK UNBOUND:                 0.000
REMARK SMILES Cc1cc2cc3c(C)cc(=O)oc3c(C)c2o1
REMARK SMILES IDX 8 1 7 2 9 3 10 4 11 5 12 6 13 7 6 8 5 9 4 10 3 11 2 12 17 13
REMARK SMILES IDX 16 14 14 15 15 16 1 17
REMARK H PARENT
REMARK Flexibility Score: inf
ROOT
ATOM      1  C   UNL     1     180.688 184.494 174.237  1.00  0.00     0.045 C 
ATOM      2  C   UNL     1     181.577 183.282 174.132  1.00  0.00    -0.033 A 
ATOM      3  C   UNL     1     182.471 183.180 173.059  1.00  0.00     0.098 A 
ATOM      4  C   UNL     1     183.297 182.059 172.953  1.00  0.00     0.336 A 
ATOM      5  O   UNL     1     184.102 181.963 171.990  1.00  0.00    -0.246 OA
ATOM      6  O   UNL     1     183.242 181.092 173.860  1.00  0.00    -0.422 OA
ATOM      7  C   UNL     1     182.416 181.125 174.903  1.00  0.00     0.145 A 
ATOM      8  C   UNL     1     181.535 182.239 175.083  1.00  0.00     0.022 A 
ATOM      9  C   UNL     1     180.653 182.260 176.192  1.00  0.00     0.024 A 
ATOM     10  C   UNL     1     180.679 181.183 177.070  1.00  0.00     0.022 A 
ATOM     11  C   UNL     1     179.938 180.936 178.202  1.00  0.00     0.054 A 
ATOM     12  C   UNL     1     180.400 179.704 178.651  1.00  0.00     0.102 A 
ATOM     13  O   UNL     1     181.342 179.238 177.853  1.00  0.00    -0.461 OA
ATOM     14  C   UNL     1     181.523 180.119 176.897  1.00  0.00     0.140 A 
ATOM     15  C   UNL     1     182.420 180.054 175.829  1.00  0.00     0.036 A 
ATOM     16  C   UNL     1     183.318 178.864 175.640  1.00  0.00     0.052 C 
ATOM     17  C   UNL     1     179.897 178.982 179.854  1.00  0.00     0.087 C 
ENDROOT
TORSDOF 0
ENDMDL
MODEL 6
REMARK VINA RESULT:    -6.145      3.658      6.033
REMARK INTER + INTRA:          -6.145
REMARK INTER:                  -6.145
REMARK INTRA:                   0.000
REMARK UNBOUND:                 0.000
REMARK SMILES Cc1cc2cc3c(C)cc(=O)oc3c(C)c2o1
REMARK SMILES IDX 8 1 7 2 9 3 10 4 11 5 12 6 13 7 6 8 5 9 4 10 3 11 2 12 17 13
REMARK SMILES IDX 16 14 14 15 15 16 1 17
REMARK H PARENT
REMARK Flexibility Score: inf
ROOT
ATOM      1  C   UNL     1     180.034 176.249 174.232  1.00  0.00     0.045 C 
ATOM      2  C   UNL     1     179.141 177.457 174.114  1.00  0.00    -0.033 A 
ATOM      3  C   UNL     1     178.257 177.552 173.032  1.00  0.00     0.098 A 
ATOM      4  C   UNL     1     177.428 178.670 172.914  1.00  0.00     0.336 A 
ATOM      5  O   UNL     1     176.632 178.759 171.943  1.00  0.00    -0.246 OA
ATOM      6  O   UNL     1     177.471 179.640 173.818  1.00  0.00    -0.422 OA
ATOM      7  C   UNL     1     178.286 179.614 174.869  1.00  0.00     0.145 A 
ATOM      8  C   UNL     1     179.170 178.504 175.062  1.00  0.00     0.022 A 
ATOM      9  C   UNL     1     180.041 178.491 176.179  1.00  0.00     0.024 A 
ATOM     10  C   UNL     1     180.002 179.571 177.053  1.00  0.00     0.022 A 
ATOM     11  C   UNL     1     180.731 179.825 178.192  1.00  0.00     0.054 A 
ATOM     12  C   UNL     1     180.259 181.057 178.631  1.00  0.00     0.102 A 
ATOM     13  O   UNL     1     179.323 181.516 177.822  1.00  0.00    -0.461 OA
ATOM     14  C   UNL     1     179.156 180.631 176.868  1.00  0.00     0.140 A 
ATOM     15  C   UNL     1     178.269 180.688 175.790  1.00  0.00     0.036 A 
ATOM     16  C   UNL     1     177.368 181.874 175.588  1.00  0.00     0.052 C 
ATOM     17  C   UNL     1     180.748 181.786 179.836  1.00  0.00     0.087 C 
ENDROOT
TORSDOF 0
ENDMDL
MODEL 7
REMARK VINA RESULT:    -6.027      3.954      6.166
REMARK INTER + INTRA:          -6.027
REMARK INTER:                  -6.027
REMARK INTRA:                   0.000
REMARK UNBOUND:                 0.000
REMARK SMILES Cc1cc2cc3c(C)cc(=O)oc3c(C)c2o1
REMARK SMILES IDX 8 1 7 2 9 3 10 4 11 5 12 6 13 7 6 8 5 9 4 10 3 11 2 12 17 13
REMARK SMILES IDX 16 14 14 15 15 16 1 17
REMARK H PARENT
REMARK Flexibility Score: inf
ROOT
ATOM      1  C   UNL     1     178.166 178.268 171.802  1.00  0.00     0.045 C 
ATOM      2  C   UNL     1     177.553 179.349 172.653  1.00  0.00    -0.033 A 
ATOM      3  C   UNL     1     176.485 180.099 172.144  1.00  0.00     0.098 A 
ATOM      4  C   UNL     1     175.913 181.105 172.925  1.00  0.00     0.336 A 
ATOM      5  O   UNL     1     174.954 181.781 172.471  1.00  0.00    -0.246 OA
ATOM      6  O   UNL     1     176.372 181.355 174.145  1.00  0.00    -0.422 OA
ATOM      7  C   UNL     1     177.381 180.681 174.690  1.00  0.00     0.145 A 
ATOM      8  C   UNL     1     178.025 179.636 173.953  1.00  0.00     0.022 A 
ATOM      9  C   UNL     1     179.105 178.932 174.539  1.00  0.00     0.024 A 
ATOM     10  C   UNL     1     179.503 179.291 175.822  1.00  0.00     0.022 A 
ATOM     11  C   UNL     1     180.512 178.796 176.615  1.00  0.00     0.054 A 
ATOM     12  C   UNL     1     180.432 179.552 177.780  1.00  0.00     0.102 A 
ATOM     13  O   UNL     1     179.457 180.437 177.698  1.00  0.00    -0.461 OA
ATOM     14  C   UNL     1     178.886 180.290 176.525  1.00  0.00     0.140 A 
ATOM     15  C   UNL     1     177.810 181.007 175.999  1.00  0.00     0.036 A 
ATOM     16  C   UNL     1     177.165 182.121 176.775  1.00  0.00     0.052 C 
ATOM     17  C   UNL     1     181.331 179.410 178.961  1.00  0.00     0.087 C 
ENDROOT
TORSDOF 0
ENDMDL
MODEL 8
REMARK VINA RESULT:    -6.001      3.787      4.936
REMARK INTER + INTRA:          -6.001
REMARK INTER:                  -6.001
REMARK INTRA:                   0.000
REMARK UNBOUND:                 0.000
REMARK SMILES Cc1cc2cc3c(C)cc(=O)oc3c(C)c2o1
REMARK SMILES IDX 8 1 7 2 9 3 10 4 11 5 12 6 13 7 6 8 5 9 4 10 3 11 2 12 17 13
REMARK SMILES IDX 16 14 14 15 15 16 1 17
REMARK H PARENT
REMARK Flexibility Score: inf
ROOT
ATOM      1  C   UNL     1     180.815 180.021 176.953  1.00  0.00     0.045 C 
ATOM      2  C   UNL     1     179.944 180.955 176.152  1.00  0.00    -0.033 A 
ATOM      3  C   UNL     1     178.555 180.784 176.174  1.00  0.00     0.098 A 
ATOM      4  C   UNL     1     177.742 181.644 175.433  1.00  0.00     0.336 A 
ATOM      5  O   UNL     1     176.492 181.493 175.450  1.00  0.00    -0.246 OA
ATOM      6  O   UNL     1     178.274 182.621 174.711  1.00  0.00    -0.422 OA
ATOM      7  C   UNL     1     179.585 182.841 174.646  1.00  0.00     0.145 A 
ATOM      8  C   UNL     1     180.488 182.002 175.374  1.00  0.00     0.022 A 
ATOM      9  C   UNL     1     181.882 182.238 175.290  1.00  0.00     0.024 A 
ATOM     10  C   UNL     1     182.322 183.287 174.492  1.00  0.00     0.022 A 
ATOM     11  C   UNL     1     183.596 183.729 174.220  1.00  0.00     0.054 A 
ATOM     12  C   UNL     1     183.408 184.801 173.354  1.00  0.00     0.102 A 
ATOM     13  O   UNL     1     182.124 184.992 173.117  1.00  0.00    -0.461 OA
ATOM     14  C   UNL     1     181.457 184.089 173.797  1.00  0.00     0.140 A 
ATOM     15  C   UNL     1     180.074 183.907 173.854  1.00  0.00     0.036 A 
ATOM     16  C   UNL     1     179.142 184.779 173.061  1.00  0.00     0.052 C 
ATOM     17  C   UNL     1     184.497 185.620 172.750  1.00  0.00     0.087 C 
ENDROOT
TORSDOF 0
ENDMDL
MODEL 9
REMARK VINA RESULT:    -5.976      1.373      5.438
REMARK INTER + INTRA:          -5.976
REMARK INTER:                  -5.976
REMARK INTRA:                   0.000
REMARK UNBOUND:                 0.000
REMARK SMILES Cc1cc2cc3c(C)cc(=O)oc3c(C)c2o1
REMARK SMILES IDX 8 1 7 2 9 3 10 4 11 5 12 6 13 7 6 8 5 9 4 10 3 11 2 12 17 13
REMARK SMILES IDX 16 14 14 15 15 16 1 17
REMARK H PARENT
REMARK Flexibility Score: inf
ROOT
ATOM      1  C   UNL     1     183.066 182.650 171.656  1.00  0.00     0.045 C 
ATOM      2  C   UNL     1     183.569 181.511 172.504  1.00  0.00    -0.033 A 
ATOM      3  C   UNL     1     184.623 180.719 172.031  1.00  0.00     0.098 A 
ATOM      4  C   UNL     1     185.093 179.660 172.810  1.00  0.00     0.336 A 
ATOM      5  O   UNL     1     186.040 178.945 172.389  1.00  0.00    -0.246 OA
ATOM      6  O   UNL     1     184.551 179.399 173.993  1.00  0.00    -0.422 OA
ATOM      7  C   UNL     1     183.549 180.110 174.502  1.00  0.00     0.145 A 
ATOM      8  C   UNL     1     183.007 181.212 173.765  1.00  0.00     0.022 A 
ATOM      9  C   UNL     1     181.933 181.957 174.311  1.00  0.00     0.024 A 
ATOM     10  C   UNL     1     181.442 181.581 175.556  1.00  0.00     0.022 A 
ATOM     11  C   UNL     1     180.416 182.107 176.307  1.00  0.00     0.054 A 
ATOM     12  C   UNL     1     180.387 181.313 177.448  1.00  0.00     0.102 A 
ATOM     13  O   UNL     1     181.316 180.378 177.393  1.00  0.00    -0.461 OA
ATOM     14  C   UNL     1     181.962 180.528 176.260  1.00  0.00     0.140 A 
ATOM     15  C   UNL     1     183.028 179.769 175.772  1.00  0.00     0.036 A 
ATOM     16  C   UNL     1     183.565 178.599 176.547  1.00  0.00     0.052 C 
ATOM     17  C   UNL     1     179.429 181.468 178.580  1.00  0.00     0.087 C 
ENDROOT
TORSDOF 0
ENDMDL
