MODEL 1
REMARK VINA RESULT:    -7.165      0.000      0.000
REMARK INTER + INTRA:         -12.648
REMARK INTER:                 -10.725
REMARK INTRA:                  -1.923
REMARK UNBOUND:                -1.923
REMARK SMILES C=C(CC[C@H](C(=O)[O-])[C@H]1[C@H](O)C[C@]2(C)C3=C(CC[C@]12C)[C@@]1(C)CC[C@H](OC(C)=O)C(C)(C)[C@@H]1CC3)C(C)C
REMARK SMILES IDX 4 1 5 2 6 3 7 4 8 5 9 6 10 7 19 8 12 9 13 10 18 11 20 12
REMARK SMILES IDX 14 13 15 14 17 15 16 16 35 17 21 18 34 19 33 20 23 21 22 22
REMARK SMILES IDX 30 23 24 24 25 25 31 26 32 27 11 28 26 30 27 31 29 32 28 33
REMARK SMILES IDX 3 34 2 35 1 36 36 37 37 38 38 39
REMARK H PARENT 11 29
REMARK Flexibility Score: inf
ROOT
ATOM      1  C   UNL     1      16.781 124.895  15.867  1.00  0.00     0.014 C 
ENDROOT
BRANCH   1   2
ATOM      2  C   UNL     1      17.541 123.538  15.956  1.00  0.00     0.042 C 
BRANCH   2   3
ATOM      3  C   UNL     1      18.529 123.441  14.815  1.00  0.00     0.045 C 
ATOM      4  O   UNL     1      18.366 124.138  13.778  1.00  0.00    -0.550 OA
ATOM      5  O   UNL     1      19.584 122.535  14.862  1.00  0.00    -0.550 OA
ENDBRANCH   2   3
BRANCH   2   6
ATOM      6  C   UNL     1      16.541 122.323  16.057  1.00  0.00     0.033 C 
ATOM      7  C   UNL     1      16.243 121.658  14.699  1.00  0.00     0.119 C 
ATOM      8  C   UNL     1      16.835 121.151  17.094  1.00  0.00    -0.017 C 
ATOM      9  C   UNL     1      16.824 120.262  14.795  1.00  0.00     0.043 C 
ATOM     10  C   UNL     1      16.662 119.802  16.259  1.00  0.00    -0.003 C 
ATOM     11  C   UNL     1      15.803 121.232  18.269  1.00  0.00     0.012 C 
ATOM     12  C   UNL     1      18.247 121.257  17.741  1.00  0.00     0.013 C 
ATOM     13  C   UNL     1      17.738 118.708  16.530  1.00  0.00     0.017 C 
ATOM     14  C   UNL     1      15.303 119.103  16.546  1.00  0.00    -0.064 C 
ATOM     15  C   UNL     1      15.531 119.867  18.896  1.00  0.00     0.032 C 
ATOM     16  C   UNL     1      14.925 118.943  17.854  1.00  0.00    -0.064 C 
ATOM     17  C   UNL     1      14.530 118.410  15.407  1.00  0.00     0.032 C 
ATOM     18  C   UNL     1      13.917 117.837  18.210  1.00  0.00    -0.008 C 
ATOM     19  C   UNL     1      13.201 117.696  15.774  1.00  0.00     0.009 C 
ATOM     20  C   UNL     1      12.732 118.040  17.201  1.00  0.00     0.009 C 
ATOM     21  C   UNL     1      13.391 117.863  19.682  1.00  0.00     0.015 C 
ATOM     22  C   UNL     1      14.679 116.487  18.042  1.00  0.00     0.016 C 
ATOM     23  C   UNL     1      11.335 117.472  17.668  1.00  0.00     0.005 C 
ATOM     24  C   UNL     1      12.143 118.726  19.833  1.00  0.00     0.047 C 
ATOM     25  C   UNL     1      10.947 118.112  19.069  1.00  0.00     0.182 C 
ATOM     26  C   UNL     1      11.331 115.921  17.737  1.00  0.00     0.015 C 
ATOM     27  C   UNL     1      10.247 117.881  16.642  1.00  0.00     0.015 C 
BRANCH   7  28
ATOM     28  O   UNL     1      14.859 121.577  14.481  1.00  0.00    -0.393 OA
ATOM     29  H   UNL     1      14.517 122.508  14.460  1.00  0.00     0.210 HD
ENDBRANCH   7  28
BRANCH  25  30
ATOM     30  O   UNL     1      10.314 117.156  19.930  1.00  0.00    -0.462 OA
BRANCH  30  31
ATOM     31  C   UNL     1       9.046 117.326  20.502  1.00  0.00     0.302 C 
ATOM     32  O   UNL     1       8.869 117.193  21.743  1.00  0.00    -0.253 OA
ATOM     33  C   UNL     1       7.890 117.683  19.630  1.00  0.00     0.139 C 
ENDBRANCH  30  31
ENDBRANCH  25  30
ENDBRANCH   2   6
ENDBRANCH   1   2
BRANCH   1  34
ATOM     34  C   UNL     1      17.311 125.971  16.828  1.00  0.00     0.031 C 
BRANCH  34  35
ATOM     35  C   UNL     1      16.329 126.335  17.923  1.00  0.00    -0.075 C 
ATOM     36  C   UNL     1      16.421 127.534  18.525  1.00  0.00     0.008 C 
BRANCH  35  37
ATOM     37  C   UNL     1      15.301 125.305  18.377  1.00  0.00     0.008 C 
ATOM     38  C   UNL     1      15.750 124.627  19.676  1.00  0.00     0.012 C 
ATOM     39  C   UNL     1      13.899 125.910  18.534  1.00  0.00     0.012 C 
ENDBRANCH  35  37
ENDBRANCH  34  35
ENDBRANCH   1  34
TORSDOF 9
ENDMDL
MODEL 2
REMARK VINA RESULT:    -6.970      6.622     10.178
REMARK INTER + INTRA:         -12.356
REMARK INTER:                 -10.145
REMARK INTRA:                  -2.211
REMARK UNBOUND:                -1.923
REMARK SMILES C=C(CC[C@H](C(=O)[O-])[C@H]1[C@H](O)C[C@]2(C)C3=C(CC[C@]12C)[C@@]1(C)CC[C@H](OC(C)=O)C(C)(C)[C@@H]1CC3)C(C)C
REMARK SMILES IDX 4 1 5 2 6 3 7 4 8 5 9 6 10 7 19 8 12 9 13 10 18 11 20 12
REMARK SMILES IDX 14 13 15 14 17 15 16 16 35 17 21 18 34 19 33 20 23 21 22 22
REMARK SMILES IDX 30 23 24 24 25 25 31 26 32 27 11 28 26 30 27 31 29 32 28 33
REMARK SMILES IDX 3 34 2 35 1 36 36 37 37 38 38 39
REMARK H PARENT 11 29
REMARK Flexibility Score: inf
ROOT
ATOM      1  C   UNL     1      13.584 109.289  19.924  1.00  0.00     0.014 C 
ENDROOT
BRANCH   1   2
ATOM      2  C   UNL     1      13.879 110.400  18.874  1.00  0.00     0.042 C 
BRANCH   2   3
ATOM      3  C   UNL     1      15.235 110.153  18.251  1.00  0.00     0.045 C 
ATOM      4  O   UNL     1      15.485 110.580  17.091  1.00  0.00    -0.550 OA
ATOM      5  O   UNL     1      16.196 109.396  18.913  1.00  0.00    -0.550 OA
ENDBRANCH   2   3
BRANCH   2   6
ATOM      6  C   UNL     1      13.700 111.840  19.493  1.00  0.00     0.033 C 
ATOM      7  C   UNL     1      15.033 112.534  19.831  1.00  0.00     0.119 C 
ATOM      8  C   UNL     1      12.798 112.911  18.734  1.00  0.00    -0.017 C 
ATOM      9  C   UNL     1      15.118 113.726  18.900  1.00  0.00     0.043 C 
ATOM     10  C   UNL     1      13.678 114.241  18.688  1.00  0.00    -0.003 C 
ATOM     11  C   UNL     1      11.473 113.130  19.539  1.00  0.00     0.012 C 
ATOM     12  C   UNL     1      12.375 112.445  17.310  1.00  0.00     0.013 C 
ATOM     13  C   UNL     1      13.649 115.013  17.336  1.00  0.00     0.017 C 
ATOM     14  C   UNL     1      13.226 115.282  19.751  1.00  0.00    -0.064 C 
ATOM     15  C   UNL     1      10.898 114.530  19.338  1.00  0.00     0.032 C 
ATOM     16  C   UNL     1      11.887 115.562  19.848  1.00  0.00    -0.064 C 
ATOM     17  C   UNL     1      14.271 116.134  20.497  1.00  0.00     0.032 C 
ATOM     18  C   UNL     1      11.448 116.903  20.460  1.00  0.00    -0.008 C 
ATOM     19  C   UNL     1      13.746 117.183  21.514  1.00  0.00     0.009 C 
ATOM     20  C   UNL     1      12.244 117.004  21.809  1.00  0.00     0.009 C 
ATOM     21  C   UNL     1       9.913 117.047  20.720  1.00  0.00     0.015 C 
ATOM     22  C   UNL     1      11.819 117.998  19.413  1.00  0.00     0.016 C 
ATOM     23  C   UNL     1      11.600 117.933  22.911  1.00  0.00     0.005 C 
ATOM     24  C   UNL     1       9.514 116.551  22.106  1.00  0.00     0.047 C 
ATOM     25  C   UNL     1      10.118 117.447  23.211  1.00  0.00     0.182 C 
ATOM     26  C   UNL     1      11.629 119.430  22.501  1.00  0.00     0.015 C 
ATOM     27  C   UNL     1      12.414 117.810  24.225  1.00  0.00     0.015 C 
BRANCH   7  28
ATOM     28  O   UNL     1      15.036 112.977  21.162  1.00  0.00    -0.393 OA
ATOM     29  H   UNL     1      15.940 112.788  21.525  1.00  0.00     0.210 HD
ENDBRANCH   7  28
BRANCH  25  30
ATOM     30  O   UNL     1       9.231 118.553  23.420  1.00  0.00    -0.462 OA
BRANCH  30  31
ATOM     31  C   UNL     1       8.159 118.547  24.324  1.00  0.00     0.302 C 
ATOM     32  O   UNL     1       7.138 119.260  24.128  1.00  0.00    -0.253 OA
ATOM     33  C   UNL     1       8.222 117.672  25.530  1.00  0.00     0.139 C 
ENDBRANCH  30  31
ENDBRANCH  25  30
ENDBRANCH   2   6
ENDBRANCH   1   2
BRANCH   1  34
ATOM     34  C   UNL     1      13.878 109.708  21.374  1.00  0.00     0.031 C 
BRANCH  34  35
ATOM     35  C   UNL     1      12.628 109.946  22.197  1.00  0.00    -0.075 C 
ATOM     36  C   UNL     1      11.481 109.332  21.852  1.00  0.00     0.008 C 
BRANCH  35  37
ATOM     37  C   UNL     1      12.672 110.937  23.353  1.00  0.00     0.008 C 
ATOM     38  C   UNL     1      14.079 111.004  23.957  1.00  0.00     0.012 C 
ATOM     39  C   UNL     1      12.189 112.335  22.941  1.00  0.00     0.012 C 
ENDBRANCH  35  37
ENDBRANCH  34  35
ENDBRANCH   1  34
TORSDOF 9
ENDMDL
MODEL 3
REMARK VINA RESULT:    -6.652      5.878      8.927
REMARK INTER + INTRA:         -11.880
REMARK INTER:                  -9.905
REMARK INTRA:                  -1.975
REMARK UNBOUND:                -1.923
REMARK SMILES C=C(CC[C@H](C(=O)[O-])[C@H]1[C@H](O)C[C@]2(C)C3=C(CC[C@]12C)[C@@]1(C)CC[C@H](OC(C)=O)C(C)(C)[C@@H]1CC3)C(C)C
REMARK SMILES IDX 4 1 5 2 6 3 7 4 8 5 9 6 10 7 19 8 12 9 13 10 18 11 20 12
REMARK SMILES IDX 14 13 15 14 17 15 16 16 35 17 21 18 34 19 33 20 23 21 22 22
REMARK SMILES IDX 30 23 24 24 25 25 31 26 32 27 11 28 26 30 27 31 29 32 28 33
REMARK SMILES IDX 3 34 2 35 1 36 36 37 37 38 38 39
REMARK H PARENT 11 29
REMARK Flexibility Score: inf
ROOT
ATOM      1  C   UNL     1       7.846 117.921  21.598  1.00  0.00     0.014 C 
ENDROOT
BRANCH   1   2
ATOM      2  C   UNL     1       8.832 118.652  20.638  1.00  0.00     0.042 C 
BRANCH   2   3
ATOM      3  C   UNL     1       8.044 119.403  19.588  1.00  0.00     0.045 C 
ATOM      4  O   UNL     1       6.979 118.912  19.125  1.00  0.00    -0.550 OA
ATOM      5  O   UNL     1       8.516 120.605  19.069  1.00  0.00    -0.550 OA
ENDBRANCH   2   3
BRANCH   2   6
ATOM      6  C   UNL     1       9.910 117.659  20.057  1.00  0.00     0.033 C 
ATOM      7  C   UNL     1      10.334 117.989  18.613  1.00  0.00     0.119 C 
ATOM      8  C   UNL     1      11.245 117.383  20.881  1.00  0.00    -0.017 C 
ATOM      9  C   UNL     1      11.792 118.391  18.699  1.00  0.00     0.043 C 
ATOM     10  C   UNL     1      12.430 117.549  19.824  1.00  0.00    -0.003 C 
ATOM     11  C   UNL     1      11.199 115.931  21.464  1.00  0.00     0.012 C 
ATOM     12  C   UNL     1      11.413 118.340  22.097  1.00  0.00     0.013 C 
ATOM     13  C   UNL     1      13.679 118.322  20.341  1.00  0.00     0.017 C 
ATOM     14  C   UNL     1      12.982 116.178  19.341  1.00  0.00    -0.064 C 
ATOM     15  C   UNL     1      12.592 115.332  21.641  1.00  0.00     0.032 C 
ATOM     16  C   UNL     1      13.275 115.232  20.289  1.00  0.00    -0.064 C 
ATOM     17  C   UNL     1      13.403 115.986  17.871  1.00  0.00     0.032 C 
ATOM     18  C   UNL     1      14.281 114.120  19.947  1.00  0.00    -0.008 C 
ATOM     19  C   UNL     1      13.985 114.603  17.468  1.00  0.00     0.009 C 
ATOM     20  C   UNL     1      13.788 113.546  18.572  1.00  0.00     0.009 C 
ATOM     21  C   UNL     1      14.396 112.976  21.006  1.00  0.00     0.015 C 
ATOM     22  C   UNL     1      15.681 114.806  19.892  1.00  0.00     0.016 C 
ATOM     23  C   UNL     1      14.233 112.065  18.253  1.00  0.00     0.005 C 
ATOM     24  C   UNL     1      13.410 111.843  20.740  1.00  0.00     0.047 C 
ATOM     25  C   UNL     1      13.753 111.106  19.424  1.00  0.00     0.182 C 
ATOM     26  C   UNL     1      15.764 111.953  18.026  1.00  0.00     0.015 C 
ATOM     27  C   UNL     1      13.547 111.595  16.944  1.00  0.00     0.015 C 
BRANCH   7  28
ATOM     28  O   UNL     1      10.206 116.861  17.789  1.00  0.00    -0.393 OA
ATOM     29  H   UNL     1      10.180 116.070  18.388  1.00  0.00     0.210 HD
ENDBRANCH   7  28
BRANCH  25  30
ATOM     30  O   UNL     1      14.731 110.102  19.720  1.00  0.00    -0.462 OA
BRANCH  30  31
ATOM     31  C   UNL     1      14.489 108.722  19.664  1.00  0.00     0.302 C 
ATOM     32  O   UNL     1      13.874 108.130  20.591  1.00  0.00    -0.253 OA
ATOM     33  C   UNL     1      14.955 107.944  18.479  1.00  0.00     0.139 C 
ENDBRANCH  30  31
ENDBRANCH  25  30
ENDBRANCH   2   6
ENDBRANCH   1   2
BRANCH   1  34
ATOM     34  C   UNL     1       7.698 118.597  22.972  1.00  0.00     0.031 C 
BRANCH  34  35
ATOM     35  C   UNL     1       8.404 117.852  24.087  1.00  0.00    -0.075 C 
ATOM     36  C   UNL     1       8.663 116.539  23.947  1.00  0.00     0.008 C 
BRANCH  35  37
ATOM     37  C   UNL     1       8.739 118.586  25.380  1.00  0.00     0.008 C 
ATOM     38  C   UNL     1      10.238 118.489  25.686  1.00  0.00     0.012 C 
ATOM     39  C   UNL     1       8.282 120.052  25.352  1.00  0.00     0.012 C 
ENDBRANCH  35  37
ENDBRANCH  34  35
ENDBRANCH   1  34
TORSDOF 9
ENDMDL
MODEL 4
REMARK VINA RESULT:    -6.619      6.429      9.777
REMARK INTER + INTRA:         -11.831
REMARK INTER:                  -9.396
REMARK INTRA:                  -2.435
REMARK UNBOUND:                -1.923
REMARK SMILES C=C(CC[C@H](C(=O)[O-])[C@H]1[C@H](O)C[C@]2(C)C3=C(CC[C@]12C)[C@@]1(C)CC[C@H](OC(C)=O)C(C)(C)[C@@H]1CC3)C(C)C
REMARK SMILES IDX 4 1 5 2 6 3 7 4 8 5 9 6 10 7 19 8 12 9 13 10 18 11 20 12
REMARK SMILES IDX 14 13 15 14 17 15 16 16 35 17 21 18 34 19 33 20 23 21 22 22
REMARK SMILES IDX 30 23 24 24 25 25 31 26 32 27 11 28 26 30 27 31 29 32 28 33
REMARK SMILES IDX 3 34 2 35 1 36 36 37 37 38 38 39
REMARK H PARENT 11 29
REMARK Flexibility Score: inf
ROOT
ATOM      1  C   UNL     1      14.639 111.685  18.260  1.00  0.00     0.014 C 
ENDROOT
BRANCH   1   2
ATOM      2  C   UNL     1      14.695 111.604  19.814  1.00  0.00     0.042 C 
BRANCH   2   3
ATOM      3  C   UNL     1      14.569 110.160  20.246  1.00  0.00     0.045 C 
ATOM      4  O   UNL     1      15.126 109.767  21.307  1.00  0.00    -0.550 OA
ATOM      5  O   UNL     1      13.902 109.234  19.450  1.00  0.00    -0.550 OA
ENDBRANCH   2   3
BRANCH   2   6
ATOM      6  C   UNL     1      13.645 112.576  20.479  1.00  0.00     0.033 C 
ATOM      7  C   UNL     1      12.439 111.845  21.100  1.00  0.00     0.119 C 
ATOM      8  C   UNL     1      14.138 113.649  21.547  1.00  0.00    -0.017 C 
ATOM      9  C   UNL     1      12.539 112.091  22.591  1.00  0.00     0.043 C 
ATOM     10  C   UNL     1      13.136 113.502  22.781  1.00  0.00    -0.003 C 
ATOM     11  C   UNL     1      14.059 115.079  20.914  1.00  0.00     0.012 C 
ATOM     12  C   UNL     1      15.621 113.438  21.974  1.00  0.00     0.013 C 
ATOM     13  C   UNL     1      13.802 113.545  24.188  1.00  0.00     0.017 C 
ATOM     14  C   UNL     1      12.070 114.632  22.809  1.00  0.00    -0.064 C 
ATOM     15  C   UNL     1      13.828 116.164  21.963  1.00  0.00     0.032 C 
ATOM     16  C   UNL     1      12.498 115.925  22.654  1.00  0.00    -0.064 C 
ATOM     17  C   UNL     1      10.620 114.321  23.232  1.00  0.00     0.032 C 
ATOM     18  C   UNL     1      11.622 117.071  23.189  1.00  0.00    -0.008 C 
ATOM     19  C   UNL     1       9.618 115.507  23.278  1.00  0.00     0.009 C 
ATOM     20  C   UNL     1      10.190 116.776  22.618  1.00  0.00     0.009 C 
ATOM     21  C   UNL     1      12.085 118.508  22.787  1.00  0.00     0.015 C 
ATOM     22  C   UNL     1      11.720 116.999  24.744  1.00  0.00     0.016 C 
ATOM     23  C   UNL     1       9.236 118.028  22.493  1.00  0.00     0.005 C 
ATOM     24  C   UNL     1      11.469 118.965  21.468  1.00  0.00     0.047 C 
ATOM     25  C   UNL     1       9.938 119.140  21.603  1.00  0.00     0.182 C 
ATOM     26  C   UNL     1       8.831 118.592  23.882  1.00  0.00     0.015 C 
ATOM     27  C   UNL     1       7.927 117.605  21.779  1.00  0.00     0.015 C 
BRANCH   7  28
ATOM     28  O   UNL     1      11.234 112.379  20.616  1.00  0.00    -0.393 OA
ATOM     29  H   UNL     1      10.521 112.091  21.242  1.00  0.00     0.210 HD
ENDBRANCH   7  28
BRANCH  25  30
ATOM     30  O   UNL     1       9.685 120.458  22.106  1.00  0.00    -0.462 OA
BRANCH  30  31
ATOM     31  C   UNL     1       8.807 121.376  21.512  1.00  0.00     0.302 C 
ATOM     32  O   UNL     1       9.039 121.852  20.368  1.00  0.00    -0.253 OA
ATOM     33  C   UNL     1       7.571 121.785  22.241  1.00  0.00     0.139 C 
ENDBRANCH  30  31
ENDBRANCH  25  30
ENDBRANCH   2   6
ENDBRANCH   1   2
BRANCH   1  34
ATOM     34  C   UNL     1      14.327 113.090  17.720  1.00  0.00     0.031 C 
BRANCH  34  35
ATOM     35  C   UNL     1      12.850 113.321  17.466  1.00  0.00    -0.075 C 
ATOM     36  C   UNL     1      12.057 112.275  17.171  1.00  0.00     0.008 C 
BRANCH  35  37
ATOM     37  C   UNL     1      12.305 114.744  17.473  1.00  0.00     0.008 C 
ATOM     38  C   UNL     1      11.352 114.955  18.654  1.00  0.00     0.012 C 
ATOM     39  C   UNL     1      13.424 115.797  17.480  1.00  0.00     0.012 C 
ENDBRANCH  35  37
ENDBRANCH  34  35
ENDBRANCH   1  34
TORSDOF 9
ENDMDL
MODEL 5
REMARK VINA RESULT:    -6.589      6.058      9.995
REMARK INTER + INTRA:         -11.786
REMARK INTER:                 -10.852
REMARK INTRA:                  -0.934
REMARK UNBOUND:                -1.923
REMARK SMILES C=C(CC[C@H](C(=O)[O-])[C@H]1[C@H](O)C[C@]2(C)C3=C(CC[C@]12C)[C@@]1(C)CC[C@H](OC(C)=O)C(C)(C)[C@@H]1CC3)C(C)C
REMARK SMILES IDX 4 1 5 2 6 3 7 4 8 5 9 6 10 7 19 8 12 9 13 10 18 11 20 12
REMARK SMILES IDX 14 13 15 14 17 15 16 16 35 17 21 18 34 19 33 20 23 21 22 22
REMARK SMILES IDX 30 23 24 24 25 25 31 26 32 27 11 28 26 30 27 31 29 32 28 33
REMARK SMILES IDX 3 34 2 35 1 36 36 37 37 38 38 39
REMARK H PARENT 11 29
REMARK Flexibility Score: inf
ROOT
ATOM      1  C   UNL     1      12.159 117.170  18.805  1.00  0.00     0.014 C 
ENDROOT
BRANCH   1   2
ATOM      2  C   UNL     1      10.672 117.368  18.383  1.00  0.00     0.042 C 
BRANCH   2   3
ATOM      3  C   UNL     1      10.612 117.747  16.920  1.00  0.00     0.045 C 
ATOM      4  O   UNL     1       9.561 117.537  16.256  1.00  0.00    -0.550 OA
ATOM      5  O   UNL     1      11.730 118.262  16.271  1.00  0.00    -0.550 OA
ENDBRANCH   2   3
BRANCH   2   6
ATOM      6  C   UNL     1       9.929 118.371  19.346  1.00  0.00     0.033 C 
ATOM      7  C   UNL     1       8.483 118.681  18.915  1.00  0.00     0.119 C 
ATOM      8  C   UNL     1       9.893 118.073  20.910  1.00  0.00    -0.017 C 
ATOM      9  C   UNL     1       7.601 118.104  20.003  1.00  0.00     0.043 C 
ATOM     10  C   UNL     1       8.365 118.256  21.335  1.00  0.00    -0.003 C 
ATOM     11  C   UNL     1      10.818 119.096  21.651  1.00  0.00     0.012 C 
ATOM     12  C   UNL     1      10.429 116.656  21.268  1.00  0.00     0.013 C 
ATOM     13  C   UNL     1       7.814 117.182  22.319  1.00  0.00     0.017 C 
ATOM     14  C   UNL     1       8.113 119.615  22.047  1.00  0.00    -0.064 C 
ATOM     15  C   UNL     1      10.355 119.368  23.080  1.00  0.00     0.032 C 
ATOM     16  C   UNL     1       8.968 119.983  23.053  1.00  0.00    -0.064 C 
ATOM     17  C   UNL     1       6.811 120.399  21.785  1.00  0.00     0.032 C 
ATOM     18  C   UNL     1       8.486 120.993  24.110  1.00  0.00    -0.008 C 
ATOM     19  C   UNL     1       6.607 121.728  22.562  1.00  0.00     0.009 C 
ATOM     20  C   UNL     1       7.892 122.184  23.279  1.00  0.00     0.009 C 
ATOM     21  C   UNL     1       9.588 121.508  25.091  1.00  0.00     0.015 C 
ATOM     22  C   UNL     1       7.441 120.236  24.985  1.00  0.00     0.016 C 
ATOM     23  C   UNL     1       7.860 123.580  24.018  1.00  0.00     0.005 C 
ATOM     24  C   UNL     1      10.295 122.752  24.564  1.00  0.00     0.047 C 
ATOM     25  C   UNL     1       9.326 123.955  24.500  1.00  0.00     0.182 C 
ATOM     26  C   UNL     1       6.858 123.588  25.203  1.00  0.00     0.015 C 
ATOM     27  C   UNL     1       7.393 124.674  23.024  1.00  0.00     0.015 C 
BRANCH   7  28
ATOM     28  O   UNL     1       8.278 120.067  18.829  1.00  0.00    -0.393 OA
ATOM     29  H   UNL     1       7.412 120.257  19.274  1.00  0.00     0.210 HD
ENDBRANCH   7  28
BRANCH  25  30
ATOM     30  O   UNL     1       9.315 124.584  25.787  1.00  0.00    -0.462 OA
BRANCH  30  31
ATOM     31  C   UNL     1       9.500 125.958  25.998  1.00  0.00     0.302 C 
ATOM     32  O   UNL     1       8.633 126.647  26.599  1.00  0.00    -0.253 OA
ATOM     33  C   UNL     1      10.752 126.611  25.515  1.00  0.00     0.139 C 
ENDBRANCH  30  31
ENDBRANCH  25  30
ENDBRANCH   2   6
ENDBRANCH   1   2
BRANCH   1  34
ATOM     34  C   UNL     1      12.800 115.890  18.245  1.00  0.00     0.031 C 
BRANCH  34  35
ATOM     35  C   UNL     1      12.617 114.684  19.144  1.00  0.00    -0.075 C 
ATOM     36  C   UNL     1      13.436 114.511  20.197  1.00  0.00     0.008 C 
BRANCH  35  37
ATOM     37  C   UNL     1      11.556 113.646  18.794  1.00  0.00     0.008 C 
ATOM     38  C   UNL     1      11.630 113.274  17.309  1.00  0.00     0.012 C 
ATOM     39  C   UNL     1      11.654 112.392  19.675  1.00  0.00     0.012 C 
ENDBRANCH  35  37
ENDBRANCH  34  35
ENDBRANCH   1  34
TORSDOF 9
ENDMDL
MODEL 6
REMARK VINA RESULT:    -6.566      1.979      8.661
REMARK INTER + INTRA:         -11.752
REMARK INTER:                 -10.083
REMARK INTRA:                  -1.669
REMARK UNBOUND:                -1.923
REMARK SMILES C=C(CC[C@H](C(=O)[O-])[C@H]1[C@H](O)C[C@]2(C)C3=C(CC[C@]12C)[C@@]1(C)CC[C@H](OC(C)=O)C(C)(C)[C@@H]1CC3)C(C)C
REMARK SMILES IDX 4 1 5 2 6 3 7 4 8 5 9 6 10 7 19 8 12 9 13 10 18 11 20 12
REMARK SMILES IDX 14 13 15 14 17 15 16 16 35 17 21 18 34 19 33 20 23 21 22 22
REMARK SMILES IDX 30 23 24 24 25 25 31 26 32 27 11 28 26 30 27 31 29 32 28 33
REMARK SMILES IDX 3 34 2 35 1 36 36 37 37 38 38 39
REMARK H PARENT 11 29
REMARK Flexibility Score: inf
ROOT
ATOM      1  C   UNL     1      10.421 116.847  17.835  1.00  0.00     0.014 C 
ENDROOT
BRANCH   1   2
ATOM      2  C   UNL     1      11.718 116.354  18.543  1.00  0.00     0.042 C 
BRANCH   2   3
ATOM      3  C   UNL     1      11.346 115.556  19.773  1.00  0.00     0.045 C 
ATOM      4  O   UNL     1      11.775 114.379  19.916  1.00  0.00    -0.550 OA
ATOM      5  O   UNL     1      10.473 116.078  20.723  1.00  0.00    -0.550 OA
ENDBRANCH   2   3
BRANCH   2   6
ATOM      6  C   UNL     1      12.712 117.547  18.818  1.00  0.00     0.033 C 
ATOM      7  C   UNL     1      13.298 117.544  20.243  1.00  0.00     0.119 C 
ATOM      8  C   UNL     1      13.926 117.801  17.818  1.00  0.00    -0.017 C 
ATOM      9  C   UNL     1      14.781 117.290  20.073  1.00  0.00     0.043 C 
ATOM     10  C   UNL     1      15.209 117.965  18.753  1.00  0.00    -0.003 C 
ATOM     11  C   UNL     1      13.650 119.102  16.993  1.00  0.00     0.012 C 
ATOM     12  C   UNL     1      14.105 116.653  16.782  1.00  0.00     0.013 C 
ATOM     13  C   UNL     1      16.495 117.243  18.251  1.00  0.00     0.017 C 
ATOM     14  C   UNL     1      15.628 119.453  18.920  1.00  0.00    -0.064 C 
ATOM     15  C   UNL     1      14.938 119.799  16.562  1.00  0.00     0.032 C 
ATOM     16  C   UNL     1      15.718 120.227  17.792  1.00  0.00    -0.064 C 
ATOM     17  C   UNL     1      16.148 119.964  20.278  1.00  0.00     0.032 C 
ATOM     18  C   UNL     1      16.605 121.483  17.819  1.00  0.00    -0.008 C 
ATOM     19  C   UNL     1      16.587 121.451  20.362  1.00  0.00     0.009 C 
ATOM     20  C   UNL     1      16.166 122.252  19.114  1.00  0.00     0.009 C 
ATOM     21  C   UNL     1      16.486 122.411  16.566  1.00  0.00     0.015 C 
ATOM     22  C   UNL     1      18.078 120.971  17.844  1.00  0.00     0.016 C 
ATOM     23  C   UNL     1      16.451 123.805  19.113  1.00  0.00     0.005 C 
ATOM     24  C   UNL     1      15.394 123.463  16.730  1.00  0.00     0.047 C 
ATOM     25  C   UNL     1      15.756 124.468  17.849  1.00  0.00     0.182 C 
ATOM     26  C   UNL     1      17.970 124.119  19.150  1.00  0.00     0.015 C 
ATOM     27  C   UNL     1      15.829 124.441  20.383  1.00  0.00     0.015 C 
BRANCH   7  28
ATOM     28  O   UNL     1      13.102 118.789  20.861  1.00  0.00    -0.393 OA
ATOM     29  H   UNL     1      13.184 119.477  20.151  1.00  0.00     0.210 HD
ENDBRANCH   7  28
BRANCH  25  30
ATOM     30  O   UNL     1      16.573 125.496  17.274  1.00  0.00    -0.462 OA
BRANCH  30  31
ATOM     31  C   UNL     1      16.550 126.840  17.672  1.00  0.00     0.302 C 
ATOM     32  O   UNL     1      15.574 127.311  18.315  1.00  0.00    -0.253 OA
ATOM     33  C   UNL     1      17.706 127.722  17.341  1.00  0.00     0.139 C 
ENDBRANCH  30  31
ENDBRANCH  25  30
ENDBRANCH   2   6
ENDBRANCH   1   2
BRANCH   1  34
ATOM     34  C   UNL     1      10.227 118.371  17.880  1.00  0.00     0.031 C 
BRANCH  34  35
ATOM     35  C   UNL     1       9.073 118.803  18.763  1.00  0.00    -0.075 C 
ATOM     36  C   UNL     1       9.047 120.055  19.255  1.00  0.00     0.008 C 
BRANCH  35  37
ATOM     37  C   UNL     1       8.000 117.788  19.140  1.00  0.00     0.008 C 
ATOM     38  C   UNL     1       7.519 118.015  20.578  1.00  0.00     0.012 C 
ATOM     39  C   UNL     1       6.817 117.799  18.161  1.00  0.00     0.012 C 
ENDBRANCH  35  37
ENDBRANCH  34  35
ENDBRANCH   1  34
TORSDOF 9
ENDMDL
MODEL 7
REMARK VINA RESULT:    -6.562      2.414      9.011
REMARK INTER + INTRA:         -11.746
REMARK INTER:                  -9.541
REMARK INTRA:                  -2.205
REMARK UNBOUND:                -1.923
REMARK SMILES C=C(CC[C@H](C(=O)[O-])[C@H]1[C@H](O)C[C@]2(C)C3=C(CC[C@]12C)[C@@]1(C)CC[C@H](OC(C)=O)C(C)(C)[C@@H]1CC3)C(C)C
REMARK SMILES IDX 4 1 5 2 6 3 7 4 8 5 9 6 10 7 19 8 12 9 13 10 18 11 20 12
REMARK SMILES IDX 14 13 15 14 17 15 16 16 35 17 21 18 34 19 33 20 23 21 22 22
REMARK SMILES IDX 30 23 24 24 25 25 31 26 32 27 11 28 26 30 27 31 29 32 28 33
REMARK SMILES IDX 3 34 2 35 1 36 36 37 37 38 38 39
REMARK H PARENT 11 29
REMARK Flexibility Score: inf
ROOT
ATOM      1  C   UNL     1       8.219 117.865  21.822  1.00  0.00     0.014 C 
ENDROOT
BRANCH   1   2
ATOM      2  C   UNL     1       9.366 116.811  21.835  1.00  0.00     0.042 C 
BRANCH   2   3
ATOM      3  C   UNL     1       9.458 116.187  23.209  1.00  0.00     0.045 C 
ATOM      4  O   UNL     1      10.004 115.060  23.356  1.00  0.00    -0.550 OA
ATOM      5  O   UNL     1       8.883 116.808  24.314  1.00  0.00    -0.550 OA
ENDBRANCH   2   3
BRANCH   2   6
ATOM      6  C   UNL     1      10.718 117.426  21.307  1.00  0.00     0.033 C 
ATOM      7  C   UNL     1      11.661 117.896  22.432  1.00  0.00     0.119 C 
ATOM      8  C   UNL     1      11.605 116.598  20.275  1.00  0.00    -0.017 C 
ATOM      9  C   UNL     1      12.872 116.991  22.352  1.00  0.00     0.043 C 
ATOM     10  C   UNL     1      13.088 116.650  20.862  1.00  0.00    -0.003 C 
ATOM     11  C   UNL     1      11.524 117.276  18.866  1.00  0.00     0.012 C 
ATOM     12  C   UNL     1      11.105 115.135  20.087  1.00  0.00     0.013 C 
ATOM     13  C   UNL     1      13.878 115.309  20.796  1.00  0.00     0.017 C 
ATOM     14  C   UNL     1      13.982 117.676  20.111  1.00  0.00    -0.064 C 
ATOM     15  C   UNL     1      12.782 117.037  18.035  1.00  0.00     0.032 C 
ATOM     16  C   UNL     1      13.978 117.650  18.740  1.00  0.00    -0.064 C 
ATOM     17  C   UNL     1      15.007 118.527  20.886  1.00  0.00     0.032 C 
ATOM     18  C   UNL     1      15.182 118.233  17.980  1.00  0.00    -0.008 C 
ATOM     19  C   UNL     1      15.895 119.502  20.066  1.00  0.00     0.009 C 
ATOM     20  C   UNL     1      15.403 119.652  18.613  1.00  0.00     0.009 C 
ATOM     21  C   UNL     1      15.001 118.348  16.432  1.00  0.00     0.015 C 
ATOM     22  C   UNL     1      16.361 117.237  18.209  1.00  0.00     0.016 C 
ATOM     23  C   UNL     1      16.147 120.699  17.695  1.00  0.00     0.005 C 
ATOM     24  C   UNL     1      14.392 119.684  16.020  1.00  0.00     0.047 C 
ATOM     25  C   UNL     1      15.359 120.852  16.324  1.00  0.00     0.182 C 
ATOM     26  C   UNL     1      17.630 120.310  17.451  1.00  0.00     0.015 C 
ATOM     27  C   UNL     1      16.153 122.082  18.395  1.00  0.00     0.015 C 
BRANCH   7  28
ATOM     28  O   UNL     1      12.054 119.227  22.224  1.00  0.00    -0.393 OA
ATOM     29  H   UNL     1      11.999 119.393  21.247  1.00  0.00     0.210 HD
ENDBRANCH   7  28
BRANCH  25  30
ATOM     30  O   UNL     1      16.253 120.989  15.213  1.00  0.00    -0.462 OA
BRANCH  30  31
ATOM     31  C   UNL     1      16.076 121.901  14.163  1.00  0.00     0.302 C 
ATOM     32  O   UNL     1      16.819 121.874  13.145  1.00  0.00    -0.253 OA
ATOM     33  C   UNL     1      14.981 122.911  14.246  1.00  0.00     0.139 C 
ENDBRANCH  30  31
ENDBRANCH  25  30
ENDBRANCH   2   6
ENDBRANCH   1   2
BRANCH   1  34
ATOM     34  C   UNL     1       8.628 119.224  21.231  1.00  0.00     0.031 C 
BRANCH  34  35
ATOM     35  C   UNL     1       8.346 119.343  19.746  1.00  0.00    -0.075 C 
ATOM     36  C   UNL     1       8.893 120.353  19.047  1.00  0.00     0.008 C 
BRANCH  35  37
ATOM     37  C   UNL     1       7.385 118.359  19.088  1.00  0.00     0.008 C 
ATOM     38  C   UNL     1       6.112 119.074  18.622  1.00  0.00     0.012 C 
ATOM     39  C   UNL     1       8.039 117.595  17.927  1.00  0.00     0.012 C 
ENDBRANCH  35  37
ENDBRANCH  34  35
ENDBRANCH   1  34
TORSDOF 9
ENDMDL
MODEL 8
REMARK VINA RESULT:    -6.385      6.901      9.631
REMARK INTER + INTRA:         -11.480
REMARK INTER:                  -9.307
REMARK INTRA:                  -2.173
REMARK UNBOUND:                -1.923
REMARK SMILES C=C(CC[C@H](C(=O)[O-])[C@H]1[C@H](O)C[C@]2(C)C3=C(CC[C@]12C)[C@@]1(C)CC[C@H](OC(C)=O)C(C)(C)[C@@H]1CC3)C(C)C
REMARK SMILES IDX 4 1 5 2 6 3 7 4 8 5 9 6 10 7 19 8 12 9 13 10 18 11 20 12
REMARK SMILES IDX 14 13 15 14 17 15 16 16 35 17 21 18 34 19 33 20 23 21 22 22
REMARK SMILES IDX 30 23 24 24 25 25 31 26 32 27 11 28 26 30 27 31 29 32 28 33
REMARK SMILES IDX 3 34 2 35 1 36 36 37 37 38 38 39
REMARK H PARENT 11 29
REMARK Flexibility Score: inf
ROOT
ATOM      1  C   UNL     1       7.541 119.292  20.917  1.00  0.00     0.014 C 
ENDROOT
BRANCH   1   2
ATOM      2  C   UNL     1       8.416 119.522  22.185  1.00  0.00     0.042 C 
BRANCH   2   3
ATOM      3  C   UNL     1       8.756 120.991  22.299  1.00  0.00     0.045 C 
ATOM      4  O   UNL     1       8.776 121.549  23.430  1.00  0.00    -0.550 OA
ATOM      5  O   UNL     1       8.980 121.761  21.162  1.00  0.00    -0.550 OA
ENDBRANCH   2   3
BRANCH   2   6
ATOM      6  C   UNL     1       9.666 118.561  22.203  1.00  0.00     0.033 C 
ATOM      7  C   UNL     1      11.014 119.304  22.118  1.00  0.00     0.119 C 
ATOM      8  C   UNL     1       9.805 117.479  23.364  1.00  0.00    -0.017 C 
ATOM      9  C   UNL     1      11.700 119.053  23.445  1.00  0.00     0.043 C 
ATOM     10  C   UNL     1      11.299 117.635  23.904  1.00  0.00    -0.003 C 
ATOM     11  C   UNL     1       9.558 116.052  22.769  1.00  0.00     0.012 C 
ATOM     12  C   UNL     1       8.755 117.671  24.497  1.00  0.00     0.013 C 
ATOM     13  C   UNL     1      11.456 117.579  25.452  1.00  0.00     0.017 C 
ATOM     14  C   UNL     1      12.237 116.517  23.367  1.00  0.00    -0.064 C 
ATOM     15  C   UNL     1      10.308 114.967  23.538  1.00  0.00     0.032 C 
ATOM     16  C   UNL     1      11.801 115.220  23.445  1.00  0.00    -0.064 C 
ATOM     17  C   UNL     1      13.694 116.844  22.984  1.00  0.00     0.032 C 
ATOM     18  C   UNL     1      12.838 114.083  23.441  1.00  0.00    -0.008 C 
ATOM     19  C   UNL     1      14.586 115.670  22.496  1.00  0.00     0.009 C 
ATOM     20  C   UNL     1      13.766 114.396  22.215  1.00  0.00     0.009 C 
ATOM     21  C   UNL     1      12.246 112.641  23.323  1.00  0.00     0.015 C 
ATOM     22  C   UNL     1      13.556 114.149  24.823  1.00  0.00     0.016 C 
ATOM     23  C   UNL     1      14.530 113.156  21.605  1.00  0.00     0.005 C 
ATOM     24  C   UNL     1      12.097 112.195  21.872  1.00  0.00     0.047 C 
ATOM     25  C   UNL     1      13.479 112.038  21.196  1.00  0.00     0.182 C 
ATOM     26  C   UNL     1      15.599 112.594  22.580  1.00  0.00     0.015 C 
ATOM     27  C   UNL     1      15.278 113.596  20.321  1.00  0.00     0.015 C 
BRANCH   7  28
ATOM     28  O   UNL     1      11.800 118.786  21.077  1.00  0.00    -0.393 OA
ATOM     29  H   UNL     1      11.373 119.071  20.228  1.00  0.00     0.210 HD
ENDBRANCH   7  28
BRANCH  25  30
ATOM     30  O   UNL     1      13.967 110.722  21.484  1.00  0.00    -0.462 OA
BRANCH  30  31
ATOM     31  C   UNL     1      13.544 109.560  20.824  1.00  0.00     0.302 C 
ATOM     32  O   UNL     1      12.840 108.696  21.414  1.00  0.00    -0.253 OA
ATOM     33  C   UNL     1      13.923 109.348  19.397  1.00  0.00     0.139 C 
ENDBRANCH  30  31
ENDBRANCH  25  30
ENDBRANCH   2   6
ENDBRANCH   1   2
BRANCH   1  34
ATOM     34  C   UNL     1       7.567 117.845  20.396  1.00  0.00     0.031 C 
BRANCH  34  35
ATOM     35  C   UNL     1       7.993 117.737  18.945  1.00  0.00    -0.075 C 
ATOM     36  C   UNL     1       7.055 117.651  17.984  1.00  0.00     0.008 C 
BRANCH  35  37
ATOM     37  C   UNL     1       9.476 117.649  18.606  1.00  0.00     0.008 C 
ATOM     38  C   UNL     1      10.103 116.398  19.233  1.00  0.00     0.012 C 
ATOM     39  C   UNL     1       9.732 117.687  17.092  1.00  0.00     0.012 C 
ENDBRANCH  35  37
ENDBRANCH  34  35
ENDBRANCH   1  34
TORSDOF 9
ENDMDL
MODEL 9
REMARK VINA RESULT:    -6.232      6.638     10.881
REMARK INTER + INTRA:         -11.252
REMARK INTER:                  -9.800
REMARK INTRA:                  -1.452
REMARK UNBOUND:                -1.923
REMARK SMILES C=C(CC[C@H](C(=O)[O-])[C@H]1[C@H](O)C[C@]2(C)C3=C(CC[C@]12C)[C@@]1(C)CC[C@H](OC(C)=O)C(C)(C)[C@@H]1CC3)C(C)C
REMARK SMILES IDX 4 1 5 2 6 3 7 4 8 5 9 6 10 7 19 8 12 9 13 10 18 11 20 12
REMARK SMILES IDX 14 13 15 14 17 15 16 16 35 17 21 18 34 19 33 20 23 21 22 22
REMARK SMILES IDX 30 23 24 24 25 25 31 26 32 27 11 28 26 30 27 31 29 32 28 33
REMARK SMILES IDX 3 34 2 35 1 36 36 37 37 38 38 39
REMARK H PARENT 11 29
REMARK Flexibility Score: inf
ROOT
ATOM      1  C   UNL     1      12.232 116.411  19.122  1.00  0.00     0.014 C 
ENDROOT
BRANCH   1   2
ATOM      2  C   UNL     1      12.125 115.400  20.301  1.00  0.00     0.042 C 
BRANCH   2   3
ATOM      3  C   UNL     1      12.177 116.151  21.613  1.00  0.00     0.045 C 
ATOM      4  O   UNL     1      11.475 115.769  22.588  1.00  0.00    -0.550 OA
ATOM      5  O   UNL     1      12.940 117.308  21.741  1.00  0.00    -0.550 OA
ENDBRANCH   2   3
BRANCH   2   6
ATOM      6  C   UNL     1      13.193 114.247  20.169  1.00  0.00     0.033 C 
ATOM      7  C   UNL     1      13.901 113.908  21.495  1.00  0.00     0.119 C 
ATOM      8  C   UNL     1      12.774 112.864  19.501  1.00  0.00    -0.017 C 
ATOM      9  C   UNL     1      13.472 112.496  21.836  1.00  0.00     0.043 C 
ATOM     10  C   UNL     1      13.302 111.738  20.502  1.00  0.00    -0.003 C 
ATOM     11  C   UNL     1      13.454 112.743  18.096  1.00  0.00     0.012 C 
ATOM     12  C   UNL     1      11.240 112.751  19.257  1.00  0.00     0.013 C 
ATOM     13  C   UNL     1      12.319 110.557  20.754  1.00  0.00     0.017 C 
ATOM     14  C   UNL     1      14.609 111.068  19.995  1.00  0.00    -0.064 C 
ATOM     15  C   UNL     1      13.704 111.291  17.696  1.00  0.00     0.032 C 
ATOM     16  C   UNL     1      14.654 110.649  18.690  1.00  0.00    -0.064 C 
ATOM     17  C   UNL     1      15.720 110.681  20.992  1.00  0.00     0.032 C 
ATOM     18  C   UNL     1      15.652 109.547  18.294  1.00  0.00    -0.008 C 
ATOM     19  C   UNL     1      16.980 109.976  20.420  1.00  0.00     0.009 C 
ATOM     20  C   UNL     1      17.026 110.027  18.880  1.00  0.00     0.009 C 
ATOM     21  C   UNL     1      15.777 109.281  16.759  1.00  0.00     0.015 C 
ATOM     22  C   UNL     1      15.111 108.227  18.924  1.00  0.00     0.016 C 
ATOM     23  C   UNL     1      18.311 109.446  18.169  1.00  0.00     0.005 C 
ATOM     24  C   UNL     1      16.842 110.157  16.106  1.00  0.00     0.047 C 
ATOM     25  C   UNL     1      18.254 109.787  16.618  1.00  0.00     0.182 C 
ATOM     26  C   UNL     1      18.467 107.920  18.404  1.00  0.00     0.015 C 
ATOM     27  C   UNL     1      19.574 110.125  18.757  1.00  0.00     0.015 C 
BRANCH   7  28
ATOM     28  O   UNL     1      15.294 113.951  21.338  1.00  0.00    -0.393 OA
ATOM     29  H   UNL     1      15.583 113.034  21.092  1.00  0.00     0.210 HD
ENDBRANCH   7  28
BRANCH  25  30
ATOM     30  O   UNL     1      18.745 108.703  15.820  1.00  0.00    -0.462 OA
BRANCH  30  31
ATOM     31  C   UNL     1      19.989 108.697  15.175  1.00  0.00     0.302 C 
ATOM     32  O   UNL     1      20.894 107.887  15.513  1.00  0.00    -0.253 OA
ATOM     33  C   UNL     1      20.241 109.656  14.060  1.00  0.00     0.139 C 
ENDBRANCH  30  31
ENDBRANCH  25  30
ENDBRANCH   2   6
ENDBRANCH   1   2
BRANCH   1  34
ATOM     34  C   UNL     1      11.213 116.166  17.996  1.00  0.00     0.031 C 
BRANCH  34  35
ATOM     35  C   UNL     1      10.254 117.322  17.791  1.00  0.00    -0.075 C 
ATOM     36  C   UNL     1      10.288 118.014  16.639  1.00  0.00     0.008 C 
BRANCH  35  37
ATOM     37  C   UNL     1       9.321 117.727  18.926  1.00  0.00     0.008 C 
ATOM     38  C   UNL     1       9.664 119.132  19.435  1.00  0.00     0.012 C 
ATOM     39  C   UNL     1       7.842 117.640  18.524  1.00  0.00     0.012 C 
ENDBRANCH  35  37
ENDBRANCH  34  35
ENDBRANCH   1  34
TORSDOF 9
ENDMDL
