MODEL 1
REMARK VINA RESULT:    -3.814      0.000      0.000
REMARK INTER + INTRA:          -4.810
REMARK INTER:                  -4.594
REMARK INTRA:                  -0.216
REMARK UNBOUND:                -0.216
REMARK SMILES C=CCc1ccc(O)c(OC)c1
REMARK SMILES IDX 9 1 7 2 6 3 5 4 4 5 12 6 10 7 11 8 8 9 3 11 2 12 1 13
REMARK H PARENT 8 10
REMARK Flexibility Score: inf
ROOT
ATOM      1  C   UNL     1     117.727 116.070 120.931  1.00  0.00     0.160 A 
ATOM      2  C   UNL     1     117.689 115.490 122.207  1.00  0.00     0.157 A 
ATOM      3  C   UNL     1     116.702 115.874 123.125  1.00  0.00     0.050 A 
ATOM      4  C   UNL     1     115.754 116.836 122.778  1.00  0.00     0.008 A 
ATOM      5  C   UNL     1     115.785 117.434 121.510  1.00  0.00    -0.040 A 
ATOM      6  C   UNL     1     116.768 117.043 120.586  1.00  0.00     0.054 A 
ENDROOT
BRANCH   1   7
ATOM      7  O   UNL     1     118.728 115.656 120.037  1.00  0.00    -0.493 OA
ATOM      8  C   UNL     1     118.520 114.749 118.959  1.00  0.00     0.278 C 
ENDBRANCH   1   7
BRANCH   2   9
ATOM      9  O   UNL     1     118.636 114.528 122.555  1.00  0.00    -0.504 OA
ATOM     10  H   UNL     1     119.382 114.264 121.922  1.00  0.00     0.293 HD
ENDBRANCH   2   9
BRANCH   5  11
ATOM     11  C   UNL     1     114.745 118.452 121.122  1.00  0.00     0.062 C 
BRANCH  11  12
ATOM     12  C   UNL     1     115.132 119.152 119.849  1.00  0.00    -0.030 C 
ATOM     13  C   UNL     1     115.009 120.474 119.709  1.00  0.00     0.004 C 
ENDBRANCH  11  12
ENDBRANCH   5  11
TORSDOF 4
ENDMDL
MODEL 2
REMARK VINA RESULT:    -3.792      2.572      3.161
REMARK INTER + INTRA:          -4.784
REMARK INTER:                  -4.568
REMARK INTRA:                  -0.216
REMARK UNBOUND:                -0.216
REMARK SMILES C=CCc1ccc(O)c(OC)c1
REMARK SMILES IDX 9 1 7 2 6 3 5 4 4 5 12 6 10 7 11 8 8 9 3 11 2 12 1 13
REMARK H PARENT 8 10
REMARK Flexibility Score: inf
ROOT
ATOM      1  C   UNL     1     117.236 117.790 120.908  1.00  0.00     0.160 A 
ATOM      2  C   UNL     1     117.789 117.774 122.196  1.00  0.00     0.157 A 
ATOM      3  C   UNL     1     117.379 116.808 123.125  1.00  0.00     0.050 A 
ATOM      4  C   UNL     1     116.417 115.859 122.776  1.00  0.00     0.008 A 
ATOM      5  C   UNL     1     115.846 115.869 121.496  1.00  0.00    -0.040 A 
ATOM      6  C   UNL     1     116.264 116.831 120.561  1.00  0.00     0.054 A 
ENDROOT
BRANCH   1   7
ATOM      7  O   UNL     1     117.676 118.771 120.003  1.00  0.00    -0.493 OA
ATOM      8  C   UNL     1     118.517 118.514 118.883  1.00  0.00     0.278 C 
ENDBRANCH   1   7
BRANCH   2   9
ATOM      9  O   UNL     1     118.751 118.721 122.545  1.00  0.00    -0.504 OA
ATOM     10  H   UNL     1     119.679 118.448 122.847  1.00  0.00     0.293 HD
ENDBRANCH   2   9
BRANCH   5  11
ATOM     11  C   UNL     1     114.829 114.829 121.107  1.00  0.00     0.062 C 
BRANCH  11  12
ATOM     12  C   UNL     1     114.202 115.164 119.783  1.00  0.00    -0.030 C 
ATOM     13  C   UNL     1     112.882 115.093 119.593  1.00  0.00     0.004 C 
ENDBRANCH  11  12
ENDBRANCH   5  11
TORSDOF 4
ENDMDL
MODEL 3
REMARK VINA RESULT:    -3.769      2.729      4.158
REMARK INTER + INTRA:          -4.756
REMARK INTER:                  -4.601
REMARK INTRA:                  -0.155
REMARK UNBOUND:                -0.216
REMARK SMILES C=CCc1ccc(O)c(OC)c1
REMARK SMILES IDX 9 1 7 2 6 3 5 4 4 5 12 6 10 7 11 8 8 9 3 11 2 12 1 13
REMARK H PARENT 8 10
REMARK Flexibility Score: inf
ROOT
ATOM      1  C   UNL     1     117.593 117.106 121.839  1.00  0.00     0.160 A 
ATOM      2  C   UNL     1     117.736 115.722 121.669  1.00  0.00     0.157 A 
ATOM      3  C   UNL     1     118.374 115.216 120.528  1.00  0.00     0.050 A 
ATOM      4  C   UNL     1     118.869 116.084 119.555  1.00  0.00     0.008 A 
ATOM      5  C   UNL     1     118.724 117.471 119.705  1.00  0.00    -0.040 A 
ATOM      6  C   UNL     1     118.093 117.979 120.852  1.00  0.00     0.054 A 
ENDROOT
BRANCH   1   7
ATOM      7  O   UNL     1     116.951 117.575 122.997  1.00  0.00    -0.493 OA
ATOM      8  C   UNL     1     115.543 117.745 123.125  1.00  0.00     0.278 C 
ENDBRANCH   1   7
BRANCH   2   9
ATOM      9  O   UNL     1     117.242 114.853 122.641  1.00  0.00    -0.504 OA
ATOM     10  H   UNL     1     117.176 113.855 122.477  1.00  0.00     0.293 HD
ENDBRANCH   2   9
BRANCH   5  11
ATOM     11  C   UNL     1     119.283 118.412 118.670  1.00  0.00     0.062 C 
BRANCH  11  12
ATOM     12  C   UNL     1     120.776 118.523 118.801  1.00  0.00    -0.030 C 
ATOM     13  C   UNL     1     121.511 119.190 117.908  1.00  0.00     0.004 C 
ENDBRANCH  11  12
ENDBRANCH   5  11
TORSDOF 4
ENDMDL
MODEL 4
REMARK VINA RESULT:    -3.745      2.662      3.563
REMARK INTER + INTRA:          -4.727
REMARK INTER:                  -4.549
REMARK INTRA:                  -0.177
REMARK UNBOUND:                -0.216
REMARK SMILES C=CCc1ccc(O)c(OC)c1
REMARK SMILES IDX 9 1 7 2 6 3 5 4 4 5 12 6 10 7 11 8 8 9 3 11 2 12 1 13
REMARK H PARENT 8 10
REMARK Flexibility Score: inf
ROOT
ATOM      1  C   UNL     1     118.281 115.356 120.643  1.00  0.00     0.160 A 
ATOM      2  C   UNL     1     117.670 115.921 121.771  1.00  0.00     0.157 A 
ATOM      3  C   UNL     1     117.611 117.314 121.916  1.00  0.00     0.050 A 
ATOM      4  C   UNL     1     118.163 118.147 120.941  1.00  0.00     0.008 A 
ATOM      5  C   UNL     1     118.787 117.597 119.813  1.00  0.00    -0.040 A 
ATOM      6  C   UNL     1     118.836 116.202 119.662  1.00  0.00     0.054 A 
ENDROOT
BRANCH   1   7
ATOM      7  O   UNL     1     118.315 113.956 120.531  1.00  0.00    -0.493 OA
ATOM      8  C   UNL     1     118.058 113.238 119.329  1.00  0.00     0.278 C 
ENDBRANCH   1   7
BRANCH   2   9
ATOM      9  O   UNL     1     117.119 115.090 122.746  1.00  0.00    -0.504 OA
ATOM     10  H   UNL     1     116.344 115.393 123.325  1.00  0.00     0.293 HD
ENDBRANCH   2   9
BRANCH   5  11
ATOM     11  C   UNL     1     119.357 118.493 118.745  1.00  0.00     0.062 C 
BRANCH  11  12
ATOM     12  C   UNL     1     120.858 118.510 118.808  1.00  0.00    -0.030 C 
ATOM     13  C   UNL     1     121.591 119.176 117.911  1.00  0.00     0.004 C 
ENDBRANCH  11  12
ENDBRANCH   5  11
TORSDOF 4
ENDMDL
MODEL 5
REMARK VINA RESULT:    -3.741      2.039      3.166
REMARK INTER + INTRA:          -4.722
REMARK INTER:                  -4.537
REMARK INTRA:                  -0.185
REMARK UNBOUND:                -0.216
REMARK SMILES C=CCc1ccc(O)c(OC)c1
REMARK SMILES IDX 9 1 7 2 6 3 5 4 4 5 12 6 10 7 11 8 8 9 3 11 2 12 1 13
REMARK H PARENT 8 10
REMARK Flexibility Score: inf
ROOT
ATOM      1  C   UNL     1     116.133 117.560 121.863  1.00  0.00     0.160 A 
ATOM      2  C   UNL     1     117.506 117.757 121.659  1.00  0.00     0.157 A 
ATOM      3  C   UNL     1     117.959 118.419 120.510  1.00  0.00     0.050 A 
ATOM      4  C   UNL     1     117.048 118.883 119.560  1.00  0.00     0.008 A 
ATOM      5  C   UNL     1     115.672 118.684 119.743  1.00  0.00    -0.040 A 
ATOM      6  C   UNL     1     115.218 118.029 120.900  1.00  0.00     0.054 A 
ENDROOT
BRANCH   1   7
ATOM      7  O   UNL     1     115.719 116.896 123.029  1.00  0.00    -0.493 OA
ATOM      8  C   UNL     1     115.505 115.491 123.124  1.00  0.00     0.278 C 
ENDBRANCH   1   7
BRANCH   2   9
ATOM      9  O   UNL     1     118.417 117.294 122.607  1.00  0.00    -0.504 OA
ATOM     10  H   UNL     1     118.497 117.723 123.522  1.00  0.00     0.293 HD
ENDBRANCH   2   9
BRANCH   5  11
ATOM     11  C   UNL     1     114.686 119.209 118.735  1.00  0.00     0.062 C 
BRANCH  11  12
ATOM     12  C   UNL     1     114.717 120.711 118.690  1.00  0.00    -0.030 C 
ATOM     13  C   UNL     1     113.914 121.407 117.880  1.00  0.00     0.004 C 
ENDBRANCH  11  12
ENDBRANCH   5  11
TORSDOF 4
ENDMDL
MODEL 6
REMARK VINA RESULT:    -3.727      3.567      4.456
REMARK INTER + INTRA:          -4.706
REMARK INTER:                  -4.528
REMARK INTRA:                  -0.178
REMARK UNBOUND:                -0.216
REMARK SMILES C=CCc1ccc(O)c(OC)c1
REMARK SMILES IDX 9 1 7 2 6 3 5 4 4 5 12 6 10 7 11 8 8 9 3 11 2 12 1 13
REMARK H PARENT 8 10
REMARK Flexibility Score: inf
ROOT
ATOM      1  C   UNL     1     114.866 117.874 120.672  1.00  0.00     0.160 A 
ATOM      2  C   UNL     1     115.466 117.314 121.809  1.00  0.00     0.157 A 
ATOM      3  C   UNL     1     115.531 115.921 121.956  1.00  0.00     0.050 A 
ATOM      4  C   UNL     1     114.998 115.084 120.975  1.00  0.00     0.008 A 
ATOM      5  C   UNL     1     114.384 115.629 119.838  1.00  0.00    -0.040 A 
ATOM      6  C   UNL     1     114.327 117.024 119.686  1.00  0.00     0.054 A 
ENDROOT
BRANCH   1   7
ATOM      7  O   UNL     1     114.824 119.273 120.559  1.00  0.00    -0.493 OA
ATOM      8  C   UNL     1     115.131 119.994 119.370  1.00  0.00     0.278 C 
ENDBRANCH   1   7
BRANCH   2   9
ATOM      9  O   UNL     1     116.000 118.149 122.789  1.00  0.00    -0.504 OA
ATOM     10  H   UNL     1     115.584 119.047 123.006  1.00  0.00     0.293 HD
ENDBRANCH   2   9
BRANCH   5  11
ATOM     11  C   UNL     1     113.833 114.728 118.765  1.00  0.00     0.062 C 
BRANCH  11  12
ATOM     12  C   UNL     1     112.334 114.657 118.845  1.00  0.00    -0.030 C 
ATOM     13  C   UNL     1     111.613 113.982 117.945  1.00  0.00     0.004 C 
ENDBRANCH  11  12
ENDBRANCH   5  11
TORSDOF 4
ENDMDL
MODEL 7
REMARK VINA RESULT:    -3.722      3.045      5.113
REMARK INTER + INTRA:          -4.699
REMARK INTER:                  -4.519
REMARK INTRA:                  -0.180
REMARK UNBOUND:                -0.216
REMARK SMILES C=CCc1ccc(O)c(OC)c1
REMARK SMILES IDX 9 1 7 2 6 3 5 4 4 5 12 6 10 7 11 8 8 9 3 11 2 12 1 13
REMARK H PARENT 8 10
REMARK Flexibility Score: inf
ROOT
ATOM      1  C   UNL     1     115.282 114.841 120.694  1.00  0.00     0.160 A 
ATOM      2  C   UNL     1     115.833 115.461 121.825  1.00  0.00     0.157 A 
ATOM      3  C   UNL     1     117.225 115.561 121.964  1.00  0.00     0.050 A 
ATOM      4  C   UNL     1     118.069 115.043 120.981  1.00  0.00     0.008 A 
ATOM      5  C   UNL     1     117.534 114.411 119.850  1.00  0.00    -0.040 A 
ATOM      6  C   UNL     1     116.140 114.320 119.706  1.00  0.00     0.054 A 
ENDROOT
BRANCH   1   7
ATOM      7  O   UNL     1     113.884 114.765 120.589  1.00  0.00    -0.493 OA
ATOM      8  C   UNL     1     113.143 115.118 119.425  1.00  0.00     0.278 C 
ENDBRANCH   1   7
BRANCH   2   9
ATOM      9  O   UNL     1     114.991 115.978 122.808  1.00  0.00    -0.504 OA
ATOM     10  H   UNL     1     113.996 115.784 122.811  1.00  0.00     0.293 HD
ENDBRANCH   2   9
BRANCH   5  11
ATOM     11  C   UNL     1     118.442 113.878 118.774  1.00  0.00     0.062 C 
BRANCH  11  12
ATOM     12  C   UNL     1     118.469 112.375 118.794  1.00  0.00    -0.030 C 
ATOM     13  C   UNL     1     119.162 111.673 117.895  1.00  0.00     0.004 C 
ENDBRANCH  11  12
ENDBRANCH   5  11
TORSDOF 4
ENDMDL
