MODEL 1
REMARK VINA RESULT:    -4.247      0.000      0.000
REMARK INTER + INTRA:          -6.225
REMARK INTER:                  -5.736
REMARK INTRA:                  -0.488
REMARK UNBOUND:                -0.488
REMARK SMILES CCCCCCCC(=O)[O-]
REMARK SMILES IDX 5 1 6 2 7 3 8 4 9 5 10 6 4 7 3 8 2 9 1 10
REMARK H PARENT
REMARK Flexibility Score: inf
ROOT
ATOM      1  C   UNL     1     -21.392  -5.144  16.876  1.00  0.00     0.000 C 
ENDROOT
BRANCH   1   2
ATOM      2  C   UNL     1     -21.293  -5.801  15.489  1.00  0.00     0.006 C 
BRANCH   2   3
ATOM      3  C   UNL     1     -19.840  -6.080  15.083  1.00  0.00     0.053 C 
BRANCH   3   4
ATOM      4  C   UNL     1     -19.611  -7.534  14.798  1.00  0.00     0.041 C 
ATOM      5  O   UNL     1     -18.797  -8.196  15.493  1.00  0.00    -0.550 OA
ATOM      6  O   UNL     1     -20.320  -8.163  13.783  1.00  0.00    -0.550 OA
ENDBRANCH   3   4
ENDBRANCH   2   3
ENDBRANCH   1   2
BRANCH   1   7
ATOM      7  C   UNL     1     -22.245  -5.962  17.859  1.00  0.00     0.000 C 
BRANCH   7   8
ATOM      8  C   UNL     1     -21.841  -7.443  17.903  1.00  0.00    -0.000 C 
BRANCH   8   9
ATOM      9  C   UNL     1     -23.022  -8.344  17.522  1.00  0.00    -0.003 C 
ATOM     10  C   UNL     1     -22.635  -9.325  16.420  1.00  0.00     0.004 C 
ENDBRANCH   8   9
ENDBRANCH   7   8
ENDBRANCH   1   7
TORSDOF 6
ENDMDL
MODEL 2
REMARK VINA RESULT:    -4.049      1.514      2.380
REMARK INTER + INTRA:          -5.958
REMARK INTER:                  -5.573
REMARK INTRA:                  -0.385
REMARK UNBOUND:                -0.488
REMARK SMILES CCCCCCCC(=O)[O-]
REMARK SMILES IDX 5 1 6 2 7 3 8 4 9 5 10 6 4 7 3 8 2 9 1 10
REMARK H PARENT
REMARK Flexibility Score: inf
ROOT
ATOM      1  C   UNL     1     -22.816  -8.020  14.843  1.00  0.00     0.000 C 
ENDROOT
BRANCH   1   2
ATOM      2  C   UNL     1     -21.570  -7.160  14.575  1.00  0.00     0.006 C 
BRANCH   2   3
ATOM      3  C   UNL     1     -20.387  -7.995  14.067  1.00  0.00     0.053 C 
BRANCH   3   4
ATOM      4  C   UNL     1     -19.160  -7.785  14.901  1.00  0.00     0.041 C 
ATOM      5  O   UNL     1     -19.062  -8.326  16.034  1.00  0.00    -0.550 OA
ATOM      6  O   UNL     1     -18.111  -7.017  14.413  1.00  0.00    -0.550 OA
ENDBRANCH   3   4
ENDBRANCH   2   3
ENDBRANCH   1   2
BRANCH   1   7
ATOM      7  C   UNL     1     -22.605  -9.029  15.983  1.00  0.00     0.000 C 
BRANCH   7   8
ATOM      8  C   UNL     1     -23.539  -8.779  17.177  1.00  0.00    -0.000 C 
BRANCH   8   9
ATOM      9  C   UNL     1     -23.237  -7.426  17.833  1.00  0.00    -0.003 C 
ATOM     10  C   UNL     1     -21.755  -7.295  18.172  1.00  0.00     0.004 C 
ENDBRANCH   8   9
ENDBRANCH   7   8
ENDBRANCH   1   7
TORSDOF 6
ENDMDL
MODEL 3
REMARK VINA RESULT:    -4.047      1.741      2.794
REMARK INTER + INTRA:          -5.954
REMARK INTER:                  -5.357
REMARK INTRA:                  -0.597
REMARK UNBOUND:                -0.488
REMARK SMILES CCCCCCCC(=O)[O-]
REMARK SMILES IDX 5 1 6 2 7 3 8 4 9 5 10 6 4 7 3 8 2 9 1 10
REMARK H PARENT
REMARK Flexibility Score: inf
ROOT
ATOM      1  C   UNL     1     -23.269  -7.004  18.202  1.00  0.00     0.000 C 
ENDROOT
BRANCH   1   2
ATOM      2  C   UNL     1     -21.802  -6.665  17.889  1.00  0.00     0.006 C 
BRANCH   2   3
ATOM      3  C   UNL     1     -21.664  -5.347  17.116  1.00  0.00     0.053 C 
BRANCH   3   4
ATOM      4  C   UNL     1     -20.994  -5.546  15.791  1.00  0.00     0.041 C 
ATOM      5  O   UNL     1     -21.094  -4.671  14.892  1.00  0.00    -0.550 OA
ATOM      6  O   UNL     1     -20.234  -6.685  15.560  1.00  0.00    -0.550 OA
ENDBRANCH   3   4
ENDBRANCH   2   3
ENDBRANCH   1   2
BRANCH   1   7
ATOM      7  C   UNL     1     -23.762  -8.252  17.453  1.00  0.00     0.000 C 
BRANCH   7   8
ATOM      8  C   UNL     1     -22.633  -8.978  16.704  1.00  0.00    -0.000 C 
BRANCH   8   9
ATOM      9  C   UNL     1     -22.943  -9.073  15.206  1.00  0.00    -0.003 C 
ATOM     10  C   UNL     1     -23.608  -7.797  14.698  1.00  0.00     0.004 C 
ENDBRANCH   8   9
ENDBRANCH   7   8
ENDBRANCH   1   7
TORSDOF 6
ENDMDL
MODEL 4
REMARK VINA RESULT:    -4.013      2.505      4.678
REMARK INTER + INTRA:          -5.909
REMARK INTER:                  -5.521
REMARK INTRA:                  -0.388
REMARK UNBOUND:                -0.488
REMARK SMILES CCCCCCCC(=O)[O-]
REMARK SMILES IDX 5 1 6 2 7 3 8 4 9 5 10 6 4 7 3 8 2 9 1 10
REMARK H PARENT
REMARK Flexibility Score: inf
ROOT
ATOM      1  C   UNL     1     -20.567  -7.677  14.637  1.00  0.00     0.000 C 
ENDROOT
BRANCH   1   2
ATOM      2  C   UNL     1     -21.417  -6.414  14.856  1.00  0.00     0.006 C 
BRANCH   2   3
ATOM      3  C   UNL     1     -21.308  -5.884  16.293  1.00  0.00     0.053 C 
BRANCH   3   4
ATOM      4  C   UNL     1     -22.112  -6.708  17.251  1.00  0.00     0.041 C 
ATOM      5  O   UNL     1     -21.542  -7.337  18.181  1.00  0.00    -0.550 OA
ATOM      6  O   UNL     1     -23.496  -6.758  17.136  1.00  0.00    -0.550 OA
ENDBRANCH   3   4
ENDBRANCH   2   3
ENDBRANCH   1   2
BRANCH   1   7
ATOM      7  C   UNL     1     -19.171  -7.569  15.271  1.00  0.00     0.000 C 
BRANCH   7   8
ATOM      8  C   UNL     1     -18.107  -7.072  14.281  1.00  0.00    -0.000 C 
BRANCH   8   9
ATOM      9  C   UNL     1     -17.775  -5.596  14.531  1.00  0.00    -0.003 C 
ATOM     10  C   UNL     1     -16.856  -5.045  13.444  1.00  0.00     0.004 C 
ENDBRANCH   8   9
ENDBRANCH   7   8
ENDBRANCH   1   7
TORSDOF 6
ENDMDL
MODEL 5
REMARK VINA RESULT:    -4.003      1.360      1.660
REMARK INTER + INTRA:          -5.895
REMARK INTER:                  -5.425
REMARK INTRA:                  -0.470
REMARK UNBOUND:                -0.488
REMARK SMILES CCCCCCCC(=O)[O-]
REMARK SMILES IDX 5 1 6 2 7 3 8 4 9 5 10 6 4 7 3 8 2 9 1 10
REMARK H PARENT
REMARK Flexibility Score: inf
ROOT
ATOM      1  C   UNL     1     -21.290  -5.895  15.672  1.00  0.00     0.000 C 
ENDROOT
BRANCH   1   2
ATOM      2  C   UNL     1     -21.457  -7.342  15.178  1.00  0.00     0.006 C 
BRANCH   2   3
ATOM      3  C   UNL     1     -20.255  -7.814  14.349  1.00  0.00     0.053 C 
BRANCH   3   4
ATOM      4  C   UNL     1     -18.980  -7.753  15.134  1.00  0.00     0.041 C 
ATOM      5  O   UNL     1     -18.041  -7.002  14.763  1.00  0.00    -0.550 OA
ATOM      6  O   UNL     1     -18.841  -8.505  16.294  1.00  0.00    -0.550 OA
ENDBRANCH   3   4
ENDBRANCH   2   3
ENDBRANCH   1   2
BRANCH   1   7
ATOM      7  C   UNL     1     -21.730  -5.715  17.134  1.00  0.00     0.000 C 
BRANCH   7   8
ATOM      8  C   UNL     1     -21.970  -7.052  17.850  1.00  0.00    -0.000 C 
BRANCH   8   9
ATOM      9  C   UNL     1     -23.433  -7.184  18.287  1.00  0.00    -0.003 C 
ATOM     10  C   UNL     1     -24.077  -8.433  17.691  1.00  0.00     0.004 C 
ENDBRANCH   8   9
ENDBRANCH   7   8
ENDBRANCH   1   7
TORSDOF 6
ENDMDL
MODEL 6
REMARK VINA RESULT:    -3.988      2.323      4.316
REMARK INTER + INTRA:          -5.874
REMARK INTER:                  -5.351
REMARK INTRA:                  -0.523
REMARK UNBOUND:                -0.488
REMARK SMILES CCCCCCCC(=O)[O-]
REMARK SMILES IDX 5 1 6 2 7 3 8 4 9 5 10 6 4 7 3 8 2 9 1 10
REMARK H PARENT
REMARK Flexibility Score: inf
ROOT
ATOM      1  C   UNL     1     -22.890  -8.286  15.009  1.00  0.00     0.000 C 
ENDROOT
BRANCH   1   2
ATOM      2  C   UNL     1     -22.791  -9.156  16.273  1.00  0.00     0.006 C 
BRANCH   2   3
ATOM      3  C   UNL     1     -23.414  -8.472  17.497  1.00  0.00     0.053 C 
BRANCH   3   4
ATOM      4  C   UNL     1     -22.553  -7.359  18.010  1.00  0.00     0.041 C 
ATOM      5  O   UNL     1     -21.321  -7.541  18.190  1.00  0.00    -0.550 OA
ATOM      6  O   UNL     1     -23.107  -6.110  18.261  1.00  0.00    -0.550 OA
ENDBRANCH   3   4
ENDBRANCH   2   3
ENDBRANCH   1   2
BRANCH   1   7
ATOM      7  C   UNL     1     -21.512  -7.889  14.454  1.00  0.00     0.000 C 
BRANCH   7   8
ATOM      8  C   UNL     1     -21.159  -6.422  14.739  1.00  0.00    -0.000 C 
BRANCH   8   9
ATOM      9  C   UNL     1     -19.681  -6.280  15.122  1.00  0.00    -0.003 C 
ATOM     10  C   UNL     1     -18.946  -7.610  14.990  1.00  0.00     0.004 C 
ENDBRANCH   8   9
ENDBRANCH   7   8
ENDBRANCH   1   7
TORSDOF 6
ENDMDL
MODEL 7
REMARK VINA RESULT:    -3.883      2.516      4.096
REMARK INTER + INTRA:          -5.734
REMARK INTER:                  -5.246
REMARK INTRA:                  -0.487
REMARK UNBOUND:                -0.488
REMARK SMILES CCCCCCCC(=O)[O-]
REMARK SMILES IDX 5 1 6 2 7 3 8 4 9 5 10 6 4 7 3 8 2 9 1 10
REMARK H PARENT
REMARK Flexibility Score: inf
ROOT
ATOM      1  C   UNL     1     -21.722  -5.622  17.213  1.00  0.00     0.000 C 
ENDROOT
BRANCH   1   2
ATOM      2  C   UNL     1     -22.004  -6.979  17.880  1.00  0.00     0.006 C 
BRANCH   2   3
ATOM      3  C   UNL     1     -23.506  -7.233  18.064  1.00  0.00     0.053 C 
BRANCH   3   4
ATOM      4  C   UNL     1     -23.910  -8.580  17.547  1.00  0.00     0.041 C 
ATOM      5  O   UNL     1     -25.054  -9.040  17.799  1.00  0.00    -0.550 OA
ATOM      6  O   UNL     1     -23.032  -9.316  16.761  1.00  0.00    -0.550 OA
ENDBRANCH   3   4
ENDBRANCH   2   3
ENDBRANCH   1   2
BRANCH   1   7
ATOM      7  C   UNL     1     -20.928  -5.759  15.904  1.00  0.00     0.000 C 
BRANCH   7   8
ATOM      8  C   UNL     1     -21.639  -6.644  14.869  1.00  0.00    -0.000 C 
BRANCH   8   9
ATOM      9  C   UNL     1     -20.709  -7.755  14.368  1.00  0.00    -0.003 C 
ATOM     10  C   UNL     1     -19.363  -7.714  15.085  1.00  0.00     0.004 C 
ENDBRANCH   8   9
ENDBRANCH   7   8
ENDBRANCH   1   7
TORSDOF 6
ENDMDL
MODEL 8
REMARK VINA RESULT:    -3.878      2.152      3.153
REMARK INTER + INTRA:          -5.727
REMARK INTER:                  -5.220
REMARK INTRA:                  -0.506
REMARK UNBOUND:                -0.488
REMARK SMILES CCCCCCCC(=O)[O-]
REMARK SMILES IDX 5 1 6 2 7 3 8 4 9 5 10 6 4 7 3 8 2 9 1 10
REMARK H PARENT
REMARK Flexibility Score: inf
ROOT
ATOM      1  C   UNL     1     -22.781  -8.049  14.936  1.00  0.00     0.000 C 
ENDROOT
BRANCH   1   2
ATOM      2  C   UNL     1     -21.334  -7.726  14.524  1.00  0.00     0.006 C 
BRANCH   2   3
ATOM      3  C   UNL     1     -20.578  -6.959  15.617  1.00  0.00     0.053 C 
BRANCH   3   4
ATOM      4  C   UNL     1     -20.980  -5.517  15.664  1.00  0.00     0.041 C 
ATOM      5  O   UNL     1     -21.006  -4.831  14.608  1.00  0.00    -0.550 OA
ATOM      6  O   UNL     1     -21.354  -4.937  16.869  1.00  0.00    -0.550 OA
ENDBRANCH   3   4
ENDBRANCH   2   3
ENDBRANCH   1   2
BRANCH   1   7
ATOM      7  C   UNL     1     -22.871  -9.257  15.884  1.00  0.00     0.000 C 
BRANCH   7   8
ATOM      8  C   UNL     1     -23.728  -8.972  17.126  1.00  0.00    -0.000 C 
BRANCH   8   9
ATOM      9  C   UNL     1     -23.142  -7.814  17.942  1.00  0.00    -0.003 C 
ATOM     10  C   UNL     1     -24.177  -6.715  18.165  1.00  0.00     0.004 C 
ENDBRANCH   8   9
ENDBRANCH   7   8
ENDBRANCH   1   7
TORSDOF 6
ENDMDL
MODEL 9
REMARK VINA RESULT:    -3.877      2.112      4.362
REMARK INTER + INTRA:          -5.725
REMARK INTER:                  -5.348
REMARK INTRA:                  -0.377
REMARK UNBOUND:                -0.488
REMARK SMILES CCCCCCCC(=O)[O-]
REMARK SMILES IDX 5 1 6 2 7 3 8 4 9 5 10 6 4 7 3 8 2 9 1 10
REMARK H PARENT
REMARK Flexibility Score: inf
ROOT
ATOM      1  C   UNL     1     -20.140  -8.646  16.920  1.00  0.00     0.000 C 
ENDROOT
BRANCH   1   2
ATOM      2  C   UNL     1     -21.258  -7.603  17.092  1.00  0.00     0.006 C 
BRANCH   2   3
ATOM      3  C   UNL     1     -22.641  -8.253  17.229  1.00  0.00     0.053 C 
BRANCH   3   4
ATOM      4  C   UNL     1     -22.903  -9.239  16.132  1.00  0.00     0.041 C 
ATOM      5  O   UNL     1     -23.101 -10.453  16.404  1.00  0.00    -0.550 OA
ATOM      6  O   UNL     1     -22.958  -8.813  14.812  1.00  0.00    -0.550 OA
ENDBRANCH   3   4
ENDBRANCH   2   3
ENDBRANCH   1   2
BRANCH   1   7
ATOM      7  C   UNL     1     -19.095  -8.226  15.874  1.00  0.00     0.000 C 
BRANCH   7   8
ATOM      8  C   UNL     1     -19.648  -7.217  14.856  1.00  0.00    -0.000 C 
BRANCH   8   9
ATOM      9  C   UNL     1     -18.879  -5.892  14.927  1.00  0.00    -0.003 C 
ATOM     10  C   UNL     1     -17.550  -5.985  14.183  1.00  0.00     0.004 C 
ENDBRANCH   8   9
ENDBRANCH   7   8
ENDBRANCH   1   7
TORSDOF 6
ENDMDL
