MODEL 1
REMARK VINA RESULT:    -4.989      0.000      0.000
REMARK INTER + INTRA:          -6.325
REMARK INTER:                  -6.009
REMARK INTRA:                  -0.316
REMARK UNBOUND:                -0.316
REMARK SMILES CCCCc1oc(O)c2ccccc12
REMARK SMILES IDX 4 1 5 2 7 3 6 4 9 5 14 6 10 7 13 8 11 9 12 10 8 11 3 13 2 14
REMARK SMILES IDX 1 15
REMARK H PARENT 8 12
REMARK Flexibility Score: inf
ROOT
ATOM      1  C   UNL     1     -50.858  25.751  11.601  1.00  0.00     0.076 C 
ENDROOT
BRANCH   1   2
ATOM      2  C   UNL     1     -49.745  25.382  10.669  1.00  0.00     0.116 A 
ATOM      3  C   UNL     1     -48.745  24.710   8.896  1.00  0.00     0.290 A 
ATOM      4  O   UNL     1     -49.927  24.901   9.451  1.00  0.00    -0.430 OA
ATOM      5  C   UNL     1     -47.752  25.081   9.773  1.00  0.00     0.066 A 
ATOM      6  C   UNL     1     -48.387  25.514  10.906  1.00  0.00     0.027 A 
ATOM      7  C   UNL     1     -46.364  25.078   9.658  1.00  0.00     0.016 A 
ATOM      8  C   UNL     1     -47.677  25.980  12.011  1.00  0.00     0.012 A 
ATOM      9  C   UNL     1     -45.618  25.541  10.759  1.00  0.00     0.001 A 
ATOM     10  C   UNL     1     -46.272  25.990  11.929  1.00  0.00     0.001 A 
BRANCH   3  11
ATOM     11  O   UNL     1     -48.552  24.210   7.613  1.00  0.00    -0.480 OA
ATOM     12  H   UNL     1     -48.233  24.817   6.869  1.00  0.00     0.297 HD
ENDBRANCH   3  11
ENDBRANCH   1   2
BRANCH   1  13
ATOM     13  C   UNL     1     -51.514  27.064  11.157  1.00  0.00     0.008 C 
BRANCH  13  14
ATOM     14  C   UNL     1     -52.979  26.876  10.735  1.00  0.00    -0.003 C 
ATOM     15  C   UNL     1     -53.125  26.490   9.264  1.00  0.00     0.004 C 
ENDBRANCH  13  14
ENDBRANCH   1  13
TORSDOF 4
ENDMDL
MODEL 2
REMARK VINA RESULT:    -4.949      1.469      5.180
REMARK INTER + INTRA:          -6.277
REMARK INTER:                  -6.104
REMARK INTRA:                  -0.173
REMARK UNBOUND:                -0.316
REMARK SMILES CCCCc1oc(O)c2ccccc12
REMARK SMILES IDX 4 1 5 2 7 3 6 4 9 5 14 6 10 7 13 8 11 9 12 10 8 11 3 13 2 14
REMARK SMILES IDX 1 15
REMARK H PARENT 8 12
REMARK Flexibility Score: inf
ROOT
ATOM      1  C   UNL     1     -46.155  25.328  10.709  1.00  0.00     0.076 C 
ENDROOT
BRANCH   1   2
ATOM      2  C   UNL     1     -47.438  25.156   9.956  1.00  0.00     0.116 A 
ATOM      3  C   UNL     1     -48.792  24.608   8.387  1.00  0.00     0.290 A 
ATOM      4  O   UNL     1     -47.522  24.637   8.743  1.00  0.00    -0.430 OA
ATOM      5  C   UNL     1     -49.572  25.120   9.398  1.00  0.00     0.066 A 
ATOM      6  C   UNL     1     -48.710  25.469  10.403  1.00  0.00     0.027 A 
ATOM      7  C   UNL     1     -50.949  25.295   9.510  1.00  0.00     0.016 A 
ATOM      8  C   UNL     1     -49.166  26.018  11.601  1.00  0.00     0.012 A 
ATOM      9  C   UNL     1     -51.440  25.849  10.707  1.00  0.00     0.001 A 
ATOM     10  C   UNL     1     -50.553  26.209  11.747  1.00  0.00     0.001 A 
BRANCH   3  11
ATOM     11  O   UNL     1     -49.254  24.125   7.168  1.00  0.00    -0.480 OA
ATOM     12  H   UNL     1     -49.603  23.178   7.091  1.00  0.00     0.297 HD
ENDBRANCH   3  11
ENDBRANCH   1   2
BRANCH   1  13
ATOM     13  C   UNL     1     -45.085  24.374  10.167  1.00  0.00     0.008 C 
BRANCH  13  14
ATOM     14  C   UNL     1     -43.709  24.604  10.812  1.00  0.00    -0.003 C 
ATOM     15  C   UNL     1     -42.623  23.705  10.221  1.00  0.00     0.004 C 
ENDBRANCH  13  14
ENDBRANCH   1  13
TORSDOF 4
ENDMDL
MODEL 3
REMARK VINA RESULT:    -4.563      1.389      4.322
REMARK INTER + INTRA:          -5.812
REMARK INTER:                  -5.288
REMARK INTRA:                  -0.524
REMARK UNBOUND:                -0.316
REMARK SMILES CCCCc1oc(O)c2ccccc12
REMARK SMILES IDX 4 1 5 2 7 3 6 4 9 5 14 6 10 7 13 8 11 9 12 10 8 11 3 13 2 14
REMARK SMILES IDX 1 15
REMARK H PARENT 8 12
REMARK Flexibility Score: inf
ROOT
ATOM      1  C   UNL     1     -46.722  25.340  11.162  1.00  0.00     0.076 C 
ENDROOT
BRANCH   1   2
ATOM      2  C   UNL     1     -47.866  25.183  10.209  1.00  0.00     0.116 A 
ATOM      3  C   UNL     1     -48.963  24.605   8.461  1.00  0.00     0.290 A 
ATOM      4  O   UNL     1     -47.772  24.597   9.028  1.00  0.00    -0.430 OA
ATOM      5  C   UNL     1     -49.874  25.212   9.295  1.00  0.00     0.066 A 
ATOM      6  C   UNL     1     -49.176  25.580  10.415  1.00  0.00     0.027 A 
ATOM      7  C   UNL     1     -51.237  25.456   9.159  1.00  0.00     0.016 A 
ATOM      8  C   UNL     1     -49.797  26.219  11.487  1.00  0.00     0.012 A 
ATOM      9  C   UNL     1     -51.893  26.103  10.225  1.00  0.00     0.001 A 
ATOM     10  C   UNL     1     -51.176  26.482  11.382  1.00  0.00     0.001 A 
BRANCH   3  11
ATOM     11  O   UNL     1     -49.239  24.073   7.206  1.00  0.00    -0.480 OA
ATOM     12  H   UNL     1     -50.010  24.430   6.656  1.00  0.00     0.297 HD
ENDBRANCH   3  11
ENDBRANCH   1   2
BRANCH   1  13
ATOM     13  C   UNL     1     -45.626  26.216  10.543  1.00  0.00     0.008 C 
BRANCH  13  14
ATOM     14  C   UNL     1     -46.115  27.638  10.231  1.00  0.00    -0.003 C 
ATOM     15  C   UNL     1     -46.568  28.394  11.480  1.00  0.00     0.004 C 
ENDBRANCH  13  14
ENDBRANCH   1  13
TORSDOF 4
ENDMDL
MODEL 4
REMARK VINA RESULT:    -4.521      1.455      2.067
REMARK INTER + INTRA:          -5.762
REMARK INTER:                  -5.287
REMARK INTRA:                  -0.476
REMARK UNBOUND:                -0.316
REMARK SMILES CCCCc1oc(O)c2ccccc12
REMARK SMILES IDX 4 1 5 2 7 3 6 4 9 5 14 6 10 7 13 8 11 9 12 10 8 11 3 13 2 14
REMARK SMILES IDX 1 15
REMARK H PARENT 8 12
REMARK Flexibility Score: inf
ROOT
ATOM      1  C   UNL     1     -51.192  27.880   8.518  1.00  0.00     0.076 C 
ENDROOT
BRANCH   1   2
ATOM      2  C   UNL     1     -50.276  26.697   8.475  1.00  0.00     0.116 A 
ATOM      3  C   UNL     1     -49.312  24.923   7.752  1.00  0.00     0.290 A 
ATOM      4  O   UNL     1     -50.246  25.817   7.488  1.00  0.00    -0.430 OA
ATOM      5  C   UNL     1     -48.704  25.223   8.949  1.00  0.00     0.066 A 
ATOM      6  C   UNL     1     -49.315  26.357   9.413  1.00  0.00     0.027 A 
ATOM      7  C   UNL     1     -47.673  24.600   9.648  1.00  0.00     0.016 A 
ATOM      8  C   UNL     1     -48.935  26.955  10.613  1.00  0.00     0.012 A 
ATOM      9  C   UNL     1     -47.268  25.179  10.866  1.00  0.00     0.001 A 
ATOM     10  C   UNL     1     -47.896  26.351  11.345  1.00  0.00     0.001 A 
BRANCH   3  11
ATOM     11  O   UNL     1     -49.003  23.846   6.930  1.00  0.00    -0.480 OA
ATOM     12  H   UNL     1     -49.695  23.469   6.296  1.00  0.00     0.297 HD
ENDBRANCH   3  11
ENDBRANCH   1   2
BRANCH   1  13
ATOM     13  C   UNL     1     -52.653  27.430   8.402  1.00  0.00     0.008 C 
BRANCH  13  14
ATOM     14  C   UNL     1     -53.055  26.442   9.508  1.00  0.00    -0.003 C 
ATOM     15  C   UNL     1     -52.836  27.007  10.911  1.00  0.00     0.004 C 
ENDBRANCH  13  14
ENDBRANCH   1  13
TORSDOF 4
ENDMDL
MODEL 5
REMARK VINA RESULT:    -4.469      1.235      4.999
REMARK INTER + INTRA:          -5.699
REMARK INTER:                  -5.528
REMARK INTRA:                  -0.170
REMARK UNBOUND:                -0.316
REMARK SMILES CCCCc1oc(O)c2ccccc12
REMARK SMILES IDX 4 1 5 2 7 3 6 4 9 5 14 6 10 7 13 8 11 9 12 10 8 11 3 13 2 14
REMARK SMILES IDX 1 15
REMARK H PARENT 8 12
REMARK Flexibility Score: inf
ROOT
ATOM      1  C   UNL     1     -47.378  25.643  11.173  1.00  0.00     0.076 C 
ENDROOT
BRANCH   1   2
ATOM      2  C   UNL     1     -48.539  25.312  10.288  1.00  0.00     0.116 A 
ATOM      3  C   UNL     1     -49.695  24.348   8.762  1.00  0.00     0.290 A 
ATOM      4  O   UNL     1     -48.504  24.406   9.326  1.00  0.00    -0.430 OA
ATOM      5  C   UNL     1     -50.545  25.240   9.373  1.00  0.00     0.066 A 
ATOM      6  C   UNL     1     -49.811  25.856  10.351  1.00  0.00     0.027 A 
ATOM      7  C   UNL     1     -51.886  25.544   9.152  1.00  0.00     0.016 A 
ATOM      8  C   UNL     1     -50.368  26.824  11.185  1.00  0.00     0.012 A 
ATOM      9  C   UNL     1     -52.477  26.520   9.977  1.00  0.00     0.001 A 
ATOM     10  C   UNL     1     -51.722  27.157  10.988  1.00  0.00     0.001 A 
BRANCH   3  11
ATOM     11  O   UNL     1     -50.024  23.502   7.709  1.00  0.00    -0.480 OA
ATOM     12  H   UNL     1     -50.040  23.848   6.758  1.00  0.00     0.297 HD
ENDBRANCH   3  11
ENDBRANCH   1   2
BRANCH   1  13
ATOM     13  C   UNL     1     -46.074  25.112  10.566  1.00  0.00     0.008 C 
BRANCH  13  14
ATOM     14  C   UNL     1     -44.844  25.456  11.419  1.00  0.00    -0.003 C 
ATOM     15  C   UNL     1     -43.662  24.524  11.153  1.00  0.00     0.004 C 
ENDBRANCH  13  14
ENDBRANCH   1  13
TORSDOF 4
ENDMDL
MODEL 6
REMARK VINA RESULT:    -4.421      4.362      7.462
REMARK INTER + INTRA:          -5.641
REMARK INTER:                  -5.425
REMARK INTRA:                  -0.216
REMARK UNBOUND:                -0.316
REMARK SMILES CCCCc1oc(O)c2ccccc12
REMARK SMILES IDX 4 1 5 2 7 3 6 4 9 5 14 6 10 7 13 8 11 9 12 10 8 11 3 13 2 14
REMARK SMILES IDX 1 15
REMARK H PARENT 8 12
REMARK Flexibility Score: inf
ROOT
ATOM      1  C   UNL     1     -43.026  22.869   9.267  1.00  0.00     0.076 C 
ENDROOT
BRANCH   1   2
ATOM      2  C   UNL     1     -43.330  24.071  10.106  1.00  0.00     0.116 A 
ATOM      3  C   UNL     1     -43.015  25.801  11.333  1.00  0.00     0.290 A 
ATOM      4  O   UNL     1     -42.411  24.812  10.701  1.00  0.00    -0.430 OA
ATOM      5  C   UNL     1     -44.375  25.713  11.145  1.00  0.00     0.066 A 
ATOM      6  C   UNL     1     -44.580  24.611  10.359  1.00  0.00     0.027 A 
ATOM      7  C   UNL     1     -45.426  26.509  11.591  1.00  0.00     0.016 A 
ATOM      8  C   UNL     1     -45.858  24.225   9.959  1.00  0.00     0.012 A 
ATOM      9  C   UNL     1     -46.730  26.144  11.205  1.00  0.00     0.001 A 
ATOM     10  C   UNL     1     -46.944  25.007  10.393  1.00  0.00     0.001 A 
BRANCH   3  11
ATOM     11  O   UNL     1     -42.357  26.778  12.070  1.00  0.00    -0.480 OA
ATOM     12  H   UNL     1     -42.882  27.442  12.626  1.00  0.00     0.297 HD
ENDBRANCH   3  11
ENDBRANCH   1   2
BRANCH   1  13
ATOM     13  C   UNL     1     -42.244  21.832  10.083  1.00  0.00     0.008 C 
BRANCH  13  14
ATOM     14  C   UNL     1     -42.698  20.393   9.794  1.00  0.00    -0.003 C 
ATOM     15  C   UNL     1     -41.666  19.351  10.230  1.00  0.00     0.004 C 
ENDBRANCH  13  14
ENDBRANCH   1  13
TORSDOF 4
ENDMDL
MODEL 7
REMARK VINA RESULT:    -4.390      4.355      7.093
REMARK INTER + INTRA:          -5.604
REMARK INTER:                  -5.354
REMARK INTRA:                  -0.250
REMARK UNBOUND:                -0.316
REMARK SMILES CCCCc1oc(O)c2ccccc12
REMARK SMILES IDX 4 1 5 2 7 3 6 4 9 5 14 6 10 7 13 8 11 9 12 10 8 11 3 13 2 14
REMARK SMILES IDX 1 15
REMARK H PARENT 8 12
REMARK Flexibility Score: inf
ROOT
ATOM      1  C   UNL     1     -42.223  22.812   9.873  1.00  0.00     0.076 C 
ENDROOT
BRANCH   1   2
ATOM      2  C   UNL     1     -43.454  23.648  10.042  1.00  0.00     0.116 A 
ATOM      3  C   UNL     1     -45.500  24.270   9.893  1.00  0.00     0.290 A 
ATOM      4  O   UNL     1     -44.636  23.339   9.535  1.00  0.00    -0.430 OA
ATOM      5  C   UNL     1     -44.871  25.220  10.662  1.00  0.00     0.066 A 
ATOM      6  C   UNL     1     -43.564  24.825  10.762  1.00  0.00     0.027 A 
ATOM      7  C   UNL     1     -45.343  26.377  11.277  1.00  0.00     0.016 A 
ATOM      8  C   UNL     1     -42.630  25.560  11.491  1.00  0.00     0.012 A 
ATOM      9  C   UNL     1     -44.423  27.143  12.019  1.00  0.00     0.001 A 
ATOM     10  C   UNL     1     -43.073  26.736  12.125  1.00  0.00     0.001 A 
BRANCH   3  11
ATOM     11  O   UNL     1     -46.844  24.271   9.536  1.00  0.00    -0.480 OA
ATOM     12  H   UNL     1     -47.139  24.659   8.649  1.00  0.00     0.297 HD
ENDBRANCH   3  11
ENDBRANCH   1   2
BRANCH   1  13
ATOM     13  C   UNL     1     -41.865  22.115  11.191  1.00  0.00     0.008 C 
BRANCH  13  14
ATOM     14  C   UNL     1     -41.539  20.626  11.001  1.00  0.00    -0.003 C 
ATOM     15  C   UNL     1     -42.383  19.972   9.907  1.00  0.00     0.004 C 
ENDBRANCH  13  14
ENDBRANCH   1  13
TORSDOF 4
ENDMDL
MODEL 8
REMARK VINA RESULT:    -4.369      2.374      5.618
REMARK INTER + INTRA:          -5.579
REMARK INTER:                  -5.276
REMARK INTRA:                  -0.303
REMARK UNBOUND:                -0.316
REMARK SMILES CCCCc1oc(O)c2ccccc12
REMARK SMILES IDX 4 1 5 2 7 3 6 4 9 5 14 6 10 7 13 8 11 9 12 10 8 11 3 13 2 14
REMARK SMILES IDX 1 15
REMARK H PARENT 8 12
REMARK Flexibility Score: inf
ROOT
ATOM      1  C   UNL     1     -44.038  24.982  11.484  1.00  0.00     0.076 C 
ENDROOT
BRANCH   1   2
ATOM      2  C   UNL     1     -45.431  25.084  10.945  1.00  0.00     0.116 A 
ATOM      3  C   UNL     1     -47.257  24.527   9.969  1.00  0.00     0.290 A 
ATOM      4  O   UNL     1     -46.038  24.122  10.272  1.00  0.00    -0.430 OA
ATOM      5  C   UNL     1     -47.463  25.795  10.461  1.00  0.00     0.066 A 
ATOM      6  C   UNL     1     -46.299  26.154  11.088  1.00  0.00     0.027 A 
ATOM      7  C   UNL     1     -48.567  26.642  10.412  1.00  0.00     0.016 A 
ATOM      8  C   UNL     1     -46.156  27.390  11.717  1.00  0.00     0.012 A 
ATOM      9  C   UNL     1     -48.453  27.899  11.037  1.00  0.00     0.001 A 
ATOM     10  C   UNL     1     -47.254  28.270  11.686  1.00  0.00     0.001 A 
BRANCH   3  11
ATOM     11  O   UNL     1     -48.182  23.770   9.260  1.00  0.00    -0.480 OA
ATOM     12  H   UNL     1     -49.054  24.183   8.952  1.00  0.00     0.297 HD
ENDBRANCH   3  11
ENDBRANCH   1   2
BRANCH   1  13
ATOM     13  C   UNL     1     -43.033  24.803  10.339  1.00  0.00     0.008 C 
BRANCH  13  14
ATOM     14  C   UNL     1     -42.530  23.356  10.219  1.00  0.00    -0.003 C 
ATOM     15  C   UNL     1     -43.095  22.635   8.995  1.00  0.00     0.004 C 
ENDBRANCH  13  14
ENDBRANCH   1  13
TORSDOF 4
ENDMDL
MODEL 9
REMARK VINA RESULT:    -4.324      2.192      4.064
REMARK INTER + INTRA:          -5.524
REMARK INTER:                  -5.065
REMARK INTRA:                  -0.460
REMARK UNBOUND:                -0.316
REMARK SMILES CCCCc1oc(O)c2ccccc12
REMARK SMILES IDX 4 1 5 2 7 3 6 4 9 5 14 6 10 7 13 8 11 9 12 10 8 11 3 13 2 14
REMARK SMILES IDX 1 15
REMARK H PARENT 8 12
REMARK Flexibility Score: inf
ROOT
ATOM      1  C   UNL     1     -50.586  25.898  11.355  1.00  0.00     0.076 C 
ENDROOT
BRANCH   1   2
ATOM      2  C   UNL     1     -50.190  25.765   9.917  1.00  0.00     0.116 A 
ATOM      3  C   UNL     1     -49.502  24.872   8.094  1.00  0.00     0.290 A 
ATOM      4  O   UNL     1     -49.725  24.652   9.375  1.00  0.00    -0.430 OA
ATOM      5  C   UNL     1     -49.834  26.169   7.778  1.00  0.00     0.066 A 
ATOM      6  C   UNL     1     -50.277  26.742   8.940  1.00  0.00     0.027 A 
ATOM      7  C   UNL     1     -49.788  26.872   6.577  1.00  0.00     0.016 A 
ATOM      8  C   UNL     1     -50.711  28.066   8.985  1.00  0.00     0.012 A 
ATOM      9  C   UNL     1     -50.218  28.213   6.590  1.00  0.00     0.001 A 
ATOM     10  C   UNL     1     -50.678  28.806   7.788  1.00  0.00     0.001 A 
BRANCH   3  11
ATOM     11  O   UNL     1     -49.007  23.921   7.209  1.00  0.00    -0.480 OA
ATOM     12  H   UNL     1     -48.618  23.053   7.554  1.00  0.00     0.297 HD
ENDBRANCH   3  11
ENDBRANCH   1   2
BRANCH   1  13
ATOM     13  C   UNL     1     -49.547  26.726  12.121  1.00  0.00     0.008 C 
BRANCH  13  14
ATOM     14  C   UNL     1     -48.132  26.134  12.021  1.00  0.00    -0.003 C 
ATOM     15  C   UNL     1     -47.097  27.157  11.553  1.00  0.00     0.004 C 
ENDBRANCH  13  14
ENDBRANCH   1  13
TORSDOF 4
ENDMDL
