MODEL 1
REMARK VINA RESULT:    -4.254      0.000      0.000
REMARK INTER + INTRA:          -8.912
REMARK INTER:                  -7.735
REMARK INTRA:                  -1.177
REMARK UNBOUND:                -1.177
REMARK SMILES CCCCCC=CCC=CCCCCCCCC(=O)[O-]
REMARK SMILES IDX 11 1 12 2 13 3 14 4 15 5 16 6 17 7 18 8 19 9 20 10 10 11
REMARK SMILES IDX 9 12 8 13 7 14 6 15 5 16 4 17 3 18 2 19 1 20
REMARK H PARENT
REMARK Flexibility Score: inf
ROOT
ATOM      1  C   UNL     1      30.403   9.691  38.507  1.00  0.00     0.027 C 
ENDROOT
BRANCH   1   2
ATOM      2  C   UNL     1      30.800  10.409  39.809  1.00  0.00     0.004 C 
BRANCH   2   3
ATOM      3  C   UNL     1      30.605  11.940  39.744  1.00  0.00     0.000 C 
BRANCH   3   4
ATOM      4  C   UNL     1      31.222  12.692  40.935  1.00  0.00     0.000 C 
BRANCH   4   5
ATOM      5  C   UNL     1      31.587  14.146  40.593  1.00  0.00     0.000 C 
BRANCH   5   6
ATOM      6  C   UNL     1      30.963  14.614  39.270  1.00  0.00     0.006 C 
BRANCH   6   7
ATOM      7  C   UNL     1      31.722  14.095  38.041  1.00  0.00     0.053 C 
BRANCH   7   8
ATOM      8  C   UNL     1      33.191  14.332  38.197  1.00  0.00     0.041 C 
ATOM      9  O   UNL     1      33.638  15.507  38.272  1.00  0.00    -0.550 OA
ATOM     10  O   UNL     1      34.071  13.258  38.208  1.00  0.00    -0.550 OA
ENDBRANCH   7   8
ENDBRANCH   6   7
ENDBRANCH   5   6
ENDBRANCH   4   5
ENDBRANCH   3   4
ENDBRANCH   2   3
ENDBRANCH   1   2
BRANCH   1  11
ATOM     11  C   UNL     1      30.638  10.549  37.292  1.00  0.00    -0.031 C 
ATOM     12  C   UNL     1      31.708  10.373  36.502  1.00  0.00    -0.027 C 
BRANCH  12  13
ATOM     13  C   UNL     1      31.916  11.196  35.261  1.00  0.00     0.054 C 
BRANCH  13  14
ATOM     14  C   UNL     1      33.273  11.854  35.258  1.00  0.00    -0.027 C 
ATOM     15  C   UNL     1      34.393  11.300  34.754  1.00  0.00    -0.031 C 
BRANCH  15  16
ATOM     16  C   UNL     1      34.479   9.908  34.175  1.00  0.00     0.027 C 
BRANCH  16  17
ATOM     17  C   UNL     1      34.212   9.897  32.663  1.00  0.00     0.004 C 
BRANCH  17  18
ATOM     18  C   UNL     1      32.708   9.840  32.342  1.00  0.00     0.000 C 
BRANCH  18  19
ATOM     19  C   UNL     1      32.278  10.924  31.342  1.00  0.00    -0.003 C 
ATOM     20  C   UNL     1      33.275  12.079  31.257  1.00  0.00     0.004 C 
ENDBRANCH  18  19
ENDBRANCH  17  18
ENDBRANCH  16  17
ENDBRANCH  15  16
ENDBRANCH  13  14
ENDBRANCH  12  13
ENDBRANCH   1  11
TORSDOF 14
ENDMDL
MODEL 2
REMARK VINA RESULT:    -3.894      2.591      6.709
REMARK INTER + INTRA:          -8.259
REMARK INTER:                  -7.242
REMARK INTRA:                  -1.017
REMARK UNBOUND:                -1.177
REMARK SMILES CCCCCC=CCC=CCCCCCCCC(=O)[O-]
REMARK SMILES IDX 11 1 12 2 13 3 14 4 15 5 16 6 17 7 18 8 19 9 20 10 10 11
REMARK SMILES IDX 9 12 8 13 7 14 6 15 5 16 4 17 3 18 2 19 1 20
REMARK H PARENT
REMARK Flexibility Score: inf
ROOT
ATOM      1  C   UNL     1      33.833  12.942  37.358  1.00  0.00     0.027 C 
ENDROOT
BRANCH   1   2
ATOM      2  C   UNL     1      32.644  12.554  36.461  1.00  0.00     0.004 C 
BRANCH   2   3
ATOM      3  C   UNL     1      33.076  11.901  35.128  1.00  0.00     0.000 C 
BRANCH   3   4
ATOM      4  C   UNL     1      33.231  10.373  35.212  1.00  0.00     0.000 C 
BRANCH   4   5
ATOM      5  C   UNL     1      34.552   9.878  34.602  1.00  0.00     0.000 C 
BRANCH   5   6
ATOM      6  C   UNL     1      34.918  10.620  33.307  1.00  0.00     0.006 C 
BRANCH   6   7
ATOM      7  C   UNL     1      34.283   9.985  32.063  1.00  0.00     0.053 C 
BRANCH   7   8
ATOM      8  C   UNL     1      33.018  10.698  31.701  1.00  0.00     0.041 C 
ATOM      9  O   UNL     1      31.901  10.177  31.961  1.00  0.00    -0.550 OA
ATOM     10  O   UNL     1      33.072  11.914  31.032  1.00  0.00    -0.550 OA
ENDBRANCH   7   8
ENDBRANCH   6   7
ENDBRANCH   5   6
ENDBRANCH   4   5
ENDBRANCH   3   4
ENDBRANCH   2   3
ENDBRANCH   1   2
BRANCH   1  11
ATOM     11  C   UNL     1      33.396  13.721  38.571  1.00  0.00    -0.031 C 
ATOM     12  C   UNL     1      32.165  14.246  38.665  1.00  0.00    -0.027 C 
BRANCH  12  13
ATOM     13  C   UNL     1      31.712  14.980  39.896  1.00  0.00     0.054 C 
BRANCH  13  14
ATOM     14  C   UNL     1      31.689  14.073  41.101  1.00  0.00    -0.027 C 
ATOM     15  C   UNL     1      31.221  12.811  41.102  1.00  0.00    -0.031 C 
BRANCH  15  16
ATOM     16  C   UNL     1      30.584  12.128  39.916  1.00  0.00     0.027 C 
BRANCH  16  17
ATOM     17  C   UNL     1      30.665  10.598  40.022  1.00  0.00     0.004 C 
BRANCH  17  18
ATOM     18  C   UNL     1      30.839   9.932  38.646  1.00  0.00     0.000 C 
BRANCH  18  19
ATOM     19  C   UNL     1      30.190  10.742  37.513  1.00  0.00    -0.003 C 
ATOM     20  C   UNL     1      29.831   9.881  36.302  1.00  0.00     0.004 C 
ENDBRANCH  18  19
ENDBRANCH  17  18
ENDBRANCH  16  17
ENDBRANCH  15  16
ENDBRANCH  13  14
ENDBRANCH  12  13
ENDBRANCH   1  11
TORSDOF 14
ENDMDL
MODEL 3
REMARK VINA RESULT:    -3.771      2.593      6.656
REMARK INTER + INTRA:          -8.035
REMARK INTER:                  -7.416
REMARK INTRA:                  -0.619
REMARK UNBOUND:                -1.177
REMARK SMILES CCCCCC=CCC=CCCCCCCCC(=O)[O-]
REMARK SMILES IDX 11 1 12 2 13 3 14 4 15 5 16 6 17 7 18 8 19 9 20 10 10 11
REMARK SMILES IDX 9 12 8 13 7 14 6 15 5 16 4 17 3 18 2 19 1 20
REMARK H PARENT
REMARK Flexibility Score: inf
ROOT
ATOM      1  C   UNL     1      30.394  10.266  36.386  1.00  0.00     0.027 C 
ENDROOT
BRANCH   1   2
ATOM      2  C   UNL     1      31.831  10.275  35.833  1.00  0.00     0.004 C 
BRANCH   2   3
ATOM      3  C   UNL     1      32.385  11.699  35.603  1.00  0.00     0.000 C 
BRANCH   3   4
ATOM      4  C   UNL     1      33.811  11.720  35.026  1.00  0.00     0.000 C 
BRANCH   4   5
ATOM      5  C   UNL     1      34.419  10.314  34.898  1.00  0.00     0.000 C 
BRANCH   5   6
ATOM      6  C   UNL     1      34.599   9.880  33.435  1.00  0.00     0.006 C 
BRANCH   6   7
ATOM      7  C   UNL     1      34.232  10.990  32.440  1.00  0.00     0.053 C 
BRANCH   7   8
ATOM      8  C   UNL     1      32.941  10.669  31.755  1.00  0.00     0.041 C 
ATOM      9  O   UNL     1      32.686  11.161  30.624  1.00  0.00    -0.550 OA
ATOM     10  O   UNL     1      31.998   9.869  32.386  1.00  0.00    -0.550 OA
ENDBRANCH   7   8
ENDBRANCH   6   7
ENDBRANCH   5   6
ENDBRANCH   4   5
ENDBRANCH   3   4
ENDBRANCH   2   3
ENDBRANCH   1   2
BRANCH   1  11
ATOM     11  C   UNL     1      30.352   9.905  37.847  1.00  0.00    -0.031 C 
ATOM     12  C   UNL     1      30.720  10.776  38.798  1.00  0.00    -0.027 C 
BRANCH  12  13
ATOM     13  C   UNL     1      30.630  10.434  40.260  1.00  0.00     0.054 C 
BRANCH  13  14
ATOM     14  C   UNL     1      31.053  11.594  41.125  1.00  0.00    -0.027 C 
ATOM     15  C   UNL     1      31.033  12.885  40.740  1.00  0.00    -0.031 C 
BRANCH  15  16
ATOM     16  C   UNL     1      30.648  13.367  39.363  1.00  0.00     0.027 C 
BRANCH  16  17
ATOM     17  C   UNL     1      30.976  14.853  39.162  1.00  0.00     0.004 C 
BRANCH  17  18
ATOM     18  C   UNL     1      32.467  15.153  39.390  1.00  0.00     0.000 C 
BRANCH  18  19
ATOM     19  C   UNL     1      33.335  14.779  38.178  1.00  0.00    -0.003 C 
ATOM     20  C   UNL     1      33.919  13.371  38.283  1.00  0.00     0.004 C 
ENDBRANCH  18  19
ENDBRANCH  17  18
ENDBRANCH  16  17
ENDBRANCH  15  16
ENDBRANCH  13  14
ENDBRANCH  12  13
ENDBRANCH   1  11
TORSDOF 14
ENDMDL
MODEL 4
REMARK VINA RESULT:    -3.756      2.381      4.033
REMARK INTER + INTRA:          -8.008
REMARK INTER:                  -7.135
REMARK INTRA:                  -0.873
REMARK UNBOUND:                -1.177
REMARK SMILES CCCCCC=CCC=CCCCCCCCC(=O)[O-]
REMARK SMILES IDX 11 1 12 2 13 3 14 4 15 5 16 6 17 7 18 8 19 9 20 10 10 11
REMARK SMILES IDX 9 12 8 13 7 14 6 15 5 16 4 17 3 18 2 19 1 20
REMARK H PARENT
REMARK Flexibility Score: inf
ROOT
ATOM      1  C   UNL     1      32.760  15.301  39.746  1.00  0.00     0.027 C 
ENDROOT
BRANCH   1   2
ATOM      2  C   UNL     1      32.607  14.234  40.844  1.00  0.00     0.004 C 
BRANCH   2   3
ATOM      3  C   UNL     1      31.162  13.705  40.982  1.00  0.00     0.000 C 
BRANCH   3   4
ATOM      4  C   UNL     1      30.655  12.963  39.734  1.00  0.00     0.000 C 
BRANCH   4   5
ATOM      5  C   UNL     1      31.186  11.524  39.643  1.00  0.00     0.000 C 
BRANCH   5   6
ATOM      6  C   UNL     1      30.345  10.643  38.707  1.00  0.00     0.006 C 
BRANCH   6   7
ATOM      7  C   UNL     1      30.950   9.247  38.506  1.00  0.00     0.053 C 
BRANCH   7   8
ATOM      8  C   UNL     1      30.822   8.438  39.758  1.00  0.00     0.041 C 
ATOM      9  O   UNL     1      30.757   9.010  40.878  1.00  0.00    -0.550 OA
ATOM     10  O   UNL     1      30.826   7.050  39.692  1.00  0.00    -0.550 OA
ENDBRANCH   7   8
ENDBRANCH   6   7
ENDBRANCH   5   6
ENDBRANCH   4   5
ENDBRANCH   3   4
ENDBRANCH   2   3
ENDBRANCH   1   2
BRANCH   1  11
ATOM     11  C   UNL     1      33.129  14.697  38.417  1.00  0.00    -0.031 C 
ATOM     12  C   UNL     1      33.655  13.466  38.325  1.00  0.00    -0.027 C 
BRANCH  12  13
ATOM     13  C   UNL     1      33.977  12.843  36.995  1.00  0.00     0.054 C 
BRANCH  13  14
ATOM     14  C   UNL     1      32.730  12.373  36.290  1.00  0.00    -0.027 C 
ATOM     15  C   UNL     1      32.676  11.327  35.442  1.00  0.00    -0.031 C 
BRANCH  15  16
ATOM     16  C   UNL     1      33.866  10.505  35.013  1.00  0.00     0.027 C 
BRANCH  16  17
ATOM     17  C   UNL     1      34.313  10.843  33.583  1.00  0.00     0.004 C 
BRANCH  17  18
ATOM     18  C   UNL     1      33.684   9.900  32.543  1.00  0.00     0.000 C 
BRANCH  18  19
ATOM     19  C   UNL     1      32.731  10.631  31.585  1.00  0.00    -0.003 C 
ATOM     20  C   UNL     1      33.118  12.094  31.369  1.00  0.00     0.004 C 
ENDBRANCH  18  19
ENDBRANCH  17  18
ENDBRANCH  16  17
ENDBRANCH  15  16
ENDBRANCH  13  14
ENDBRANCH  12  13
ENDBRANCH   1  11
TORSDOF 14
ENDMDL
MODEL 5
REMARK VINA RESULT:    -3.703     16.902     20.660
REMARK INTER + INTRA:          -7.911
REMARK INTER:                  -5.585
REMARK INTRA:                  -2.326
REMARK UNBOUND:                -1.177
REMARK SMILES CCCCCC=CCC=CCCCCCCCC(=O)[O-]
REMARK SMILES IDX 11 1 12 2 13 3 14 4 15 5 16 6 17 7 18 8 19 9 20 10 10 11
REMARK SMILES IDX 9 12 8 13 7 14 6 15 5 16 4 17 3 18 2 19 1 20
REMARK H PARENT
REMARK Flexibility Score: inf
ROOT
ATOM      1  C   UNL     1      47.695   4.257  24.987  1.00  0.00     0.027 C 
ENDROOT
BRANCH   1   2
ATOM      2  C   UNL     1      48.717   3.143  24.697  1.00  0.00     0.004 C 
BRANCH   2   3
ATOM      3  C   UNL     1      48.793   2.761  23.202  1.00  0.00     0.000 C 
BRANCH   3   4
ATOM      4  C   UNL     1      47.486   2.167  22.649  1.00  0.00     0.000 C 
BRANCH   4   5
ATOM      5  C   UNL     1      47.120   2.725  21.265  1.00  0.00     0.000 C 
BRANCH   5   6
ATOM      6  C   UNL     1      47.085   4.261  21.240  1.00  0.00     0.006 C 
BRANCH   6   7
ATOM      7  C   UNL     1      45.810   4.834  21.872  1.00  0.00     0.053 C 
BRANCH   7   8
ATOM      8  C   UNL     1      45.958   6.305  22.103  1.00  0.00     0.041 C 
ATOM      9  O   UNL     1      46.588   7.016  21.277  1.00  0.00    -0.550 OA
ATOM     10  O   UNL     1      45.443   6.882  23.257  1.00  0.00    -0.550 OA
ENDBRANCH   7   8
ENDBRANCH   6   7
ENDBRANCH   5   6
ENDBRANCH   4   5
ENDBRANCH   3   4
ENDBRANCH   2   3
ENDBRANCH   1   2
BRANCH   1  11
ATOM     11  C   UNL     1      46.530   3.760  25.801  1.00  0.00    -0.031 C 
ATOM     12  C   UNL     1      45.557   4.585  26.214  1.00  0.00    -0.027 C 
BRANCH  12  13
ATOM     13  C   UNL     1      44.368   4.080  26.984  1.00  0.00     0.054 C 
BRANCH  13  14
ATOM     14  C   UNL     1      43.122   4.862  26.650  1.00  0.00    -0.027 C 
ATOM     15  C   UNL     1      42.016   4.338  26.087  1.00  0.00    -0.031 C 
BRANCH  15  16
ATOM     16  C   UNL     1      41.875   2.903  25.641  1.00  0.00     0.027 C 
BRANCH  16  17
ATOM     17  C   UNL     1      42.194   2.732  24.148  1.00  0.00     0.004 C 
BRANCH  17  18
ATOM     18  C   UNL     1      43.675   2.393  23.909  1.00  0.00     0.000 C 
BRANCH  18  19
ATOM     19  C   UNL     1      43.911   1.708  22.554  1.00  0.00    -0.003 C 
ATOM     20  C   UNL     1      42.878   2.111  21.501  1.00  0.00     0.004 C 
ENDBRANCH  18  19
ENDBRANCH  17  18
ENDBRANCH  16  17
ENDBRANCH  15  16
ENDBRANCH  13  14
ENDBRANCH  12  13
ENDBRANCH   1  11
TORSDOF 14
ENDMDL
MODEL 6
REMARK VINA RESULT:    -3.639     17.458     20.561
REMARK INTER + INTRA:          -7.795
REMARK INTER:                  -5.177
REMARK INTRA:                  -2.619
REMARK UNBOUND:                -1.177
REMARK SMILES CCCCCC=CCC=CCCCCCCCC(=O)[O-]
REMARK SMILES IDX 11 1 12 2 13 3 14 4 15 5 16 6 17 7 18 8 19 9 20 10 10 11
REMARK SMILES IDX 9 12 8 13 7 14 6 15 5 16 4 17 3 18 2 19 1 20
REMARK H PARENT
REMARK Flexibility Score: inf
ROOT
ATOM      1  C   UNL     1      44.826   5.222  26.510  1.00  0.00     0.027 C 
ENDROOT
BRANCH   1   2
ATOM      2  C   UNL     1      43.288   5.171  26.522  1.00  0.00     0.004 C 
BRANCH   2   3
ATOM      3  C   UNL     1      42.727   3.731  26.501  1.00  0.00     0.000 C 
BRANCH   3   4
ATOM      4  C   UNL     1      41.668   3.498  25.409  1.00  0.00     0.000 C 
BRANCH   4   5
ATOM      5  C   UNL     1      42.088   2.421  24.396  1.00  0.00     0.000 C 
BRANCH   5   6
ATOM      6  C   UNL     1      43.381   2.787  23.650  1.00  0.00     0.006 C 
BRANCH   6   7
ATOM      7  C   UNL     1      44.296   1.576  23.425  1.00  0.00     0.053 C 
BRANCH   7   8
ATOM      8  C   UNL     1      44.233   1.132  21.997  1.00  0.00     0.041 C 
ATOM      9  O   UNL     1      45.293   0.900  21.359  1.00  0.00    -0.550 OA
ATOM     10  O   UNL     1      43.005   1.024  21.357  1.00  0.00    -0.550 OA
ENDBRANCH   7   8
ENDBRANCH   6   7
ENDBRANCH   5   6
ENDBRANCH   4   5
ENDBRANCH   3   4
ENDBRANCH   2   3
ENDBRANCH   1   2
BRANCH   1  11
ATOM     11  C   UNL     1      45.438   3.849  26.424  1.00  0.00    -0.031 C 
ATOM     12  C   UNL     1      46.583   3.629  25.760  1.00  0.00    -0.027 C 
BRANCH  12  13
ATOM     13  C   UNL     1      47.221   2.268  25.717  1.00  0.00     0.054 C 
BRANCH  13  14
ATOM     14  C   UNL     1      48.647   2.343  25.233  1.00  0.00    -0.027 C 
ATOM     15  C   UNL     1      49.014   2.490  23.945  1.00  0.00    -0.031 C 
BRANCH  15  16
ATOM     16  C   UNL     1      48.058   2.534  22.778  1.00  0.00     0.027 C 
BRANCH  16  17
ATOM     17  C   UNL     1      47.789   3.971  22.310  1.00  0.00     0.004 C 
BRANCH  17  18
ATOM     18  C   UNL     1      46.548   4.062  21.404  1.00  0.00     0.000 C 
BRANCH  18  19
ATOM     19  C   UNL     1      45.586   5.179  21.834  1.00  0.00    -0.003 C 
ATOM     20  C   UNL     1      46.114   5.991  23.016  1.00  0.00     0.004 C 
ENDBRANCH  18  19
ENDBRANCH  17  18
ENDBRANCH  16  17
ENDBRANCH  15  16
ENDBRANCH  13  14
ENDBRANCH  12  13
ENDBRANCH   1  11
TORSDOF 14
ENDMDL
MODEL 7
REMARK VINA RESULT:    -3.583      2.006      3.311
REMARK INTER + INTRA:          -7.694
REMARK INTER:                  -6.840
REMARK INTRA:                  -0.853
REMARK UNBOUND:                -1.177
REMARK SMILES CCCCCC=CCC=CCCCCCCCC(=O)[O-]
REMARK SMILES IDX 11 1 12 2 13 3 14 4 15 5 16 6 17 7 18 8 19 9 20 10 10 11
REMARK SMILES IDX 9 12 8 13 7 14 6 15 5 16 4 17 3 18 2 19 1 20
REMARK H PARENT
REMARK Flexibility Score: inf
ROOT
ATOM      1  C   UNL     1      32.074  14.199  37.871  1.00  0.00     0.027 C 
ENDROOT
BRANCH   1   2
ATOM      2  C   UNL     1      33.057  14.898  38.826  1.00  0.00     0.004 C 
BRANCH   2   3
ATOM      3  C   UNL     1      32.908  14.441  40.295  1.00  0.00     0.000 C 
BRANCH   3   4
ATOM      4  C   UNL     1      31.447  14.250  40.736  1.00  0.00     0.000 C 
BRANCH   4   5
ATOM      5  C   UNL     1      31.130  12.798  41.125  1.00  0.00     0.000 C 
BRANCH   5   6
ATOM      6  C   UNL     1      31.094  11.857  39.910  1.00  0.00     0.006 C 
BRANCH   6   7
ATOM      7  C   UNL     1      30.503  10.481  40.246  1.00  0.00     0.053 C 
BRANCH   7   8
ATOM      8  C   UNL     1      30.684   9.540  39.097  1.00  0.00     0.041 C 
ATOM      9  O   UNL     1      30.446   9.924  37.921  1.00  0.00    -0.550 OA
ATOM     10  O   UNL     1      31.068   8.226  39.329  1.00  0.00    -0.550 OA
ENDBRANCH   7   8
ENDBRANCH   6   7
ENDBRANCH   5   6
ENDBRANCH   4   5
ENDBRANCH   3   4
ENDBRANCH   2   3
ENDBRANCH   1   2
BRANCH   1  11
ATOM     11  C   UNL     1      32.696  13.010  37.188  1.00  0.00    -0.031 C 
ATOM     12  C   UNL     1      32.084  12.381  36.173  1.00  0.00    -0.027 C 
BRANCH  12  13
ATOM     13  C   UNL     1      32.727  11.225  35.458  1.00  0.00     0.054 C 
BRANCH  13  14
ATOM     14  C   UNL     1      34.045  11.623  34.841  1.00  0.00    -0.027 C 
ATOM     15  C   UNL     1      34.803  10.821  34.068  1.00  0.00    -0.031 C 
BRANCH  15  16
ATOM     16  C   UNL     1      34.486   9.379  33.754  1.00  0.00     0.027 C 
BRANCH  16  17
ATOM     17  C   UNL     1      33.766   9.230  32.406  1.00  0.00     0.004 C 
BRANCH  17  18
ATOM     18  C   UNL     1      32.428   9.990  32.378  1.00  0.00     0.000 C 
BRANCH  18  19
ATOM     19  C   UNL     1      32.330  10.965  31.195  1.00  0.00    -0.003 C 
ATOM     20  C   UNL     1      33.294  12.145  31.321  1.00  0.00     0.004 C 
ENDBRANCH  18  19
ENDBRANCH  17  18
ENDBRANCH  16  17
ENDBRANCH  15  16
ENDBRANCH  13  14
ENDBRANCH  12  13
ENDBRANCH   1  11
TORSDOF 14
ENDMDL
MODEL 8
REMARK VINA RESULT:    -3.262     18.053     21.689
REMARK INTER + INTRA:          -7.109
REMARK INTER:                  -4.660
REMARK INTRA:                  -2.449
REMARK UNBOUND:                -1.177
REMARK SMILES CCCCCC=CCC=CCCCCCCCC(=O)[O-]
REMARK SMILES IDX 11 1 12 2 13 3 14 4 15 5 16 6 17 7 18 8 19 9 20 10 10 11
REMARK SMILES IDX 9 12 8 13 7 14 6 15 5 16 4 17 3 18 2 19 1 20
REMARK H PARENT
REMARK Flexibility Score: inf
ROOT
ATOM      1  C   UNL     1      49.118   3.451  25.432  1.00  0.00     0.027 C 
ENDROOT
BRANCH   1   2
ATOM      2  C   UNL     1      48.698   2.022  25.048  1.00  0.00     0.004 C 
BRANCH   2   3
ATOM      3  C   UNL     1      47.229   1.702  25.407  1.00  0.00     0.000 C 
BRANCH   3   4
ATOM      4  C   UNL     1      46.478   0.933  24.307  1.00  0.00     0.000 C 
BRANCH   4   5
ATOM      5  C   UNL     1      46.753   1.490  22.902  1.00  0.00     0.000 C 
BRANCH   5   6
ATOM      6  C   UNL     1      45.623   1.171  21.910  1.00  0.00     0.006 C 
BRANCH   6   7
ATOM      7  C   UNL     1      44.701   2.371  21.657  1.00  0.00     0.053 C 
BRANCH   7   8
ATOM      8  C   UNL     1      43.361   2.141  22.283  1.00  0.00     0.041 C 
ATOM      9  O   UNL     1      42.443   1.582  21.626  1.00  0.00    -0.550 OA
ATOM     10  O   UNL     1      43.111   2.589  23.573  1.00  0.00    -0.550 OA
ENDBRANCH   7   8
ENDBRANCH   6   7
ENDBRANCH   5   6
ENDBRANCH   4   5
ENDBRANCH   3   4
ENDBRANCH   2   3
ENDBRANCH   1   2
BRANCH   1  11
ATOM     11  C   UNL     1      49.125   4.378  24.245  1.00  0.00    -0.031 C 
ATOM     12  C   UNL     1      48.729   3.968  23.030  1.00  0.00    -0.027 C 
BRANCH  12  13
ATOM     13  C   UNL     1      48.688   4.906  21.856  1.00  0.00     0.054 C 
BRANCH  13  14
ATOM     14  C   UNL     1      47.346   4.869  21.168  1.00  0.00    -0.027 C 
ATOM     15  C   UNL     1      46.308   5.673  21.468  1.00  0.00    -0.031 C 
BRANCH  15  16
ATOM     16  C   UNL     1      46.301   6.689  22.584  1.00  0.00     0.027 C 
BRANCH  16  17
ATOM     17  C   UNL     1      45.367   6.276  23.731  1.00  0.00     0.004 C 
BRANCH  17  18
ATOM     18  C   UNL     1      45.739   4.901  24.313  1.00  0.00     0.000 C 
BRANCH  18  19
ATOM     19  C   UNL     1      45.654   4.869  25.847  1.00  0.00    -0.003 C 
ATOM     20  C   UNL     1      44.264   4.483  26.353  1.00  0.00     0.004 C 
ENDBRANCH  18  19
ENDBRANCH  17  18
ENDBRANCH  16  17
ENDBRANCH  15  16
ENDBRANCH  13  14
ENDBRANCH  12  13
ENDBRANCH   1  11
TORSDOF 14
ENDMDL
MODEL 9
REMARK VINA RESULT:    -3.040     17.734     21.060
REMARK INTER + INTRA:          -6.706
REMARK INTER:                  -4.457
REMARK INTRA:                  -2.249
REMARK UNBOUND:                -1.177
REMARK SMILES CCCCCC=CCC=CCCCCCCCC(=O)[O-]
REMARK SMILES IDX 11 1 12 2 13 3 14 4 15 5 16 6 17 7 18 8 19 9 20 10 10 11
REMARK SMILES IDX 9 12 8 13 7 14 6 15 5 16 4 17 3 18 2 19 1 20
REMARK H PARENT
REMARK Flexibility Score: inf
ROOT
ATOM      1  C   UNL     1      44.822   4.959  26.950  1.00  0.00     0.027 C 
ENDROOT
BRANCH   1   2
ATOM      2  C   UNL     1      43.497   4.875  26.172  1.00  0.00     0.004 C 
BRANCH   2   3
ATOM      3  C   UNL     1      42.783   3.513  26.330  1.00  0.00     0.000 C 
BRANCH   3   4
ATOM      4  C   UNL     1      41.895   3.139  25.131  1.00  0.00     0.000 C 
BRANCH   4   5
ATOM      5  C   UNL     1      42.711   2.738  23.892  1.00  0.00     0.000 C 
BRANCH   5   6
ATOM      6  C   UNL     1      43.998   1.980  24.253  1.00  0.00     0.006 C 
BRANCH   6   7
ATOM      7  C   UNL     1      44.959   1.848  23.064  1.00  0.00     0.053 C 
BRANCH   7   8
ATOM      8  C   UNL     1      44.314   2.354  21.813  1.00  0.00     0.041 C 
ATOM      9  O   UNL     1      43.591   1.590  21.120  1.00  0.00    -0.550 OA
ATOM     10  O   UNL     1      44.552   3.653  21.384  1.00  0.00    -0.550 OA
ENDBRANCH   7   8
ENDBRANCH   6   7
ENDBRANCH   5   6
ENDBRANCH   4   5
ENDBRANCH   3   4
ENDBRANCH   2   3
ENDBRANCH   1   2
BRANCH   1  11
ATOM     11  C   UNL     1      46.004   4.576  26.099  1.00  0.00    -0.031 C 
ATOM     12  C   UNL     1      46.105   4.965  24.820  1.00  0.00    -0.027 C 
BRANCH  12  13
ATOM     13  C   UNL     1      47.309   4.625  23.985  1.00  0.00     0.054 C 
BRANCH  13  14
ATOM     14  C   UNL     1      47.297   5.369  22.673  1.00  0.00    -0.027 C 
ATOM     15  C   UNL     1      47.955   4.978  21.564  1.00  0.00    -0.031 C 
BRANCH  15  16
ATOM     16  C   UNL     1      48.859   3.773  21.480  1.00  0.00     0.027 C 
BRANCH  16  17
ATOM     17  C   UNL     1      48.140   2.556  20.880  1.00  0.00     0.004 C 
BRANCH  17  18
ATOM     18  C   UNL     1      48.249   1.316  21.784  1.00  0.00     0.000 C 
BRANCH  18  19
ATOM     19  C   UNL     1      49.125   1.564  23.022  1.00  0.00    -0.003 C 
ATOM     20  C   UNL     1      48.454   1.117  24.320  1.00  0.00     0.004 C 
ENDBRANCH  18  19
ENDBRANCH  17  18
ENDBRANCH  16  17
ENDBRANCH  15  16
ENDBRANCH  13  14
ENDBRANCH  12  13
ENDBRANCH   1  11
TORSDOF 14
ENDMDL
