MODEL 1
REMARK VINA RESULT:    -3.284      0.000      0.000
REMARK INTER + INTRA:          -5.198
REMARK INTER:                  -5.012
REMARK INTRA:                  -0.186
REMARK UNBOUND:                -0.186
REMARK SMILES CC1=CCC[C@@H](C)C(=O)C[C@H](C(C)C)C(=O)C1
REMARK SMILES IDX 8 1 9 2 6 3 7 4 5 5 4 6 3 7 2 8 1 9 10 11 11 12 15 13 16 14
REMARK SMILES IDX 17 15 12 17 13 18 14 19
REMARK H PARENT
REMARK Flexibility Score: 70.00
ROOT
ATOM      1  C   UNL     1     -31.823  23.857  30.062  1.00  0.00     0.136 C 
ATOM      2  O   UNL     1     -31.282  24.867  29.635  1.00  0.00    -0.299 OA
ENDROOT
BRANCH   1   3
ATOM      3  C   UNL     1     -32.575  23.945  31.380  1.00  0.00     0.053 C 
ATOM      4  C   UNL     1     -33.887  24.721  31.214  1.00  0.00     0.016 C 
BRANCH   3   5
ATOM      5  C   UNL     1     -31.717  24.547  32.512  1.00  0.00     0.015 C 
BRANCH   5   6
ATOM      6  C   UNL     1     -30.522  23.647  32.905  1.00  0.00     0.028 C 
BRANCH   6   7
ATOM      7  C   UNL     1     -30.990  22.262  33.285  1.00  0.00    -0.028 C 
ATOM      8  C   UNL     1     -30.508  21.104  32.772  1.00  0.00    -0.070 CG0
ATOM      9  C   UNL     1     -31.005  19.809  33.362  1.00  0.00     0.039 C 
ATOM     10  G   UNL     1     -29.502  21.053  31.631  1.00  0.00     0.000 G0
ENDBRANCH   6   7
ENDBRANCH   5   6
ENDBRANCH   3   5
ENDBRANCH   1   3
BRANCH   1  11
ATOM     11  C   UNL     1     -31.709  22.581  29.250  1.00  0.00     0.087 C 
BRANCH  11  12
ATOM     12  C   UNL     1     -30.269  22.001  29.215  1.00  0.00     0.066 C 
BRANCH  12  13
ATOM     13  C   UNL     1     -30.083  20.867  30.218  1.00  0.00     0.140 C 
ATOM     14  O   UNL     1     -30.420  19.737  29.896  1.00  0.00    -0.299 OA
BRANCH  13  15
ATOM     15  C   UNL     1     -29.503  21.050  31.608  1.00  0.00     0.106 CG0
ATOM     16  G   UNL     1     -30.513  21.089  32.746  1.00  0.00     0.000 G0
ENDBRANCH  13  15
ENDBRANCH  12  13
BRANCH  12  17
ATOM     17  C   UNL     1     -29.790  21.574  27.792  1.00  0.00    -0.006 C 
ATOM     18  C   UNL     1     -29.148  22.747  27.032  1.00  0.00     0.008 C 
ATOM     19  C   UNL     1     -30.878  20.923  26.919  1.00  0.00     0.008 C 
ENDBRANCH  12  17
ENDBRANCH  11  12
ENDBRANCH   1  11
TORSDOF 1
ENDMDL
MODEL 2
REMARK VINA RESULT:    -3.224      4.134      7.141
REMARK INTER + INTRA:          -5.106
REMARK INTER:                  -4.749
REMARK INTRA:                  -0.358
REMARK UNBOUND:                -0.186
REMARK SMILES CC1=CCC[C@@H](C)C(=O)C[C@H](C(C)C)C(=O)C1
REMARK SMILES IDX 8 1 9 2 6 3 7 4 5 5 4 6 3 7 2 8 1 9 10 11 11 12 15 13 16 14
REMARK SMILES IDX 17 15 12 17 13 18 14 19
REMARK H PARENT
REMARK Flexibility Score: 70.00
ROOT
ATOM      1  C   UNL     1     -28.600  21.157  25.168  1.00  0.00     0.136 C 
ATOM      2  O   UNL     1     -28.613  22.328  25.519  1.00  0.00    -0.299 OA
ENDROOT
BRANCH   1   3
ATOM      3  C   UNL     1     -28.654  20.850  23.680  1.00  0.00     0.053 C 
ATOM      4  C   UNL     1     -27.947  21.942  22.866  1.00  0.00     0.016 C 
BRANCH   3   5
ATOM      5  C   UNL     1     -30.094  20.629  23.172  1.00  0.00     0.015 C 
BRANCH   5   6
ATOM      6  C   UNL     1     -30.460  19.133  23.032  1.00  0.00     0.028 C 
BRANCH   6   7
ATOM      7  C   UNL     1     -31.769  18.830  23.723  1.00  0.00    -0.028 C 
ATOM      8  C   UNL     1     -31.896  18.325  24.974  1.00  0.00    -0.070 CG0
ATOM      9  C   UNL     1     -33.284  18.208  25.551  1.00  0.00     0.039 C 
ATOM     10  G   UNL     1     -30.711  17.867  25.812  1.00  0.00     0.000 G0
ENDBRANCH   6   7
ENDBRANCH   5   6
ENDBRANCH   3   5
ENDBRANCH   1   3
BRANCH   1  11
ATOM     11  C   UNL     1     -28.530  20.085  26.238  1.00  0.00     0.087 C 
BRANCH  11  12
ATOM     12  C   UNL     1     -29.804  20.016  27.123  1.00  0.00     0.066 C 
BRANCH  12  13
ATOM     13  C   UNL     1     -30.448  18.633  27.096  1.00  0.00     0.140 C 
ATOM     14  O   UNL     1     -30.765  18.111  28.155  1.00  0.00    -0.299 OA
BRANCH  13  15
ATOM     15  C   UNL     1     -30.722  17.850  25.825  1.00  0.00     0.106 CG0
ATOM     16  G   UNL     1     -31.898  18.336  24.991  1.00  0.00     0.000 G0
ENDBRANCH  13  15
ENDBRANCH  12  13
BRANCH  12  17
ATOM     17  C   UNL     1     -29.586  20.503  28.590  1.00  0.00    -0.006 C 
ATOM     18  C   UNL     1     -30.020  21.967  28.773  1.00  0.00     0.008 C 
ATOM     19  C   UNL     1     -28.153  20.315  29.120  1.00  0.00     0.008 C 
ENDBRANCH  12  17
ENDBRANCH  11  12
ENDBRANCH   1  11
TORSDOF 1
ENDMDL
MODEL 3
REMARK VINA RESULT:    -3.207      4.280      6.770
REMARK INTER + INTRA:          -5.080
REMARK INTER:                  -4.756
REMARK INTRA:                  -0.324
REMARK UNBOUND:                -0.186
REMARK SMILES CC1=CCC[C@@H](C)C(=O)C[C@H](C(C)C)C(=O)C1
REMARK SMILES IDX 8 1 9 2 6 3 7 4 5 5 4 6 3 7 2 8 1 9 10 11 11 12 15 13 16 14
REMARK SMILES IDX 17 15 12 17 13 18 14 19
REMARK H PARENT
REMARK Flexibility Score: 70.00
ROOT
ATOM      1  C   UNL     1     -29.706  20.264  23.822  1.00  0.00     0.136 C 
ATOM      2  O   UNL     1     -29.776  21.139  22.971  1.00  0.00    -0.299 OA
ENDROOT
BRANCH   1   3
ATOM      3  C   UNL     1     -30.661  19.085  23.723  1.00  0.00     0.053 C 
ATOM      4  C   UNL     1     -30.553  18.401  22.355  1.00  0.00     0.016 C 
BRANCH   3   5
ATOM      5  C   UNL     1     -32.121  19.479  24.030  1.00  0.00     0.015 C 
BRANCH   5   6
ATOM      6  C   UNL     1     -32.619  18.936  25.390  1.00  0.00     0.028 C 
BRANCH   6   7
ATOM      7  C   UNL     1     -31.907  17.654  25.752  1.00  0.00    -0.028 C 
ATOM      8  C   UNL     1     -31.033  17.506  26.777  1.00  0.00    -0.070 CG0
ATOM      9  C   UNL     1     -30.516  16.120  27.071  1.00  0.00     0.039 C 
ATOM     10  G   UNL     1     -30.547  18.667  27.632  1.00  0.00     0.000 G0
ENDBRANCH   6   7
ENDBRANCH   5   6
ENDBRANCH   3   5
ENDBRANCH   1   3
BRANCH   1  11
ATOM     11  C   UNL     1     -28.672  20.410  24.921  1.00  0.00     0.087 C 
BRANCH  11  12
ATOM     12  C   UNL     1     -29.295  20.646  26.324  1.00  0.00     0.066 C 
BRANCH  12  13
ATOM     13  C   UNL     1     -29.280  19.382  27.178  1.00  0.00     0.140 C 
ATOM     14  O   UNL     1     -28.202  18.903  27.500  1.00  0.00    -0.299 OA
BRANCH  13  15
ATOM     15  C   UNL     1     -30.530  18.668  27.658  1.00  0.00     0.106 CG0
ATOM     16  G   UNL     1     -31.011  17.520  26.783  1.00  0.00     0.000 G0
ENDBRANCH  13  15
ENDBRANCH  12  13
BRANCH  12  17
ATOM     17  C   UNL     1     -28.678  21.852  27.099  1.00  0.00    -0.006 C 
ATOM     18  C   UNL     1     -29.590  22.316  28.247  1.00  0.00     0.008 C 
ATOM     19  C   UNL     1     -28.302  23.056  26.215  1.00  0.00     0.008 C 
ENDBRANCH  12  17
ENDBRANCH  11  12
ENDBRANCH   1  11
TORSDOF 1
ENDMDL
MODEL 4
REMARK VINA RESULT:    -3.200      6.660      9.088
REMARK INTER + INTRA:          -5.070
REMARK INTER:                  -4.702
REMARK INTRA:                  -0.368
REMARK UNBOUND:                -0.186
REMARK SMILES CC1=CCC[C@@H](C)C(=O)C[C@H](C(C)C)C(=O)C1
REMARK SMILES IDX 8 1 9 2 6 3 7 4 5 5 4 6 3 7 2 8 1 9 10 11 11 12 15 13 16 14
REMARK SMILES IDX 17 15 12 17 13 18 14 19
REMARK H PARENT
REMARK Flexibility Score: 70.00
ROOT
ATOM      1  C   UNL     1     -32.364  15.667  24.207  1.00  0.00     0.136 C 
ATOM      2  O   UNL     1     -33.205  15.147  23.488  1.00  0.00    -0.299 OA
ENDROOT
BRANCH   1   3
ATOM      3  C   UNL     1     -32.769  16.063  25.618  1.00  0.00     0.053 C 
ATOM      4  C   UNL     1     -33.077  14.826  26.471  1.00  0.00     0.016 C 
BRANCH   3   5
ATOM      5  C   UNL     1     -33.950  17.056  25.639  1.00  0.00     0.015 C 
BRANCH   5   6
ATOM      6  C   UNL     1     -33.605  18.417  24.989  1.00  0.00     0.028 C 
BRANCH   6   7
ATOM      7  C   UNL     1     -32.350  19.000  25.593  1.00  0.00    -0.028 C 
ATOM      8  C   UNL     1     -31.293  19.480  24.893  1.00  0.00    -0.070 CG0
ATOM      9  C   UNL     1     -30.179  20.144  25.661  1.00  0.00     0.039 C 
ATOM     10  G   UNL     1     -31.178  19.373  23.379  1.00  0.00     0.000 G0
ENDBRANCH   6   7
ENDBRANCH   5   6
ENDBRANCH   3   5
ENDBRANCH   1   3
BRANCH   1  11
ATOM     11  C   UNL     1     -30.972  15.884  23.647  1.00  0.00     0.087 C 
BRANCH  11  12
ATOM     12  C   UNL     1     -30.940  16.869  22.446  1.00  0.00     0.066 C 
BRANCH  12  13
ATOM     13  C   UNL     1     -30.353  18.224  22.831  1.00  0.00     0.140 C 
ATOM     14  O   UNL     1     -29.149  18.398  22.709  1.00  0.00    -0.299 OA
BRANCH  13  15
ATOM     15  C   UNL     1     -31.173  19.383  23.366  1.00  0.00     0.106 CG0
ATOM     16  G   UNL     1     -31.292  19.464  24.881  1.00  0.00     0.000 G0
ENDBRANCH  13  15
ENDBRANCH  12  13
BRANCH  12  17
ATOM     17  C   UNL     1     -30.240  16.297  21.173  1.00  0.00    -0.006 C 
ATOM     18  C   UNL     1     -30.768  16.959  19.889  1.00  0.00     0.008 C 
ATOM     19  C   UNL     1     -30.314  14.766  21.036  1.00  0.00     0.008 C 
ENDBRANCH  12  17
ENDBRANCH  11  12
ENDBRANCH   1  11
TORSDOF 1
ENDMDL
MODEL 5
REMARK VINA RESULT:    -3.191      7.104      9.173
REMARK INTER + INTRA:          -5.056
REMARK INTER:                  -4.772
REMARK INTRA:                  -0.284
REMARK UNBOUND:                -0.186
REMARK SMILES CC1=CCC[C@@H](C)C(=O)C[C@H](C(C)C)C(=O)C1
REMARK SMILES IDX 8 1 9 2 6 3 7 4 5 5 4 6 3 7 2 8 1 9 10 11 11 12 15 13 16 14
REMARK SMILES IDX 17 15 12 17 13 18 14 19
REMARK H PARENT
REMARK Flexibility Score: 70.00
ROOT
ATOM      1  C   UNL     1     -29.621  20.144  25.124  1.00  0.00     0.136 C 
ATOM      2  O   UNL     1     -30.274  20.971  25.745  1.00  0.00    -0.299 OA
ENDROOT
BRANCH   1   3
ATOM      3  C   UNL     1     -28.279  20.568  24.551  1.00  0.00     0.053 C 
ATOM      4  C   UNL     1     -28.463  21.516  23.360  1.00  0.00     0.016 C 
BRANCH   3   5
ATOM      5  C   UNL     1     -27.393  19.364  24.165  1.00  0.00     0.015 C 
BRANCH   5   6
ATOM      6  C   UNL     1     -27.346  19.115  22.639  1.00  0.00     0.028 C 
BRANCH   6   7
ATOM      7  C   UNL     1     -27.495  17.645  22.327  1.00  0.00    -0.028 C 
ATOM      8  C   UNL     1     -28.624  17.053  21.866  1.00  0.00    -0.070 CG0
ATOM      9  C   UNL     1     -28.553  15.595  21.486  1.00  0.00     0.039 C 
ATOM     10  G   UNL     1     -29.950  17.785  21.723  1.00  0.00     0.000 G0
ENDBRANCH   6   7
ENDBRANCH   5   6
ENDBRANCH   3   5
ENDBRANCH   1   3
BRANCH   1  11
ATOM     11  C   UNL     1     -30.192  18.747  24.968  1.00  0.00     0.087 C 
BRANCH  11  12
ATOM     12  C   UNL     1     -31.290  18.651  23.874  1.00  0.00     0.066 C 
BRANCH  12  13
ATOM     13  C   UNL     1     -30.965  17.589  22.827  1.00  0.00     0.140 C 
ATOM     14  O   UNL     1     -31.539  16.512  22.886  1.00  0.00    -0.299 OA
BRANCH  13  15
ATOM     15  C   UNL     1     -29.961  17.782  21.706  1.00  0.00     0.106 CG0
ATOM     16  G   UNL     1     -28.642  17.041  21.866  1.00  0.00     0.000 G0
ENDBRANCH  13  15
ENDBRANCH  12  13
BRANCH  12  17
ATOM     17  C   UNL     1     -32.733  18.460  24.436  1.00  0.00    -0.006 C 
ATOM     18  C   UNL     1     -33.472  19.801  24.572  1.00  0.00     0.008 C 
ATOM     19  C   UNL     1     -32.804  17.691  25.768  1.00  0.00     0.008 C 
ENDBRANCH  12  17
ENDBRANCH  11  12
ENDBRANCH   1  11
TORSDOF 1
ENDMDL
MODEL 6
REMARK VINA RESULT:    -3.103      2.212      5.113
REMARK INTER + INTRA:          -4.922
REMARK INTER:                  -4.715
REMARK INTRA:                  -0.207
REMARK UNBOUND:                -0.186
REMARK SMILES CC1=CCC[C@@H](C)C(=O)C[C@H](C(C)C)C(=O)C1
REMARK SMILES IDX 8 1 9 2 6 3 7 4 5 5 4 6 3 7 2 8 1 9 10 11 11 12 15 13 16 14
REMARK SMILES IDX 17 15 12 17 13 18 14 19
REMARK H PARENT
REMARK Flexibility Score: 70.00
ROOT
ATOM      1  C   UNL     1     -32.491  21.376  33.021  1.00  0.00     0.136 C 
ATOM      2  O   UNL     1     -33.004  21.108  34.099  1.00  0.00    -0.299 OA
ENDROOT
BRANCH   1   3
ATOM      3  C   UNL     1     -31.069  20.904  32.763  1.00  0.00     0.053 C 
ATOM      4  C   UNL     1     -30.849  19.489  33.311  1.00  0.00     0.016 C 
BRANCH   3   5
ATOM      5  C   UNL     1     -30.012  21.882  33.317  1.00  0.00     0.015 C 
BRANCH   5   6
ATOM      6  C   UNL     1     -29.451  22.839  32.239  1.00  0.00     0.028 C 
BRANCH   6   7
ATOM      7  C   UNL     1     -29.851  22.385  30.855  1.00  0.00    -0.028 C 
ATOM      8  C   UNL     1     -30.606  23.097  29.984  1.00  0.00    -0.070 CG0
ATOM      9  C   UNL     1     -30.798  22.541  28.596  1.00  0.00     0.039 C 
ATOM     10  G   UNL     1     -31.271  24.418  30.344  1.00  0.00     0.000 G0
ENDBRANCH   6   7
ENDBRANCH   5   6
ENDBRANCH   3   5
ENDBRANCH   1   3
BRANCH   1  11
ATOM     11  C   UNL     1     -33.307  22.160  32.012  1.00  0.00     0.087 C 
BRANCH  11  12
ATOM     12  C   UNL     1     -33.129  23.698  32.140  1.00  0.00     0.066 C 
BRANCH  12  13
ATOM     13  C   UNL     1     -32.715  24.339  30.818  1.00  0.00     0.140 C 
ATOM     14  O   UNL     1     -33.581  24.817  30.100  1.00  0.00    -0.299 OA
BRANCH  13  15
ATOM     15  C   UNL     1     -31.281  24.421  30.328  1.00  0.00     0.106 CG0
ATOM     16  G   UNL     1     -30.626  23.093  29.977  1.00  0.00     0.000 G0
ENDBRANCH  13  15
ENDBRANCH  12  13
BRANCH  12  17
ATOM     17  C   UNL     1     -34.362  24.431  32.755  1.00  0.00    -0.006 C 
ATOM     18  C   UNL     1     -33.941  25.436  33.840  1.00  0.00     0.008 C 
ATOM     19  C   UNL     1     -35.452  23.496  33.309  1.00  0.00     0.008 C 
ENDBRANCH  12  17
ENDBRANCH  11  12
ENDBRANCH   1  11
TORSDOF 1
ENDMDL
MODEL 7
REMARK VINA RESULT:    -3.041      4.021      7.270
REMARK INTER + INTRA:          -4.826
REMARK INTER:                  -4.848
REMARK INTRA:                   0.022
REMARK UNBOUND:                -0.186
REMARK SMILES CC1=CCC[C@@H](C)C(=O)C[C@H](C(C)C)C(=O)C1
REMARK SMILES IDX 8 1 9 2 6 3 7 4 5 5 4 6 3 7 2 8 1 9 10 11 11 12 15 13 16 14
REMARK SMILES IDX 17 15 12 17 13 18 14 19
REMARK H PARENT
REMARK Flexibility Score: 70.00
ROOT
ATOM      1  C   UNL     1     -31.367  19.488  25.951  1.00  0.00     0.136 C 
ATOM      2  O   UNL     1     -31.154  18.454  26.568  1.00  0.00    -0.299 OA
ENDROOT
BRANCH   1   3
ATOM      3  C   UNL     1     -32.228  19.416  24.700  1.00  0.00     0.053 C 
ATOM      4  C   UNL     1     -33.499  18.595  24.952  1.00  0.00     0.016 C 
BRANCH   3   5
ATOM      5  C   UNL     1     -31.455  18.876  23.479  1.00  0.00     0.015 C 
BRANCH   5   6
ATOM      6  C   UNL     1     -30.322  19.822  23.016  1.00  0.00     0.028 C 
BRANCH   6   7
ATOM      7  C   UNL     1     -28.970  19.172  23.191  1.00  0.00    -0.028 C 
ATOM      8  C   UNL     1     -28.037  19.538  24.103  1.00  0.00    -0.070 CG0
ATOM      9  C   UNL     1     -26.794  18.692  24.221  1.00  0.00     0.039 C 
ATOM     10  G   UNL     1     -28.182  20.759  24.999  1.00  0.00     0.000 G0
ENDBRANCH   6   7
ENDBRANCH   5   6
ENDBRANCH   3   5
ENDBRANCH   1   3
BRANCH   1  11
ATOM     11  C   UNL     1     -30.760  20.776  26.472  1.00  0.00     0.087 C 
BRANCH  11  12
ATOM     12  C   UNL     1     -29.490  20.551  27.337  1.00  0.00     0.066 C 
BRANCH  12  13
ATOM     13  C   UNL     1     -28.221  20.502  26.490  1.00  0.00     0.140 C 
ATOM     14  O   UNL     1     -27.161  20.234  27.037  1.00  0.00    -0.299 OA
BRANCH  13  15
ATOM     15  C   UNL     1     -28.187  20.769  24.998  1.00  0.00     0.106 CG0
ATOM     16  G   UNL     1     -28.040  19.542  24.110  1.00  0.00     0.000 G0
ENDBRANCH  13  15
ENDBRANCH  12  13
BRANCH  12  17
ATOM     17  C   UNL     1     -29.336  21.561  28.517  1.00  0.00    -0.006 C 
ATOM     18  C   UNL     1     -29.122  20.839  29.858  1.00  0.00     0.008 C 
ATOM     19  C   UNL     1     -30.491  22.570  28.649  1.00  0.00     0.008 C 
ENDBRANCH  12  17
ENDBRANCH  11  12
ENDBRANCH   1  11
TORSDOF 1
ENDMDL
MODEL 8
REMARK VINA RESULT:    -3.027      5.781      7.322
REMARK INTER + INTRA:          -4.806
REMARK INTER:                  -4.520
REMARK INTRA:                  -0.286
REMARK UNBOUND:                -0.186
REMARK SMILES CC1=CCC[C@@H](C)C(=O)C[C@H](C(C)C)C(=O)C1
REMARK SMILES IDX 8 1 9 2 6 3 7 4 5 5 4 6 3 7 2 8 1 9 10 11 11 12 15 13 16 14
REMARK SMILES IDX 17 15 12 17 13 18 14 19
REMARK H PARENT
REMARK Flexibility Score: 70.00
ROOT
ATOM      1  C   UNL     1     -30.163  20.320  23.574  1.00  0.00     0.136 C 
ATOM      2  O   UNL     1     -30.667  20.114  22.479  1.00  0.00    -0.299 OA
ENDROOT
BRANCH   1   3
ATOM      3  C   UNL     1     -28.678  20.641  23.635  1.00  0.00     0.053 C 
ATOM      4  C   UNL     1     -28.360  21.927  22.863  1.00  0.00     0.016 C 
BRANCH   3   5
ATOM      5  C   UNL     1     -27.799  19.471  23.145  1.00  0.00     0.015 C 
BRANCH   5   6
ATOM      6  C   UNL     1     -27.605  18.374  24.218  1.00  0.00     0.028 C 
BRANCH   6   7
ATOM      7  C   UNL     1     -26.996  18.949  25.475  1.00  0.00    -0.028 C 
ATOM      8  C   UNL     1     -27.500  18.808  26.725  1.00  0.00    -0.070 CG0
ATOM      9  C   UNL     1     -26.690  19.342  27.879  1.00  0.00     0.039 C 
ATOM     10  G   UNL     1     -28.840  18.146  27.014  1.00  0.00     0.000 G0
ENDBRANCH   6   7
ENDBRANCH   5   6
ENDBRANCH   3   5
ENDBRANCH   1   3
BRANCH   1  11
ATOM     11  C   UNL     1     -31.051  20.243  24.801  1.00  0.00     0.087 C 
BRANCH  11  12
ATOM     12  C   UNL     1     -30.956  18.882  25.544  1.00  0.00     0.066 C 
BRANCH  12  13
ATOM     13  C   UNL     1     -30.082  18.970  26.792  1.00  0.00     0.140 C 
ATOM     14  O   UNL     1     -30.388  19.766  27.668  1.00  0.00    -0.299 OA
BRANCH  13  15
ATOM     15  C   UNL     1     -28.842  18.127  27.019  1.00  0.00     0.106 CG0
ATOM     16  G   UNL     1     -27.514  18.814  26.733  1.00  0.00     0.000 G0
ENDBRANCH  13  15
ENDBRANCH  12  13
BRANCH  12  17
ATOM     17  C   UNL     1     -32.340  18.240  25.874  1.00  0.00    -0.006 C 
ATOM     18  C   UNL     1     -32.191  16.791  26.365  1.00  0.00     0.008 C 
ATOM     19  C   UNL     1     -33.362  18.297  24.724  1.00  0.00     0.008 C 
ENDBRANCH  12  17
ENDBRANCH  11  12
ENDBRANCH   1  11
TORSDOF 1
ENDMDL
MODEL 9
REMARK VINA RESULT:    -3.006      7.058      8.338
REMARK INTER + INTRA:          -4.773
REMARK INTER:                  -4.474
REMARK INTRA:                  -0.298
REMARK UNBOUND:                -0.186
REMARK SMILES CC1=CCC[C@@H](C)C(=O)C[C@H](C(C)C)C(=O)C1
REMARK SMILES IDX 8 1 9 2 6 3 7 4 5 5 4 6 3 7 2 8 1 9 10 11 11 12 15 13 16 14
REMARK SMILES IDX 17 15 12 17 13 18 14 19
REMARK H PARENT
REMARK Flexibility Score: 70.00
ROOT
ATOM      1  C   UNL     1     -33.662  16.389  25.925  1.00  0.00     0.136 C 
ATOM      2  O   UNL     1     -34.785  16.736  26.263  1.00  0.00    -0.299 OA
ENDROOT
BRANCH   1   3
ATOM      3  C   UNL     1     -32.846  15.548  26.894  1.00  0.00     0.053 C 
ATOM      4  C   UNL     1     -33.736  14.543  27.635  1.00  0.00     0.016 C 
BRANCH   3   5
ATOM      5  C   UNL     1     -32.038  16.408  27.888  1.00  0.00     0.015 C 
BRANCH   5   6
ATOM      6  C   UNL     1     -30.512  16.337  27.644  1.00  0.00     0.028 C 
BRANCH   6   7
ATOM      7  C   UNL     1     -30.163  15.177  26.742  1.00  0.00    -0.028 C 
ATOM      8  C   UNL     1     -29.650  15.283  25.492  1.00  0.00    -0.070 CG0
ATOM      9  C   UNL     1     -29.242  14.015  24.785  1.00  0.00     0.039 C 
ATOM     10  G   UNL     1     -29.476  16.612  24.772  1.00  0.00     0.000 G0
ENDBRANCH   6   7
ENDBRANCH   5   6
ENDBRANCH   3   5
ENDBRANCH   1   3
BRANCH   1  11
ATOM     11  C   UNL     1     -33.155  16.818  24.562  1.00  0.00     0.087 C 
BRANCH  11  12
ATOM     12  C   UNL     1     -31.916  17.751  24.632  1.00  0.00     0.066 C 
BRANCH  12  13
ATOM     13  C   UNL     1     -30.685  17.120  23.987  1.00  0.00     0.140 C 
ATOM     14  O   UNL     1     -30.656  17.001  22.771  1.00  0.00    -0.299 OA
BRANCH  13  15
ATOM     15  C   UNL     1     -29.482  16.622  24.765  1.00  0.00     0.106 CG0
ATOM     16  G   UNL     1     -29.663  15.289  25.478  1.00  0.00     0.000 G0
ENDBRANCH  13  15
ENDBRANCH  12  13
BRANCH  12  17
ATOM     17  C   UNL     1     -32.168  19.186  24.072  1.00  0.00    -0.006 C 
ATOM     18  C   UNL     1     -31.008  20.139  24.407  1.00  0.00     0.008 C 
ATOM     19  C   UNL     1     -33.502  19.819  24.509  1.00  0.00     0.008 C 
ENDBRANCH  12  17
ENDBRANCH  11  12
ENDBRANCH   1  11
TORSDOF 1
ENDMDL
