MODEL 1
REMARK VINA RESULT:    -2.249      0.000      0.000
REMARK INTER + INTRA:          -2.576
REMARK INTER:                  -2.381
REMARK INTRA:                  -0.195
REMARK UNBOUND:                -0.195
REMARK SMILES CC1=CC[C@@H](C(C)C)C=C1
REMARK SMILES IDX 1 1 2 2 3 3 4 4 5 5 9 6 10 7 6 8 7 9 8 10
REMARK H PARENT
REMARK Flexibility Score: inf
ROOT
ATOM      1  C   UNL     1     167.351 155.916 139.655  1.00  0.00     0.044 C 
ATOM      2  C   UNL     1     166.141 156.627 139.127  1.00  0.00    -0.055 C 
ATOM      3  C   UNL     1     165.038 155.937 138.800  1.00  0.00    -0.023 C 
ATOM      4  C   UNL     1     163.771 156.652 138.403  1.00  0.00     0.035 C 
ATOM      5  C   UNL     1     164.081 157.969 137.644  1.00  0.00     0.018 C 
ATOM      6  C   UNL     1     165.143 158.743 138.408  1.00  0.00    -0.023 C 
ATOM      7  C   UNL     1     166.129 158.102 139.044  1.00  0.00    -0.001 C 
ENDROOT
BRANCH   5   8
ATOM      8  C   UNL     1     162.811 158.841 137.390  1.00  0.00    -0.010 C 
ATOM      9  C   UNL     1     161.966 158.980 138.671  1.00  0.00     0.008 C 
ATOM     10  C   UNL     1     163.156 160.250 136.876  1.00  0.00     0.008 C 
ENDBRANCH   5   8
TORSDOF 1
ENDMDL
MODEL 2
REMARK VINA RESULT:    -2.188     19.362     20.624
REMARK INTER + INTRA:          -2.511
REMARK INTER:                  -2.314
REMARK INTRA:                  -0.197
REMARK UNBOUND:                -0.195
REMARK SMILES CC1=CC[C@@H](C(C)C)C=C1
REMARK SMILES IDX 1 1 2 2 3 3 4 4 5 5 9 6 10 7 6 8 7 9 8 10
REMARK H PARENT
REMARK Flexibility Score: inf
ROOT
ATOM      1  C   UNL     1     174.920 175.122 143.378  1.00  0.00     0.044 C 
ATOM      2  C   UNL     1     174.925 175.245 141.883  1.00  0.00    -0.055 C 
ATOM      3  C   UNL     1     175.782 176.077 141.274  1.00  0.00    -0.023 C 
ATOM      4  C   UNL     1     175.893 176.104 139.770  1.00  0.00     0.035 C 
ATOM      5  C   UNL     1     174.524 175.818 139.099  1.00  0.00     0.018 C 
ATOM      6  C   UNL     1     173.893 174.602 139.758  1.00  0.00    -0.023 C 
ATOM      7  C   UNL     1     174.041 174.383 141.070  1.00  0.00    -0.001 C 
ENDROOT
BRANCH   5   8
ATOM      8  C   UNL     1     174.629 175.637 137.551  1.00  0.00    -0.010 C 
ATOM      9  C   UNL     1     175.991 176.125 137.025  1.00  0.00     0.008 C 
ATOM     10  C   UNL     1     174.431 174.174 137.114  1.00  0.00     0.008 C 
ENDBRANCH   5   8
TORSDOF 1
ENDMDL
MODEL 3
REMARK VINA RESULT:    -2.141     14.934     17.227
REMARK INTER + INTRA:          -2.461
REMARK INTER:                  -2.263
REMARK INTRA:                  -0.198
REMARK UNBOUND:                -0.195
REMARK SMILES CC1=CC[C@@H](C(C)C)C=C1
REMARK SMILES IDX 1 1 2 2 3 3 4 4 5 5 9 6 10 7 6 8 7 9 8 10
REMARK H PARENT
REMARK Flexibility Score: inf
ROOT
ATOM      1  C   UNL     1     164.883 176.125 139.503  1.00  0.00     0.044 C 
ATOM      2  C   UNL     1     166.122 175.376 139.113  1.00  0.00    -0.055 C 
ATOM      3  C   UNL     1     167.303 176.009 139.041  1.00  0.00    -0.023 C 
ATOM      4  C   UNL     1     168.575 175.240 138.788  1.00  0.00     0.035 C 
ATOM      5  C   UNL     1     168.323 174.020 137.863  1.00  0.00     0.018 C 
ATOM      6  C   UNL     1     167.104 173.262 138.364  1.00  0.00    -0.023 C 
ATOM      7  C   UNL     1     166.062 173.916 138.889  1.00  0.00    -0.001 C 
ENDROOT
BRANCH   5   8
ATOM      8  C   UNL     1     169.565 173.082 137.737  1.00  0.00    -0.010 C 
ATOM      9  C   UNL     1     170.389 173.071 139.039  1.00  0.00     0.008 C 
ATOM     10  C   UNL     1     169.178 171.634 137.391  1.00  0.00     0.008 C 
ENDBRANCH   5   8
TORSDOF 1
ENDMDL
MODEL 4
REMARK VINA RESULT:    -2.137      1.186      2.177
REMARK INTER + INTRA:          -2.457
REMARK INTER:                  -2.318
REMARK INTRA:                  -0.139
REMARK UNBOUND:                -0.195
REMARK SMILES CC1=CC[C@@H](C(C)C)C=C1
REMARK SMILES IDX 1 1 2 2 3 3 4 4 5 5 9 6 10 7 6 8 7 9 8 10
REMARK H PARENT
REMARK Flexibility Score: inf
ROOT
ATOM      1  C   UNL     1     166.463 155.876 139.177  1.00  0.00     0.044 C 
ATOM      2  C   UNL     1     165.190 156.659 139.060  1.00  0.00    -0.055 C 
ATOM      3  C   UNL     1     165.211 157.927 138.622  1.00  0.00    -0.023 C 
ATOM      4  C   UNL     1     163.927 158.675 138.367  1.00  0.00     0.035 C 
ATOM      5  C   UNL     1     162.817 158.247 139.362  1.00  0.00     0.018 C 
ATOM      6  C   UNL     1     162.771 156.729 139.430  1.00  0.00    -0.023 C 
ATOM      7  C   UNL     1     163.894 156.008 139.346  1.00  0.00    -0.001 C 
ENDROOT
BRANCH   5   8
ATOM      8  C   UNL     1     161.418 158.845 139.011  1.00  0.00    -0.010 C 
ATOM      9  C   UNL     1     160.960 159.855 140.080  1.00  0.00     0.008 C 
ATOM     10  C   UNL     1     161.403 159.544 137.640  1.00  0.00     0.008 C 
ENDBRANCH   5   8
TORSDOF 1
ENDMDL
MODEL 5
REMARK VINA RESULT:    -2.118     15.820     17.286
REMARK INTER + INTRA:          -2.436
REMARK INTER:                  -2.237
REMARK INTRA:                  -0.199
REMARK UNBOUND:                -0.195
REMARK SMILES CC1=CC[C@@H](C(C)C)C=C1
REMARK SMILES IDX 1 1 2 2 3 3 4 4 5 5 9 6 10 7 6 8 7 9 8 10
REMARK H PARENT
REMARK Flexibility Score: inf
ROOT
ATOM      1  C   UNL     1     165.706 176.123 139.360  1.00  0.00     0.044 C 
ATOM      2  C   UNL     1     166.882 175.217 139.154  1.00  0.00    -0.055 C 
ATOM      3  C   UNL     1     166.715 174.003 138.608  1.00  0.00    -0.023 C 
ATOM      4  C   UNL     1     167.905 173.141 138.266  1.00  0.00     0.035 C 
ATOM      5  C   UNL     1     169.063 173.354 139.276  1.00  0.00     0.018 C 
ATOM      6  C   UNL     1     169.280 174.845 139.475  1.00  0.00    -0.023 C 
ATOM      7  C   UNL     1     168.245 175.692 139.474  1.00  0.00    -0.001 C 
ENDROOT
BRANCH   5   8
ATOM      8  C   UNL     1     170.384 172.637 138.850  1.00  0.00    -0.010 C 
ATOM      9  C   UNL     1     170.464 172.481 137.320  1.00  0.00     0.008 C 
ATOM     10  C   UNL     1     171.641 173.382 139.332  1.00  0.00     0.008 C 
ENDBRANCH   5   8
TORSDOF 1
ENDMDL
MODEL 6
REMARK VINA RESULT:    -2.056     15.601     17.205
REMARK INTER + INTRA:          -2.371
REMARK INTER:                  -2.205
REMARK INTRA:                  -0.166
REMARK UNBOUND:                -0.195
REMARK SMILES CC1=CC[C@@H](C(C)C)C=C1
REMARK SMILES IDX 1 1 2 2 3 3 4 4 5 5 9 6 10 7 6 8 7 9 8 10
REMARK H PARENT
REMARK Flexibility Score: inf
ROOT
ATOM      1  C   UNL     1     168.913 172.893 137.001  1.00  0.00     0.044 C 
ATOM      2  C   UNL     1     167.968 173.665 137.872  1.00  0.00    -0.055 C 
ATOM      3  C   UNL     1     166.925 173.053 138.452  1.00  0.00    -0.023 C 
ATOM      4  C   UNL     1     166.053 173.785 139.440  1.00  0.00     0.035 C 
ATOM      5  C   UNL     1     165.929 175.288 139.077  1.00  0.00     0.018 C 
ATOM      6  C   UNL     1     167.313 175.843 138.780  1.00  0.00    -0.023 C 
ATOM      7  C   UNL     1     168.232 175.090 138.164  1.00  0.00    -0.001 C 
ENDROOT
BRANCH   5   8
ATOM      8  C   UNL     1     165.204 176.125 140.178  1.00  0.00    -0.010 C 
ATOM      9  C   UNL     1     163.693 175.829 140.197  1.00  0.00     0.008 C 
ATOM     10  C   UNL     1     165.771 175.865 141.585  1.00  0.00     0.008 C 
ENDBRANCH   5   8
TORSDOF 1
ENDMDL
MODEL 7
REMARK VINA RESULT:    -2.054     14.067     15.949
REMARK INTER + INTRA:          -2.369
REMARK INTER:                  -2.172
REMARK INTRA:                  -0.197
REMARK UNBOUND:                -0.195
REMARK SMILES CC1=CC[C@@H](C(C)C)C=C1
REMARK SMILES IDX 1 1 2 2 3 3 4 4 5 5 9 6 10 7 6 8 7 9 8 10
REMARK H PARENT
REMARK Flexibility Score: inf
ROOT
ATOM      1  C   UNL     1     168.121 169.692 137.379  1.00  0.00     0.044 C 
ATOM      2  C   UNL     1     168.032 171.162 137.661  1.00  0.00    -0.055 C 
ATOM      3  C   UNL     1     166.850 171.794 137.602  1.00  0.00    -0.023 C 
ATOM      4  C   UNL     1     166.727 173.238 138.020  1.00  0.00     0.035 C 
ATOM      5  C   UNL     1     168.016 174.033 137.689  1.00  0.00     0.018 C 
ATOM      6  C   UNL     1     169.224 173.241 138.164  1.00  0.00    -0.023 C 
ATOM      7  C   UNL     1     169.236 171.905 138.088  1.00  0.00    -0.001 C 
ENDROOT
BRANCH   5   8
ATOM      8  C   UNL     1     168.013 175.477 138.282  1.00  0.00    -0.010 C 
ATOM      9  C   UNL     1     166.624 175.848 138.835  1.00  0.00     0.008 C 
ATOM     10  C   UNL     1     169.050 175.656 139.406  1.00  0.00     0.008 C 
ENDBRANCH   5   8
TORSDOF 1
ENDMDL
MODEL 8
REMARK VINA RESULT:    -2.021      1.577      4.410
REMARK INTER + INTRA:          -2.335
REMARK INTER:                  -2.135
REMARK INTRA:                  -0.199
REMARK UNBOUND:                -0.195
REMARK SMILES CC1=CC[C@@H](C(C)C)C=C1
REMARK SMILES IDX 1 1 2 2 3 3 4 4 5 5 9 6 10 7 6 8 7 9 8 10
REMARK H PARENT
REMARK Flexibility Score: inf
ROOT
ATOM      1  C   UNL     1     162.081 159.281 137.430  1.00  0.00     0.044 C 
ATOM      2  C   UNL     1     163.049 158.452 138.221  1.00  0.00    -0.055 C 
ATOM      3  C   UNL     1     163.757 157.481 137.623  1.00  0.00    -0.023 C 
ATOM      4  C   UNL     1     164.832 156.738 138.375  1.00  0.00     0.035 C 
ATOM      5  C   UNL     1     164.467 156.581 139.874  1.00  0.00     0.018 C 
ATOM      6  C   UNL     1     164.001 157.924 140.413  1.00  0.00    -0.023 C 
ATOM      7  C   UNL     1     163.290 158.758 139.646  1.00  0.00    -0.001 C 
ENDROOT
BRANCH   5   8
ATOM      8  C   UNL     1     165.636 155.998 140.730  1.00  0.00    -0.010 C 
ATOM      9  C   UNL     1     166.927 155.875 139.898  1.00  0.00     0.008 C 
ATOM     10  C   UNL     1     165.937 156.850 141.976  1.00  0.00     0.008 C 
ENDBRANCH   5   8
TORSDOF 1
ENDMDL
MODEL 9
REMARK VINA RESULT:    -2.001      7.194      8.007
REMARK INTER + INTRA:          -2.313
REMARK INTER:                  -2.140
REMARK INTRA:                  -0.173
REMARK UNBOUND:                -0.195
REMARK SMILES CC1=CC[C@@H](C(C)C)C=C1
REMARK SMILES IDX 1 1 2 2 3 3 4 4 5 5 9 6 10 7 6 8 7 9 8 10
REMARK H PARENT
REMARK Flexibility Score: inf
ROOT
ATOM      1  C   UNL     1     157.291 157.136 143.877  1.00  0.00     0.044 C 
ATOM      2  C   UNL     1     157.255 157.138 142.378  1.00  0.00    -0.055 C 
ATOM      3  C   UNL     1     156.615 156.165 141.714  1.00  0.00    -0.023 C 
ATOM      4  C   UNL     1     156.452 156.232 140.216  1.00  0.00     0.035 C 
ATOM      5  C   UNL     1     157.672 156.916 139.546  1.00  0.00     0.018 C 
ATOM      6  C   UNL     1     157.998 158.196 140.299  1.00  0.00    -0.023 C 
ATOM      7  C   UNL     1     157.853 158.262 141.628  1.00  0.00    -0.001 C 
ENDROOT
BRANCH   5   8
ATOM      8  C   UNL     1     157.460 157.189 138.024  1.00  0.00    -0.010 C 
ATOM      9  C   UNL     1     157.204 155.880 137.254  1.00  0.00     0.008 C 
ATOM     10  C   UNL     1     156.289 158.151 137.755  1.00  0.00     0.008 C 
ENDBRANCH   5   8
TORSDOF 1
ENDMDL
