MODEL 1
REMARK VINA RESULT:    -4.574      0.000      0.000
REMARK INTER + INTRA:         -14.166
REMARK INTER:                 -10.456
REMARK INTRA:                  -3.710
REMARK UNBOUND:                -3.710
REMARK SMILES CCCCCCCCCCCCCCCCCCCCCCCC(=O)[O-]
REMARK SMILES IDX 13 1 14 2 15 3 16 4 17 5 18 6 19 7 20 8 21 9 22 10 23 11
REMARK SMILES IDX 24 12 25 13 26 14 12 15 11 16 10 17 9 18 8 19 7 20 6 21 5 22
REMARK SMILES IDX 4 23 3 24 2 25 1 26
REMARK H PARENT
REMARK Flexibility Score: inf
ROOT
ATOM      1  C   UNL     1     186.511 192.635 193.704  1.00  0.00     0.000 C 
ENDROOT
BRANCH   1   2
ATOM      2  C   UNL     1     186.158 193.926 192.939  1.00  0.00     0.000 C 
BRANCH   2   3
ATOM      3  C   UNL     1     184.907 194.669 193.453  1.00  0.00     0.000 C 
BRANCH   3   4
ATOM      4  C   UNL     1     184.994 195.178 194.903  1.00  0.00     0.000 C 
BRANCH   4   5
ATOM      5  C   UNL     1     186.203 196.098 195.146  1.00  0.00     0.000 C 
BRANCH   5   6
ATOM      6  C   UNL     1     187.015 195.704 196.393  1.00  0.00     0.000 C 
BRANCH   6   7
ATOM      7  C   UNL     1     188.236 194.807 196.120  1.00  0.00     0.000 C 
BRANCH   7   8
ATOM      8  C   UNL     1     189.310 195.504 195.265  1.00  0.00     0.000 C 
BRANCH   8   9
ATOM      9  C   UNL     1     189.526 194.811 193.910  1.00  0.00     0.000 C 
BRANCH   9  10
ATOM     10  C   UNL     1     190.697 195.419 193.118  1.00  0.00     0.006 C 
BRANCH  10  11
ATOM     11  C   UNL     1     190.725 196.951 193.209  1.00  0.00     0.053 C 
BRANCH  11  12
ATOM     12  C   UNL     1     191.330 197.572 191.986  1.00  0.00     0.041 C 
ATOM     13  O   UNL     1     191.427 196.907 190.921  1.00  0.00    -0.550 OA
ATOM     14  O   UNL     1     191.765 198.891 192.018  1.00  0.00    -0.550 OA
ENDBRANCH  11  12
ENDBRANCH  10  11
ENDBRANCH   9  10
ENDBRANCH   8   9
ENDBRANCH   7   8
ENDBRANCH   6   7
ENDBRANCH   5   6
ENDBRANCH   4   5
ENDBRANCH   3   4
ENDBRANCH   2   3
ENDBRANCH   1   2
BRANCH   1  15
ATOM     15  C   UNL     1     185.828 191.356 193.178  1.00  0.00     0.000 C 
BRANCH  15  16
ATOM     16  C   UNL     1     186.760 190.143 192.998  1.00  0.00     0.000 C 
BRANCH  16  17
ATOM     17  C   UNL     1     186.280 189.179 191.901  1.00  0.00     0.000 C 
BRANCH  17  18
ATOM     18  C   UNL     1     185.509 189.890 190.772  1.00  0.00    -0.000 C 
BRANCH  18  19
ATOM     19  C   UNL     1     186.377 190.421 189.617  1.00  0.00    -0.000 C 
BRANCH  19  20
ATOM     20  C   UNL     1     186.559 191.946 189.654  1.00  0.00    -0.000 C 
BRANCH  20  21
ATOM     21  C   UNL     1     188.007 192.333 189.319  1.00  0.00    -0.000 C 
BRANCH  21  22
ATOM     22  C   UNL     1     188.854 192.638 190.569  1.00  0.00    -0.000 C 
BRANCH  22  23
ATOM     23  C   UNL     1     189.510 191.409 191.224  1.00  0.00    -0.000 C 
BRANCH  23  24
ATOM     24  C   UNL     1     190.348 191.765 192.460  1.00  0.00    -0.000 C 
BRANCH  24  25
ATOM     25  C   UNL     1     191.844 191.569 192.185  1.00  0.00    -0.003 C 
ATOM     26  C   UNL     1     192.428 192.765 191.439  1.00  0.00     0.004 C 
ENDBRANCH  24  25
ENDBRANCH  23  24
ENDBRANCH  22  23
ENDBRANCH  21  22
ENDBRANCH  20  21
ENDBRANCH  19  20
ENDBRANCH  18  19
ENDBRANCH  17  18
ENDBRANCH  16  17
ENDBRANCH  15  16
ENDBRANCH   1  15
TORSDOF 22
ENDMDL
MODEL 2
REMARK VINA RESULT:    -4.574      2.923      5.839
REMARK INTER + INTRA:         -14.166
REMARK INTER:                 -10.839
REMARK INTRA:                  -3.327
REMARK UNBOUND:                -3.710
REMARK SMILES CCCCCCCCCCCCCCCCCCCCCCCC(=O)[O-]
REMARK SMILES IDX 13 1 14 2 15 3 16 4 17 5 18 6 19 7 20 8 21 9 22 10 23 11
REMARK SMILES IDX 24 12 25 13 26 14 12 15 11 16 10 17 9 18 8 19 7 20 6 21 5 22
REMARK SMILES IDX 4 23 3 24 2 25 1 26
REMARK H PARENT
REMARK Flexibility Score: inf
ROOT
ATOM      1  C   UNL     1     191.332 196.123 192.718  1.00  0.00     0.000 C 
ENDROOT
BRANCH   1   2
ATOM      2  C   UNL     1     190.265 195.865 193.800  1.00  0.00     0.000 C 
BRANCH   2   3
ATOM      3  C   UNL     1     189.664 197.133 194.442  1.00  0.00     0.000 C 
BRANCH   3   4
ATOM      4  C   UNL     1     189.484 197.074 195.970  1.00  0.00     0.000 C 
BRANCH   4   5
ATOM      5  C   UNL     1     188.063 197.450 196.423  1.00  0.00     0.000 C 
BRANCH   5   6
ATOM      6  C   UNL     1     186.984 196.510 195.855  1.00  0.00     0.000 C 
BRANCH   6   7
ATOM      7  C   UNL     1     187.102 195.039 196.295  1.00  0.00     0.000 C 
BRANCH   7   8
ATOM      8  C   UNL     1     187.161 194.063 195.107  1.00  0.00     0.000 C 
BRANCH   8   9
ATOM      9  C   UNL     1     186.683 194.703 193.793  1.00  0.00     0.000 C 
BRANCH   9  10
ATOM     10  C   UNL     1     185.465 193.977 193.193  1.00  0.00     0.006 C 
BRANCH  10  11
ATOM     11  C   UNL     1     184.173 194.790 193.343  1.00  0.00     0.053 C 
BRANCH  11  12
ATOM     12  C   UNL     1     183.548 194.602 194.692  1.00  0.00     0.041 C 
ATOM     13  O   UNL     1     183.067 193.484 195.016  1.00  0.00    -0.550 OA
ATOM     14  O   UNL     1     183.519 195.654 195.599  1.00  0.00    -0.550 OA
ENDBRANCH  11  12
ENDBRANCH  10  11
ENDBRANCH   9  10
ENDBRANCH   8   9
ENDBRANCH   7   8
ENDBRANCH   6   7
ENDBRANCH   5   6
ENDBRANCH   4   5
ENDBRANCH   3   4
ENDBRANCH   2   3
ENDBRANCH   1   2
BRANCH   1  15
ATOM     15  C   UNL     1     191.296 195.153 191.519  1.00  0.00     0.000 C 
BRANCH  15  16
ATOM     16  C   UNL     1     192.673 194.778 190.939  1.00  0.00     0.000 C 
BRANCH  16  17
ATOM     17  C   UNL     1     193.035 193.301 191.169  1.00  0.00     0.000 C 
BRANCH  17  18
ATOM     18  C   UNL     1     191.802 192.379 191.202  1.00  0.00    -0.000 C 
BRANCH  18  19
ATOM     19  C   UNL     1     191.751 191.393 192.383  1.00  0.00    -0.000 C 
BRANCH  19  20
ATOM     20  C   UNL     1     190.318 191.070 192.835  1.00  0.00    -0.000 C 
BRANCH  20  21
ATOM     21  C   UNL     1     189.386 192.268 192.599  1.00  0.00    -0.000 C 
BRANCH  21  22
ATOM     22  C   UNL     1     188.109 191.894 191.826  1.00  0.00    -0.000 C 
BRANCH  22  23
ATOM     23  C   UNL     1     188.150 192.198 190.318  1.00  0.00    -0.000 C 
BRANCH  23  24
ATOM     24  C   UNL     1     187.046 191.478 189.530  1.00  0.00    -0.000 C 
BRANCH  24  25
ATOM     25  C   UNL     1     186.170 190.631 190.461  1.00  0.00    -0.003 C 
ATOM     26  C   UNL     1     186.259 189.150 190.105  1.00  0.00     0.004 C 
ENDBRANCH  24  25
ENDBRANCH  23  24
ENDBRANCH  22  23
ENDBRANCH  21  22
ENDBRANCH  20  21
ENDBRANCH  19  20
ENDBRANCH  18  19
ENDBRANCH  17  18
ENDBRANCH  16  17
ENDBRANCH  15  16
ENDBRANCH   1  15
TORSDOF 22
ENDMDL
MODEL 3
REMARK VINA RESULT:    -4.554      1.083      2.474
REMARK INTER + INTRA:         -14.122
REMARK INTER:                 -10.925
REMARK INTRA:                  -3.197
REMARK UNBOUND:                -3.710
REMARK SMILES CCCCCCCCCCCCCCCCCCCCCCCC(=O)[O-]
REMARK SMILES IDX 13 1 14 2 15 3 16 4 17 5 18 6 19 7 20 8 21 9 22 10 23 11
REMARK SMILES IDX 24 12 25 13 26 14 12 15 11 16 10 17 9 18 8 19 7 20 6 21 5 22
REMARK SMILES IDX 4 23 3 24 2 25 1 26
REMARK H PARENT
REMARK Flexibility Score: inf
ROOT
ATOM      1  C   UNL     1     184.467 195.643 194.832  1.00  0.00     0.000 C 
ENDROOT
BRANCH   1   2
ATOM      2  C   UNL     1     184.282 194.930 196.186  1.00  0.00     0.000 C 
BRANCH   2   3
ATOM      3  C   UNL     1     185.590 194.562 196.917  1.00  0.00     0.000 C 
BRANCH   3   4
ATOM      4  C   UNL     1     186.787 195.485 196.626  1.00  0.00     0.000 C 
BRANCH   4   5
ATOM      5  C   UNL     1     188.057 195.083 197.396  1.00  0.00     0.000 C 
BRANCH   5   6
ATOM      6  C   UNL     1     189.298 194.975 196.491  1.00  0.00     0.000 C 
BRANCH   6   7
ATOM      7  C   UNL     1     189.129 194.072 195.256  1.00  0.00     0.000 C 
BRANCH   7   8
ATOM      8  C   UNL     1     189.086 194.864 193.937  1.00  0.00     0.000 C 
BRANCH   8   9
ATOM      9  C   UNL     1     190.429 195.534 193.606  1.00  0.00     0.000 C 
BRANCH   9  10
ATOM     10  C   UNL     1     190.349 197.070 193.655  1.00  0.00     0.006 C 
BRANCH  10  11
ATOM     11  C   UNL     1     191.713 197.730 193.415  1.00  0.00     0.053 C 
BRANCH  11  12
ATOM     12  C   UNL     1     191.785 198.391 192.071  1.00  0.00     0.041 C 
ATOM     13  O   UNL     1     191.007 198.033 191.148  1.00  0.00    -0.550 OA
ATOM     14  O   UNL     1     192.695 199.416 191.847  1.00  0.00    -0.550 OA
ENDBRANCH  11  12
ENDBRANCH  10  11
ENDBRANCH   9  10
ENDBRANCH   8   9
ENDBRANCH   7   8
ENDBRANCH   6   7
ENDBRANCH   5   6
ENDBRANCH   4   5
ENDBRANCH   3   4
ENDBRANCH   2   3
ENDBRANCH   1   2
BRANCH   1  15
ATOM     15  C   UNL     1     184.342 194.736 193.591  1.00  0.00     0.000 C 
BRANCH  15  16
ATOM     16  C   UNL     1     185.667 194.151 193.070  1.00  0.00     0.000 C 
BRANCH  16  17
ATOM     17  C   UNL     1     185.963 192.749 193.630  1.00  0.00     0.000 C 
BRANCH  17  18
ATOM     18  C   UNL     1     186.994 191.973 192.790  1.00  0.00    -0.000 C 
BRANCH  18  19
ATOM     19  C   UNL     1     186.411 190.869 191.889  1.00  0.00    -0.000 C 
BRANCH  19  20
ATOM     20  C   UNL     1     186.942 190.926 190.449  1.00  0.00    -0.000 C 
BRANCH  20  21
ATOM     21  C   UNL     1     187.633 192.269 190.172  1.00  0.00    -0.000 C 
BRANCH  21  22
ATOM     22  C   UNL     1     189.162 192.144 190.040  1.00  0.00    -0.000 C 
BRANCH  22  23
ATOM     23  C   UNL     1     189.970 192.990 191.040  1.00  0.00    -0.000 C 
BRANCH  23  24
ATOM     24  C   UNL     1     191.424 192.518 191.186  1.00  0.00    -0.000 C 
BRANCH  24  25
ATOM     25  C   UNL     1     191.492 191.157 191.889  1.00  0.00    -0.003 C 
ATOM     26  C   UNL     1     190.635 191.146 193.152  1.00  0.00     0.004 C 
ENDBRANCH  24  25
ENDBRANCH  23  24
ENDBRANCH  22  23
ENDBRANCH  21  22
ENDBRANCH  20  21
ENDBRANCH  19  20
ENDBRANCH  18  19
ENDBRANCH  17  18
ENDBRANCH  16  17
ENDBRANCH  15  16
ENDBRANCH   1  15
TORSDOF 22
ENDMDL
MODEL 4
REMARK VINA RESULT:    -4.554      2.243      5.870
REMARK INTER + INTRA:         -14.121
REMARK INTER:                 -11.267
REMARK INTRA:                  -2.854
REMARK UNBOUND:                -3.710
REMARK SMILES CCCCCCCCCCCCCCCCCCCCCCCC(=O)[O-]
REMARK SMILES IDX 13 1 14 2 15 3 16 4 17 5 18 6 19 7 20 8 21 9 22 10 23 11
REMARK SMILES IDX 24 12 25 13 26 14 12 15 11 16 10 17 9 18 8 19 7 20 6 21 5 22
REMARK SMILES IDX 4 23 3 24 2 25 1 26
REMARK H PARENT
REMARK Flexibility Score: inf
ROOT
ATOM      1  C   UNL     1     188.826 193.361 194.035  1.00  0.00     0.000 C 
ENDROOT
BRANCH   1   2
ATOM      2  C   UNL     1     189.919 192.383 193.560  1.00  0.00     0.000 C 
BRANCH   2   3
ATOM      3  C   UNL     1     189.748 191.860 192.119  1.00  0.00     0.000 C 
BRANCH   3   4
ATOM      4  C   UNL     1     191.043 191.786 191.289  1.00  0.00     0.000 C 
BRANCH   4   5
ATOM      5  C   UNL     1     192.076 192.852 191.691  1.00  0.00     0.000 C 
BRANCH   5   6
ATOM      6  C   UNL     1     191.738 194.251 191.145  1.00  0.00     0.000 C 
BRANCH   6   7
ATOM      7  C   UNL     1     192.198 195.426 192.028  1.00  0.00     0.000 C 
BRANCH   7   8
ATOM      8  C   UNL     1     191.123 195.874 193.033  1.00  0.00     0.000 C 
BRANCH   8   9
ATOM      9  C   UNL     1     190.837 197.382 192.960  1.00  0.00     0.000 C 
BRANCH   9  10
ATOM     10  C   UNL     1     192.117 198.215 192.761  1.00  0.00     0.006 C 
BRANCH  10  11
ATOM     11  C   UNL     1     192.004 199.175 191.570  1.00  0.00     0.053 C 
BRANCH  11  12
ATOM     12  C   UNL     1     193.107 200.190 191.564  1.00  0.00     0.041 C 
ATOM     13  O   UNL     1     193.674 200.503 190.484  1.00  0.00    -0.550 OA
ATOM     14  O   UNL     1     193.493 200.806 192.748  1.00  0.00    -0.550 OA
ENDBRANCH  11  12
ENDBRANCH  10  11
ENDBRANCH   9  10
ENDBRANCH   8   9
ENDBRANCH   7   8
ENDBRANCH   6   7
ENDBRANCH   5   6
ENDBRANCH   4   5
ENDBRANCH   3   4
ENDBRANCH   2   3
ENDBRANCH   1   2
BRANCH   1  15
ATOM     15  C   UNL     1     187.801 193.771 192.958  1.00  0.00     0.000 C 
BRANCH  15  16
ATOM     16  C   UNL     1     186.508 192.935 192.933  1.00  0.00     0.000 C 
BRANCH  16  17
ATOM     17  C   UNL     1     185.598 193.206 194.142  1.00  0.00     0.000 C 
BRANCH  17  18
ATOM     18  C   UNL     1     184.593 194.346 193.892  1.00  0.00    -0.000 C 
BRANCH  18  19
ATOM     19  C   UNL     1     184.786 195.596 194.770  1.00  0.00    -0.000 C 
BRANCH  19  20
ATOM     20  C   UNL     1     185.340 195.270 196.165  1.00  0.00    -0.000 C 
BRANCH  20  21
ATOM     21  C   UNL     1     186.728 195.897 196.364  1.00  0.00    -0.000 C 
BRANCH  21  22
ATOM     22  C   UNL     1     187.045 196.996 195.334  1.00  0.00    -0.000 C 
BRANCH  22  23
ATOM     23  C   UNL     1     188.459 197.596 195.440  1.00  0.00    -0.000 C 
BRANCH  23  24
ATOM     24  C   UNL     1     189.155 197.260 196.767  1.00  0.00    -0.000 C 
BRANCH  24  25
ATOM     25  C   UNL     1     190.189 198.331 197.132  1.00  0.00    -0.003 C 
ATOM     26  C   UNL     1     189.532 199.515 197.835  1.00  0.00     0.004 C 
ENDBRANCH  24  25
ENDBRANCH  23  24
ENDBRANCH  22  23
ENDBRANCH  21  22
ENDBRANCH  20  21
ENDBRANCH  19  20
ENDBRANCH  18  19
ENDBRANCH  17  18
ENDBRANCH  16  17
ENDBRANCH  15  16
ENDBRANCH   1  15
TORSDOF 22
ENDMDL
MODEL 5
REMARK VINA RESULT:    -4.549      1.028      4.631
REMARK INTER + INTRA:         -14.110
REMARK INTER:                 -10.356
REMARK INTRA:                  -3.754
REMARK UNBOUND:                -3.710
REMARK SMILES CCCCCCCCCCCCCCCCCCCCCCCC(=O)[O-]
REMARK SMILES IDX 13 1 14 2 15 3 16 4 17 5 18 6 19 7 20 8 21 9 22 10 23 11
REMARK SMILES IDX 24 12 25 13 26 14 12 15 11 16 10 17 9 18 8 19 7 20 6 21 5 22
REMARK SMILES IDX 4 23 3 24 2 25 1 26
REMARK H PARENT
REMARK Flexibility Score: inf
ROOT
ATOM      1  C   UNL     1     187.799 195.841 196.474  1.00  0.00     0.000 C 
ENDROOT
BRANCH   1   2
ATOM      2  C   UNL     1     188.600 194.666 195.882  1.00  0.00     0.000 C 
BRANCH   2   3
ATOM      3  C   UNL     1     189.400 194.996 194.605  1.00  0.00     0.000 C 
BRANCH   3   4
ATOM      4  C   UNL     1     189.298 193.953 193.477  1.00  0.00     0.000 C 
BRANCH   4   5
ATOM      5  C   UNL     1     189.995 192.626 193.820  1.00  0.00     0.000 C 
BRANCH   5   6
ATOM      6  C   UNL     1     189.888 191.582 192.694  1.00  0.00     0.000 C 
BRANCH   6   7
ATOM      7  C   UNL     1     191.216 191.231 192.000  1.00  0.00     0.000 C 
BRANCH   7   8
ATOM      8  C   UNL     1     191.653 192.292 190.974  1.00  0.00     0.000 C 
BRANCH   8   9
ATOM      9  C   UNL     1     192.913 193.054 191.414  1.00  0.00     0.000 C 
BRANCH   9  10
ATOM     10  C   UNL     1     192.872 194.541 191.016  1.00  0.00     0.006 C 
BRANCH  10  11
ATOM     11  C   UNL     1     191.465 195.139 191.153  1.00  0.00     0.053 C 
BRANCH  11  12
ATOM     12  C   UNL     1     191.509 196.581 191.559  1.00  0.00     0.041 C 
ATOM     13  O   UNL     1     191.904 196.903 192.710  1.00  0.00    -0.550 OA
ATOM     14  O   UNL     1     191.137 197.569 190.656  1.00  0.00    -0.550 OA
ENDBRANCH  11  12
ENDBRANCH  10  11
ENDBRANCH   9  10
ENDBRANCH   8   9
ENDBRANCH   7   8
ENDBRANCH   6   7
ENDBRANCH   5   6
ENDBRANCH   4   5
ENDBRANCH   3   4
ENDBRANCH   2   3
ENDBRANCH   1   2
BRANCH   1  15
ATOM     15  C   UNL     1     186.265 195.710 196.365  1.00  0.00     0.000 C 
BRANCH  15  16
ATOM     16  C   UNL     1     185.700 195.802 194.936  1.00  0.00     0.000 C 
BRANCH  16  17
ATOM     17  C   UNL     1     184.808 194.604 194.568  1.00  0.00     0.000 C 
BRANCH  17  18
ATOM     18  C   UNL     1     185.377 193.766 193.408  1.00  0.00    -0.000 C 
BRANCH  18  19
ATOM     19  C   UNL     1     186.157 192.507 193.828  1.00  0.00    -0.000 C 
BRANCH  19  20
ATOM     20  C   UNL     1     185.543 191.210 193.281  1.00  0.00    -0.000 C 
BRANCH  20  21
ATOM     21  C   UNL     1     186.616 190.124 193.114  1.00  0.00    -0.000 C 
BRANCH  21  22
ATOM     22  C   UNL     1     186.657 189.530 191.695  1.00  0.00    -0.000 C 
BRANCH  22  23
ATOM     23  C   UNL     1     185.735 190.222 190.675  1.00  0.00    -0.000 C 
BRANCH  23  24
ATOM     24  C   UNL     1     186.483 190.716 189.428  1.00  0.00    -0.000 C 
BRANCH  24  25
ATOM     25  C   UNL     1     187.723 191.529 189.819  1.00  0.00    -0.003 C 
ATOM     26  C   UNL     1     187.335 192.907 190.346  1.00  0.00     0.004 C 
ENDBRANCH  24  25
ENDBRANCH  23  24
ENDBRANCH  22  23
ENDBRANCH  21  22
ENDBRANCH  20  21
ENDBRANCH  19  20
ENDBRANCH  18  19
ENDBRANCH  17  18
ENDBRANCH  16  17
ENDBRANCH  15  16
ENDBRANCH   1  15
TORSDOF 22
ENDMDL
MODEL 6
REMARK VINA RESULT:    -4.537      2.686      7.269
REMARK INTER + INTRA:         -14.083
REMARK INTER:                 -10.964
REMARK INTRA:                  -3.119
REMARK UNBOUND:                -3.710
REMARK SMILES CCCCCCCCCCCCCCCCCCCCCCCC(=O)[O-]
REMARK SMILES IDX 13 1 14 2 15 3 16 4 17 5 18 6 19 7 20 8 21 9 22 10 23 11
REMARK SMILES IDX 24 12 25 13 26 14 12 15 11 16 10 17 9 18 8 19 7 20 6 21 5 22
REMARK SMILES IDX 4 23 3 24 2 25 1 26
REMARK H PARENT
REMARK Flexibility Score: inf
ROOT
ATOM      1  C   UNL     1     190.726 197.074 193.382  1.00  0.00     0.000 C 
ENDROOT
BRANCH   1   2
ATOM      2  C   UNL     1     190.484 195.571 193.139  1.00  0.00     0.000 C 
BRANCH   2   3
ATOM      3  C   UNL     1     191.035 195.026 191.805  1.00  0.00     0.000 C 
BRANCH   3   4
ATOM      4  C   UNL     1     192.560 194.821 191.759  1.00  0.00     0.000 C 
BRANCH   4   5
ATOM      5  C   UNL     1     192.963 193.359 191.501  1.00  0.00     0.000 C 
BRANCH   5   6
ATOM      6  C   UNL     1     191.874 192.558 190.765  1.00  0.00     0.000 C 
BRANCH   6   7
ATOM      7  C   UNL     1     191.449 191.248 191.453  1.00  0.00     0.000 C 
BRANCH   7   8
ATOM      8  C   UNL     1     190.849 191.474 192.851  1.00  0.00     0.000 C 
BRANCH   8   9
ATOM      9  C   UNL     1     189.390 191.955 192.797  1.00  0.00     0.000 C 
BRANCH   9  10
ATOM     10  C   UNL     1     188.552 191.181 191.763  1.00  0.00     0.006 C 
BRANCH  10  11
ATOM     11  C   UNL     1     188.306 191.997 190.487  1.00  0.00     0.053 C 
BRANCH  11  12
ATOM     12  C   UNL     1     187.187 191.428 189.669  1.00  0.00     0.041 C 
ATOM     13  O   UNL     1     186.684 190.314 189.971  1.00  0.00    -0.550 OA
ATOM     14  O   UNL     1     186.685 192.139 188.586  1.00  0.00    -0.550 OA
ENDBRANCH  11  12
ENDBRANCH  10  11
ENDBRANCH   9  10
ENDBRANCH   8   9
ENDBRANCH   7   8
ENDBRANCH   6   7
ENDBRANCH   5   6
ENDBRANCH   4   5
ENDBRANCH   3   4
ENDBRANCH   2   3
ENDBRANCH   1   2
BRANCH   1  15
ATOM     15  C   UNL     1     189.861 197.706 194.491  1.00  0.00     0.000 C 
BRANCH  15  16
ATOM     16  C   UNL     1     189.285 196.713 195.518  1.00  0.00     0.000 C 
BRANCH  16  17
ATOM     17  C   UNL     1     187.970 197.201 196.148  1.00  0.00     0.000 C 
BRANCH  17  18
ATOM     18  C   UNL     1     186.913 196.087 196.270  1.00  0.00    -0.000 C 
BRANCH  18  19
ATOM     19  C   UNL     1     187.452 194.652 196.126  1.00  0.00    -0.000 C 
BRANCH  19  20
ATOM     20  C   UNL     1     186.594 193.777 195.201  1.00  0.00    -0.000 C 
BRANCH  20  21
ATOM     21  C   UNL     1     186.858 194.116 193.726  1.00  0.00    -0.000 C 
BRANCH  21  22
ATOM     22  C   UNL     1     185.566 194.275 192.903  1.00  0.00    -0.000 C 
BRANCH  22  23
ATOM     23  C   UNL     1     184.264 194.034 193.687  1.00  0.00    -0.000 C 
BRANCH  23  24
ATOM     24  C   UNL     1     183.430 195.311 193.871  1.00  0.00    -0.000 C 
BRANCH  24  25
ATOM     25  C   UNL     1     183.150 195.574 195.356  1.00  0.00    -0.003 C 
ATOM     26  C   UNL     1     183.100 194.271 196.147  1.00  0.00     0.004 C 
ENDBRANCH  24  25
ENDBRANCH  23  24
ENDBRANCH  22  23
ENDBRANCH  21  22
ENDBRANCH  20  21
ENDBRANCH  19  20
ENDBRANCH  18  19
ENDBRANCH  17  18
ENDBRANCH  16  17
ENDBRANCH  15  16
ENDBRANCH   1  15
TORSDOF 22
ENDMDL
MODEL 7
REMARK VINA RESULT:    -4.502      2.125      4.977
REMARK INTER + INTRA:         -14.001
REMARK INTER:                 -10.312
REMARK INTRA:                  -3.690
REMARK UNBOUND:                -3.710
REMARK SMILES CCCCCCCCCCCCCCCCCCCCCCCC(=O)[O-]
REMARK SMILES IDX 13 1 14 2 15 3 16 4 17 5 18 6 19 7 20 8 21 9 22 10 23 11
REMARK SMILES IDX 24 12 25 13 26 14 12 15 11 16 10 17 9 18 8 19 7 20 6 21 5 22
REMARK SMILES IDX 4 23 3 24 2 25 1 26
REMARK H PARENT
REMARK Flexibility Score: inf
ROOT
ATOM      1  C   UNL     1     190.783 195.435 192.992  1.00  0.00     0.000 C 
ENDROOT
BRANCH   1   2
ATOM      2  C   UNL     1     189.999 194.327 193.723  1.00  0.00     0.000 C 
BRANCH   2   3
ATOM      3  C   UNL     1     188.464 194.427 193.610  1.00  0.00     0.000 C 
BRANCH   3   4
ATOM      4  C   UNL     1     187.694 193.143 193.966  1.00  0.00     0.000 C 
BRANCH   4   5
ATOM      5  C   UNL     1     186.190 193.238 193.656  1.00  0.00     0.000 C 
BRANCH   5   6
ATOM      6  C   UNL     1     185.433 194.155 194.634  1.00  0.00     0.000 C 
BRANCH   6   7
ATOM      7  C   UNL     1     185.780 193.954 196.120  1.00  0.00     0.000 C 
BRANCH   7   8
ATOM      8  C   UNL     1     185.956 195.282 196.878  1.00  0.00     0.000 C 
BRANCH   8   9
ATOM      9  C   UNL     1     187.373 195.860 196.736  1.00  0.00     0.000 C 
BRANCH   9  10
ATOM     10  C   UNL     1     187.421 197.077 195.794  1.00  0.00     0.006 C 
BRANCH  10  11
ATOM     11  C   UNL     1     188.848 197.607 195.605  1.00  0.00     0.053 C 
BRANCH  11  12
ATOM     12  C   UNL     1     189.474 198.003 196.908  1.00  0.00     0.041 C 
ATOM     13  O   UNL     1     189.247 199.140 197.399  1.00  0.00    -0.550 OA
ATOM     14  O   UNL     1     190.289 197.107 197.590  1.00  0.00    -0.550 OA
ENDBRANCH  11  12
ENDBRANCH  10  11
ENDBRANCH   9  10
ENDBRANCH   8   9
ENDBRANCH   7   8
ENDBRANCH   6   7
ENDBRANCH   5   6
ENDBRANCH   4   5
ENDBRANCH   3   4
ENDBRANCH   2   3
ENDBRANCH   1   2
BRANCH   1  15
ATOM     15  C   UNL     1     191.085 195.152 191.506  1.00  0.00     0.000 C 
BRANCH  15  16
ATOM     16  C   UNL     1     192.566 194.885 191.179  1.00  0.00     0.000 C 
BRANCH  16  17
ATOM     17  C   UNL     1     192.966 193.414 191.377  1.00  0.00     0.000 C 
BRANCH  17  18
ATOM     18  C   UNL     1     191.959 192.429 190.753  1.00  0.00    -0.000 C 
BRANCH  18  19
ATOM     19  C   UNL     1     191.339 191.416 191.732  1.00  0.00    -0.000 C 
BRANCH  19  20
ATOM     20  C   UNL     1     189.805 191.377 191.665  1.00  0.00    -0.000 C 
BRANCH  20  21
ATOM     21  C   UNL     1     189.297 192.004 190.358  1.00  0.00    -0.000 C 
BRANCH  21  22
ATOM     22  C   UNL     1     187.779 192.257 190.362  1.00  0.00    -0.000 C 
BRANCH  22  23
ATOM     23  C   UNL     1     186.914 191.024 190.043  1.00  0.00    -0.000 C 
BRANCH  23  24
ATOM     24  C   UNL     1     186.168 190.481 191.270  1.00  0.00    -0.000 C 
BRANCH  24  25
ATOM     25  C   UNL     1     186.850 189.220 191.813  1.00  0.00    -0.003 C 
ATOM     26  C   UNL     1     186.436 188.947 193.256  1.00  0.00     0.004 C 
ENDBRANCH  24  25
ENDBRANCH  23  24
ENDBRANCH  22  23
ENDBRANCH  21  22
ENDBRANCH  20  21
ENDBRANCH  19  20
ENDBRANCH  18  19
ENDBRANCH  17  18
ENDBRANCH  16  17
ENDBRANCH  15  16
ENDBRANCH   1  15
TORSDOF 22
ENDMDL
MODEL 8
REMARK VINA RESULT:    -4.452      1.689      4.191
REMARK INTER + INTRA:         -13.887
REMARK INTER:                  -9.764
REMARK INTRA:                  -4.123
REMARK UNBOUND:                -3.710
REMARK SMILES CCCCCCCCCCCCCCCCCCCCCCCC(=O)[O-]
REMARK SMILES IDX 13 1 14 2 15 3 16 4 17 5 18 6 19 7 20 8 21 9 22 10 23 11
REMARK SMILES IDX 24 12 25 13 26 14 12 15 11 16 10 17 9 18 8 19 7 20 6 21 5 22
REMARK SMILES IDX 4 23 3 24 2 25 1 26
REMARK H PARENT
REMARK Flexibility Score: inf
ROOT
ATOM      1  C   UNL     1     189.000 193.626 194.088  1.00  0.00     0.000 C 
ENDROOT
BRANCH   1   2
ATOM      2  C   UNL     1     187.583 193.873 193.534  1.00  0.00     0.000 C 
BRANCH   2   3
ATOM      3  C   UNL     1     186.590 192.709 193.733  1.00  0.00     0.000 C 
BRANCH   3   4
ATOM      4  C   UNL     1     185.122 193.033 193.401  1.00  0.00     0.000 C 
BRANCH   4   5
ATOM      5  C   UNL     1     184.912 194.495 192.971  1.00  0.00     0.000 C 
BRANCH   5   6
ATOM      6  C   UNL     1     183.787 195.195 193.755  1.00  0.00     0.000 C 
BRANCH   6   7
ATOM      7  C   UNL     1     184.081 195.433 195.247  1.00  0.00     0.000 C 
BRANCH   7   8
ATOM      8  C   UNL     1     185.460 196.071 195.490  1.00  0.00     0.000 C 
BRANCH   8   9
ATOM      9  C   UNL     1     186.206 195.434 196.674  1.00  0.00     0.000 C 
BRANCH   9  10
ATOM     10  C   UNL     1     187.684 195.859 196.737  1.00  0.00     0.006 C 
BRANCH  10  11
ATOM     11  C   UNL     1     188.029 196.916 195.680  1.00  0.00     0.053 C 
BRANCH  11  12
ATOM     12  C   UNL     1     189.468 197.328 195.752  1.00  0.00     0.041 C 
ATOM     13  O   UNL     1     190.036 197.452 196.869  1.00  0.00    -0.550 OA
ATOM     14  O   UNL     1     190.188 197.550 194.584  1.00  0.00    -0.550 OA
ENDBRANCH  11  12
ENDBRANCH  10  11
ENDBRANCH   9  10
ENDBRANCH   8   9
ENDBRANCH   7   8
ENDBRANCH   6   7
ENDBRANCH   5   6
ENDBRANCH   4   5
ENDBRANCH   3   4
ENDBRANCH   2   3
ENDBRANCH   1   2
BRANCH   1  15
ATOM     15  C   UNL     1     190.137 194.326 193.315  1.00  0.00     0.000 C 
BRANCH  15  16
ATOM     16  C   UNL     1     190.791 193.483 192.205  1.00  0.00     0.000 C 
BRANCH  16  17
ATOM     17  C   UNL     1     190.452 191.987 192.312  1.00  0.00     0.000 C 
BRANCH  17  18
ATOM     18  C   UNL     1     189.515 191.502 191.189  1.00  0.00    -0.000 C 
BRANCH  18  19
ATOM     19  C   UNL     1     188.884 192.616 190.334  1.00  0.00    -0.000 C 
BRANCH  19  20
ATOM     20  C   UNL     1     187.373 192.432 190.129  1.00  0.00    -0.000 C 
BRANCH  20  21
ATOM     21  C   UNL     1     187.032 190.961 189.849  1.00  0.00    -0.000 C 
BRANCH  21  22
ATOM     22  C   UNL     1     185.909 190.419 190.752  1.00  0.00    -0.000 C 
BRANCH  22  23
ATOM     23  C   UNL     1     185.650 188.907 190.630  1.00  0.00    -0.000 C 
BRANCH  23  24
ATOM     24  C   UNL     1     186.271 188.098 191.779  1.00  0.00    -0.000 C 
BRANCH  24  25
ATOM     25  C   UNL     1     186.724 189.019 192.917  1.00  0.00    -0.003 C 
ATOM     26  C   UNL     1     188.176 188.749 193.301  1.00  0.00     0.004 C 
ENDBRANCH  24  25
ENDBRANCH  23  24
ENDBRANCH  22  23
ENDBRANCH  21  22
ENDBRANCH  20  21
ENDBRANCH  19  20
ENDBRANCH  18  19
ENDBRANCH  17  18
ENDBRANCH  16  17
ENDBRANCH  15  16
ENDBRANCH   1  15
TORSDOF 22
ENDMDL
MODEL 9
REMARK VINA RESULT:    -4.435      3.486      7.316
REMARK INTER + INTRA:         -13.848
REMARK INTER:                  -9.767
REMARK INTRA:                  -4.081
REMARK UNBOUND:                -3.710
REMARK SMILES CCCCCCCCCCCCCCCCCCCCCCCC(=O)[O-]
REMARK SMILES IDX 13 1 14 2 15 3 16 4 17 5 18 6 19 7 20 8 21 9 22 10 23 11
REMARK SMILES IDX 24 12 25 13 26 14 12 15 11 16 10 17 9 18 8 19 7 20 6 21 5 22
REMARK SMILES IDX 4 23 3 24 2 25 1 26
REMARK H PARENT
REMARK Flexibility Score: inf
ROOT
ATOM      1  C   UNL     1     189.256 193.799 194.023  1.00  0.00     0.000 C 
ENDROOT
BRANCH   1   2
ATOM      2  C   UNL     1     190.411 194.525 193.307  1.00  0.00     0.000 C 
BRANCH   2   3
ATOM      3  C   UNL     1     190.591 194.160 191.819  1.00  0.00     0.000 C 
BRANCH   3   4
ATOM      4  C   UNL     1     191.208 192.775 191.551  1.00  0.00     0.000 C 
BRANCH   4   5
ATOM      5  C   UNL     1     190.170 191.731 191.105  1.00  0.00     0.000 C 
BRANCH   5   6
ATOM      6  C   UNL     1     189.096 192.314 190.170  1.00  0.00     0.000 C 
BRANCH   6   7
ATOM      7  C   UNL     1     187.642 192.035 190.591  1.00  0.00     0.000 C 
BRANCH   7   8
ATOM      8  C   UNL     1     187.261 190.548 190.474  1.00  0.00     0.000 C 
BRANCH   8   9
ATOM      9  C   UNL     1     185.863 190.250 191.039  1.00  0.00     0.000 C 
BRANCH   9  10
ATOM     10  C   UNL     1     185.902 189.849 192.525  1.00  0.00     0.006 C 
BRANCH  10  11
ATOM     11  C   UNL     1     187.308 189.437 192.978  1.00  0.00     0.053 C 
BRANCH  11  12
ATOM     12  C   UNL     1     187.401 187.964 193.239  1.00  0.00     0.041 C 
ATOM     13  O   UNL     1     187.149 187.506 194.384  1.00  0.00    -0.550 OA
ATOM     14  O   UNL     1     187.744 187.095 192.210  1.00  0.00    -0.550 OA
ENDBRANCH  11  12
ENDBRANCH  10  11
ENDBRANCH   9  10
ENDBRANCH   8   9
ENDBRANCH   7   8
ENDBRANCH   6   7
ENDBRANCH   5   6
ENDBRANCH   4   5
ENDBRANCH   3   4
ENDBRANCH   2   3
ENDBRANCH   1   2
BRANCH   1  15
ATOM     15  C   UNL     1     187.854 194.057 193.435  1.00  0.00     0.000 C 
BRANCH  15  16
ATOM     16  C   UNL     1     186.736 193.153 193.985  1.00  0.00     0.000 C 
BRANCH  16  17
ATOM     17  C   UNL     1     185.387 193.376 193.282  1.00  0.00     0.000 C 
BRANCH  17  18
ATOM     18  C   UNL     1     184.912 194.840 193.345  1.00  0.00    -0.000 C 
BRANCH  18  19
ATOM     19  C   UNL     1     183.493 195.047 193.906  1.00  0.00    -0.000 C 
BRANCH  19  20
ATOM     20  C   UNL     1     183.487 195.486 195.378  1.00  0.00    -0.000 C 
BRANCH  20  21
ATOM     21  C   UNL     1     183.581 194.270 196.312  1.00  0.00    -0.000 C 
BRANCH  21  22
ATOM     22  C   UNL     1     184.918 194.195 197.071  1.00  0.00    -0.000 C 
BRANCH  22  23
ATOM     23  C   UNL     1     185.787 195.462 196.981  1.00  0.00    -0.000 C 
BRANCH  23  24
ATOM     24  C   UNL     1     187.291 195.154 196.930  1.00  0.00    -0.000 C 
BRANCH  24  25
ATOM     25  C   UNL     1     188.088 196.382 196.472  1.00  0.00    -0.003 C 
ATOM     26  C   UNL     1     187.345 197.144 195.378  1.00  0.00     0.004 C 
ENDBRANCH  24  25
ENDBRANCH  23  24
ENDBRANCH  22  23
ENDBRANCH  21  22
ENDBRANCH  20  21
ENDBRANCH  19  20
ENDBRANCH  18  19
ENDBRANCH  17  18
ENDBRANCH  16  17
ENDBRANCH  15  16
ENDBRANCH   1  15
TORSDOF 22
ENDMDL
