MODEL 1
REMARK VINA RESULT:    -4.226      0.000      0.000
REMARK INTER + INTRA:          -6.195
REMARK INTER:                  -5.955
REMARK INTRA:                  -0.240
REMARK UNBOUND:                -0.240
REMARK SMILES CCCCCCCCC(=O)[O-]
REMARK SMILES IDX 6 1 7 2 8 3 9 4 10 5 11 6 5 7 4 8 3 9 2 10 1 11
REMARK H PARENT
REMARK Flexibility Score: inf
ROOT
ATOM      1  C   UNL     1      -9.107   2.971 -35.742  1.00  0.00     0.000 C 
ENDROOT
BRANCH   1   2
ATOM      2  C   UNL     1     -10.217   1.970 -35.384  1.00  0.00     0.006 C 
BRANCH   2   3
ATOM      3  C   UNL     1     -11.151   1.673 -36.565  1.00  0.00     0.053 C 
BRANCH   3   4
ATOM      4  C   UNL     1     -12.563   2.024 -36.214  1.00  0.00     0.041 C 
ATOM      5  O   UNL     1     -13.008   1.781 -35.062  1.00  0.00    -0.550 OA
ATOM      6  O   UNL     1     -13.402   2.575 -37.175  1.00  0.00    -0.550 OA
ENDBRANCH   3   4
ENDBRANCH   2   3
ENDBRANCH   1   2
BRANCH   1   7
ATOM      7  C   UNL     1      -8.076   3.137 -34.613  1.00  0.00     0.000 C 
BRANCH   7   8
ATOM      8  C   UNL     1      -6.957   4.133 -34.968  1.00  0.00    -0.000 C 
BRANCH   8   9
ATOM      9  C   UNL     1      -7.196   5.584 -34.500  1.00  0.00    -0.000 C 
BRANCH   9  10
ATOM     10  C   UNL     1      -7.821   5.721 -33.101  1.00  0.00    -0.003 C 
ATOM     11  C   UNL     1      -7.001   6.610 -32.167  1.00  0.00     0.004 C 
ENDBRANCH   9  10
ENDBRANCH   8   9
ENDBRANCH   7   8
ENDBRANCH   1   7
TORSDOF 7
ENDMDL
MODEL 2
REMARK VINA RESULT:    -4.172      4.689      5.433
REMARK INTER + INTRA:          -6.119
REMARK INTER:                  -5.646
REMARK INTRA:                  -0.473
REMARK UNBOUND:                -0.240
REMARK SMILES CCCCCCCCC(=O)[O-]
REMARK SMILES IDX 6 1 7 2 8 3 9 4 10 5 11 6 5 7 4 8 3 9 2 10 1 11
REMARK H PARENT
REMARK Flexibility Score: inf
ROOT
ATOM      1  C   UNL     1      -6.871   3.272 -34.991  1.00  0.00     0.000 C 
ENDROOT
BRANCH   1   2
ATOM      2  C   UNL     1      -6.454   4.100 -36.217  1.00  0.00     0.006 C 
BRANCH   2   3
ATOM      3  C   UNL     1      -6.043   3.226 -37.409  1.00  0.00     0.053 C 
BRANCH   3   4
ATOM      4  C   UNL     1      -4.567   3.313 -37.635  1.00  0.00     0.041 C 
ATOM      5  O   UNL     1      -4.032   4.420 -37.905  1.00  0.00    -0.550 OA
ATOM      6  O   UNL     1      -3.789   2.163 -37.598  1.00  0.00    -0.550 OA
ENDBRANCH   3   4
ENDBRANCH   2   3
ENDBRANCH   1   2
BRANCH   1   7
ATOM      7  C   UNL     1      -8.179   3.773 -34.357  1.00  0.00     0.000 C 
BRANCH   7   8
ATOM      8  C   UNL     1      -8.170   5.289 -34.087  1.00  0.00    -0.000 C 
BRANCH   8   9
ATOM      9  C   UNL     1      -7.847   5.696 -32.635  1.00  0.00    -0.000 C 
BRANCH   9  10
ATOM     10  C   UNL     1      -6.752   6.767 -32.488  1.00  0.00    -0.003 C 
ATOM     11  C   UNL     1      -5.977   7.007 -33.783  1.00  0.00     0.004 C 
ENDBRANCH   9  10
ENDBRANCH   8   9
ENDBRANCH   7   8
ENDBRANCH   1   7
TORSDOF 7
ENDMDL
MODEL 3
REMARK VINA RESULT:    -4.096      4.470      6.292
REMARK INTER + INTRA:          -6.012
REMARK INTER:                  -5.767
REMARK INTRA:                  -0.245
REMARK UNBOUND:                -0.240
REMARK SMILES CCCCCCCCC(=O)[O-]
REMARK SMILES IDX 6 1 7 2 8 3 9 4 10 5 11 6 5 7 4 8 3 9 2 10 1 11
REMARK H PARENT
REMARK Flexibility Score: inf
ROOT
ATOM      1  C   UNL     1      -8.074   3.701 -34.519  1.00  0.00     0.000 C 
ENDROOT
BRANCH   1   2
ATOM      2  C   UNL     1      -8.406   5.143 -34.105  1.00  0.00     0.006 C 
BRANCH   2   3
ATOM      3  C   UNL     1      -7.804   5.523 -32.746  1.00  0.00     0.053 C 
BRANCH   3   4
ATOM      4  C   UNL     1      -6.843   6.660 -32.900  1.00  0.00     0.041 C 
ATOM      5  O   UNL     1      -5.945   6.614 -33.782  1.00  0.00    -0.550 OA
ATOM      6  O   UNL     1      -6.908   7.747 -32.038  1.00  0.00    -0.550 OA
ENDBRANCH   3   4
ENDBRANCH   2   3
ENDBRANCH   1   2
BRANCH   1   7
ATOM      7  C   UNL     1      -7.625   3.597 -35.987  1.00  0.00     0.000 C 
BRANCH   7   8
ATOM      8  C   UNL     1      -6.093   3.608 -36.145  1.00  0.00    -0.000 C 
BRANCH   8   9
ATOM      9  C   UNL     1      -5.560   2.924 -37.421  1.00  0.00    -0.000 C 
BRANCH   9  10
ATOM     10  C   UNL     1      -4.036   2.718 -37.461  1.00  0.00    -0.003 C 
ATOM     11  C   UNL     1      -3.596   1.731 -38.541  1.00  0.00     0.004 C 
ENDBRANCH   9  10
ENDBRANCH   8   9
ENDBRANCH   7   8
ENDBRANCH   1   7
TORSDOF 7
ENDMDL
MODEL 4
REMARK VINA RESULT:    -4.070      5.185      6.897
REMARK INTER + INTRA:          -5.976
REMARK INTER:                  -5.470
REMARK INTRA:                  -0.506
REMARK UNBOUND:                -0.240
REMARK SMILES CCCCCCCCC(=O)[O-]
REMARK SMILES IDX 6 1 7 2 8 3 9 4 10 5 11 6 5 7 4 8 3 9 2 10 1 11
REMARK H PARENT
REMARK Flexibility Score: inf
ROOT
ATOM      1  C   UNL     1      -7.727   5.808 -32.533  1.00  0.00     0.000 C 
ENDROOT
BRANCH   1   2
ATOM      2  C   UNL     1      -6.602   6.850 -32.644  1.00  0.00     0.006 C 
BRANCH   2   3
ATOM      3  C   UNL     1      -6.061   6.987 -34.073  1.00  0.00     0.053 C 
BRANCH   3   4
ATOM      4  C   UNL     1      -5.189   8.197 -34.187  1.00  0.00     0.041 C 
ATOM      5  O   UNL     1      -3.997   8.085 -34.578  1.00  0.00    -0.550 OA
ATOM      6  O   UNL     1      -5.677   9.444 -33.815  1.00  0.00    -0.550 OA
ENDBRANCH   3   4
ENDBRANCH   2   3
ENDBRANCH   1   2
BRANCH   1   7
ATOM      7  C   UNL     1      -8.140   5.238 -33.901  1.00  0.00     0.000 C 
BRANCH   7   8
ATOM      8  C   UNL     1      -8.012   3.705 -33.972  1.00  0.00    -0.000 C 
BRANCH   8   9
ATOM      9  C   UNL     1      -6.957   3.179 -34.967  1.00  0.00    -0.000 C 
BRANCH   9  10
ATOM     10  C   UNL     1      -6.729   4.066 -36.203  1.00  0.00    -0.003 C 
ATOM     11  C   UNL     1      -7.684   3.743 -37.352  1.00  0.00     0.004 C 
ENDBRANCH   9  10
ENDBRANCH   8   9
ENDBRANCH   7   8
ENDBRANCH   1   7
TORSDOF 7
ENDMDL
MODEL 5
REMARK VINA RESULT:    -4.022     12.753     14.152
REMARK INTER + INTRA:          -5.907
REMARK INTER:                  -5.736
REMARK INTRA:                  -0.171
REMARK UNBOUND:                -0.240
REMARK SMILES CCCCCCCCC(=O)[O-]
REMARK SMILES IDX 6 1 7 2 8 3 9 4 10 5 11 6 5 7 4 8 3 9 2 10 1 11
REMARK H PARENT
REMARK Flexibility Score: inf
ROOT
ATOM      1  C   UNL     1     -13.577   2.665 -21.706  1.00  0.00     0.000 C 
ENDROOT
BRANCH   1   2
ATOM      2  C   UNL     1     -12.321   1.810 -21.938  1.00  0.00     0.006 C 
BRANCH   2   3
ATOM      3  C   UNL     1     -11.426   1.724 -20.694  1.00  0.00     0.053 C 
BRANCH   3   4
ATOM      4  C   UNL     1     -10.003   2.017 -21.054  1.00  0.00     0.041 C 
ATOM      5  O   UNL     1      -9.260   2.633 -20.246  1.00  0.00    -0.550 OA
ATOM      6  O   UNL     1      -9.513   1.655 -22.303  1.00  0.00    -0.550 OA
ENDBRANCH   3   4
ENDBRANCH   2   3
ENDBRANCH   1   2
BRANCH   1   7
ATOM      7  C   UNL     1     -14.356   2.934 -23.005  1.00  0.00     0.000 C 
BRANCH   7   8
ATOM      8  C   UNL     1     -14.900   4.371 -23.089  1.00  0.00    -0.000 C 
BRANCH   8   9
ATOM      9  C   UNL     1     -14.814   5.026 -24.483  1.00  0.00    -0.000 C 
BRANCH   9  10
ATOM     10  C   UNL     1     -15.864   6.117 -24.755  1.00  0.00    -0.003 C 
ATOM     11  C   UNL     1     -16.728   6.430 -23.534  1.00  0.00     0.004 C 
ENDBRANCH   9  10
ENDBRANCH   8   9
ENDBRANCH   7   8
ENDBRANCH   1   7
TORSDOF 7
ENDMDL
MODEL 6
REMARK VINA RESULT:    -4.011      4.359      6.167
REMARK INTER + INTRA:          -5.892
REMARK INTER:                  -5.625
REMARK INTRA:                  -0.267
REMARK UNBOUND:                -0.240
REMARK SMILES CCCCCCCCC(=O)[O-]
REMARK SMILES IDX 6 1 7 2 8 3 9 4 10 5 11 6 5 7 4 8 3 9 2 10 1 11
REMARK H PARENT
REMARK Flexibility Score: inf
ROOT
ATOM      1  C   UNL     1      -5.743   6.942 -33.827  1.00  0.00     0.000 C 
ENDROOT
BRANCH   1   2
ATOM      2  C   UNL     1      -6.852   7.202 -32.795  1.00  0.00     0.006 C 
BRANCH   2   3
ATOM      3  C   UNL     1      -7.535   5.913 -32.321  1.00  0.00     0.053 C 
BRANCH   3   4
ATOM      4  C   UNL     1      -8.107   5.167 -33.486  1.00  0.00     0.041 C 
ATOM      5  O   UNL     1      -7.657   4.032 -33.793  1.00  0.00    -0.550 OA
ATOM      6  O   UNL     1      -9.102   5.748 -34.263  1.00  0.00    -0.550 OA
ENDBRANCH   3   4
ENDBRANCH   2   3
ENDBRANCH   1   2
BRANCH   1   7
ATOM      7  C   UNL     1      -5.263   8.231 -34.515  1.00  0.00     0.000 C 
BRANCH   7   8
ATOM      8  C   UNL     1      -3.855   8.096 -35.123  1.00  0.00    -0.000 C 
BRANCH   8   9
ATOM      9  C   UNL     1      -2.732   8.812 -34.345  1.00  0.00    -0.000 C 
BRANCH   9  10
ATOM     10  C   UNL     1      -1.470   7.967 -34.098  1.00  0.00    -0.003 C 
ATOM     11  C   UNL     1      -0.929   7.319 -35.373  1.00  0.00     0.004 C 
ENDBRANCH   9  10
ENDBRANCH   8   9
ENDBRANCH   7   8
ENDBRANCH   1   7
TORSDOF 7
ENDMDL
MODEL 7
REMARK VINA RESULT:    -3.998     13.707     14.893
REMARK INTER + INTRA:          -5.874
REMARK INTER:                  -5.641
REMARK INTRA:                  -0.233
REMARK UNBOUND:                -0.240
REMARK SMILES CCCCCCCCC(=O)[O-]
REMARK SMILES IDX 6 1 7 2 8 3 9 4 10 5 11 6 5 7 4 8 3 9 2 10 1 11
REMARK H PARENT
REMARK Flexibility Score: inf
ROOT
ATOM      1  C   UNL     1     -11.641   1.745 -20.746  1.00  0.00     0.000 C 
ENDROOT
BRANCH   1   2
ATOM      2  C   UNL     1     -10.214   2.093 -21.199  1.00  0.00     0.006 C 
BRANCH   2   3
ATOM      3  C   UNL     1      -9.242   2.258 -20.023  1.00  0.00     0.053 C 
BRANCH   3   4
ATOM      4  C   UNL     1      -8.164   1.222 -20.087  1.00  0.00     0.041 C 
ATOM      5  O   UNL     1      -8.463  -0.000 -20.137  1.00  0.00    -0.550 OA
ATOM      6  O   UNL     1      -6.829   1.604 -20.041  1.00  0.00    -0.550 OA
ENDBRANCH   3   4
ENDBRANCH   2   3
ENDBRANCH   1   2
BRANCH   1   7
ATOM      7  C   UNL     1     -12.630   1.666 -21.922  1.00  0.00     0.000 C 
BRANCH   7   8
ATOM      8  C   UNL     1     -13.731   2.739 -21.849  1.00  0.00    -0.000 C 
BRANCH   8   9
ATOM      9  C   UNL     1     -14.536   2.943 -23.150  1.00  0.00    -0.000 C 
BRANCH   9  10
ATOM     10  C   UNL     1     -14.859   4.408 -23.491  1.00  0.00    -0.003 C 
ATOM     11  C   UNL     1     -13.695   5.357 -23.207  1.00  0.00     0.004 C 
ENDBRANCH   9  10
ENDBRANCH   8   9
ENDBRANCH   7   8
ENDBRANCH   1   7
TORSDOF 7
ENDMDL
MODEL 8
REMARK VINA RESULT:    -3.931     13.573     14.781
REMARK INTER + INTRA:          -5.779
REMARK INTER:                  -5.254
REMARK INTRA:                  -0.525
REMARK UNBOUND:                -0.240
REMARK SMILES CCCCCCCCC(=O)[O-]
REMARK SMILES IDX 6 1 7 2 8 3 9 4 10 5 11 6 5 7 4 8 3 9 2 10 1 11
REMARK H PARENT
REMARK Flexibility Score: inf
ROOT
ATOM      1  C   UNL     1     -15.932   6.473 -24.443  1.00  0.00     0.000 C 
ENDROOT
BRANCH   1   2
ATOM      2  C   UNL     1     -16.703   6.321 -23.122  1.00  0.00     0.006 C 
BRANCH   2   3
ATOM      3  C   UNL     1     -17.590   7.534 -22.811  1.00  0.00     0.053 C 
BRANCH   3   4
ATOM      4  C   UNL     1     -18.030   7.507 -21.382  1.00  0.00     0.041 C 
ATOM      5  O   UNL     1     -18.779   8.414 -20.932  1.00  0.00    -0.550 OA
ATOM      6  O   UNL     1     -17.572   6.508 -20.532  1.00  0.00    -0.550 OA
ENDBRANCH   3   4
ENDBRANCH   2   3
ENDBRANCH   1   2
BRANCH   1   7
ATOM      7  C   UNL     1     -14.812   5.429 -24.595  1.00  0.00     0.000 C 
BRANCH   7   8
ATOM      8  C   UNL     1     -13.797   5.468 -23.438  1.00  0.00    -0.000 C 
BRANCH   8   9
ATOM      9  C   UNL     1     -13.688   4.169 -22.615  1.00  0.00    -0.000 C 
BRANCH   9  10
ATOM     10  C   UNL     1     -14.753   3.105 -22.935  1.00  0.00    -0.003 C 
ATOM     11  C   UNL     1     -15.811   2.972 -21.840  1.00  0.00     0.004 C 
ENDBRANCH   9  10
ENDBRANCH   8   9
ENDBRANCH   7   8
ENDBRANCH   1   7
TORSDOF 7
ENDMDL
MODEL 9
REMARK VINA RESULT:    -3.918     13.123     14.425
REMARK INTER + INTRA:          -5.761
REMARK INTER:                  -5.069
REMARK INTRA:                  -0.691
REMARK UNBOUND:                -0.240
REMARK SMILES CCCCCCCCC(=O)[O-]
REMARK SMILES IDX 6 1 7 2 8 3 9 4 10 5 11 6 5 7 4 8 3 9 2 10 1 11
REMARK H PARENT
REMARK Flexibility Score: inf
ROOT
ATOM      1  C   UNL     1     -15.716   3.378 -21.803  1.00  0.00     0.000 C 
ENDROOT
BRANCH   1   2
ATOM      2  C   UNL     1     -14.708   2.549 -22.615  1.00  0.00     0.006 C 
BRANCH   2   3
ATOM      3  C   UNL     1     -13.251   2.865 -22.251  1.00  0.00     0.053 C 
BRANCH   3   4
ATOM      4  C   UNL     1     -12.688   1.792 -21.373  1.00  0.00     0.041 C 
ATOM      5  O   UNL     1     -12.242   0.729 -21.880  1.00  0.00    -0.550 OA
ATOM      6  O   UNL     1     -12.701   1.944 -19.993  1.00  0.00    -0.550 OA
ENDBRANCH   3   4
ENDBRANCH   2   3
ENDBRANCH   1   2
BRANCH   1   7
ATOM      7  C   UNL     1     -15.123   4.711 -21.312  1.00  0.00     0.000 C 
BRANCH   7   8
ATOM      8  C   UNL     1     -15.963   5.930 -21.735  1.00  0.00    -0.000 C 
BRANCH   8   9
ATOM      9  C   UNL     1     -16.628   5.820 -23.123  1.00  0.00    -0.000 C 
BRANCH   9  10
ATOM     10  C   UNL     1     -15.830   6.448 -24.278  1.00  0.00    -0.003 C 
ATOM     11  C   UNL     1     -14.774   5.506 -24.855  1.00  0.00     0.004 C 
ENDBRANCH   9  10
ENDBRANCH   8   9
ENDBRANCH   7   8
ENDBRANCH   1   7
TORSDOF 7
ENDMDL
