MODEL 1
REMARK VINA RESULT:    -6.467      0.000      0.000
REMARK INTER + INTRA:         -11.421
REMARK INTER:                  -9.491
REMARK INTRA:                  -1.930
REMARK UNBOUND:                -1.930
REMARK SMILES O=c1c(O[C@H]2O[C@@H](CO)[C@H](O)[C@@H](O)[C@H]2O)c(-c2ccc(O)c(O)c2)oc2cc(O)cc(O)c12
REMARK SMILES IDX 4 1 3 2 16 3 25 4 2 5 26 6 1 7 33 8 27 9 31 10 28 11 30 12
REMARK SMILES IDX 17 13 18 14 19 15 20 16 24 17 22 18 21 19 23 21 32 23 29 25
REMARK SMILES IDX 5 27 14 28 6 29 12 30 7 31 10 32 15 33 13 35 8 37 9 38 11 40
REMARK H PARENT 21 20 23 22 32 24 29 26 15 34 13 36 9 39 11 41
REMARK Flexibility Score: inf
ROOT
ATOM      1  O   UNL     1     142.153 134.924 150.164  1.00  0.00    -0.454 OA
ENDROOT
BRANCH   1   2
ATOM      2  C   UNL     1     141.710 134.581 151.458  1.00  0.00     0.214 A 
ATOM      3  C   UNL     1     141.519 133.221 151.776  1.00  0.00     0.180 A 
ATOM      4  O   UNL     1     141.059 132.870 152.971  1.00  0.00    -0.452 OA
ATOM      5  C   UNL     1     141.421 135.544 152.449  1.00  0.00     0.239 A 
ATOM      6  C   UNL     1     140.770 133.743 153.927  1.00  0.00     0.146 A 
ATOM      7  O   UNL     1     141.607 136.766 152.215  1.00  0.00    -0.285 OA
ATOM      8  C   UNL     1     140.937 135.129 153.708  1.00  0.00     0.111 A 
ATOM      9  C   UNL     1     140.294 133.273 155.155  1.00  0.00     0.094 A 
ATOM     10  C   UNL     1     140.614 136.033 154.751  1.00  0.00     0.134 A 
ATOM     11  C   UNL     1     139.973 134.171 156.179  1.00  0.00     0.123 A 
ATOM     12  C   UNL     1     140.135 135.542 155.975  1.00  0.00     0.093 A 
BRANCH   3  13
ATOM     13  C   UNL     1     141.773 132.146 150.794  1.00  0.00     0.025 A 
ATOM     14  C   UNL     1     140.708 131.636 150.036  1.00  0.00     0.016 A 
ATOM     15  C   UNL     1     140.927 130.608 149.116  1.00  0.00     0.051 A 
ATOM     16  C   UNL     1     142.211 130.072 148.947  1.00  0.00     0.157 A 
ATOM     17  C   UNL     1     143.051 131.586 150.647  1.00  0.00     0.062 A 
ATOM     18  C   UNL     1     143.275 130.561 149.716  1.00  0.00     0.158 A 
BRANCH  16  19
ATOM     19  O   UNL     1     142.434 129.051 148.026  1.00  0.00    -0.504 OA
ATOM     20  H   UNL     1     142.517 129.244 147.034  1.00  0.00     0.293 HD
ENDBRANCH  16  19
BRANCH  18  21
ATOM     21  O   UNL     1     144.551 130.024 149.552  1.00  0.00    -0.504 OA
ATOM     22  H   UNL     1     145.234 130.046 150.300  1.00  0.00     0.293 HD
ENDBRANCH  18  21
ENDBRANCH   3  13
BRANCH  10  23
ATOM     23  O   UNL     1     140.759 137.409 154.582  1.00  0.00    -0.507 OA
ATOM     24  H   UNL     1     139.959 138.029 154.540  1.00  0.00     0.293 HD
ENDBRANCH  10  23
BRANCH  11  25
ATOM     25  O   UNL     1     139.488 133.711 157.402  1.00  0.00    -0.508 OA
ATOM     26  H   UNL     1     138.936 134.303 158.011  1.00  0.00     0.293 HD
ENDBRANCH  11  25
ENDBRANCH   1   2
BRANCH   1  27
ATOM     27  C   UNL     1     143.517 135.147 149.792  1.00  0.00     0.339 C 
ATOM     28  C   UNL     1     143.746 136.588 149.300  1.00  0.00     0.214 C 
ATOM     29  O   UNL     1     143.986 134.182 148.864  1.00  0.00    -0.332 OA
ATOM     30  C   UNL     1     143.147 136.834 147.898  1.00  0.00     0.180 C 
ATOM     31  C   UNL     1     143.423 134.284 147.563  1.00  0.00     0.179 C 
ATOM     32  C   UNL     1     143.523 135.698 146.927  1.00  0.00     0.177 C 
BRANCH  28  33
ATOM     33  O   UNL     1     143.224 137.515 150.218  1.00  0.00    -0.384 OA
ATOM     34  H   UNL     1     143.983 137.819 150.780  1.00  0.00     0.211 HD
ENDBRANCH  28  33
BRANCH  30  35
ATOM     35  O   UNL     1     141.758 137.069 147.886  1.00  0.00    -0.387 OA
ATOM     36  H   UNL     1     141.441 137.256 148.804  1.00  0.00     0.211 HD
ENDBRANCH  30  35
BRANCH  31  37
ATOM     37  C   UNL     1     142.052 133.581 147.443  1.00  0.00     0.191 C 
BRANCH  37  38
ATOM     38  O   UNL     1     140.985 134.474 147.587  1.00  0.00    -0.394 OA
ATOM     39  H   UNL     1     140.918 134.964 146.725  1.00  0.00     0.210 HD
ENDBRANCH  37  38
ENDBRANCH  31  37
BRANCH  32  40
ATOM     40  O   UNL     1     144.844 135.888 146.485  1.00  0.00    -0.387 OA
ATOM     41  H   UNL     1     144.806 136.475 145.685  1.00  0.00     0.211 HD
ENDBRANCH  32  40
ENDBRANCH   1  27
TORSDOF 12
ENDMDL
MODEL 2
REMARK VINA RESULT:    -6.354      4.060      8.779
REMARK INTER + INTRA:         -11.255
REMARK INTER:                  -9.417
REMARK INTRA:                  -1.838
REMARK UNBOUND:                -1.930
REMARK SMILES O=c1c(O[C@H]2O[C@@H](CO)[C@H](O)[C@@H](O)[C@H]2O)c(-c2ccc(O)c(O)c2)oc2cc(O)cc(O)c12
REMARK SMILES IDX 4 1 3 2 16 3 25 4 2 5 26 6 1 7 33 8 27 9 31 10 28 11 30 12
REMARK SMILES IDX 17 13 18 14 19 15 20 16 24 17 22 18 21 19 23 21 32 23 29 25
REMARK SMILES IDX 5 27 14 28 6 29 12 30 7 31 10 32 15 33 13 35 8 37 9 38 11 40
REMARK H PARENT 21 20 23 22 32 24 29 26 15 34 13 36 9 39 11 41
REMARK Flexibility Score: inf
ROOT
ATOM      1  O   UNL     1     139.433 131.220 156.162  1.00  0.00    -0.454 OA
ENDROOT
BRANCH   1   2
ATOM      2  C   UNL     1     139.312 130.361 155.051  1.00  0.00     0.214 A 
ATOM      3  C   UNL     1     139.668 130.843 153.775  1.00  0.00     0.180 A 
ATOM      4  O   UNL     1     139.521 130.073 152.703  1.00  0.00    -0.452 OA
ATOM      5  C   UNL     1     138.823 129.041 155.152  1.00  0.00     0.239 A 
ATOM      6  C   UNL     1     139.060 128.830 152.754  1.00  0.00     0.146 A 
ATOM      7  O   UNL     1     138.523 128.563 156.277  1.00  0.00    -0.285 OA
ATOM      8  C   UNL     1     138.686 128.254 153.988  1.00  0.00     0.111 A 
ATOM      9  C   UNL     1     138.947 128.098 151.568  1.00  0.00     0.094 A 
ATOM     10  C   UNL     1     138.194 126.925 154.005  1.00  0.00     0.134 A 
ATOM     11  C   UNL     1     138.457 126.788 151.591  1.00  0.00     0.123 A 
ATOM     12  C   UNL     1     138.084 126.208 152.804  1.00  0.00     0.093 A 
BRANCH   3  13
ATOM     13  C   UNL     1     140.166 132.219 153.570  1.00  0.00     0.025 A 
ATOM     14  C   UNL     1     139.268 133.233 153.205  1.00  0.00     0.016 A 
ATOM     15  C   UNL     1     139.725 134.536 152.990  1.00  0.00     0.051 A 
ATOM     16  C   UNL     1     141.085 134.839 153.131  1.00  0.00     0.157 A 
ATOM     17  C   UNL     1     141.532 132.519 153.679  1.00  0.00     0.062 A 
ATOM     18  C   UNL     1     141.992 133.829 153.474  1.00  0.00     0.158 A 
BRANCH  16  19
ATOM     19  O   UNL     1     141.543 136.138 152.924  1.00  0.00    -0.504 OA
ATOM     20  H   UNL     1     141.836 136.724 153.698  1.00  0.00     0.293 HD
ENDBRANCH  16  19
BRANCH  18  21
ATOM     21  O   UNL     1     143.346 134.129 153.608  1.00  0.00    -0.504 OA
ATOM     22  H   UNL     1     143.682 134.743 154.340  1.00  0.00     0.293 HD
ENDBRANCH  18  21
ENDBRANCH   3  13
BRANCH  10  23
ATOM     23  O   UNL     1     137.808 126.315 155.198  1.00  0.00    -0.507 OA
ATOM     24  H   UNL     1     138.104 125.375 155.436  1.00  0.00     0.293 HD
ENDBRANCH  10  23
BRANCH  11  25
ATOM     25  O   UNL     1     138.330 126.056 150.412  1.00  0.00    -0.508 OA
ATOM     26  H   UNL     1     139.130 125.845 149.828  1.00  0.00     0.293 HD
ENDBRANCH  11  25
ENDBRANCH   1   2
BRANCH   1  27
ATOM     27  C   UNL     1     140.516 131.210 157.098  1.00  0.00     0.339 C 
ATOM     28  C   UNL     1     140.034 130.898 158.527  1.00  0.00     0.214 C 
ATOM     29  O   UNL     1     141.288 132.400 157.039  1.00  0.00    -0.332 OA
ATOM     30  C   UNL     1     139.274 132.082 159.163  1.00  0.00     0.180 C 
ATOM     31  C   UNL     1     140.632 133.560 157.532  1.00  0.00     0.179 C 
ATOM     32  C   UNL     1     140.035 133.406 158.958  1.00  0.00     0.177 C 
BRANCH  28  33
ATOM     33  O   UNL     1     139.232 129.745 158.539  1.00  0.00    -0.384 OA
ATOM     34  H   UNL     1     138.333 130.026 158.851  1.00  0.00     0.211 HD
ENDBRANCH  28  33
BRANCH  30  35
ATOM     35  O   UNL     1     137.930 132.203 158.756  1.00  0.00    -0.387 OA
ATOM     36  H   UNL     1     137.636 131.369 158.315  1.00  0.00     0.211 HD
ENDBRANCH  30  35
BRANCH  31  37
ATOM     37  C   UNL     1     139.715 134.226 156.481  1.00  0.00     0.191 C 
BRANCH  37  38
ATOM     38  O   UNL     1     138.391 133.785 156.577  1.00  0.00    -0.394 OA
ATOM     39  H   UNL     1     138.055 134.115 157.452  1.00  0.00     0.210 HD
ENDBRANCH  37  38
ENDBRANCH  31  37
BRANCH  32  40
ATOM     40  O   UNL     1     141.089 133.480 159.885  1.00  0.00    -0.387 OA
ATOM     41  H   UNL     1     141.402 134.422 159.903  1.00  0.00     0.211 HD
ENDBRANCH  32  40
ENDBRANCH   1  27
TORSDOF 12
ENDMDL
MODEL 3
REMARK VINA RESULT:    -6.329      3.724      8.452
REMARK INTER + INTRA:         -11.219
REMARK INTER:                  -9.479
REMARK INTRA:                  -1.740
REMARK UNBOUND:                -1.930
REMARK SMILES O=c1c(O[C@H]2O[C@@H](CO)[C@H](O)[C@@H](O)[C@H]2O)c(-c2ccc(O)c(O)c2)oc2cc(O)cc(O)c12
REMARK SMILES IDX 4 1 3 2 16 3 25 4 2 5 26 6 1 7 33 8 27 9 31 10 28 11 30 12
REMARK SMILES IDX 17 13 18 14 19 15 20 16 24 17 22 18 21 19 23 21 32 23 29 25
REMARK SMILES IDX 5 27 14 28 6 29 12 30 7 31 10 32 15 33 13 35 8 37 9 38 11 40
REMARK H PARENT 21 20 23 22 32 24 29 26 15 34 13 36 9 39 11 41
REMARK Flexibility Score: inf
ROOT
ATOM      1  O   UNL     1     139.951 131.613 155.841  1.00  0.00    -0.454 OA
ENDROOT
BRANCH   1   2
ATOM      2  C   UNL     1     140.232 131.624 154.459  1.00  0.00     0.214 A 
ATOM      3  C   UNL     1     139.544 130.728 153.617  1.00  0.00     0.180 A 
ATOM      4  O   UNL     1     139.820 130.683 152.319  1.00  0.00    -0.452 OA
ATOM      5  C   UNL     1     141.195 132.478 153.880  1.00  0.00     0.239 A 
ATOM      6  C   UNL     1     140.721 131.463 151.737  1.00  0.00     0.146 A 
ATOM      7  O   UNL     1     141.809 133.314 154.593  1.00  0.00    -0.285 OA
ATOM      8  C   UNL     1     141.455 132.401 152.495  1.00  0.00     0.111 A 
ATOM      9  C   UNL     1     140.936 131.342 150.360  1.00  0.00     0.094 A 
ATOM     10  C   UNL     1     142.413 133.216 151.840  1.00  0.00     0.134 A 
ATOM     11  C   UNL     1     141.885 132.147 149.720  1.00  0.00     0.123 A 
ATOM     12  C   UNL     1     142.617 133.078 150.459  1.00  0.00     0.093 A 
BRANCH   3  13
ATOM     13  C   UNL     1     138.537 129.781 154.139  1.00  0.00     0.025 A 
ATOM     14  C   UNL     1     137.179 130.131 154.112  1.00  0.00     0.016 A 
ATOM     15  C   UNL     1     136.215 129.255 154.618  1.00  0.00     0.051 A 
ATOM     16  C   UNL     1     136.597 128.022 155.162  1.00  0.00     0.157 A 
ATOM     17  C   UNL     1     138.920 128.560 154.714  1.00  0.00     0.062 A 
ATOM     18  C   UNL     1     137.953 127.674 155.213  1.00  0.00     0.158 A 
BRANCH  16  19
ATOM     19  O   UNL     1     135.639 127.143 155.662  1.00  0.00    -0.504 OA
ATOM     20  H   UNL     1     135.373 126.307 155.152  1.00  0.00     0.293 HD
ENDBRANCH  16  19
BRANCH  18  21
ATOM     21  O   UNL     1     138.334 126.450 155.760  1.00  0.00    -0.504 OA
ATOM     22  H   UNL     1     138.528 126.350 156.749  1.00  0.00     0.293 HD
ENDBRANCH  18  21
ENDBRANCH   3  13
BRANCH  10  23
ATOM     23  O   UNL     1     143.165 134.154 152.547  1.00  0.00    -0.507 OA
ATOM     24  H   UNL     1     144.124 133.974 152.817  1.00  0.00     0.293 HD
ENDBRANCH  10  23
BRANCH  11  25
ATOM     25  O   UNL     1     142.114 132.024 148.350  1.00  0.00    -0.508 OA
ATOM     26  H   UNL     1     141.493 132.444 147.669  1.00  0.00     0.293 HD
ENDBRANCH  11  25
ENDBRANCH   1   2
BRANCH   1  27
ATOM     27  C   UNL     1     138.891 132.338 156.473  1.00  0.00     0.339 C 
ATOM     28  C   UNL     1     139.426 133.499 157.332  1.00  0.00     0.214 C 
ATOM     29  O   UNL     1     138.018 131.489 157.201  1.00  0.00    -0.332 OA
ATOM     30  C   UNL     1     140.093 133.008 158.635  1.00  0.00     0.180 C 
ATOM     31  C   UNL     1     138.581 130.926 158.378  1.00  0.00     0.179 C 
ATOM     32  C   UNL     1     139.216 131.960 159.348  1.00  0.00     0.177 C 
BRANCH  28  33
ATOM     33  O   UNL     1     140.325 134.288 156.596  1.00  0.00    -0.384 OA
ATOM     34  H   UNL     1     139.842 135.120 156.353  1.00  0.00     0.211 HD
ENDBRANCH  28  33
BRANCH  30  35
ATOM     35  O   UNL     1     141.413 132.540 158.478  1.00  0.00    -0.387 OA
ATOM     36  H   UNL     1     141.402 131.626 158.101  1.00  0.00     0.211 HD
ENDBRANCH  30  35
BRANCH  31  37
ATOM     37  C   UNL     1     139.416 129.656 158.100  1.00  0.00     0.191 C 
BRANCH  37  38
ATOM     38  O   UNL     1     140.575 129.602 158.882  1.00  0.00    -0.394 OA
ATOM     39  H   UNL     1     141.309 129.343 158.265  1.00  0.00     0.210 HD
ENDBRANCH  37  38
ENDBRANCH  31  37
BRANCH  32  40
ATOM     40  O   UNL     1     138.177 132.617 160.031  1.00  0.00    -0.387 OA
ATOM     41  H   UNL     1     137.324 132.199 159.742  1.00  0.00     0.211 HD
ENDBRANCH  32  40
ENDBRANCH   1  27
TORSDOF 12
ENDMDL
MODEL 4
REMARK VINA RESULT:    -6.299      5.018      8.718
REMARK INTER + INTRA:         -11.175
REMARK INTER:                  -9.551
REMARK INTRA:                  -1.624
REMARK UNBOUND:                -1.930
REMARK SMILES O=c1c(O[C@H]2O[C@@H](CO)[C@H](O)[C@@H](O)[C@H]2O)c(-c2ccc(O)c(O)c2)oc2cc(O)cc(O)c12
REMARK SMILES IDX 4 1 3 2 16 3 25 4 2 5 26 6 1 7 33 8 27 9 31 10 28 11 30 12
REMARK SMILES IDX 17 13 18 14 19 15 20 16 24 17 22 18 21 19 23 21 32 23 29 25
REMARK SMILES IDX 5 27 14 28 6 29 12 30 7 31 10 32 15 33 13 35 8 37 9 38 11 40
REMARK H PARENT 21 20 23 22 32 24 29 26 15 34 13 36 9 39 11 41
REMARK Flexibility Score: inf
ROOT
ATOM      1  O   UNL     1     138.139 132.538 154.811  1.00  0.00    -0.454 OA
ENDROOT
BRANCH   1   2
ATOM      2  C   UNL     1     137.125 131.559 154.867  1.00  0.00     0.214 A 
ATOM      3  C   UNL     1     136.976 130.799 156.045  1.00  0.00     0.180 A 
ATOM      4  O   UNL     1     136.061 129.839 156.111  1.00  0.00    -0.452 OA
ATOM      5  C   UNL     1     136.263 131.286 153.784  1.00  0.00     0.239 A 
ATOM      6  C   UNL     1     135.237 129.546 155.114  1.00  0.00     0.146 A 
ATOM      7  O   UNL     1     136.344 131.963 152.726  1.00  0.00    -0.285 OA
ATOM      8  C   UNL     1     135.301 130.260 153.897  1.00  0.00     0.111 A 
ATOM      9  C   UNL     1     134.303 128.519 155.284  1.00  0.00     0.094 A 
ATOM     10  C   UNL     1     134.406 129.917 152.851  1.00  0.00     0.134 A 
ATOM     11  C   UNL     1     133.425 128.184 154.247  1.00  0.00     0.123 A 
ATOM     12  C   UNL     1     133.479 128.882 153.039  1.00  0.00     0.093 A 
BRANCH   3  13
ATOM     13  C   UNL     1     137.849 130.999 157.220  1.00  0.00     0.025 A 
ATOM     14  C   UNL     1     139.010 130.223 157.360  1.00  0.00     0.016 A 
ATOM     15  C   UNL     1     139.837 130.387 158.474  1.00  0.00     0.051 A 
ATOM     16  C   UNL     1     139.511 131.323 159.464  1.00  0.00     0.157 A 
ATOM     17  C   UNL     1     137.508 131.912 158.229  1.00  0.00     0.062 A 
ATOM     18  C   UNL     1     138.343 132.086 159.343  1.00  0.00     0.158 A 
BRANCH  16  19
ATOM     19  O   UNL     1     140.337 131.493 160.573  1.00  0.00    -0.504 OA
ATOM     20  H   UNL     1     141.247 131.050 160.626  1.00  0.00     0.293 HD
ENDBRANCH  16  19
BRANCH  18  21
ATOM     21  O   UNL     1     138.015 133.012 160.331  1.00  0.00    -0.504 OA
ATOM     22  H   UNL     1     137.669 132.719 161.237  1.00  0.00     0.293 HD
ENDBRANCH  18  21
ENDBRANCH   3  13
BRANCH  10  23
ATOM     23  O   UNL     1     134.434 130.590 151.630  1.00  0.00    -0.507 OA
ATOM     24  H   UNL     1     134.128 131.553 151.544  1.00  0.00     0.293 HD
ENDBRANCH  10  23
BRANCH  11  25
ATOM     25  O   UNL     1     132.500 127.153 154.404  1.00  0.00    -0.508 OA
ATOM     26  H   UNL     1     132.311 126.742 155.310  1.00  0.00     0.293 HD
ENDBRANCH  11  25
ENDBRANCH   1   2
BRANCH   1  27
ATOM     27  C   UNL     1     137.986 133.907 155.200  1.00  0.00     0.339 C 
ATOM     28  C   UNL     1     138.154 134.862 154.004  1.00  0.00     0.214 C 
ATOM     29  O   UNL     1     138.829 134.254 156.288  1.00  0.00    -0.332 OA
ATOM     30  C   UNL     1     139.624 134.981 153.547  1.00  0.00     0.180 C 
ATOM     31  C   UNL     1     140.214 134.307 155.974  1.00  0.00     0.179 C 
ATOM     32  C   UNL     1     140.564 135.197 154.749  1.00  0.00     0.177 C 
BRANCH  28  33
ATOM     33  O   UNL     1     137.345 134.459 152.929  1.00  0.00    -0.384 OA
ATOM     34  H   UNL     1     136.434 134.317 153.295  1.00  0.00     0.211 HD
ENDBRANCH  28  33
BRANCH  30  35
ATOM     35  O   UNL     1     140.075 133.919 152.739  1.00  0.00    -0.387 OA
ATOM     36  H   UNL     1     139.313 133.522 152.250  1.00  0.00     0.211 HD
ENDBRANCH  30  35
BRANCH  31  37
ATOM     37  C   UNL     1     140.897 132.922 156.023  1.00  0.00     0.191 C 
BRANCH  37  38
ATOM     38  O   UNL     1     141.781 132.805 157.100  1.00  0.00    -0.394 OA
ATOM     39  H   UNL     1     141.377 133.326 157.844  1.00  0.00     0.210 HD
ENDBRANCH  37  38
ENDBRANCH  31  37
BRANCH  32  40
ATOM     40  O   UNL     1     140.495 136.543 155.151  1.00  0.00    -0.387 OA
ATOM     41  H   UNL     1     141.360 136.766 155.586  1.00  0.00     0.211 HD
ENDBRANCH  32  40
ENDBRANCH   1  27
TORSDOF 12
ENDMDL
MODEL 5
REMARK VINA RESULT:    -6.261      4.731      8.555
REMARK INTER + INTRA:         -11.118
REMARK INTER:                  -9.748
REMARK INTRA:                  -1.370
REMARK UNBOUND:                -1.930
REMARK SMILES O=c1c(O[C@H]2O[C@@H](CO)[C@H](O)[C@@H](O)[C@H]2O)c(-c2ccc(O)c(O)c2)oc2cc(O)cc(O)c12
REMARK SMILES IDX 4 1 3 2 16 3 25 4 2 5 26 6 1 7 33 8 27 9 31 10 28 11 30 12
REMARK SMILES IDX 17 13 18 14 19 15 20 16 24 17 22 18 21 19 23 21 32 23 29 25
REMARK SMILES IDX 5 27 14 28 6 29 12 30 7 31 10 32 15 33 13 35 8 37 9 38 11 40
REMARK H PARENT 21 20 23 22 32 24 29 26 15 34 13 36 9 39 11 41
REMARK Flexibility Score: inf
ROOT
ATOM      1  O   UNL     1     138.303 132.500 154.778  1.00  0.00    -0.454 OA
ENDROOT
BRANCH   1   2
ATOM      2  C   UNL     1     137.255 131.560 154.848  1.00  0.00     0.214 A 
ATOM      3  C   UNL     1     137.069 130.834 156.042  1.00  0.00     0.180 A 
ATOM      4  O   UNL     1     136.120 129.908 156.122  1.00  0.00    -0.452 OA
ATOM      5  C   UNL     1     136.394 131.290 153.762  1.00  0.00     0.239 A 
ATOM      6  C   UNL     1     135.295 129.621 155.124  1.00  0.00     0.146 A 
ATOM      7  O   UNL     1     136.508 131.938 152.689  1.00  0.00    -0.285 OA
ATOM      8  C   UNL     1     135.396 130.301 153.891  1.00  0.00     0.111 A 
ATOM      9  C   UNL     1     134.324 128.631 155.310  1.00  0.00     0.094 A 
ATOM     10  C   UNL     1     134.499 129.964 152.845  1.00  0.00     0.134 A 
ATOM     11  C   UNL     1     133.445 128.301 154.272  1.00  0.00     0.123 A 
ATOM     12  C   UNL     1     133.534 128.967 153.049  1.00  0.00     0.093 A 
BRANCH   3  13
ATOM     13  C   UNL     1     137.938 131.032 157.220  1.00  0.00     0.025 A 
ATOM     14  C   UNL     1     139.117 130.283 157.345  1.00  0.00     0.016 A 
ATOM     15  C   UNL     1     139.941 130.445 158.462  1.00  0.00     0.051 A 
ATOM     16  C   UNL     1     139.593 131.353 159.470  1.00  0.00     0.157 A 
ATOM     17  C   UNL     1     137.575 131.917 158.247  1.00  0.00     0.062 A 
ATOM     18  C   UNL     1     138.406 132.089 159.364  1.00  0.00     0.158 A 
BRANCH  16  19
ATOM     19  O   UNL     1     140.415 131.522 160.582  1.00  0.00    -0.504 OA
ATOM     20  H   UNL     1     140.074 131.967 161.427  1.00  0.00     0.293 HD
ENDBRANCH  16  19
BRANCH  18  21
ATOM     21  O   UNL     1     138.056 132.988 160.371  1.00  0.00    -0.504 OA
ATOM     22  H   UNL     1     138.461 132.929 161.297  1.00  0.00     0.293 HD
ENDBRANCH  18  21
ENDBRANCH   3  13
BRANCH  10  23
ATOM     23  O   UNL     1     134.562 130.606 151.608  1.00  0.00    -0.507 OA
ATOM     24  H   UNL     1     134.676 131.610 151.533  1.00  0.00     0.293 HD
ENDBRANCH  10  23
BRANCH  11  25
ATOM     25  O   UNL     1     132.482 127.308 154.445  1.00  0.00    -0.508 OA
ATOM     26  H   UNL     1     131.498 127.491 154.297  1.00  0.00     0.293 HD
ENDBRANCH  11  25
ENDBRANCH   1   2
BRANCH   1  27
ATOM     27  C   UNL     1     139.094 132.769 153.615  1.00  0.00     0.339 C 
ATOM     28  C   UNL     1     140.552 132.310 153.798  1.00  0.00     0.214 C 
ATOM     29  O   UNL     1     139.005 134.125 153.206  1.00  0.00    -0.332 OA
ATOM     30  C   UNL     1     141.344 133.228 154.754  1.00  0.00     0.180 C 
ATOM     31  C   UNL     1     139.640 135.052 154.077  1.00  0.00     0.179 C 
ATOM     32  C   UNL     1     141.119 134.713 154.412  1.00  0.00     0.177 C 
BRANCH  28  33
ATOM     33  O   UNL     1     140.601 130.981 154.252  1.00  0.00    -0.384 OA
ATOM     34  H   UNL     1     140.756 130.412 153.454  1.00  0.00     0.211 HD
ENDBRANCH  28  33
BRANCH  30  35
ATOM     35  O   UNL     1     141.115 132.985 156.123  1.00  0.00    -0.387 OA
ATOM     36  H   UNL     1     140.685 133.774 156.536  1.00  0.00     0.211 HD
ENDBRANCH  30  35
BRANCH  31  37
ATOM     37  C   UNL     1     138.751 135.463 155.272  1.00  0.00     0.191 C 
BRANCH  37  38
ATOM     38  O   UNL     1     139.144 134.842 156.463  1.00  0.00    -0.394 OA
ATOM     39  H   UNL     1     138.632 133.992 156.511  1.00  0.00     0.210 HD
ENDBRANCH  37  38
ENDBRANCH  31  37
BRANCH  32  40
ATOM     40  O   UNL     1     141.909 135.054 153.300  1.00  0.00    -0.387 OA
ATOM     41  H   UNL     1     141.294 135.204 152.535  1.00  0.00     0.211 HD
ENDBRANCH  32  40
ENDBRANCH   1  27
TORSDOF 12
ENDMDL
MODEL 6
REMARK VINA RESULT:    -6.212      6.896      8.810
REMARK INTER + INTRA:         -11.048
REMARK INTER:                  -9.116
REMARK INTRA:                  -1.932
REMARK UNBOUND:                -1.930
REMARK SMILES O=c1c(O[C@H]2O[C@@H](CO)[C@H](O)[C@@H](O)[C@H]2O)c(-c2ccc(O)c(O)c2)oc2cc(O)cc(O)c12
REMARK SMILES IDX 4 1 3 2 16 3 25 4 2 5 26 6 1 7 33 8 27 9 31 10 28 11 30 12
REMARK SMILES IDX 17 13 18 14 19 15 20 16 24 17 22 18 21 19 23 21 32 23 29 25
REMARK SMILES IDX 5 27 14 28 6 29 12 30 7 31 10 32 15 33 13 35 8 37 9 38 11 40
REMARK H PARENT 21 20 23 22 32 24 29 26 15 34 13 36 9 39 11 41
REMARK Flexibility Score: inf
ROOT
ATOM      1  O   UNL     1     137.874 129.200 154.157  1.00  0.00    -0.454 OA
ENDROOT
BRANCH   1   2
ATOM      2  C   UNL     1     137.662 129.816 155.408  1.00  0.00     0.214 A 
ATOM      3  C   UNL     1     136.352 130.184 155.773  1.00  0.00     0.180 A 
ATOM      4  O   UNL     1     136.127 130.807 156.924  1.00  0.00    -0.452 OA
ATOM      5  C   UNL     1     138.712 130.107 156.306  1.00  0.00     0.239 A 
ATOM      6  C   UNL     1     137.085 131.104 157.792  1.00  0.00     0.146 A 
ATOM      7  O   UNL     1     139.892 129.767 156.030  1.00  0.00    -0.285 OA
ATOM      8  C   UNL     1     138.430 130.767 157.521  1.00  0.00     0.111 A 
ATOM      9  C   UNL     1     136.746 131.759 158.980  1.00  0.00     0.094 A 
ATOM     10  C   UNL     1     139.428 131.103 158.470  1.00  0.00     0.134 A 
ATOM     11  C   UNL     1     137.736 132.092 159.911  1.00  0.00     0.123 A 
ATOM     12  C   UNL     1     139.068 131.763 159.655  1.00  0.00     0.093 A 
BRANCH   3  13
ATOM     13  C   UNL     1     135.196 129.941 154.886  1.00  0.00     0.025 A 
ATOM     14  C   UNL     1     134.797 130.936 153.981  1.00  0.00     0.016 A 
ATOM     15  C   UNL     1     133.695 130.729 153.146  1.00  0.00     0.051 A 
ATOM     16  C   UNL     1     132.974 129.530 153.212  1.00  0.00     0.157 A 
ATOM     17  C   UNL     1     134.453 128.754 154.972  1.00  0.00     0.062 A 
ATOM     18  C   UNL     1     133.352 128.540 154.129  1.00  0.00     0.158 A 
BRANCH  16  19
ATOM     19  O   UNL     1     131.879 129.318 152.378  1.00  0.00    -0.504 OA
ATOM     20  H   UNL     1     131.942 128.711 151.568  1.00  0.00     0.293 HD
ENDBRANCH  16  19
BRANCH  18  21
ATOM     21  O   UNL     1     132.632 127.349 154.198  1.00  0.00    -0.504 OA
ATOM     22  H   UNL     1     131.787 127.210 153.658  1.00  0.00     0.293 HD
ENDBRANCH  18  21
ENDBRANCH   3  13
BRANCH  10  23
ATOM     23  O   UNL     1     140.769 130.794 158.245  1.00  0.00    -0.507 OA
ATOM     24  H   UNL     1     141.479 131.514 158.182  1.00  0.00     0.293 HD
ENDBRANCH  10  23
BRANCH  11  25
ATOM     25  O   UNL     1     137.408 132.754 161.093  1.00  0.00    -0.508 OA
ATOM     26  H   UNL     1     136.824 132.323 161.799  1.00  0.00     0.293 HD
ENDBRANCH  11  25
ENDBRANCH   1   2
BRANCH   1  27
ATOM     27  C   UNL     1     137.871 127.787 153.922  1.00  0.00     0.339 C 
ATOM     28  C   UNL     1     139.251 127.282 153.462  1.00  0.00     0.214 C 
ATOM     29  O   UNL     1     136.832 127.392 153.040  1.00  0.00    -0.332 OA
ATOM     30  C   UNL     1     139.574 127.692 152.010  1.00  0.00     0.180 C 
ATOM     31  C   UNL     1     137.010 127.801 151.691  1.00  0.00     0.179 C 
ATOM     32  C   UNL     1     138.382 127.412 151.075  1.00  0.00     0.177 C 
BRANCH  28  33
ATOM     33  O   UNL     1     140.259 127.735 154.329  1.00  0.00    -0.384 OA
ATOM     34  H   UNL     1     140.816 126.946 154.556  1.00  0.00     0.211 HD
ENDBRANCH  28  33
BRANCH  30  35
ATOM     35  O   UNL     1     140.030 129.017 151.862  1.00  0.00    -0.387 OA
ATOM     36  H   UNL     1     139.656 129.411 151.036  1.00  0.00     0.211 HD
ENDBRANCH  30  35
BRANCH  31  37
ATOM     37  C   UNL     1     136.536 129.248 151.432  1.00  0.00     0.191 C 
BRANCH  37  38
ATOM     38  O   UNL     1     137.590 130.167 151.477  1.00  0.00    -0.394 OA
ATOM     39  H   UNL     1     138.388 129.685 151.132  1.00  0.00     0.210 HD
ENDBRANCH  37  38
ENDBRANCH  31  37
BRANCH  32  40
ATOM     40  O   UNL     1     138.351 126.040 150.766  1.00  0.00    -0.387 OA
ATOM     41  H   UNL     1     137.745 125.604 151.420  1.00  0.00     0.211 HD
ENDBRANCH  32  40
ENDBRANCH   1  27
TORSDOF 12
ENDMDL
MODEL 7
REMARK VINA RESULT:    -6.205      1.656      4.859
REMARK INTER + INTRA:         -11.037
REMARK INTER:                  -9.558
REMARK INTRA:                  -1.480
REMARK UNBOUND:                -1.930
REMARK SMILES O=c1c(O[C@H]2O[C@@H](CO)[C@H](O)[C@@H](O)[C@H]2O)c(-c2ccc(O)c(O)c2)oc2cc(O)cc(O)c12
REMARK SMILES IDX 4 1 3 2 16 3 25 4 2 5 26 6 1 7 33 8 27 9 31 10 28 11 30 12
REMARK SMILES IDX 17 13 18 14 19 15 20 16 24 17 22 18 21 19 23 21 32 23 29 25
REMARK SMILES IDX 5 27 14 28 6 29 12 30 7 31 10 32 15 33 13 35 8 37 9 38 11 40
REMARK H PARENT 21 20 23 22 32 24 29 26 15 34 13 36 9 39 11 41
REMARK Flexibility Score: inf
ROOT
ATOM      1  O   UNL     1     142.069 133.549 150.354  1.00  0.00    -0.454 OA
ENDROOT
BRANCH   1   2
ATOM      2  C   UNL     1     141.633 133.848 151.661  1.00  0.00     0.214 A 
ATOM      3  C   UNL     1     141.570 135.196 152.068  1.00  0.00     0.180 A 
ATOM      4  O   UNL     1     141.209 135.506 153.307  1.00  0.00    -0.452 OA
ATOM      5  C   UNL     1     141.279 132.852 152.597  1.00  0.00     0.239 A 
ATOM      6  C   UNL     1     140.874 134.601 154.218  1.00  0.00     0.146 A 
ATOM      7  O   UNL     1     141.293 131.639 152.264  1.00  0.00    -0.285 OA
ATOM      8  C   UNL     1     140.896 133.224 153.903  1.00  0.00     0.111 A 
ATOM      9  C   UNL     1     140.502 135.030 155.496  1.00  0.00     0.094 A 
ATOM     10  C   UNL     1     140.536 132.286 154.903  1.00  0.00     0.134 A 
ATOM     11  C   UNL     1     140.152 134.097 156.479  1.00  0.00     0.123 A 
ATOM     12  C   UNL     1     140.169 132.734 156.180  1.00  0.00     0.093 A 
BRANCH   3  13
ATOM     13  C   UNL     1     141.945 136.303 151.164  1.00  0.00     0.025 A 
ATOM     14  C   UNL     1     143.269 136.768 151.151  1.00  0.00     0.016 A 
ATOM     15  C   UNL     1     143.637 137.825 150.314  1.00  0.00     0.051 A 
ATOM     16  C   UNL     1     142.685 138.435 149.488  1.00  0.00     0.157 A 
ATOM     17  C   UNL     1     140.987 136.937 150.359  1.00  0.00     0.062 A 
ATOM     18  C   UNL     1     141.356 137.992 149.511  1.00  0.00     0.158 A 
BRANCH  16  19
ATOM     19  O   UNL     1     143.049 139.486 148.649  1.00  0.00    -0.504 OA
ATOM     20  H   UNL     1     142.917 140.453 148.925  1.00  0.00     0.293 HD
ENDBRANCH  16  19
BRANCH  18  21
ATOM     21  O   UNL     1     140.408 138.603 148.693  1.00  0.00    -0.504 OA
ATOM     22  H   UNL     1     139.491 138.198 148.551  1.00  0.00     0.293 HD
ENDBRANCH  18  21
ENDBRANCH   3  13
BRANCH  10  23
ATOM     23  O   UNL     1     140.546 130.916 154.641  1.00  0.00    -0.507 OA
ATOM     24  H   UNL     1     139.902 130.281 155.098  1.00  0.00     0.293 HD
ENDBRANCH  10  23
BRANCH  11  25
ATOM     25  O   UNL     1     139.792 134.515 157.759  1.00  0.00    -0.508 OA
ATOM     26  H   UNL     1     139.326 133.894 158.409  1.00  0.00     0.293 HD
ENDBRANCH  11  25
ENDBRANCH   1   2
BRANCH   1  27
ATOM     27  C   UNL     1     141.693 132.389 149.605  1.00  0.00     0.339 C 
ATOM     28  C   UNL     1     142.902 131.480 149.315  1.00  0.00     0.214 C 
ATOM     29  O   UNL     1     140.975 132.719 148.426  1.00  0.00    -0.332 OA
ATOM     30  C   UNL     1     143.842 132.074 148.244  1.00  0.00     0.180 C 
ATOM     31  C   UNL     1     141.750 133.347 147.414  1.00  0.00     0.179 C 
ATOM     32  C   UNL     1     143.046 132.583 147.027  1.00  0.00     0.177 C 
BRANCH  28  33
ATOM     33  O   UNL     1     143.618 131.216 150.494  1.00  0.00    -0.384 OA
ATOM     34  H   UNL     1     144.551 131.512 150.334  1.00  0.00     0.211 HD
ENDBRANCH  28  33
BRANCH  30  35
ATOM     35  O   UNL     1     144.724 133.064 148.722  1.00  0.00    -0.387 OA
ATOM     36  H   UNL     1     144.836 133.771 148.039  1.00  0.00     0.211 HD
ENDBRANCH  30  35
BRANCH  31  37
ATOM     37  C   UNL     1     141.898 134.871 147.626  1.00  0.00     0.191 C 
BRANCH  37  38
ATOM     38  O   UNL     1     143.204 135.233 147.974  1.00  0.00    -0.394 OA
ATOM     39  H   UNL     1     143.414 136.045 147.442  1.00  0.00     0.210 HD
ENDBRANCH  37  38
ENDBRANCH  31  37
BRANCH  32  40
ATOM     40  O   UNL     1     142.687 131.489 146.221  1.00  0.00    -0.387 OA
ATOM     41  H   UNL     1     142.586 131.827 145.292  1.00  0.00     0.211 HD
ENDBRANCH  32  40
ENDBRANCH   1  27
TORSDOF 12
ENDMDL
MODEL 8
REMARK VINA RESULT:    -6.098      2.693      5.795
REMARK INTER + INTRA:         -10.879
REMARK INTER:                  -9.228
REMARK INTRA:                  -1.651
REMARK UNBOUND:                -1.930
REMARK SMILES O=c1c(O[C@H]2O[C@@H](CO)[C@H](O)[C@@H](O)[C@H]2O)c(-c2ccc(O)c(O)c2)oc2cc(O)cc(O)c12
REMARK SMILES IDX 4 1 3 2 16 3 25 4 2 5 26 6 1 7 33 8 27 9 31 10 28 11 30 12
REMARK SMILES IDX 17 13 18 14 19 15 20 16 24 17 22 18 21 19 23 21 32 23 29 25
REMARK SMILES IDX 5 27 14 28 6 29 12 30 7 31 10 32 15 33 13 35 8 37 9 38 11 40
REMARK H PARENT 21 20 23 22 32 24 29 26 15 34 13 36 9 39 11 41
REMARK Flexibility Score: inf
ROOT
ATOM      1  O   UNL     1     140.212 131.431 152.622  1.00  0.00    -0.454 OA
ENDROOT
BRANCH   1   2
ATOM      2  C   UNL     1     140.331 131.699 154.001  1.00  0.00     0.214 A 
ATOM      3  C   UNL     1     141.052 132.837 154.415  1.00  0.00     0.180 A 
ATOM      4  O   UNL     1     141.220 133.090 155.708  1.00  0.00    -0.452 OA
ATOM      5  C   UNL     1     139.780 130.861 154.995  1.00  0.00     0.239 A 
ATOM      6  C   UNL     1     140.725 132.325 156.672  1.00  0.00     0.146 A 
ATOM      7  O   UNL     1     139.104 129.852 154.666  1.00  0.00    -0.285 OA
ATOM      8  C   UNL     1     139.979 131.168 156.358  1.00  0.00     0.111 A 
ATOM      9  C   UNL     1     140.953 132.680 158.005  1.00  0.00     0.094 A 
ATOM     10  C   UNL     1     139.467 130.372 157.414  1.00  0.00     0.134 A 
ATOM     11  C   UNL     1     140.449 131.888 159.043  1.00  0.00     0.123 A 
ATOM     12  C   UNL     1     139.710 130.742 158.745  1.00  0.00     0.093 A 
BRANCH   3  13
ATOM     13  C   UNL     1     141.683 133.757 153.447  1.00  0.00     0.025 A 
ATOM     14  C   UNL     1     141.209 135.072 153.331  1.00  0.00     0.016 A 
ATOM     15  C   UNL     1     141.783 135.950 152.408  1.00  0.00     0.051 A 
ATOM     16  C   UNL     1     142.833 135.523 151.585  1.00  0.00     0.157 A 
ATOM     17  C   UNL     1     142.713 133.322 152.599  1.00  0.00     0.062 A 
ATOM     18  C   UNL     1     143.298 134.205 151.679  1.00  0.00     0.158 A 
BRANCH  16  19
ATOM     19  O   UNL     1     143.411 136.397 150.668  1.00  0.00    -0.504 OA
ATOM     20  H   UNL     1     143.327 137.402 150.772  1.00  0.00     0.293 HD
ENDBRANCH  16  19
BRANCH  18  21
ATOM     21  O   UNL     1     144.339 133.778 150.856  1.00  0.00    -0.504 OA
ATOM     22  H   UNL     1     144.631 132.809 150.833  1.00  0.00     0.293 HD
ENDBRANCH  18  21
ENDBRANCH   3  13
BRANCH  10  23
ATOM     23  O   UNL     1     138.728 129.219 157.154  1.00  0.00    -0.507 OA
ATOM     24  H   UNL     1     138.552 128.525 157.871  1.00  0.00     0.293 HD
ENDBRANCH  10  23
BRANCH  11  25
ATOM     25  O   UNL     1     140.683 132.228 160.375  1.00  0.00    -0.508 OA
ATOM     26  H   UNL     1     140.178 132.980 160.827  1.00  0.00     0.293 HD
ENDBRANCH  11  25
ENDBRANCH   1   2
BRANCH   1  27
ATOM     27  C   UNL     1     139.312 132.094 151.728  1.00  0.00     0.339 C 
ATOM     28  C   UNL     1     138.125 131.193 151.341  1.00  0.00     0.214 C 
ATOM     29  O   UNL     1     139.977 132.625 150.592  1.00  0.00    -0.332 OA
ATOM     30  C   UNL     1     138.532 130.069 150.364  1.00  0.00     0.180 C 
ATOM     31  C   UNL     1     140.459 131.651 149.676  1.00  0.00     0.179 C 
ATOM     32  C   UNL     1     139.394 130.619 149.212  1.00  0.00     0.177 C 
BRANCH  28  33
ATOM     33  O   UNL     1     137.523 130.646 152.486  1.00  0.00    -0.384 OA
ATOM     34  H   UNL     1     138.260 130.342 153.078  1.00  0.00     0.211 HD
ENDBRANCH  28  33
BRANCH  30  35
ATOM     35  O   UNL     1     139.152 128.959 150.973  1.00  0.00    -0.387 OA
ATOM     36  H   UNL     1     138.693 128.127 150.701  1.00  0.00     0.211 HD
ENDBRANCH  30  35
BRANCH  31  37
ATOM     37  C   UNL     1     141.834 131.071 150.080  1.00  0.00     0.191 C 
BRANCH  37  38
ATOM     38  O   UNL     1     141.731 129.775 150.595  1.00  0.00    -0.394 OA
ATOM     39  H   UNL     1     142.017 129.166 149.864  1.00  0.00     0.210 HD
ENDBRANCH  37  38
ENDBRANCH  31  37
BRANCH  32  40
ATOM     40  O   UNL     1     138.559 131.245 148.270  1.00  0.00    -0.387 OA
ATOM     41  H   UNL     1     138.270 132.111 148.660  1.00  0.00     0.211 HD
ENDBRANCH  32  40
ENDBRANCH   1  27
TORSDOF 12
ENDMDL
MODEL 9
REMARK VINA RESULT:    -6.037      3.879      8.791
REMARK INTER + INTRA:         -10.791
REMARK INTER:                  -9.167
REMARK INTRA:                  -1.623
REMARK UNBOUND:                -1.930
REMARK SMILES O=c1c(O[C@H]2O[C@@H](CO)[C@H](O)[C@@H](O)[C@H]2O)c(-c2ccc(O)c(O)c2)oc2cc(O)cc(O)c12
REMARK SMILES IDX 4 1 3 2 16 3 25 4 2 5 26 6 1 7 33 8 27 9 31 10 28 11 30 12
REMARK SMILES IDX 17 13 18 14 19 15 20 16 24 17 22 18 21 19 23 21 32 23 29 25
REMARK SMILES IDX 5 27 14 28 6 29 12 30 7 31 10 32 15 33 13 35 8 37 9 38 11 40
REMARK H PARENT 21 20 23 22 32 24 29 26 15 34 13 36 9 39 11 41
REMARK Flexibility Score: inf
ROOT
ATOM      1  O   UNL     1     138.962 130.396 154.305  1.00  0.00    -0.454 OA
ENDROOT
BRANCH   1   2
ATOM      2  C   UNL     1     139.837 131.431 153.916  1.00  0.00     0.214 A 
ATOM      3  C   UNL     1     140.301 132.335 154.893  1.00  0.00     0.180 A 
ATOM      4  O   UNL     1     141.088 133.348 154.550  1.00  0.00    -0.452 OA
ATOM      5  C   UNL     1     140.252 131.623 152.581  1.00  0.00     0.239 A 
ATOM      6  C   UNL     1     141.496 133.566 153.306  1.00  0.00     0.146 A 
ATOM      7  O   UNL     1     139.885 130.819 151.684  1.00  0.00    -0.285 OA
ATOM      8  C   UNL     1     141.093 132.709 152.258  1.00  0.00     0.111 A 
ATOM      9  C   UNL     1     142.329 134.658 153.047  1.00  0.00     0.094 A 
ATOM     10  C   UNL     1     141.545 132.975 150.941  1.00  0.00     0.134 A 
ATOM     11  C   UNL     1     142.769 134.918 151.744  1.00  0.00     0.123 A 
ATOM     12  C   UNL     1     142.378 134.078 150.700  1.00  0.00     0.093 A 
BRANCH   3  13
ATOM     13  C   UNL     1     139.899 132.227 156.311  1.00  0.00     0.025 A 
ATOM     14  C   UNL     1     140.865 131.922 157.282  1.00  0.00     0.016 A 
ATOM     15  C   UNL     1     140.499 131.799 158.625  1.00  0.00     0.051 A 
ATOM     16  C   UNL     1     139.164 131.972 159.013  1.00  0.00     0.157 A 
ATOM     17  C   UNL     1     138.558 132.368 156.697  1.00  0.00     0.062 A 
ATOM     18  C   UNL     1     138.190 132.255 158.047  1.00  0.00     0.158 A 
BRANCH  16  19
ATOM     19  O   UNL     1     138.797 131.856 160.351  1.00  0.00    -0.504 OA
ATOM     20  H   UNL     1     138.711 130.949 160.798  1.00  0.00     0.293 HD
ENDBRANCH  16  19
BRANCH  18  21
ATOM     21  O   UNL     1     136.861 132.421 158.431  1.00  0.00    -0.504 OA
ATOM     22  H   UNL     1     136.607 132.598 159.395  1.00  0.00     0.293 HD
ENDBRANCH  18  21
ENDBRANCH   3  13
BRANCH  10  23
ATOM     23  O   UNL     1     141.172 132.160 149.873  1.00  0.00    -0.507 OA
ATOM     24  H   UNL     1     140.464 131.441 149.972  1.00  0.00     0.293 HD
ENDBRANCH  10  23
BRANCH  11  25
ATOM     25  O   UNL     1     143.590 136.011 151.475  1.00  0.00    -0.508 OA
ATOM     26  H   UNL     1     144.557 135.894 151.199  1.00  0.00     0.293 HD
ENDBRANCH  11  25
ENDBRANCH   1   2
BRANCH   1  27
ATOM     27  C   UNL     1     139.360 129.176 154.940  1.00  0.00     0.339 C 
ATOM     28  C   UNL     1     139.280 127.978 153.974  1.00  0.00     0.214 C 
ATOM     29  O   UNL     1     138.650 128.941 156.146  1.00  0.00    -0.332 OA
ATOM     30  C   UNL     1     137.826 127.551 153.685  1.00  0.00     0.180 C 
ATOM     31  C   UNL     1     137.276 128.620 155.975  1.00  0.00     0.179 C 
ATOM     32  C   UNL     1     137.006 127.453 154.986  1.00  0.00     0.177 C 
BRANCH  28  33
ATOM     33  O   UNL     1     139.949 128.265 152.773  1.00  0.00    -0.384 OA
ATOM     34  H   UNL     1     139.462 127.784 152.054  1.00  0.00     0.211 HD
ENDBRANCH  28  33
BRANCH  30  35
ATOM     35  O   UNL     1     137.160 128.343 152.728  1.00  0.00    -0.387 OA
ATOM     36  H   UNL     1     136.273 128.610 153.071  1.00  0.00     0.211 HD
ENDBRANCH  30  35
BRANCH  31  37
ATOM     37  C   UNL     1     136.380 129.868 155.812  1.00  0.00     0.191 C 
BRANCH  37  38
ATOM     38  O   UNL     1     135.974 130.059 154.487  1.00  0.00    -0.394 OA
ATOM     39  H   UNL     1     136.629 129.567 153.926  1.00  0.00     0.210 HD
ENDBRANCH  37  38
ENDBRANCH  31  37
BRANCH  32  40
ATOM     40  O   UNL     1     137.317 126.245 155.636  1.00  0.00    -0.387 OA
ATOM     41  H   UNL     1     136.551 126.023 156.228  1.00  0.00     0.211 HD
ENDBRANCH  32  40
ENDBRANCH   1  27
TORSDOF 12
ENDMDL
