MODEL 1
REMARK VINA RESULT:    -6.596      0.000      0.000
REMARK INTER + INTRA:          -7.262
REMARK INTER:                  -7.175
REMARK INTRA:                  -0.087
REMARK UNBOUND:                -0.087
REMARK SMILES CC(=O)[C@H]1CC[C@H]2[C@H]3CC=C4C[C@H](O)CC[C@]4(C)[C@@H]3CC[C@@]12C
REMARK SMILES IDX 4 1 5 2 6 3 7 4 22 5 21 6 20 7 19 8 8 9 9 10 10 11 11 12
REMARK SMILES IDX 17 13 16 14 15 15 13 16 12 17 18 18 23 19 2 20 1 21 3 22
REMARK SMILES IDX 14 23
REMARK H PARENT 14 24
REMARK Flexibility Score: inf
ROOT
ATOM      1  C   UNL     1     161.296 161.978 181.909  1.00  0.00     0.062 C 
ATOM      2  C   UNL     1     161.329 163.119 182.932  1.00  0.00     0.012 C 
ATOM      3  C   UNL     1     162.750 163.684 182.896  1.00  0.00     0.005 C 
ATOM      4  C   UNL     1     163.505 162.908 181.802  1.00  0.00    -0.001 C 
ATOM      5  C   UNL     1     162.773 161.553 181.704  1.00  0.00    -0.020 C 
ATOM      6  C   UNL     1     163.259 160.590 182.829  1.00  0.00     0.008 C 
ATOM      7  C   UNL     1     164.781 160.445 182.872  1.00  0.00     0.005 C 
ATOM      8  C   UNL     1     165.482 161.809 183.085  1.00  0.00     0.003 C 
ATOM      9  C   UNL     1     165.051 162.805 181.985  1.00  0.00     0.000 C 
ATOM     10  C   UNL     1     165.657 164.184 182.286  1.00  0.00     0.031 C 
ATOM     11  C   UNL     1     167.143 164.105 182.409  1.00  0.00    -0.027 C 
ATOM     12  C   UNL     1     167.783 163.021 182.892  1.00  0.00    -0.065 C 
ATOM     13  C   UNL     1     167.063 161.697 183.218  1.00  0.00    -0.008 C 
ATOM     14  C   UNL     1     167.651 160.615 182.252  1.00  0.00     0.014 C 
ATOM     15  C   UNL     1     169.192 160.584 182.195  1.00  0.00     0.033 C 
ATOM     16  C   UNL     1     169.798 161.962 181.877  1.00  0.00     0.118 C 
ATOM     17  C   UNL     1     169.299 163.014 182.871  1.00  0.00     0.063 C 
ATOM     18  C   UNL     1     167.380 161.310 184.687  1.00  0.00     0.016 C 
ATOM     19  C   UNL     1     162.956 160.908 180.309  1.00  0.00     0.012 C 
ENDROOT
BRANCH   1  20
ATOM     20  C   UNL     1     160.334 160.864 182.279  1.00  0.00     0.133 C 
ATOM     21  C   UNL     1     159.875 159.892 181.234  1.00  0.00     0.088 C 
ATOM     22  O   UNL     1     159.897 160.769 183.416  1.00  0.00    -0.300 OA
ENDBRANCH   1  20
BRANCH  16  23
ATOM     23  O   UNL     1     169.460 162.353 180.570  1.00  0.00    -0.393 OA
ATOM     24  H   UNL     1     168.472 162.434 180.541  1.00  0.00     0.210 HD
ENDBRANCH  16  23
TORSDOF 2
ENDMDL
MODEL 2
REMARK VINA RESULT:    -6.573      4.533      6.876
REMARK INTER + INTRA:          -7.236
REMARK INTER:                  -7.142
REMARK INTRA:                  -0.094
REMARK UNBOUND:                -0.087
REMARK SMILES CC(=O)[C@H]1CC[C@H]2[C@H]3CC=C4C[C@H](O)CC[C@]4(C)[C@@H]3CC[C@@]12C
REMARK SMILES IDX 4 1 5 2 6 3 7 4 22 5 21 6 20 7 19 8 8 9 9 10 10 11 11 12
REMARK SMILES IDX 17 13 16 14 15 15 13 16 12 17 18 18 23 19 2 20 1 21 3 22
REMARK SMILES IDX 14 23
REMARK H PARENT 14 24
REMARK Flexibility Score: inf
ROOT
ATOM      1  C   UNL     1     161.580 161.904 181.236  1.00  0.00     0.062 C 
ATOM      2  C   UNL     1     162.369 162.349 180.000  1.00  0.00     0.012 C 
ATOM      3  C   UNL     1     162.938 163.731 180.330  1.00  0.00     0.005 C 
ATOM      4  C   UNL     1     162.528 164.039 181.782  1.00  0.00    -0.001 C 
ATOM      5  C   UNL     1     161.253 163.202 182.017  1.00  0.00    -0.020 C 
ATOM      6  C   UNL     1     160.008 163.933 181.430  1.00  0.00     0.008 C 
ATOM      7  C   UNL     1     159.876 165.375 181.923  1.00  0.00     0.005 C 
ATOM      8  C   UNL     1     161.126 166.219 181.571  1.00  0.00     0.003 C 
ATOM      9  C   UNL     1     162.396 165.551 182.144  1.00  0.00     0.000 C 
ATOM     10  C   UNL     1     163.632 166.333 181.678  1.00  0.00     0.031 C 
ATOM     11  C   UNL     1     163.539 167.772 182.068  1.00  0.00    -0.027 C 
ATOM     12  C   UNL     1     162.369 168.438 182.145  1.00  0.00    -0.065 C 
ATOM     13  C   UNL     1     160.999 167.747 181.992  1.00  0.00    -0.008 C 
ATOM     14  C   UNL     1     160.257 167.912 183.359  1.00  0.00     0.014 C 
ATOM     15  C   UNL     1     160.263 169.351 183.917  1.00  0.00     0.033 C 
ATOM     16  C   UNL     1     161.681 169.940 184.011  1.00  0.00     0.118 C 
ATOM     17  C   UNL     1     162.388 169.865 182.654  1.00  0.00     0.063 C 
ATOM     18  C   UNL     1     160.201 168.473 180.877  1.00  0.00     0.016 C 
ATOM     19  C   UNL     1     161.049 162.887 183.519  1.00  0.00     0.012 C 
ENDROOT
BRANCH   1  20
ATOM     20  C   UNL     1     160.394 161.016 180.906  1.00  0.00     0.133 C 
ATOM     21  C   UNL     1     159.875 160.049 181.927  1.00  0.00     0.088 C 
ATOM     22  O   UNL     1     159.876 161.052 179.800  1.00  0.00    -0.300 OA
ENDBRANCH   1  20
BRANCH  16  23
ATOM     23  O   UNL     1     162.436 169.246 184.972  1.00  0.00    -0.393 OA
ATOM     24  H   UNL     1     162.569 168.326 184.623  1.00  0.00     0.210 HD
ENDBRANCH  16  23
TORSDOF 2
ENDMDL
MODEL 3
REMARK VINA RESULT:    -6.297     15.335     18.643
REMARK INTER + INTRA:          -6.936
REMARK INTER:                  -6.978
REMARK INTRA:                   0.041
REMARK UNBOUND:                -0.087
REMARK SMILES CC(=O)[C@H]1CC[C@H]2[C@H]3CC=C4C[C@H](O)CC[C@]4(C)[C@@H]3CC[C@@]12C
REMARK SMILES IDX 4 1 5 2 6 3 7 4 22 5 21 6 20 7 19 8 8 9 9 10 10 11 11 12
REMARK SMILES IDX 17 13 16 14 15 15 13 16 12 17 18 18 23 19 2 20 1 21 3 22
REMARK SMILES IDX 14 23
REMARK H PARENT 14 24
REMARK Flexibility Score: inf
ROOT
ATOM      1  C   UNL     1     173.418 179.932 181.559  1.00  0.00     0.062 C 
ATOM      2  C   UNL     1     172.960 179.833 180.100  1.00  0.00     0.012 C 
ATOM      3  C   UNL     1     171.430 179.837 180.131  1.00  0.00     0.005 C 
ATOM      4  C   UNL     1     171.021 180.007 181.606  1.00  0.00    -0.001 C 
ATOM      5  C   UNL     1     172.215 179.454 182.412  1.00  0.00    -0.020 C 
ATOM      6  C   UNL     1     172.143 177.900 182.493  1.00  0.00     0.008 C 
ATOM      7  C   UNL     1     170.792 177.391 183.000  1.00  0.00     0.005 C 
ATOM      8  C   UNL     1     169.625 177.870 182.103  1.00  0.00     0.003 C 
ATOM      9  C   UNL     1     169.633 179.412 181.999  1.00  0.00     0.000 C 
ATOM     10  C   UNL     1     168.549 179.857 181.007  1.00  0.00     0.031 C 
ATOM     11  C   UNL     1     167.206 179.336 181.406  1.00  0.00    -0.027 C 
ATOM     12  C   UNL     1     167.034 178.156 182.034  1.00  0.00    -0.065 C 
ATOM     13  C   UNL     1     168.208 177.297 182.545  1.00  0.00    -0.008 C 
ATOM     14  C   UNL     1     168.071 177.229 184.102  1.00  0.00     0.014 C 
ATOM     15  C   UNL     1     166.658 176.860 184.601  1.00  0.00     0.033 C 
ATOM     16  C   UNL     1     165.569 177.774 184.013  1.00  0.00     0.118 C 
ATOM     17  C   UNL     1     165.636 177.780 182.483  1.00  0.00     0.063 C 
ATOM     18  C   UNL     1     168.075 175.872 181.948  1.00  0.00     0.016 C 
ATOM     19  C   UNL     1     172.281 180.077 183.828  1.00  0.00     0.012 C 
ENDROOT
BRANCH   1  20
ATOM     20  C   UNL     1     174.736 179.228 181.826  1.00  0.00     0.133 C 
ATOM     21  C   UNL     1     175.015 177.896 181.197  1.00  0.00     0.088 C 
ATOM     22  O   UNL     1     175.563 179.717 182.582  1.00  0.00    -0.300 OA
ENDBRANCH   1  20
BRANCH  16  23
ATOM     23  O   UNL     1     165.720 179.086 184.495  1.00  0.00    -0.393 OA
ATOM     24  H   UNL     1     166.688 179.217 184.669  1.00  0.00     0.210 HD
ENDBRANCH  16  23
TORSDOF 2
ENDMDL
MODEL 4
REMARK VINA RESULT:    -6.177      1.691      6.681
REMARK INTER + INTRA:          -6.806
REMARK INTER:                  -6.639
REMARK INTRA:                  -0.166
REMARK UNBOUND:                -0.087
REMARK SMILES CC(=O)[C@H]1CC[C@H]2[C@H]3CC=C4C[C@H](O)CC[C@]4(C)[C@@H]3CC[C@@]12C
REMARK SMILES IDX 4 1 5 2 6 3 7 4 22 5 21 6 20 7 19 8 8 9 9 10 10 11 11 12
REMARK SMILES IDX 17 13 16 14 15 15 13 16 12 17 18 18 23 19 2 20 1 21 3 22
REMARK SMILES IDX 14 23
REMARK H PARENT 14 24
REMARK Flexibility Score: inf
ROOT
ATOM      1  C   UNL     1     168.192 160.249 181.731  1.00  0.00     0.062 C 
ATOM      2  C   UNL     1     168.048 160.325 183.255  1.00  0.00     0.012 C 
ATOM      3  C   UNL     1     166.548 160.436 183.538  1.00  0.00     0.005 C 
ATOM      4  C   UNL     1     165.837 160.354 182.175  1.00  0.00    -0.001 C 
ATOM      5  C   UNL     1     166.884 160.848 181.154  1.00  0.00    -0.020 C 
ATOM      6  C   UNL     1     166.923 162.405 181.125  1.00  0.00     0.008 C 
ATOM      7  C   UNL     1     165.544 163.033 180.917  1.00  0.00     0.005 C 
ATOM      8  C   UNL     1     164.547 162.608 182.023  1.00  0.00     0.003 C 
ATOM      9  C   UNL     1     164.451 161.067 182.088  1.00  0.00     0.000 C 
ATOM     10  C   UNL     1     163.557 160.665 183.270  1.00  0.00     0.031 C 
ATOM     11  C   UNL     1     162.209 161.300 183.167  1.00  0.00    -0.027 C 
ATOM     12  C   UNL     1     162.009 162.513 182.614  1.00  0.00    -0.065 C 
ATOM     13  C   UNL     1     163.121 163.301 181.893  1.00  0.00    -0.008 C 
ATOM     14  C   UNL     1     162.678 163.440 180.399  1.00  0.00     0.014 C 
ATOM     15  C   UNL     1     161.228 163.933 180.209  1.00  0.00     0.033 C 
ATOM     16  C   UNL     1     160.210 163.080 180.985  1.00  0.00     0.118 C 
ATOM     17  C   UNL     1     160.584 163.009 182.469  1.00  0.00     0.063 C 
ATOM     18  C   UNL     1     163.228 164.708 182.537  1.00  0.00     0.016 C 
ATOM     19  C   UNL     1     166.612 160.278 179.741  1.00  0.00     0.012 C 
ENDROOT
BRANCH   1  20
ATOM     20  C   UNL     1     169.481 160.863 181.216  1.00  0.00     0.133 C 
ATOM     21  C   UNL     1     170.279 161.779 182.096  1.00  0.00     0.088 C 
ATOM     22  O   UNL     1     169.862 160.649 180.075  1.00  0.00    -0.300 OA
ENDBRANCH   1  20
BRANCH  16  23
ATOM     23  O   UNL     1     160.154 161.781 180.453  1.00  0.00    -0.393 OA
ATOM     24  H   UNL     1     160.320 161.863 179.478  1.00  0.00     0.210 HD
ENDBRANCH  16  23
TORSDOF 2
ENDMDL
MODEL 5
REMARK VINA RESULT:    -5.932      1.312      6.542
REMARK INTER + INTRA:          -6.539
REMARK INTER:                  -6.387
REMARK INTRA:                  -0.152
REMARK UNBOUND:                -0.087
REMARK SMILES CC(=O)[C@H]1CC[C@H]2[C@H]3CC=C4C[C@H](O)CC[C@]4(C)[C@@H]3CC[C@@]12C
REMARK SMILES IDX 4 1 5 2 6 3 7 4 22 5 21 6 20 7 19 8 8 9 9 10 10 11 11 12
REMARK SMILES IDX 17 13 16 14 15 15 13 16 12 17 18 18 23 19 2 20 1 21 3 22
REMARK SMILES IDX 14 23
REMARK H PARENT 14 24
REMARK Flexibility Score: inf
ROOT
ATOM      1  C   UNL     1     168.669 161.855 182.422  1.00  0.00     0.062 C 
ATOM      2  C   UNL     1     168.594 163.140 181.591  1.00  0.00     0.012 C 
ATOM      3  C   UNL     1     167.196 163.718 181.821  1.00  0.00     0.005 C 
ATOM      4  C   UNL     1     166.501 162.795 182.838  1.00  0.00    -0.001 C 
ATOM      5  C   UNL     1     167.199 161.429 182.671  1.00  0.00    -0.020 C 
ATOM      6  C   UNL     1     166.604 160.660 181.453  1.00  0.00     0.008 C 
ATOM      7  C   UNL     1     165.079 160.550 181.504  1.00  0.00     0.005 C 
ATOM      8  C   UNL     1     164.405 161.943 181.556  1.00  0.00     0.003 C 
ATOM      9  C   UNL     1     164.943 162.749 182.760  1.00  0.00     0.000 C 
ATOM     10  C   UNL     1     164.357 164.167 182.720  1.00  0.00     0.031 C 
ATOM     11  C   UNL     1     162.864 164.134 182.700  1.00  0.00    -0.027 C 
ATOM     12  C   UNL     1     162.160 163.149 182.107  1.00  0.00    -0.065 C 
ATOM     13  C   UNL     1     162.816 161.880 181.528  1.00  0.00    -0.008 C 
ATOM     14  C   UNL     1     162.269 160.672 182.359  1.00  0.00     0.014 C 
ATOM     15  C   UNL     1     160.735 160.659 182.528  1.00  0.00     0.033 C 
ATOM     16  C   UNL     1     160.194 161.981 183.099  1.00  0.00     0.118 C 
ATOM     17  C   UNL     1     160.650 163.166 182.242  1.00  0.00     0.063 C 
ATOM     18  C   UNL     1     162.382 161.731 180.046  1.00  0.00     0.016 C 
ATOM     19  C   UNL     1     167.099 160.578 183.961  1.00  0.00     0.012 C 
ENDROOT
BRANCH   1  20
ATOM     20  C   UNL     1     169.568 160.794 181.813  1.00  0.00     0.133 C 
ATOM     21  C   UNL     1     169.901 160.842 180.352  1.00  0.00     0.088 C 
ATOM     22  O   UNL     1     169.997 159.875 182.494  1.00  0.00    -0.300 OA
ENDBRANCH   1  20
BRANCH  16  23
ATOM     23  O   UNL     1     160.637 162.160 184.420  1.00  0.00    -0.393 OA
ATOM     24  H   UNL     1     160.868 163.120 184.518  1.00  0.00     0.210 HD
ENDBRANCH  16  23
TORSDOF 2
ENDMDL
MODEL 6
REMARK VINA RESULT:    -5.909      1.599      2.845
REMARK INTER + INTRA:          -6.514
REMARK INTER:                  -6.432
REMARK INTRA:                  -0.082
REMARK UNBOUND:                -0.087
REMARK SMILES CC(=O)[C@H]1CC[C@H]2[C@H]3CC=C4C[C@H](O)CC[C@]4(C)[C@@H]3CC[C@@]12C
REMARK SMILES IDX 4 1 5 2 6 3 7 4 22 5 21 6 20 7 19 8 8 9 9 10 10 11 11 12
REMARK SMILES IDX 17 13 16 14 15 15 13 16 12 17 18 18 23 19 2 20 1 21 3 22
REMARK SMILES IDX 14 23
REMARK H PARENT 14 24
REMARK Flexibility Score: inf
ROOT
ATOM      1  C   UNL     1     161.589 162.515 182.631  1.00  0.00     0.062 C 
ATOM      2  C   UNL     1     161.609 161.000 182.860  1.00  0.00     0.012 C 
ATOM      3  C   UNL     1     163.064 160.633 183.164  1.00  0.00     0.005 C 
ATOM      4  C   UNL     1     163.857 161.953 183.175  1.00  0.00    -0.001 C 
ATOM      5  C   UNL     1     163.046 162.907 182.274  1.00  0.00    -0.020 C 
ATOM      6  C   UNL     1     163.366 162.639 180.772  1.00  0.00     0.008 C 
ATOM      7  C   UNL     1     164.865 162.660 180.469  1.00  0.00     0.005 C 
ATOM      8  C   UNL     1     165.635 161.612 181.309  1.00  0.00     0.003 C 
ATOM      9  C   UNL     1     165.371 161.839 182.814  1.00  0.00     0.000 C 
ATOM     10  C   UNL     1     166.039 160.716 183.620  1.00  0.00     0.031 C 
ATOM     11  C   UNL     1     167.501 160.635 183.321  1.00  0.00    -0.027 C 
ATOM     12  C   UNL     1     168.021 160.935 182.114  1.00  0.00    -0.065 C 
ATOM     13  C   UNL     1     167.187 161.542 180.967  1.00  0.00    -0.008 C 
ATOM     14  C   UNL     1     167.782 162.960 180.680  1.00  0.00     0.014 C 
ATOM     15  C   UNL     1     169.317 162.987 180.526  1.00  0.00     0.033 C 
ATOM     16  C   UNL     1     170.040 162.342 181.721  1.00  0.00     0.118 C 
ATOM     17  C   UNL     1     169.529 160.918 181.958  1.00  0.00     0.063 C 
ATOM     18  C   UNL     1     167.348 160.646 179.711  1.00  0.00     0.016 C 
ATOM     19  C   UNL     1     163.306 164.389 182.636  1.00  0.00     0.012 C 
ENDROOT
BRANCH   1  20
ATOM     20  C   UNL     1     160.525 162.961 181.644  1.00  0.00     0.133 C 
ATOM     21  C   UNL     1     159.875 164.303 181.798  1.00  0.00     0.088 C 
ATOM     22  O   UNL     1     160.162 162.222 180.742  1.00  0.00    -0.300 OA
ENDBRANCH   1  20
BRANCH  16  23
ATOM     23  O   UNL     1     169.846 163.110 182.882  1.00  0.00    -0.393 OA
ATOM     24  H   UNL     1     168.954 162.864 183.242  1.00  0.00     0.210 HD
ENDBRANCH  16  23
TORSDOF 2
ENDMDL
MODEL 7
REMARK VINA RESULT:    -5.880      4.027      6.821
REMARK INTER + INTRA:          -6.482
REMARK INTER:                  -6.317
REMARK INTRA:                  -0.165
REMARK UNBOUND:                -0.087
REMARK SMILES CC(=O)[C@H]1CC[C@H]2[C@H]3CC=C4C[C@H](O)CC[C@]4(C)[C@@H]3CC[C@@]12C
REMARK SMILES IDX 4 1 5 2 6 3 7 4 22 5 21 6 20 7 19 8 8 9 9 10 10 11 11 12
REMARK SMILES IDX 17 13 16 14 15 15 13 16 12 17 18 18 23 19 2 20 1 21 3 22
REMARK SMILES IDX 14 23
REMARK H PARENT 14 24
REMARK Flexibility Score: inf
ROOT
ATOM      1  C   UNL     1     162.119 168.904 181.692  1.00  0.00     0.062 C 
ATOM      2  C   UNL     1     163.218 168.648 182.729  1.00  0.00     0.012 C 
ATOM      3  C   UNL     1     163.682 167.206 182.512  1.00  0.00     0.005 C 
ATOM      4  C   UNL     1     162.893 166.667 181.305  1.00  0.00    -0.001 C 
ATOM      5  C   UNL     1     161.598 167.505 181.276  1.00  0.00    -0.020 C 
ATOM      6  C   UNL     1     160.564 166.944 182.298  1.00  0.00     0.008 C 
ATOM      7  C   UNL     1     160.310 165.445 182.128  1.00  0.00     0.005 C 
ATOM      8  C   UNL     1     161.613 164.622 182.276  1.00  0.00     0.003 C 
ATOM      9  C   UNL     1     162.675 165.122 181.271  1.00  0.00     0.000 C 
ATOM     10  C   UNL     1     163.995 164.380 181.519  1.00  0.00     0.031 C 
ATOM     11  C   UNL     1     163.807 162.900 181.435  1.00  0.00    -0.027 C 
ATOM     12  C   UNL     1     162.664 162.284 181.797  1.00  0.00    -0.065 C 
ATOM     13  C   UNL     1     161.384 163.050 182.187  1.00  0.00    -0.008 C 
ATOM     14  C   UNL     1     160.297 162.682 181.123  1.00  0.00     0.014 C 
ATOM     15  C   UNL     1     160.159 161.169 180.853  1.00  0.00     0.033 C 
ATOM     16  C   UNL     1     161.501 160.511 180.489  1.00  0.00     0.118 C 
ATOM     17  C   UNL     1     162.551 160.790 181.568  1.00  0.00     0.063 C 
ATOM     18  C   UNL     1     160.925 162.567 183.588  1.00  0.00     0.016 C 
ATOM     19  C   UNL     1     160.990 167.562 179.853  1.00  0.00     0.012 C 
ENDROOT
BRANCH   1  20
ATOM     20  C   UNL     1     161.063 169.888 182.164  1.00  0.00     0.133 C 
ATOM     21  C   UNL     1     160.954 170.229 183.620  1.00  0.00     0.088 C 
ATOM     22  O   UNL     1     160.272 170.380 181.373  1.00  0.00    -0.300 OA
ENDBRANCH   1  20
BRANCH  16  23
ATOM     23  O   UNL     1     161.961 160.992 179.251  1.00  0.00    -0.393 OA
ATOM     24  H   UNL     1     162.939 160.829 179.226  1.00  0.00     0.210 HD
ENDBRANCH  16  23
TORSDOF 2
ENDMDL
MODEL 8
REMARK VINA RESULT:    -5.777     12.627     16.358
REMARK INTER + INTRA:          -6.371
REMARK INTER:                  -6.221
REMARK INTRA:                  -0.150
REMARK UNBOUND:                -0.087
REMARK SMILES CC(=O)[C@H]1CC[C@H]2[C@H]3CC=C4C[C@H](O)CC[C@]4(C)[C@@H]3CC[C@@]12C
REMARK SMILES IDX 4 1 5 2 6 3 7 4 22 5 21 6 20 7 19 8 8 9 9 10 10 11 11 12
REMARK SMILES IDX 17 13 16 14 15 15 13 16 12 17 18 18 23 19 2 20 1 21 3 22
REMARK SMILES IDX 14 23
REMARK H PARENT 14 24
REMARK Flexibility Score: inf
ROOT
ATOM      1  C   UNL     1     179.388 173.354 181.985  1.00  0.00     0.062 C 
ATOM      2  C   UNL     1     179.956 172.703 183.251  1.00  0.00     0.012 C 
ATOM      3  C   UNL     1     179.994 171.198 182.978  1.00  0.00     0.005 C 
ATOM      4  C   UNL     1     179.511 171.002 181.529  1.00  0.00    -0.001 C 
ATOM      5  C   UNL     1     178.623 172.230 181.241  1.00  0.00    -0.020 C 
ATOM      6  C   UNL     1     177.194 172.017 181.827  1.00  0.00     0.008 C 
ATOM      7  C   UNL     1     176.557 170.700 181.379  1.00  0.00     0.005 C 
ATOM      8  C   UNL     1     177.418 169.479 181.784  1.00  0.00     0.003 C 
ATOM      9  C   UNL     1     178.847 169.625 181.214  1.00  0.00     0.000 C 
ATOM     10  C   UNL     1     179.717 168.470 181.731  1.00  0.00     0.031 C 
ATOM     11  C   UNL     1     179.117 167.146 181.387  1.00  0.00    -0.027 C 
ATOM     12  C   UNL     1     177.787 166.942 181.308  1.00  0.00    -0.065 C 
ATOM     13  C   UNL     1     176.754 168.083 181.411  1.00  0.00    -0.008 C 
ATOM     14  C   UNL     1     176.012 168.143 180.035  1.00  0.00     0.014 C 
ATOM     15  C   UNL     1     175.506 166.777 179.525  1.00  0.00     0.033 C 
ATOM     16  C   UNL     1     176.619 165.716 179.480  1.00  0.00     0.118 C 
ATOM     17  C   UNL     1     177.296 165.584 180.847  1.00  0.00     0.063 C 
ATOM     18  C   UNL     1     175.742 167.734 182.533  1.00  0.00     0.016 C 
ATOM     19  C   UNL     1     178.556 172.540 179.726  1.00  0.00     0.012 C 
ENDROOT
BRANCH   1  20
ATOM     20  C   UNL     1     178.597 174.620 182.262  1.00  0.00     0.133 C 
ATOM     21  C   UNL     1     178.027 174.864 183.626  1.00  0.00     0.088 C 
ATOM     22  O   UNL     1     178.386 175.430 181.371  1.00  0.00    -0.300 OA
ENDBRANCH   1  20
BRANCH  16  23
ATOM     23  O   UNL     1     177.579 166.056 178.512  1.00  0.00    -0.393 OA
ATOM     24  H   UNL     1     178.462 165.792 178.879  1.00  0.00     0.210 HD
ENDBRANCH  16  23
TORSDOF 2
ENDMDL
MODEL 9
REMARK VINA RESULT:    -5.764      9.435     11.611
REMARK INTER + INTRA:          -6.357
REMARK INTER:                  -6.205
REMARK INTRA:                  -0.152
REMARK UNBOUND:                -0.087
REMARK SMILES CC(=O)[C@H]1CC[C@H]2[C@H]3CC=C4C[C@H](O)CC[C@]4(C)[C@@H]3CC[C@@]12C
REMARK SMILES IDX 4 1 5 2 6 3 7 4 22 5 21 6 20 7 19 8 8 9 9 10 10 11 11 12
REMARK SMILES IDX 17 13 16 14 15 15 13 16 12 17 18 18 23 19 2 20 1 21 3 22
REMARK SMILES IDX 14 23
REMARK H PARENT 14 24
REMARK Flexibility Score: inf
ROOT
ATOM      1  C   UNL     1     160.275 168.452 181.916  1.00  0.00     0.062 C 
ATOM      2  C   UNL     1     160.350 168.700 183.427  1.00  0.00     0.012 C 
ATOM      3  C   UNL     1     160.194 170.210 183.621  1.00  0.00     0.005 C 
ATOM      4  C   UNL     1     159.962 170.811 182.223  1.00  0.00    -0.001 C 
ATOM      5  C   UNL     1     160.618 169.810 181.250  1.00  0.00    -0.020 C 
ATOM      6  C   UNL     1     162.156 170.048 181.180  1.00  0.00     0.008 C 
ATOM      7  C   UNL     1     162.521 171.503 180.876  1.00  0.00     0.005 C 
ATOM      8  C   UNL     1     161.942 172.472 181.936  1.00  0.00     0.003 C 
ATOM      9  C   UNL     1     160.411 172.294 182.038  1.00  0.00     0.000 C 
ATOM     10  C   UNL     1     159.875 173.171 183.179  1.00  0.00     0.031 C 
ATOM     11  C   UNL     1     160.254 174.603 182.982  1.00  0.00    -0.027 C 
ATOM     12  C   UNL     1     161.401 174.983 182.385  1.00  0.00    -0.065 C 
ATOM     13  C   UNL     1     162.365 173.988 181.706  1.00  0.00    -0.008 C 
ATOM     14  C   UNL     1     162.395 174.358 180.186  1.00  0.00     0.014 C 
ATOM     15  C   UNL     1     162.614 175.859 179.901  1.00  0.00     0.033 C 
ATOM     16  C   UNL     1     161.606 176.753 180.643  1.00  0.00     0.118 C 
ATOM     17  C   UNL     1     161.630 176.463 182.146  1.00  0.00     0.063 C 
ATOM     18  C   UNL     1     163.779 174.175 182.316  1.00  0.00     0.016 C 
ATOM     19  C   UNL     1     159.984 169.889 179.840  1.00  0.00     0.012 C 
ENDROOT
BRANCH   1  20
ATOM     20  C   UNL     1     161.102 167.265 181.458  1.00  0.00     0.133 C 
ATOM     21  C   UNL     1     162.220 166.754 182.317  1.00  0.00     0.088 C 
ATOM     22  O   UNL     1     160.893 166.740 180.374  1.00  0.00    -0.300 OA
ENDBRANCH   1  20
BRANCH  16  23
ATOM     23  O   UNL     1     160.309 176.543 180.145  1.00  0.00    -0.393 OA
ATOM     24  H   UNL     1     159.689 177.035 180.743  1.00  0.00     0.210 HD
ENDBRANCH  16  23
TORSDOF 2
ENDMDL
