MODEL 1
REMARK VINA RESULT:    -7.965      0.000      0.000
REMARK INTER + INTRA:          -8.198
REMARK INTER:                  -8.198
REMARK INTRA:                   0.000
REMARK UNBOUND:                 0.000
REMARK SMILES C[C@@H]1CC[C@]2(OC1)O[C@@H]1C[C@@H]3[C@@H]4CC=C5C[C@@H](O)CC[C@]5(C)[C@@H]4CC[C@@]3(C)[C@@H]1[C@H]2C
REMARK SMILES IDX 1 1 2 2 3 3 4 4 5 5 29 6 28 7 9 8 8 9 10 10 11 11 26 12
REMARK SMILES IDX 25 13 24 14 23 15 12 16 13 17 14 18 15 19 21 20 20 21 19 22
REMARK SMILES IDX 17 23 16 24 22 25 27 26 30 27 6 28 7 29 18 30
REMARK H PARENT 18 31
REMARK Flexibility Score: inf
ROOT
ATOM      1  C   UNL     1       3.866  -6.716  25.730  1.00  0.00     0.010 C 
ATOM      2  C   UNL     1       2.579  -6.266  25.022  1.00  0.00     0.012 C 
ATOM      3  C   UNL     1       2.319  -7.059  23.730  1.00  0.00     0.011 C 
ATOM      4  C   UNL     1       3.260  -6.621  22.602  1.00  0.00     0.066 C 
ATOM      5  C   UNL     1       3.301  -5.076  22.469  1.00  0.00     0.171 C 
ATOM      6  C   UNL     1       4.368  -4.661  21.423  1.00  0.00     0.052 C 
ATOM      7  C   UNL     1       3.733  -3.441  20.744  1.00  0.00     0.033 C 
ATOM      8  C   UNL     1       2.330  -3.373  21.366  1.00  0.00     0.126 C 
ATOM      9  O   UNL     1       2.058  -4.608  21.981  1.00  0.00    -0.346 OA
ATOM     10  C   UNL     1       1.336  -3.069  20.232  1.00  0.00     0.037 C 
ATOM     11  C   UNL     1       2.246  -2.554  19.129  1.00  0.00     0.002 C 
ATOM     12  C   UNL     1       3.499  -3.437  19.197  1.00  0.00    -0.024 C 
ATOM     13  C   UNL     1       4.603  -2.719  18.400  1.00  0.00     0.008 C 
ATOM     14  C   UNL     1       4.164  -2.447  16.940  1.00  0.00     0.005 C 
ATOM     15  C   UNL     1       2.802  -1.678  16.797  1.00  0.00     0.003 C 
ATOM     16  C   UNL     1       1.679  -2.264  17.721  1.00  0.00     0.000 C 
ATOM     17  C   UNL     1       0.825  -3.402  17.089  1.00  0.00     0.031 C 
ATOM     18  C   UNL     1       1.167  -3.748  15.661  1.00  0.00    -0.027 C 
ATOM     19  C   UNL     1       1.795  -2.903  14.816  1.00  0.00    -0.065 C 
ATOM     20  C   UNL     1       2.290  -1.545  15.308  1.00  0.00    -0.008 C 
ATOM     21  C   UNL     1       3.418  -0.987  14.376  1.00  0.00     0.014 C 
ATOM     22  C   UNL     1       3.119  -1.143  12.881  1.00  0.00     0.033 C 
ATOM     23  C   UNL     1       2.913  -2.627  12.549  1.00  0.00     0.118 C 
ATOM     24  C   UNL     1       1.727  -3.209  13.330  1.00  0.00     0.063 C 
ATOM     25  C   UNL     1       1.098  -0.550  15.257  1.00  0.00     0.016 C 
ATOM     26  C   UNL     1       3.292  -4.872  18.624  1.00  0.00     0.012 C 
ATOM     27  C   UNL     1       5.743  -4.341  22.032  1.00  0.00     0.014 C 
ATOM     28  O   UNL     1       3.597  -4.468  23.727  1.00  0.00    -0.349 OA
ATOM     29  C   UNL     1       2.612  -4.765  24.700  1.00  0.00     0.167 C 
ENDROOT
BRANCH  23  30
ATOM     30  O   UNL     1       2.729  -2.809  11.168  1.00  0.00    -0.393 OA
ATOM     31  H   UNL     1       2.020  -2.179  10.869  1.00  0.00     0.210 HD
ENDBRANCH  23  30
TORSDOF 1
ENDMDL
MODEL 2
REMARK VINA RESULT:    -7.788      2.067      8.761
REMARK INTER + INTRA:          -8.016
REMARK INTER:                  -8.016
REMARK INTRA:                   0.000
REMARK UNBOUND:                 0.000
REMARK SMILES C[C@@H]1CC[C@]2(OC1)O[C@@H]1C[C@@H]3[C@@H]4CC=C5C[C@@H](O)CC[C@]5(C)[C@@H]4CC[C@@]3(C)[C@@H]1[C@H]2C
REMARK SMILES IDX 1 1 2 2 3 3 4 4 5 5 29 6 28 7 9 8 8 9 10 10 11 11 26 12
REMARK SMILES IDX 25 13 24 14 23 15 12 16 13 17 14 18 15 19 21 20 20 21 19 22
REMARK SMILES IDX 17 23 16 24 22 25 27 26 30 27 6 28 7 29 18 30
REMARK H PARENT 18 31
REMARK Flexibility Score: inf
ROOT
ATOM      1  C   UNL     1       2.111  -0.975  11.759  1.00  0.00     0.010 C 
ATOM      2  C   UNL     1       3.168  -1.671  12.631  1.00  0.00     0.012 C 
ATOM      3  C   UNL     1       2.731  -3.082  13.058  1.00  0.00     0.011 C 
ATOM      4  C   UNL     1       1.657  -3.032  14.151  1.00  0.00     0.066 C 
ATOM      5  C   UNL     1       2.055  -2.056  15.290  1.00  0.00     0.171 C 
ATOM      6  C   UNL     1       0.888  -1.917  16.301  1.00  0.00     0.052 C 
ATOM      7  C   UNL     1       1.609  -1.786  17.648  1.00  0.00     0.033 C 
ATOM      8  C   UNL     1       3.086  -2.003  17.288  1.00  0.00     0.126 C 
ATOM      9  O   UNL     1       3.149  -2.590  16.012  1.00  0.00    -0.346 OA
ATOM     10  C   UNL     1       3.696  -2.915  18.365  1.00  0.00     0.037 C 
ATOM     11  C   UNL     1       2.682  -2.813  19.492  1.00  0.00     0.002 C 
ATOM     12  C   UNL     1       1.312  -2.802  18.800  1.00  0.00    -0.024 C 
ATOM     13  C   UNL     1       0.288  -2.297  19.832  1.00  0.00     0.008 C 
ATOM     14  C   UNL     1       0.285  -3.173  21.108  1.00  0.00     0.005 C 
ATOM     15  C   UNL     1       1.691  -3.354  21.782  1.00  0.00     0.003 C 
ATOM     16  C   UNL     1       2.816  -3.706  20.747  1.00  0.00     0.000 C 
ATOM     17  C   UNL     1       3.019  -5.226  20.477  1.00  0.00     0.031 C 
ATOM     18  C   UNL     1       2.138  -6.147  21.284  1.00  0.00    -0.027 C 
ATOM     19  C   UNL     1       1.563  -5.798  22.453  1.00  0.00    -0.065 C 
ATOM     20  C   UNL     1       1.701  -4.375  22.989  1.00  0.00    -0.008 C 
ATOM     21  C   UNL     1       0.562  -4.045  24.010  1.00  0.00     0.014 C 
ATOM     22  C   UNL     1       0.290  -5.167  25.018  1.00  0.00     0.033 C 
ATOM     23  C   UNL     1      -0.093  -6.450  24.270  1.00  0.00     0.118 C 
ATOM     24  C   UNL     1       1.041  -6.912  23.345  1.00  0.00     0.063 C 
ATOM     25  C   UNL     1       3.056  -4.273  23.742  1.00  0.00     0.016 C 
ATOM     26  C   UNL     1       0.865  -4.196  18.263  1.00  0.00     0.012 C 
ATOM     27  C   UNL     1      -0.042  -0.725  16.017  1.00  0.00     0.014 C 
ATOM     28  O   UNL     1       2.390  -0.773  14.762  1.00  0.00    -0.349 OA
ATOM     29  C   UNL     1       3.497  -0.840  13.880  1.00  0.00     0.167 C 
ENDROOT
BRANCH  23  30
ATOM     30  O   UNL     1      -0.438  -7.472  25.172  1.00  0.00    -0.393 OA
ATOM     31  H   UNL     1       0.336  -8.093  25.239  1.00  0.00     0.210 HD
ENDBRANCH  23  30
TORSDOF 1
ENDMDL
MODEL 3
REMARK VINA RESULT:    -7.355      1.808      8.807
REMARK INTER + INTRA:          -7.570
REMARK INTER:                  -7.570
REMARK INTRA:                   0.000
REMARK UNBOUND:                 0.000
REMARK SMILES C[C@@H]1CC[C@]2(OC1)O[C@@H]1C[C@@H]3[C@@H]4CC=C5C[C@@H](O)CC[C@]5(C)[C@@H]4CC[C@@]3(C)[C@@H]1[C@H]2C
REMARK SMILES IDX 1 1 2 2 3 3 4 4 5 5 29 6 28 7 9 8 8 9 10 10 11 11 26 12
REMARK SMILES IDX 25 13 24 14 23 15 12 16 13 17 14 18 15 19 21 20 20 21 19 22
REMARK SMILES IDX 17 23 16 24 22 25 27 26 30 27 6 28 7 29 18 30
REMARK H PARENT 18 31
REMARK Flexibility Score: inf
ROOT
ATOM      1  C   UNL     1       1.674  -1.181  10.802  1.00  0.00     0.010 C 
ATOM      2  C   UNL     1       2.845  -1.695  11.654  1.00  0.00     0.012 C 
ATOM      3  C   UNL     1       2.593  -3.113  12.193  1.00  0.00     0.011 C 
ATOM      4  C   UNL     1       1.576  -3.105  13.341  1.00  0.00     0.066 C 
ATOM      5  C   UNL     1       1.917  -2.016  14.391  1.00  0.00     0.171 C 
ATOM      6  C   UNL     1       0.795  -1.937  15.458  1.00  0.00     0.052 C 
ATOM      7  C   UNL     1       1.564  -1.635  16.750  1.00  0.00     0.033 C 
ATOM      8  C   UNL     1       3.036  -1.712  16.319  1.00  0.00     0.126 C 
ATOM      9  O   UNL     1       3.100  -2.376  15.081  1.00  0.00    -0.346 OA
ATOM     10  C   UNL     1       3.798  -2.476  17.415  1.00  0.00     0.037 C 
ATOM     11  C   UNL     1       2.837  -2.408  18.590  1.00  0.00     0.002 C 
ATOM     12  C   UNL     1       1.441  -2.596  17.978  1.00  0.00    -0.024 C 
ATOM     13  C   UNL     1       0.419  -2.136  19.034  1.00  0.00     0.008 C 
ATOM     14  C   UNL     1       0.580  -2.917  20.360  1.00  0.00     0.005 C 
ATOM     15  C   UNL     1       2.030  -2.896  20.962  1.00  0.00     0.003 C 
ATOM     16  C   UNL     1       3.134  -3.193  19.889  1.00  0.00     0.000 C 
ATOM     17  C   UNL     1       3.494  -4.696  19.703  1.00  0.00     0.031 C 
ATOM     18  C   UNL     1       2.765  -5.651  20.616  1.00  0.00    -0.027 C 
ATOM     19  C   UNL     1       2.213  -5.287  21.792  1.00  0.00    -0.065 C 
ATOM     20  C   UNL     1       2.216  -3.824  22.228  1.00  0.00    -0.008 C 
ATOM     21  C   UNL     1       1.099  -3.551  23.291  1.00  0.00     0.014 C 
ATOM     22  C   UNL     1       1.007  -4.625  24.381  1.00  0.00     0.033 C 
ATOM     23  C   UNL     1       0.735  -5.991  23.738  1.00  0.00     0.118 C 
ATOM     24  C   UNL     1       1.866  -6.387  22.781  1.00  0.00     0.063 C 
ATOM     25  C   UNL     1       3.587  -3.523  22.894  1.00  0.00     0.016 C 
ATOM     26  C   UNL     1       1.129  -4.064  17.556  1.00  0.00     0.012 C 
ATOM     27  C   UNL     1      -0.277  -0.876  15.153  1.00  0.00     0.014 C 
ATOM     28  O   UNL     1       2.078  -0.743  13.765  1.00  0.00    -0.349 OA
ATOM     29  C   UNL     1       3.140  -0.749  12.827  1.00  0.00     0.167 C 
ENDROOT
BRANCH  23  30
ATOM     30  O   UNL     1       0.554  -6.979  24.721  1.00  0.00    -0.393 OA
ATOM     31  H   UNL     1       0.182  -7.787  24.276  1.00  0.00     0.210 HD
ENDBRANCH  23  30
TORSDOF 1
ENDMDL
MODEL 4
REMARK VINA RESULT:    -6.943      1.906      8.827
REMARK INTER + INTRA:          -7.146
REMARK INTER:                  -7.146
REMARK INTRA:                   0.000
REMARK UNBOUND:                 0.000
REMARK SMILES C[C@@H]1CC[C@]2(OC1)O[C@@H]1C[C@@H]3[C@@H]4CC=C5C[C@@H](O)CC[C@]5(C)[C@@H]4CC[C@@]3(C)[C@@H]1[C@H]2C
REMARK SMILES IDX 1 1 2 2 3 3 4 4 5 5 29 6 28 7 9 8 8 9 10 10 11 11 26 12
REMARK SMILES IDX 25 13 24 14 23 15 12 16 13 17 14 18 15 19 21 20 20 21 19 22
REMARK SMILES IDX 17 23 16 24 22 25 27 26 30 27 6 28 7 29 18 30
REMARK H PARENT 18 31
REMARK Flexibility Score: inf
ROOT
ATOM      1  C   UNL     1       1.653  -0.717  13.204  1.00  0.00     0.010 C 
ATOM      2  C   UNL     1       0.609  -1.459  14.052  1.00  0.00     0.012 C 
ATOM      3  C   UNL     1       0.346  -0.756  15.394  1.00  0.00     0.011 C 
ATOM      4  C   UNL     1       1.503  -0.969  16.377  1.00  0.00     0.066 C 
ATOM      5  C   UNL     1       1.917  -2.462  16.448  1.00  0.00     0.171 C 
ATOM      6  C   UNL     1       3.179  -2.622  17.334  1.00  0.00     0.052 C 
ATOM      7  C   UNL     1       2.938  -3.961  18.043  1.00  0.00     0.033 C 
ATOM      8  C   UNL     1       1.520  -4.351  17.603  1.00  0.00     0.126 C 
ATOM      9  O   UNL     1       0.891  -3.210  17.073  1.00  0.00    -0.346 OA
ATOM     10  C   UNL     1       0.781  -4.886  18.841  1.00  0.00     0.037 C 
ATOM     11  C   UNL     1       1.922  -5.180  19.800  1.00  0.00     0.002 C 
ATOM     12  C   UNL     1       2.918  -4.028  19.606  1.00  0.00    -0.024 C 
ATOM     13  C   UNL     1       4.252  -4.473  20.231  1.00  0.00     0.008 C 
ATOM     14  C   UNL     1       4.085  -4.849  21.723  1.00  0.00     0.005 C 
ATOM     15  C   UNL     1       2.968  -5.915  22.010  1.00  0.00     0.003 C 
ATOM     16  C   UNL     1       1.628  -5.602  21.258  1.00  0.00     0.000 C 
ATOM     17  C   UNL     1       0.626  -4.699  22.035  1.00  0.00     0.031 C 
ATOM     18  C   UNL     1       1.064  -4.291  23.419  1.00  0.00    -0.027 C 
ATOM     19  C   UNL     1       1.975  -4.971  24.146  1.00  0.00    -0.065 C 
ATOM     20  C   UNL     1       2.702  -6.173  23.546  1.00  0.00    -0.008 C 
ATOM     21  C   UNL     1       4.041  -6.457  24.306  1.00  0.00     0.014 C 
ATOM     22  C   UNL     1       3.914  -6.384  25.832  1.00  0.00     0.033 C 
ATOM     23  C   UNL     1       3.416  -4.992  26.241  1.00  0.00     0.118 C 
ATOM     24  C   UNL     1       2.036  -4.698  25.639  1.00  0.00     0.063 C 
ATOM     25  C   UNL     1       1.790  -7.419  23.712  1.00  0.00     0.016 C 
ATOM     26  C   UNL     1       2.462  -2.685  20.253  1.00  0.00     0.012 C 
ATOM     27  C   UNL     1       4.498  -2.608  16.544  1.00  0.00     0.014 C 
ATOM     28  O   UNL     1       2.177  -2.977  15.142  1.00  0.00    -0.349 OA
ATOM     29  C   UNL     1       1.030  -2.912  14.313  1.00  0.00     0.167 C 
ENDROOT
BRANCH  23  30
ATOM     30  O   UNL     1       3.378  -4.865  27.641  1.00  0.00    -0.393 OA
ATOM     31  H   UNL     1       2.640  -4.240  27.870  1.00  0.00     0.210 HD
ENDBRANCH  23  30
TORSDOF 1
ENDMDL
MODEL 5
REMARK VINA RESULT:    -6.452      1.769      8.766
REMARK INTER + INTRA:          -6.640
REMARK INTER:                  -6.640
REMARK INTRA:                   0.000
REMARK UNBOUND:                 0.000
REMARK SMILES C[C@@H]1CC[C@]2(OC1)O[C@@H]1C[C@@H]3[C@@H]4CC=C5C[C@@H](O)CC[C@]5(C)[C@@H]4CC[C@@]3(C)[C@@H]1[C@H]2C
REMARK SMILES IDX 1 1 2 2 3 3 4 4 5 5 29 6 28 7 9 8 8 9 10 10 11 11 26 12
REMARK SMILES IDX 25 13 24 14 23 15 12 16 13 17 14 18 15 19 21 20 20 21 19 22
REMARK SMILES IDX 17 23 16 24 22 25 27 26 30 27 6 28 7 29 18 30
REMARK H PARENT 18 31
REMARK Flexibility Score: inf
ROOT
ATOM      1  C   UNL     1       3.550  -0.305  10.721  1.00  0.00     0.010 C 
ATOM      2  C   UNL     1       2.292  -0.879  11.391  1.00  0.00     0.012 C 
ATOM      3  C   UNL     1       1.808  -0.007  12.562  1.00  0.00     0.011 C 
ATOM      4  C   UNL     1       2.709  -0.169  13.793  1.00  0.00     0.066 C 
ATOM      5  C   UNL     1       2.974  -1.665  14.106  1.00  0.00     0.171 C 
ATOM      6  C   UNL     1       4.001  -1.791  15.261  1.00  0.00     0.052 C 
ATOM      7  C   UNL     1       3.506  -3.019  16.034  1.00  0.00     0.033 C 
ATOM      8  C   UNL     1       2.186  -3.376  15.335  1.00  0.00     0.126 C 
ATOM      9  O   UNL     1       1.780  -2.272  14.564  1.00  0.00    -0.346 OA
ATOM     10  C   UNL     1       1.160  -3.716  16.429  1.00  0.00     0.037 C 
ATOM     11  C   UNL     1       2.043  -3.960  17.641  1.00  0.00     0.002 C 
ATOM     12  C   UNL     1       3.148  -2.898  17.553  1.00  0.00    -0.024 C 
ATOM     13  C   UNL     1       4.278  -3.343  18.499  1.00  0.00     0.008 C 
ATOM     14  C   UNL     1       3.768  -3.528  19.948  1.00  0.00     0.005 C 
ATOM     15  C   UNL     1       2.532  -4.486  20.091  1.00  0.00     0.003 C 
ATOM     16  C   UNL     1       1.412  -4.188  19.034  1.00  0.00     0.000 C 
ATOM     17  C   UNL     1       0.346  -3.142  19.472  1.00  0.00     0.031 C 
ATOM     18  C   UNL     1       0.512  -2.599  20.870  1.00  0.00    -0.027 C 
ATOM     19  C   UNL     1       1.189  -3.239  21.846  1.00  0.00    -0.065 C 
ATOM     20  C   UNL     1       1.925  -4.544  21.549  1.00  0.00    -0.008 C 
ATOM     21  C   UNL     1       3.043  -4.812  22.610  1.00  0.00     0.014 C 
ATOM     22  C   UNL     1       2.602  -4.551  24.054  1.00  0.00     0.033 C 
ATOM     23  C   UNL     1       2.145  -3.093  24.197  1.00  0.00     0.118 C 
ATOM     24  C   UNL     1       0.953  -2.794  23.279  1.00  0.00     0.063 C 
ATOM     25  C   UNL     1       0.898  -5.706  21.637  1.00  0.00     0.016 C 
ATOM     26  C   UNL     1       2.678  -1.464  17.941  1.00  0.00     0.012 C 
ATOM     27  C   UNL     1       5.455  -1.947  14.784  1.00  0.00     0.014 C 
ATOM     28  O   UNL     1       3.462  -2.345  12.950  1.00  0.00    -0.349 OA
ATOM     29  C   UNL     1       2.527  -2.313  11.887  1.00  0.00     0.167 C 
ENDROOT
BRANCH  23  30
ATOM     30  O   UNL     1       1.821  -2.799  25.533  1.00  0.00    -0.393 OA
ATOM     31  H   UNL     1       2.296  -1.962  25.785  1.00  0.00     0.210 HD
ENDBRANCH  23  30
TORSDOF 1
ENDMDL
MODEL 6
REMARK VINA RESULT:    -6.272      2.067      3.479
REMARK INTER + INTRA:          -6.455
REMARK INTER:                  -6.455
REMARK INTRA:                   0.000
REMARK UNBOUND:                 0.000
REMARK SMILES C[C@@H]1CC[C@]2(OC1)O[C@@H]1C[C@@H]3[C@@H]4CC=C5C[C@@H](O)CC[C@]5(C)[C@@H]4CC[C@@]3(C)[C@@H]1[C@H]2C
REMARK SMILES IDX 1 1 2 2 3 3 4 4 5 5 29 6 28 7 9 8 8 9 10 10 11 11 26 12
REMARK SMILES IDX 25 13 24 14 23 15 12 16 13 17 14 18 15 19 21 20 20 21 19 22
REMARK SMILES IDX 17 23 16 24 22 25 27 26 30 27 6 28 7 29 18 30
REMARK H PARENT 18 31
REMARK Flexibility Score: inf
ROOT
ATOM      1  C   UNL     1       1.037  -6.485  27.789  1.00  0.00     0.010 C 
ATOM      2  C   UNL     1       1.483  -7.184  26.496  1.00  0.00     0.012 C 
ATOM      3  C   UNL     1       2.709  -6.506  25.862  1.00  0.00     0.011 C 
ATOM      4  C   UNL     1       2.333  -5.183  25.185  1.00  0.00     0.066 C 
ATOM      5  C   UNL     1       1.087  -5.347  24.276  1.00  0.00     0.171 C 
ATOM      6  C   UNL     1       0.647  -3.967  23.724  1.00  0.00     0.052 C 
ATOM      7  C   UNL     1       0.159  -4.299  22.308  1.00  0.00     0.033 C 
ATOM      8  C   UNL     1       0.499  -5.788  22.150  1.00  0.00     0.126 C 
ATOM      9  O   UNL     1       1.421  -6.141  23.152  1.00  0.00    -0.346 OA
ATOM     10  C   UNL     1       1.086  -5.981  20.742  1.00  0.00     0.037 C 
ATOM     11  C   UNL     1       0.653  -4.712  20.029  1.00  0.00     0.002 C 
ATOM     12  C   UNL     1       0.807  -3.594  21.070  1.00  0.00    -0.024 C 
ATOM     13  C   UNL     1       0.012  -2.381  20.553  1.00  0.00     0.008 C 
ATOM     14  C   UNL     1       0.497  -1.938  19.152  1.00  0.00     0.005 C 
ATOM     15  C   UNL     1       0.512  -3.079  18.072  1.00  0.00     0.003 C 
ATOM     16  C   UNL     1       1.162  -4.403  18.603  1.00  0.00     0.000 C 
ATOM     17  C   UNL     1       2.701  -4.519  18.394  1.00  0.00     0.031 C 
ATOM     18  C   UNL     1       3.342  -3.361  17.669  1.00  0.00    -0.027 C 
ATOM     19  C   UNL     1       2.668  -2.524  16.854  1.00  0.00    -0.065 C 
ATOM     20  C   UNL     1       1.155  -2.653  16.692  1.00  0.00    -0.008 C 
ATOM     21  C   UNL     1       0.529  -1.315  16.173  1.00  0.00     0.014 C 
ATOM     22  C   UNL     1       1.319  -0.664  15.033  1.00  0.00     0.033 C 
ATOM     23  C   UNL     1       2.752  -0.375  15.498  1.00  0.00     0.118 C 
ATOM     24  C   UNL     1       3.477  -1.667  15.895  1.00  0.00     0.063 C 
ATOM     25  C   UNL     1       0.875  -3.750  15.629  1.00  0.00     0.016 C 
ATOM     26  C   UNL     1       2.286  -3.174  21.331  1.00  0.00     0.012 C 
ATOM     27  C   UNL     1      -0.438  -3.277  24.569  1.00  0.00     0.014 C 
ATOM     28  O   UNL     1       0.009  -5.943  24.999  1.00  0.00    -0.349 OA
ATOM     29  C   UNL     1       0.343  -7.238  25.468  1.00  0.00     0.167 C 
ENDROOT
BRANCH  23  30
ATOM     30  O   UNL     1       3.473   0.307  14.502  1.00  0.00    -0.393 OA
ATOM     31  H   UNL     1       4.156  -0.318  14.139  1.00  0.00     0.210 HD
ENDBRANCH  23  30
TORSDOF 1
ENDMDL
MODEL 7
REMARK VINA RESULT:    -5.937      1.545      2.945
REMARK INTER + INTRA:          -6.111
REMARK INTER:                  -6.111
REMARK INTRA:                   0.000
REMARK UNBOUND:                 0.000
REMARK SMILES C[C@@H]1CC[C@]2(OC1)O[C@@H]1C[C@@H]3[C@@H]4CC=C5C[C@@H](O)CC[C@]5(C)[C@@H]4CC[C@@]3(C)[C@@H]1[C@H]2C
REMARK SMILES IDX 1 1 2 2 3 3 4 4 5 5 29 6 28 7 9 8 8 9 10 10 11 11 26 12
REMARK SMILES IDX 25 13 24 14 23 15 12 16 13 17 14 18 15 19 21 20 20 21 19 22
REMARK SMILES IDX 17 23 16 24 22 25 27 26 30 27 6 28 7 29 18 30
REMARK H PARENT 18 31
REMARK Flexibility Score: inf
ROOT
ATOM      1  C   UNL     1       1.759  -6.038  26.914  1.00  0.00     0.010 C 
ATOM      2  C   UNL     1       2.890  -5.232  26.257  1.00  0.00     0.012 C 
ATOM      3  C   UNL     1       2.403  -3.871  25.731  1.00  0.00     0.011 C 
ATOM      4  C   UNL     1       1.576  -4.027  24.449  1.00  0.00     0.066 C 
ATOM      5  C   UNL     1       2.289  -4.949  23.425  1.00  0.00     0.171 C 
ATOM      6  C   UNL     1       1.366  -5.202  22.206  1.00  0.00     0.052 C 
ATOM      7  C   UNL     1       2.349  -5.250  21.030  1.00  0.00     0.033 C 
ATOM      8  C   UNL     1       3.695  -4.883  21.671  1.00  0.00     0.126 C 
ATOM      9  O   UNL     1       3.444  -4.300  22.926  1.00  0.00    -0.346 OA
ATOM     10  C   UNL     1       4.408  -3.907  20.721  1.00  0.00     0.037 C 
ATOM     11  C   UNL     1       3.653  -4.107  19.418  1.00  0.00     0.002 C 
ATOM     12  C   UNL     1       2.182  -4.264  19.827  1.00  0.00    -0.024 C 
ATOM     13  C   UNL     1       1.439  -4.867  18.621  1.00  0.00     0.008 C 
ATOM     14  C   UNL     1       1.598  -3.989  17.357  1.00  0.00     0.005 C 
ATOM     15  C   UNL     1       3.084  -3.658  16.970  1.00  0.00     0.003 C 
ATOM     16  C   UNL     1       3.939  -3.198  18.201  1.00  0.00     0.000 C 
ATOM     17  C   UNL     1       3.928  -1.667  18.483  1.00  0.00     0.031 C 
ATOM     18  C   UNL     1       3.134  -0.837  17.505  1.00  0.00    -0.027 C 
ATOM     19  C   UNL     1       2.840  -1.237  16.251  1.00  0.00    -0.065 C 
ATOM     20  C   UNL     1       3.227  -2.636  15.774  1.00  0.00    -0.008 C 
ATOM     21  C   UNL     1       2.352  -3.076  14.553  1.00  0.00     0.014 C 
ATOM     22  C   UNL     1       2.170  -1.983  13.495  1.00  0.00     0.033 C 
ATOM     23  C   UNL     1       1.517  -0.750  14.134  1.00  0.00     0.118 C 
ATOM     24  C   UNL     1       2.393  -0.179  15.256  1.00  0.00     0.063 C 
ATOM     25  C   UNL     1       4.707  -2.592  15.304  1.00  0.00     0.016 C 
ATOM     26  C   UNL     1       1.497  -2.927  20.245  1.00  0.00     0.012 C 
ATOM     27  C   UNL     1       0.526  -6.486  22.319  1.00  0.00     0.014 C 
ATOM     28  O   UNL     1       2.644  -6.193  24.028  1.00  0.00    -0.349 OA
ATOM     29  C   UNL     1       3.542  -6.017  25.110  1.00  0.00     0.167 C 
ENDROOT
BRANCH  23  30
ATOM     30  O   UNL     1       1.254   0.235  13.166  1.00  0.00    -0.393 OA
ATOM     31  H   UNL     1       1.027  -0.227  12.315  1.00  0.00     0.210 HD
ENDBRANCH  23  30
TORSDOF 1
ENDMDL
MODEL 8
REMARK VINA RESULT:    -5.871     10.247     12.156
REMARK INTER + INTRA:          -6.043
REMARK INTER:                  -6.043
REMARK INTRA:                   0.000
REMARK UNBOUND:                 0.000
REMARK SMILES C[C@@H]1CC[C@]2(OC1)O[C@@H]1C[C@@H]3[C@@H]4CC=C5C[C@@H](O)CC[C@]5(C)[C@@H]4CC[C@@]3(C)[C@@H]1[C@H]2C
REMARK SMILES IDX 1 1 2 2 3 3 4 4 5 5 29 6 28 7 9 8 8 9 10 10 11 11 26 12
REMARK SMILES IDX 25 13 24 14 23 15 12 16 13 17 14 18 15 19 21 20 20 21 19 22
REMARK SMILES IDX 17 23 16 24 22 25 27 26 30 27 6 28 7 29 18 30
REMARK H PARENT 18 31
REMARK Flexibility Score: inf
ROOT
ATOM      1  C   UNL     1      14.183  -1.147  27.755  1.00  0.00     0.010 C 
ATOM      2  C   UNL     1      13.256  -0.647  28.873  1.00  0.00     0.012 C 
ATOM      3  C   UNL     1      11.985  -1.504  29.001  1.00  0.00     0.011 C 
ATOM      4  C   UNL     1      10.998  -1.219  27.862  1.00  0.00     0.066 C 
ATOM      5  C   UNL     1      10.788   0.305  27.664  1.00  0.00     0.171 C 
ATOM      6  C   UNL     1       9.904   0.561  26.417  1.00  0.00     0.052 C 
ATOM      7  C   UNL     1       9.066   1.778  26.829  1.00  0.00     0.033 C 
ATOM      8  C   UNL     1       9.452   2.000  28.299  1.00  0.00     0.126 C 
ATOM      9  O   UNL     1      10.083   0.835  28.771  1.00  0.00    -0.346 OA
ATOM     10  C   UNL     1       8.160   2.303  29.075  1.00  0.00     0.037 C 
ATOM     11  C   UNL     1       7.189   2.668  27.965  1.00  0.00     0.002 C 
ATOM     12  C   UNL     1       7.504   1.695  26.820  1.00  0.00    -0.024 C 
ATOM     13  C   UNL     1       6.853   2.267  25.548  1.00  0.00     0.008 C 
ATOM     14  C   UNL     1       5.330   2.473  25.731  1.00  0.00     0.005 C 
ATOM     15  C   UNL     1       4.930   3.335  26.981  1.00  0.00     0.003 C 
ATOM     16  C   UNL     1       5.695   2.904  28.280  1.00  0.00     0.000 C 
ATOM     17  C   UNL     1       4.998   1.797  29.125  1.00  0.00     0.031 C 
ATOM     18  C   UNL     1       3.664   1.328  28.599  1.00  0.00    -0.027 C 
ATOM     19  C   UNL     1       2.885   2.061  27.777  1.00  0.00    -0.065 C 
ATOM     20  C   UNL     1       3.373   3.406  27.244  1.00  0.00    -0.008 C 
ATOM     21  C   UNL     1       2.604   3.808  25.941  1.00  0.00     0.014 C 
ATOM     22  C   UNL     1       1.091   3.573  26.019  1.00  0.00     0.033 C 
ATOM     23  C   UNL     1       0.813   2.092  26.304  1.00  0.00     0.118 C 
ATOM     24  C   UNL     1       1.426   1.660  27.642  1.00  0.00     0.063 C 
ATOM     25  C   UNL     1       3.078   4.487  28.320  1.00  0.00     0.016 C 
ATOM     26  C   UNL     1       6.985   0.245  27.064  1.00  0.00     0.012 C 
ATOM     27  C   UNL     1      10.705   0.812  25.128  1.00  0.00     0.014 C 
ATOM     28  O   UNL     1      12.041   0.972  27.512  1.00  0.00    -0.349 OA
ATOM     29  C   UNL     1      12.860   0.821  28.658  1.00  0.00     0.167 C 
ENDROOT
BRANCH  23  30
ATOM     30  O   UNL     1      -0.568   1.830  26.289  1.00  0.00    -0.393 OA
ATOM     31  H   UNL     1      -0.801   1.472  25.391  1.00  0.00     0.210 HD
ENDBRANCH  23  30
TORSDOF 1
ENDMDL
MODEL 9
REMARK VINA RESULT:    -5.584      2.567      9.930
REMARK INTER + INTRA:          -5.747
REMARK INTER:                  -5.747
REMARK INTRA:                   0.000
REMARK UNBOUND:                 0.000
REMARK SMILES C[C@@H]1CC[C@]2(OC1)O[C@@H]1C[C@@H]3[C@@H]4CC=C5C[C@@H](O)CC[C@]5(C)[C@@H]4CC[C@@]3(C)[C@@H]1[C@H]2C
REMARK SMILES IDX 1 1 2 2 3 3 4 4 5 5 29 6 28 7 9 8 8 9 10 10 11 11 26 12
REMARK SMILES IDX 25 13 24 14 23 15 12 16 13 17 14 18 15 19 21 20 20 21 19 22
REMARK SMILES IDX 17 23 16 24 22 25 27 26 30 27 6 28 7 29 18 30
REMARK H PARENT 18 31
REMARK Flexibility Score: inf
ROOT
ATOM      1  C   UNL     1       1.035  -2.884  15.960  1.00  0.00     0.010 C 
ATOM      2  C   UNL     1       1.643  -2.170  17.177  1.00  0.00     0.012 C 
ATOM      3  C   UNL     1       2.903  -2.881  17.699  1.00  0.00     0.011 C 
ATOM      4  C   UNL     1       2.550  -4.169  18.453  1.00  0.00     0.066 C 
ATOM      5  C   UNL     1       1.415  -3.928  19.482  1.00  0.00     0.171 C 
ATOM      6  C   UNL     1       0.983  -5.273  20.120  1.00  0.00     0.052 C 
ATOM      7  C   UNL     1       0.662  -4.884  21.569  1.00  0.00     0.033 C 
ATOM      8  C   UNL     1       1.075  -3.406  21.644  1.00  0.00     0.126 C 
ATOM      9  O   UNL     1       1.898  -3.120  20.540  1.00  0.00    -0.346 OA
ATOM     10  C   UNL     1       1.816  -3.200  22.975  1.00  0.00     0.037 C 
ATOM     11  C   UNL     1       1.412  -4.431  23.769  1.00  0.00     0.002 C 
ATOM     12  C   UNL     1       1.411  -5.581  22.753  1.00  0.00    -0.024 C 
ATOM     13  C   UNL     1       0.628  -6.745  23.388  1.00  0.00     0.008 C 
ATOM     14  C   UNL     1       1.242  -7.171  24.744  1.00  0.00     0.005 C 
ATOM     15  C   UNL     1       1.417  -6.004  25.780  1.00  0.00     0.003 C 
ATOM     16  C   UNL     1       2.058  -4.722  25.143  1.00  0.00     0.000 C 
ATOM     17  C   UNL     1       3.613  -4.666  25.184  1.00  0.00     0.031 C 
ATOM     18  C   UNL     1       4.282  -5.830  25.873  1.00  0.00    -0.027 C 
ATOM     19  C   UNL     1       3.667  -6.616  26.780  1.00  0.00    -0.065 C 
ATOM     20  C   UNL     1       2.186  -6.420  27.096  1.00  0.00    -0.008 C 
ATOM     21  C   UNL     1       1.567  -7.715  27.720  1.00  0.00     0.014 C 
ATOM     22  C   UNL     1       2.448  -8.368  28.790  1.00  0.00     0.033 C 
ATOM     23  C   UNL     1       3.811  -8.730  28.186  1.00  0.00     0.118 C 
ATOM     24  C   UNL     1       4.539  -7.481  27.675  1.00  0.00     0.063 C 
ATOM     25  C   UNL     1       2.064  -5.283  28.148  1.00  0.00     0.016 C 
ATOM     26  C   UNL     1       2.835  -6.070  22.350  1.00  0.00     0.012 C 
ATOM     27  C   UNL     1      -0.212  -5.939  19.416  1.00  0.00     0.014 C 
ATOM     28  O   UNL     1       0.291  -3.307  18.859  1.00  0.00    -0.349 OA
ATOM     29  C   UNL     1       0.623  -2.040  18.318  1.00  0.00     0.167 C 
ENDROOT
BRANCH  23  30
ATOM     30  O   UNL     1       4.607  -9.415  29.121  1.00  0.00    -0.393 OA
ATOM     31  H   UNL     1       4.006  -9.975  29.681  1.00  0.00     0.210 HD
ENDBRANCH  23  30
TORSDOF 1
ENDMDL
