MODEL 1
REMARK VINA RESULT:    -6.532      0.000      0.000
REMARK INTER + INTRA:          -8.354
REMARK INTER:                  -8.059
REMARK INTRA:                  -0.295
REMARK UNBOUND:                -0.295
REMARK SMILES O=c1c(O)c(-c2cc(O)c(O)c(O)c2)oc2cc(O)cc(O)c12
REMARK SMILES IDX 5 1 3 2 2 3 1 4 23 5 21 6 20 7 18 8 17 9 16 10 15 11 6 12
REMARK SMILES IDX 7 13 8 14 14 15 10 16 12 17 9 18 11 20 13 22 4 24 22 26
REMARK SMILES IDX 19 28
REMARK H PARENT 9 19 11 21 13 23 4 25 22 27 19 29
REMARK Flexibility Score: inf
ROOT
ATOM      1  C   UNL     1       5.507  10.749 -22.924  1.00  0.00     0.180 A 
ATOM      2  C   UNL     1       5.139   9.756 -23.848  1.00  0.00     0.208 A 
ATOM      3  C   UNL     1       5.974   9.506 -24.949  1.00  0.00     0.238 A 
ATOM      4  O   UNL     1       5.613   8.654 -25.801  1.00  0.00    -0.285 OA
ATOM      5  C   UNL     1       7.175  10.241 -25.103  1.00  0.00     0.111 A 
ATOM      6  C   UNL     1       8.116  10.044 -26.158  1.00  0.00     0.134 A 
ATOM      7  C   UNL     1       9.204  10.916 -26.284  1.00  0.00     0.093 A 
ATOM      8  C   UNL     1       9.420  11.938 -25.356  1.00  0.00     0.123 A 
ATOM      9  C   UNL     1       8.540  12.101 -24.289  1.00  0.00     0.094 A 
ATOM     10  C   UNL     1       7.425  11.269 -24.156  1.00  0.00     0.146 A 
ATOM     11  O   UNL     1       6.605  11.465 -23.131  1.00  0.00    -0.452 OA
ENDROOT
BRANCH   1  12
ATOM     12  C   UNL     1       4.691  11.051 -21.725  1.00  0.00     0.029 A 
ATOM     13  C   UNL     1       3.869  12.190 -21.668  1.00  0.00     0.062 A 
ATOM     14  C   UNL     1       3.087  12.447 -20.534  1.00  0.00     0.162 A 
ATOM     15  C   UNL     1       4.693  10.156 -20.645  1.00  0.00     0.062 A 
ATOM     16  C   UNL     1       3.112  11.556 -19.448  1.00  0.00     0.200 A 
ATOM     17  C   UNL     1       3.916  10.406 -19.509  1.00  0.00     0.162 A 
BRANCH  14  18
ATOM     18  O   UNL     1       2.280  13.584 -20.486  1.00  0.00    -0.504 OA
ATOM     19  H   UNL     1       2.522  14.382 -19.911  1.00  0.00     0.293 HD
ENDBRANCH  14  18
BRANCH  16  20
ATOM     20  O   UNL     1       2.343  11.800 -18.309  1.00  0.00    -0.502 OA
ATOM     21  H   UNL     1       1.342  11.949 -18.355  1.00  0.00     0.293 HD
ENDBRANCH  16  20
BRANCH  17  22
ATOM     22  O   UNL     1       3.956   9.497 -18.451  1.00  0.00    -0.504 OA
ATOM     23  H   UNL     1       3.350   9.583 -17.644  1.00  0.00     0.293 HD
ENDBRANCH  17  22
ENDBRANCH   1  12
BRANCH   2  24
ATOM     24  O   UNL     1       3.938   9.058 -23.688  1.00  0.00    -0.502 OA
ATOM     25  H   UNL     1       3.583   8.420 -24.390  1.00  0.00     0.293 HD
ENDBRANCH   2  24
BRANCH   6  26
ATOM     26  O   UNL     1       8.044   8.998 -27.082  1.00  0.00    -0.507 OA
ATOM     27  H   UNL     1       7.942   8.024 -26.842  1.00  0.00     0.293 HD
ENDBRANCH   6  26
BRANCH   8  28
ATOM     28  O   UNL     1      10.513  12.792 -25.480  1.00  0.00    -0.508 OA
ATOM     29  H   UNL     1      10.554  13.676 -24.987  1.00  0.00     0.293 HD
ENDBRANCH   8  28
TORSDOF 7
ENDMDL
MODEL 2
REMARK VINA RESULT:    -6.504      0.146      1.760
REMARK INTER + INTRA:          -8.320
REMARK INTER:                  -8.005
REMARK INTRA:                  -0.315
REMARK UNBOUND:                -0.295
REMARK SMILES O=c1c(O)c(-c2cc(O)c(O)c(O)c2)oc2cc(O)cc(O)c12
REMARK SMILES IDX 5 1 3 2 2 3 1 4 23 5 21 6 20 7 18 8 17 9 16 10 15 11 6 12
REMARK SMILES IDX 7 13 8 14 14 15 10 16 12 17 9 18 11 20 13 22 4 24 22 26
REMARK SMILES IDX 19 28
REMARK H PARENT 9 19 11 21 13 23 4 25 22 27 19 29
REMARK Flexibility Score: inf
ROOT
ATOM      1  C   UNL     1       5.449  10.763 -22.846  1.00  0.00     0.180 A 
ATOM      2  C   UNL     1       5.130   9.757 -23.774  1.00  0.00     0.208 A 
ATOM      3  C   UNL     1       5.991   9.534 -24.860  1.00  0.00     0.238 A 
ATOM      4  O   UNL     1       5.672   8.669 -25.717  1.00  0.00    -0.285 OA
ATOM      5  C   UNL     1       7.169  10.308 -24.996  1.00  0.00     0.111 A 
ATOM      6  C   UNL     1       8.134  10.141 -26.035  1.00  0.00     0.134 A 
ATOM      7  C   UNL     1       9.194  11.049 -26.145  1.00  0.00     0.093 A 
ATOM      8  C   UNL     1       9.362  12.078 -25.215  1.00  0.00     0.123 A 
ATOM      9  C   UNL     1       8.458  12.212 -24.162  1.00  0.00     0.094 A 
ATOM     10  C   UNL     1       7.370  11.344 -24.047  1.00  0.00     0.146 A 
ATOM     11  O   UNL     1       6.527  11.514 -23.036  1.00  0.00    -0.452 OA
ENDROOT
BRANCH   1  12
ATOM     12  C   UNL     1       4.604  11.039 -21.662  1.00  0.00     0.029 A 
ATOM     13  C   UNL     1       4.607  10.185 -20.545  1.00  0.00     0.062 A 
ATOM     14  C   UNL     1       3.818  10.475 -19.424  1.00  0.00     0.162 A 
ATOM     15  C   UNL     1       3.826  12.205 -21.626  1.00  0.00     0.062 A 
ATOM     16  C   UNL     1       3.024  11.635 -19.407  1.00  0.00     0.200 A 
ATOM     17  C   UNL     1       3.034  12.502 -20.513  1.00  0.00     0.162 A 
BRANCH  14  18
ATOM     18  O   UNL     1       3.824   9.617 -18.325  1.00  0.00    -0.504 OA
ATOM     19  H   UNL     1       4.649   9.088 -18.068  1.00  0.00     0.293 HD
ENDBRANCH  14  18
BRANCH  16  20
ATOM     20  O   UNL     1       2.228  11.936 -18.300  1.00  0.00    -0.502 OA
ATOM     21  H   UNL     1       2.514  11.715 -17.354  1.00  0.00     0.293 HD
ENDBRANCH  16  20
BRANCH  17  22
ATOM     22  O   UNL     1       2.263  13.665 -20.522  1.00  0.00    -0.504 OA
ATOM     23  H   UNL     1       2.543  14.501 -20.025  1.00  0.00     0.293 HD
ENDBRANCH  17  22
ENDBRANCH   1  12
BRANCH   2  24
ATOM     24  O   UNL     1       3.951   9.020 -23.634  1.00  0.00    -0.502 OA
ATOM     25  H   UNL     1       3.706   8.260 -24.258  1.00  0.00     0.293 HD
ENDBRANCH   2  24
BRANCH   6  26
ATOM     26  O   UNL     1       8.111   9.092 -26.958  1.00  0.00    -0.507 OA
ATOM     27  H   UNL     1       7.724   8.178 -26.782  1.00  0.00     0.293 HD
ENDBRANCH   6  26
BRANCH   8  28
ATOM     28  O   UNL     1      10.428  12.967 -25.322  1.00  0.00    -0.508 OA
ATOM     29  H   UNL     1      11.131  12.866 -26.044  1.00  0.00     0.293 HD
ENDBRANCH   8  28
TORSDOF 7
ENDMDL
MODEL 3
REMARK VINA RESULT:    -6.021      1.963      6.660
REMARK INTER + INTRA:          -7.723
REMARK INTER:                  -7.471
REMARK INTRA:                  -0.252
REMARK UNBOUND:                -0.295
REMARK SMILES O=c1c(O)c(-c2cc(O)c(O)c(O)c2)oc2cc(O)cc(O)c12
REMARK SMILES IDX 5 1 3 2 2 3 1 4 23 5 21 6 20 7 18 8 17 9 16 10 15 11 6 12
REMARK SMILES IDX 7 13 8 14 14 15 10 16 12 17 9 18 11 20 13 22 4 24 22 26
REMARK SMILES IDX 19 28
REMARK H PARENT 9 19 11 21 13 23 4 25 22 27 19 29
REMARK Flexibility Score: inf
ROOT
ATOM      1  C   UNL     1       7.619  12.051 -23.888  1.00  0.00     0.180 A 
ATOM      2  C   UNL     1       7.334  10.948 -24.711  1.00  0.00     0.208 A 
ATOM      3  C   UNL     1       6.305  10.069 -24.340  1.00  0.00     0.238 A 
ATOM      4  O   UNL     1       6.090   9.053 -25.051  1.00  0.00    -0.285 OA
ATOM      5  C   UNL     1       5.561  10.313 -23.159  1.00  0.00     0.111 A 
ATOM      6  C   UNL     1       4.470   9.511 -22.708  1.00  0.00     0.134 A 
ATOM      7  C   UNL     1       3.892   9.770 -21.459  1.00  0.00     0.093 A 
ATOM      8  C   UNL     1       4.322  10.844 -20.675  1.00  0.00     0.123 A 
ATOM      9  C   UNL     1       5.347  11.669 -21.134  1.00  0.00     0.094 A 
ATOM     10  C   UNL     1       5.968  11.413 -22.360  1.00  0.00     0.146 A 
ATOM     11  O   UNL     1       6.947  12.217 -22.755  1.00  0.00    -0.452 OA
ENDROOT
BRANCH   1  12
ATOM     12  C   UNL     1       8.672  13.036 -24.226  1.00  0.00     0.029 A 
ATOM     13  C   UNL     1       8.545  13.891 -25.334  1.00  0.00     0.062 A 
ATOM     14  C   UNL     1       9.541  14.833 -25.626  1.00  0.00     0.162 A 
ATOM     15  C   UNL     1       9.795  13.159 -23.395  1.00  0.00     0.062 A 
ATOM     16  C   UNL     1      10.674  14.933 -24.799  1.00  0.00     0.200 A 
ATOM     17  C   UNL     1      10.795  14.093 -23.679  1.00  0.00     0.162 A 
BRANCH  14  18
ATOM     18  O   UNL     1       9.408  15.672 -26.731  1.00  0.00    -0.504 OA
ATOM     19  H   UNL     1       8.774  15.454 -27.490  1.00  0.00     0.293 HD
ENDBRANCH  14  18
BRANCH  16  20
ATOM     20  O   UNL     1      11.679  15.861 -25.078  1.00  0.00    -0.502 OA
ATOM     21  H   UNL     1      11.815  16.247 -26.004  1.00  0.00     0.293 HD
ENDBRANCH  16  20
BRANCH  17  22
ATOM     22  O   UNL     1      11.903  14.175 -22.835  1.00  0.00    -0.504 OA
ATOM     23  H   UNL     1      12.832  13.908 -23.137  1.00  0.00     0.293 HD
ENDBRANCH  17  22
ENDBRANCH   1  12
BRANCH   2  24
ATOM     24  O   UNL     1       8.095  10.713 -25.859  1.00  0.00    -0.502 OA
ATOM     25  H   UNL     1       7.942  11.216 -26.726  1.00  0.00     0.293 HD
ENDBRANCH   2  24
BRANCH   6  26
ATOM     26  O   UNL     1       3.903   8.474 -23.455  1.00  0.00    -0.507 OA
ATOM     27  H   UNL     1       3.947   7.497 -23.209  1.00  0.00     0.293 HD
ENDBRANCH   6  26
BRANCH   8  28
ATOM     28  O   UNL     1       3.732  11.105 -19.441  1.00  0.00    -0.508 OA
ATOM     29  H   UNL     1       2.965  10.542 -19.091  1.00  0.00     0.293 HD
ENDBRANCH   8  28
TORSDOF 7
ENDMDL
MODEL 4
REMARK VINA RESULT:    -5.967      1.958      6.855
REMARK INTER + INTRA:          -7.657
REMARK INTER:                  -7.429
REMARK INTRA:                  -0.228
REMARK UNBOUND:                -0.295
REMARK SMILES O=c1c(O)c(-c2cc(O)c(O)c(O)c2)oc2cc(O)cc(O)c12
REMARK SMILES IDX 5 1 3 2 2 3 1 4 23 5 21 6 20 7 18 8 17 9 16 10 15 11 6 12
REMARK SMILES IDX 7 13 8 14 14 15 10 16 12 17 9 18 11 20 13 22 4 24 22 26
REMARK SMILES IDX 19 28
REMARK H PARENT 9 19 11 21 13 23 4 25 22 27 19 29
REMARK Flexibility Score: inf
ROOT
ATOM      1  C   UNL     1       7.645  12.064 -23.830  1.00  0.00     0.180 A 
ATOM      2  C   UNL     1       7.365  10.973 -24.671  1.00  0.00     0.208 A 
ATOM      3  C   UNL     1       6.331  10.090 -24.322  1.00  0.00     0.238 A 
ATOM      4  O   UNL     1       6.121   9.086 -25.049  1.00  0.00    -0.285 OA
ATOM      5  C   UNL     1       5.578  10.319 -23.145  1.00  0.00     0.111 A 
ATOM      6  C   UNL     1       4.482   9.513 -22.714  1.00  0.00     0.134 A 
ATOM      7  C   UNL     1       3.894   9.755 -21.467  1.00  0.00     0.093 A 
ATOM      8  C   UNL     1       4.319  10.817 -20.664  1.00  0.00     0.123 A 
ATOM      9  C   UNL     1       5.349  11.646 -21.102  1.00  0.00     0.094 A 
ATOM     10  C   UNL     1       5.980  11.407 -22.326  1.00  0.00     0.146 A 
ATOM     11  O   UNL     1       6.964  12.215 -22.701  1.00  0.00    -0.452 OA
ENDROOT
BRANCH   1  12
ATOM     12  C   UNL     1       8.702  13.051 -24.146  1.00  0.00     0.029 A 
ATOM     13  C   UNL     1       9.886  13.122 -23.391  1.00  0.00     0.062 A 
ATOM     14  C   UNL     1      10.886  14.048 -23.718  1.00  0.00     0.162 A 
ATOM     15  C   UNL     1       8.549  13.898 -25.254  1.00  0.00     0.062 A 
ATOM     16  C   UNL     1      10.713  14.906 -24.817  1.00  0.00     0.200 A 
ATOM     17  C   UNL     1       9.541  14.825 -25.587  1.00  0.00     0.162 A 
BRANCH  14  18
ATOM     18  O   UNL     1      12.053  14.114 -22.957  1.00  0.00    -0.504 OA
ATOM     19  H   UNL     1      12.961  14.241 -23.388  1.00  0.00     0.293 HD
ENDBRANCH  14  18
BRANCH  16  20
ATOM     20  O   UNL     1      11.697  15.838 -25.154  1.00  0.00    -0.502 OA
ATOM     21  H   UNL     1      12.685  15.622 -25.102  1.00  0.00     0.293 HD
ENDBRANCH  16  20
BRANCH  17  22
ATOM     22  O   UNL     1       9.344  15.658 -26.689  1.00  0.00    -0.504 OA
ATOM     23  H   UNL     1       8.659  15.451 -27.406  1.00  0.00     0.293 HD
ENDBRANCH  17  22
ENDBRANCH   1  12
BRANCH   2  24
ATOM     24  O   UNL     1       8.136  10.753 -25.817  1.00  0.00    -0.502 OA
ATOM     25  H   UNL     1       8.078   9.898 -26.356  1.00  0.00     0.293 HD
ENDBRANCH   2  24
BRANCH   6  26
ATOM     26  O   UNL     1       3.919   8.488 -23.481  1.00  0.00    -0.507 OA
ATOM     27  H   UNL     1       3.191   7.866 -23.164  1.00  0.00     0.293 HD
ENDBRANCH   6  26
BRANCH   8  28
ATOM     28  O   UNL     1       3.719  11.061 -19.431  1.00  0.00    -0.508 OA
ATOM     29  H   UNL     1       3.047  11.811 -19.308  1.00  0.00     0.293 HD
ENDBRANCH   8  28
TORSDOF 7
ENDMDL
MODEL 5
REMARK VINA RESULT:    -5.756      1.129      2.787
REMARK INTER + INTRA:          -7.397
REMARK INTER:                  -7.142
REMARK INTRA:                  -0.255
REMARK UNBOUND:                -0.295
REMARK SMILES O=c1c(O)c(-c2cc(O)c(O)c(O)c2)oc2cc(O)cc(O)c12
REMARK SMILES IDX 5 1 3 2 2 3 1 4 23 5 21 6 20 7 18 8 17 9 16 10 15 11 6 12
REMARK SMILES IDX 7 13 8 14 14 15 10 16 12 17 9 18 11 20 13 22 4 24 22 26
REMARK SMILES IDX 19 28
REMARK H PARENT 9 19 11 21 13 23 4 25 22 27 19 29
REMARK Flexibility Score: inf
ROOT
ATOM      1  C   UNL     1       5.872  11.494 -22.537  1.00  0.00     0.180 A 
ATOM      2  C   UNL     1       6.903  12.441 -22.667  1.00  0.00     0.208 A 
ATOM      3  C   UNL     1       7.802  12.326 -23.739  1.00  0.00     0.238 A 
ATOM      4  O   UNL     1       8.754  13.145 -23.820  1.00  0.00    -0.285 OA
ATOM      5  C   UNL     1       7.651  11.276 -24.677  1.00  0.00     0.111 A 
ATOM      6  C   UNL     1       8.479  11.087 -25.823  1.00  0.00     0.134 A 
ATOM      7  C   UNL     1       8.319   9.939 -26.610  1.00  0.00     0.093 A 
ATOM      8  C   UNL     1       7.317   9.008 -26.329  1.00  0.00     0.123 A 
ATOM      9  C   UNL     1       6.464   9.214 -25.247  1.00  0.00     0.094 A 
ATOM     10  C   UNL     1       6.622  10.331 -24.422  1.00  0.00     0.146 A 
ATOM     11  O   UNL     1       5.796  10.483 -23.395  1.00  0.00    -0.452 OA
ENDROOT
BRANCH   1  12
ATOM     12  C   UNL     1       4.871  11.563 -21.448  1.00  0.00     0.029 A 
ATOM     13  C   UNL     1       3.922  12.598 -21.392  1.00  0.00     0.062 A 
ATOM     14  C   UNL     1       2.967  12.635 -20.367  1.00  0.00     0.162 A 
ATOM     15  C   UNL     1       4.829  10.547 -20.482  1.00  0.00     0.062 A 
ATOM     16  C   UNL     1       2.947  11.624 -19.391  1.00  0.00     0.200 A 
ATOM     17  C   UNL     1       3.881  10.577 -19.455  1.00  0.00     0.162 A 
BRANCH  14  18
ATOM     18  O   UNL     1       2.034  13.671 -20.318  1.00  0.00    -0.504 OA
ATOM     19  H   UNL     1       1.121  13.584 -20.748  1.00  0.00     0.293 HD
ENDBRANCH  14  18
BRANCH  16  20
ATOM     20  O   UNL     1       2.006  11.648 -18.360  1.00  0.00    -0.502 OA
ATOM     21  H   UNL     1       1.723  12.509 -17.909  1.00  0.00     0.293 HD
ENDBRANCH  16  20
BRANCH  17  22
ATOM     22  O   UNL     1       3.882   9.554 -18.506  1.00  0.00    -0.504 OA
ATOM     23  H   UNL     1       4.080   9.726 -17.528  1.00  0.00     0.293 HD
ENDBRANCH  17  22
ENDBRANCH   1  12
BRANCH   2  24
ATOM     24  O   UNL     1       7.047  13.456 -21.717  1.00  0.00    -0.502 OA
ATOM     25  H   UNL     1       7.513  14.332 -21.924  1.00  0.00     0.293 HD
ENDBRANCH   2  24
BRANCH   6  26
ATOM     26  O   UNL     1       9.447  12.003 -26.245  1.00  0.00    -0.507 OA
ATOM     27  H   UNL     1      10.327  12.165 -25.781  1.00  0.00     0.293 HD
ENDBRANCH   6  26
BRANCH   8  28
ATOM     28  O   UNL     1       7.153   7.877 -27.125  1.00  0.00    -0.508 OA
ATOM     29  H   UNL     1       7.949   7.351 -27.468  1.00  0.00     0.293 HD
ENDBRANCH   8  28
TORSDOF 7
ENDMDL
MODEL 6
REMARK VINA RESULT:    -5.671      2.849      5.397
REMARK INTER + INTRA:          -7.292
REMARK INTER:                  -7.025
REMARK INTRA:                  -0.267
REMARK UNBOUND:                -0.295
REMARK SMILES O=c1c(O)c(-c2cc(O)c(O)c(O)c2)oc2cc(O)cc(O)c12
REMARK SMILES IDX 5 1 3 2 2 3 1 4 23 5 21 6 20 7 18 8 17 9 16 10 15 11 6 12
REMARK SMILES IDX 7 13 8 14 14 15 10 16 12 17 9 18 11 20 13 22 4 24 22 26
REMARK SMILES IDX 19 28
REMARK H PARENT 9 19 11 21 13 23 4 25 22 27 19 29
REMARK Flexibility Score: inf
ROOT
ATOM      1  C   UNL     1       8.507  11.679 -25.233  1.00  0.00     0.180 A 
ATOM      2  C   UNL     1       8.484  13.081 -25.138  1.00  0.00     0.208 A 
ATOM      3  C   UNL     1       9.633  13.807 -25.488  1.00  0.00     0.238 A 
ATOM      4  O   UNL     1       9.625  15.057 -25.350  1.00  0.00    -0.285 OA
ATOM      5  C   UNL     1      10.786  13.123 -25.946  1.00  0.00     0.111 A 
ATOM      6  C   UNL     1      11.993  13.759 -26.366  1.00  0.00     0.134 A 
ATOM      7  C   UNL     1      13.114  12.979 -26.675  1.00  0.00     0.093 A 
ATOM      8  C   UNL     1      13.052  11.584 -26.642  1.00  0.00     0.123 A 
ATOM      9  C   UNL     1      11.860  10.953 -26.291  1.00  0.00     0.094 A 
ATOM     10  C   UNL     1      10.735  11.704 -25.942  1.00  0.00     0.146 A 
ATOM     11  O   UNL     1       9.624  11.063 -25.603  1.00  0.00    -0.452 OA
ENDROOT
BRANCH   1  12
ATOM     12  C   UNL     1       7.327  10.847 -24.905  1.00  0.00     0.029 A 
ATOM     13  C   UNL     1       6.900  10.672 -23.578  1.00  0.00     0.062 A 
ATOM     14  C   UNL     1       5.767   9.900 -23.289  1.00  0.00     0.162 A 
ATOM     15  C   UNL     1       6.583  10.265 -25.943  1.00  0.00     0.062 A 
ATOM     16  C   UNL     1       5.041   9.303 -24.333  1.00  0.00     0.200 A 
ATOM     17  C   UNL     1       5.452   9.492 -25.664  1.00  0.00     0.162 A 
BRANCH  14  18
ATOM     18  O   UNL     1       5.357   9.728 -21.967  1.00  0.00    -0.504 OA
ATOM     19  H   UNL     1       5.521  10.439 -21.264  1.00  0.00     0.293 HD
ENDBRANCH  14  18
BRANCH  16  20
ATOM     20  O   UNL     1       3.913   8.527 -24.063  1.00  0.00    -0.502 OA
ATOM     21  H   UNL     1       3.730   7.655 -24.545  1.00  0.00     0.293 HD
ENDBRANCH  16  20
BRANCH  17  22
ATOM     22  O   UNL     1       4.747   8.920 -26.723  1.00  0.00    -0.504 OA
ATOM     23  H   UNL     1       3.735   8.918 -26.759  1.00  0.00     0.293 HD
ENDBRANCH  17  22
ENDBRANCH   1  12
BRANCH   2  24
ATOM     24  O   UNL     1       7.343  13.734 -24.663  1.00  0.00    -0.502 OA
ATOM     25  H   UNL     1       6.969  13.570 -23.736  1.00  0.00     0.293 HD
ENDBRANCH   2  24
BRANCH   6  26
ATOM     26  O   UNL     1      12.132  15.141 -26.522  1.00  0.00    -0.507 OA
ATOM     27  H   UNL     1      12.892  15.689 -26.149  1.00  0.00     0.293 HD
ENDBRANCH   6  26
BRANCH   8  28
ATOM     28  O   UNL     1      14.166  10.815 -26.966  1.00  0.00    -0.508 OA
ATOM     29  H   UNL     1      15.068  10.979 -26.532  1.00  0.00     0.293 HD
ENDBRANCH   8  28
TORSDOF 7
ENDMDL
MODEL 7
REMARK VINA RESULT:    -5.529      3.611      7.675
REMARK INTER + INTRA:          -7.117
REMARK INTER:                  -6.852
REMARK INTRA:                  -0.265
REMARK UNBOUND:                -0.295
REMARK SMILES O=c1c(O)c(-c2cc(O)c(O)c(O)c2)oc2cc(O)cc(O)c12
REMARK SMILES IDX 5 1 3 2 2 3 1 4 23 5 21 6 20 7 18 8 17 9 16 10 15 11 6 12
REMARK SMILES IDX 7 13 8 14 14 15 10 16 12 17 9 18 11 20 13 22 4 24 22 26
REMARK SMILES IDX 19 28
REMARK H PARENT 9 19 11 21 13 23 4 25 22 27 19 29
REMARK Flexibility Score: inf
ROOT
ATOM      1  C   UNL     1       9.798  13.648 -23.755  1.00  0.00     0.180 A 
ATOM      2  C   UNL     1       9.276  14.114 -24.974  1.00  0.00     0.208 A 
ATOM      3  C   UNL     1       7.978  13.733 -25.349  1.00  0.00     0.238 A 
ATOM      4  O   UNL     1       7.537  14.109 -26.466  1.00  0.00    -0.285 OA
ATOM      5  C   UNL     1       7.211  12.906 -24.494  1.00  0.00     0.111 A 
ATOM      6  C   UNL     1       5.871  12.491 -24.754  1.00  0.00     0.134 A 
ATOM      7  C   UNL     1       5.256  11.567 -23.901  1.00  0.00     0.093 A 
ATOM      8  C   UNL     1       5.909  11.092 -22.761  1.00  0.00     0.123 A 
ATOM      9  C   UNL     1       7.196  11.537 -22.466  1.00  0.00     0.094 A 
ATOM     10  C   UNL     1       7.850  12.431 -23.318  1.00  0.00     0.146 A 
ATOM     11  O   UNL     1       9.079  12.821 -23.005  1.00  0.00    -0.452 OA
ENDROOT
BRANCH   1  12
ATOM     12  C   UNL     1      11.149  14.027 -23.280  1.00  0.00     0.029 A 
ATOM     13  C   UNL     1      11.324  14.900 -22.194  1.00  0.00     0.062 A 
ATOM     14  C   UNL     1      12.610  15.230 -21.743  1.00  0.00     0.162 A 
ATOM     15  C   UNL     1      12.279  13.460 -23.888  1.00  0.00     0.062 A 
ATOM     16  C   UNL     1      13.736  14.674 -22.374  1.00  0.00     0.200 A 
ATOM     17  C   UNL     1      13.566  13.784 -23.447  1.00  0.00     0.162 A 
BRANCH  14  18
ATOM     18  O   UNL     1      12.771  16.103 -20.669  1.00  0.00    -0.504 OA
ATOM     19  H   UNL     1      12.955  17.089 -20.809  1.00  0.00     0.293 HD
ENDBRANCH  14  18
BRANCH  16  20
ATOM     20  O   UNL     1      15.024  14.995 -21.942  1.00  0.00    -0.502 OA
ATOM     21  H   UNL     1      15.501  14.462 -21.225  1.00  0.00     0.293 HD
ENDBRANCH  16  20
BRANCH  17  22
ATOM     22  O   UNL     1      14.664  13.209 -24.088  1.00  0.00    -0.504 OA
ATOM     23  H   UNL     1      14.644  12.953 -25.067  1.00  0.00     0.293 HD
ENDBRANCH  17  22
ENDBRANCH   1  12
BRANCH   2  24
ATOM     24  O   UNL     1      10.059  14.911 -25.814  1.00  0.00    -0.502 OA
ATOM     25  H   UNL     1       9.736  15.801 -26.175  1.00  0.00     0.293 HD
ENDBRANCH   2  24
BRANCH   6  26
ATOM     26  O   UNL     1       5.096  12.976 -25.812  1.00  0.00    -0.507 OA
ATOM     27  H   UNL     1       4.323  13.615 -25.713  1.00  0.00     0.293 HD
ENDBRANCH   6  26
BRANCH   8  28
ATOM     28  O   UNL     1       5.285  10.185 -21.909  1.00  0.00    -0.508 OA
ATOM     29  H   UNL     1       5.718   9.887 -21.042  1.00  0.00     0.293 HD
ENDBRANCH   8  28
TORSDOF 7
ENDMDL
MODEL 8
REMARK VINA RESULT:    -5.505      2.868      5.009
REMARK INTER + INTRA:          -7.087
REMARK INTER:                  -6.860
REMARK INTRA:                  -0.227
REMARK UNBOUND:                -0.295
REMARK SMILES O=c1c(O)c(-c2cc(O)c(O)c(O)c2)oc2cc(O)cc(O)c12
REMARK SMILES IDX 5 1 3 2 2 3 1 4 23 5 21 6 20 7 18 8 17 9 16 10 15 11 6 12
REMARK SMILES IDX 7 13 8 14 14 15 10 16 12 17 9 18 11 20 13 22 4 24 22 26
REMARK SMILES IDX 19 28
REMARK H PARENT 9 19 11 21 13 23 4 25 22 27 19 29
REMARK Flexibility Score: inf
ROOT
ATOM      1  C   UNL     1       8.177  12.845 -23.930  1.00  0.00     0.180 A 
ATOM      2  C   UNL     1       8.008  13.513 -25.155  1.00  0.00     0.208 A 
ATOM      3  C   UNL     1       9.005  14.400 -25.591  1.00  0.00     0.238 A 
ATOM      4  O   UNL     1       8.824  15.036 -26.661  1.00  0.00    -0.285 OA
ATOM      5  C   UNL     1      10.167  14.595 -24.805  1.00  0.00     0.111 A 
ATOM      6  C   UNL     1      11.260  15.438 -25.168  1.00  0.00     0.134 A 
ATOM      7  C   UNL     1      12.297  15.657 -24.253  1.00  0.00     0.093 A 
ATOM      8  C   UNL     1      12.314  15.010 -23.015  1.00  0.00     0.123 A 
ATOM      9  C   UNL     1      11.282  14.138 -22.676  1.00  0.00     0.094 A 
ATOM     10  C   UNL     1      10.214  13.928 -23.552  1.00  0.00     0.146 A 
ATOM     11  O   UNL     1       9.246  13.098 -23.185  1.00  0.00    -0.452 OA
ENDROOT
BRANCH   1  12
ATOM     12  C   UNL     1       7.181  11.877 -23.417  1.00  0.00     0.029 A 
ATOM     13  C   UNL     1       6.923  10.668 -24.087  1.00  0.00     0.062 A 
ATOM     14  C   UNL     1       5.993   9.753 -23.574  1.00  0.00     0.162 A 
ATOM     15  C   UNL     1       6.520  12.141 -22.209  1.00  0.00     0.062 A 
ATOM     16  C   UNL     1       5.320  10.037 -22.374  1.00  0.00     0.200 A 
ATOM     17  C   UNL     1       5.589  11.235 -21.690  1.00  0.00     0.162 A 
BRANCH  14  18
ATOM     18  O   UNL     1       5.741   8.561 -24.251  1.00  0.00    -0.504 OA
ATOM     19  H   UNL     1       6.219   7.701 -24.009  1.00  0.00     0.293 HD
ENDBRANCH  14  18
BRANCH  16  20
ATOM     20  O   UNL     1       4.387   9.139 -21.852  1.00  0.00    -0.502 OA
ATOM     21  H   UNL     1       3.534   9.449 -21.403  1.00  0.00     0.293 HD
ENDBRANCH  16  20
BRANCH  17  22
ATOM     22  O   UNL     1       4.943  11.541 -20.492  1.00  0.00    -0.504 OA
ATOM     23  H   UNL     1       4.886  10.881 -19.727  1.00  0.00     0.293 HD
ENDBRANCH  17  22
ENDBRANCH   1  12
BRANCH   2  24
ATOM     24  O   UNL     1       6.843  13.323 -25.905  1.00  0.00    -0.502 OA
ATOM     25  H   UNL     1       6.095  14.006 -25.929  1.00  0.00     0.293 HD
ENDBRANCH   2  24
BRANCH   6  26
ATOM     26  O   UNL     1      11.386  16.057 -26.415  1.00  0.00    -0.507 OA
ATOM     27  H   UNL     1      10.847  15.818 -27.233  1.00  0.00     0.293 HD
ENDBRANCH   6  26
BRANCH   8  28
ATOM     28  O   UNL     1      13.358  15.220 -22.117  1.00  0.00    -0.508 OA
ATOM     29  H   UNL     1      14.063  14.512 -21.949  1.00  0.00     0.293 HD
ENDBRANCH   8  28
TORSDOF 7
ENDMDL
MODEL 9
REMARK VINA RESULT:    -5.495      2.859      4.905
REMARK INTER + INTRA:          -7.075
REMARK INTER:                  -6.875
REMARK INTRA:                  -0.200
REMARK UNBOUND:                -0.295
REMARK SMILES O=c1c(O)c(-c2cc(O)c(O)c(O)c2)oc2cc(O)cc(O)c12
REMARK SMILES IDX 5 1 3 2 2 3 1 4 23 5 21 6 20 7 18 8 17 9 16 10 15 11 6 12
REMARK SMILES IDX 7 13 8 14 14 15 10 16 12 17 9 18 11 20 13 22 4 24 22 26
REMARK SMILES IDX 19 28
REMARK H PARENT 9 19 11 21 13 23 4 25 22 27 19 29
REMARK Flexibility Score: inf
ROOT
ATOM      1  C   UNL     1       8.234  12.831 -23.835  1.00  0.00     0.180 A 
ATOM      2  C   UNL     1       8.057  13.481 -25.069  1.00  0.00     0.208 A 
ATOM      3  C   UNL     1       9.061  14.343 -25.536  1.00  0.00     0.238 A 
ATOM      4  O   UNL     1       8.873  14.963 -26.614  1.00  0.00    -0.285 OA
ATOM      5  C   UNL     1      10.237  14.534 -24.771  1.00  0.00     0.111 A 
ATOM      6  C   UNL     1      11.337  15.354 -25.166  1.00  0.00     0.134 A 
ATOM      7  C   UNL     1      12.392  15.572 -24.271  1.00  0.00     0.093 A 
ATOM      8  C   UNL     1      12.418  14.947 -23.022  1.00  0.00     0.123 A 
ATOM      9  C   UNL     1      11.378  14.098 -22.651  1.00  0.00     0.094 A 
ATOM     10  C   UNL     1      10.294  13.889 -23.507  1.00  0.00     0.146 A 
ATOM     11  O   UNL     1       9.319  13.081 -23.111  1.00  0.00    -0.452 OA
ENDROOT
BRANCH   1  12
ATOM     12  C   UNL     1       7.231  11.888 -23.290  1.00  0.00     0.029 A 
ATOM     13  C   UNL     1       6.498  12.189 -22.129  1.00  0.00     0.062 A 
ATOM     14  C   UNL     1       5.537  11.294 -21.641  1.00  0.00     0.162 A 
ATOM     15  C   UNL     1       6.965  10.692 -23.973  1.00  0.00     0.062 A 
ATOM     16  C   UNL     1       5.293  10.089 -22.320  1.00  0.00     0.200 A 
ATOM     17  C   UNL     1       6.009   9.792 -23.492  1.00  0.00     0.162 A 
BRANCH  14  18
ATOM     18  O   UNL     1       4.820  11.601 -20.485  1.00  0.00    -0.504 OA
ATOM     19  H   UNL     1       4.851  12.525 -20.070  1.00  0.00     0.293 HD
ENDBRANCH  14  18
BRANCH  16  20
ATOM     20  O   UNL     1       4.343   9.183 -21.845  1.00  0.00    -0.502 OA
ATOM     21  H   UNL     1       4.115   9.107 -20.861  1.00  0.00     0.293 HD
ENDBRANCH  16  20
BRANCH  17  22
ATOM     22  O   UNL     1       5.784   8.607 -24.194  1.00  0.00    -0.504 OA
ATOM     23  H   UNL     1       4.855   8.226 -24.323  1.00  0.00     0.293 HD
ENDBRANCH  17  22
ENDBRANCH   1  12
BRANCH   2  24
ATOM     24  O   UNL     1       6.878  13.295 -25.797  1.00  0.00    -0.502 OA
ATOM     25  H   UNL     1       6.140  13.990 -25.824  1.00  0.00     0.293 HD
ENDBRANCH   2  24
BRANCH   6  26
ATOM     26  O   UNL     1      11.453  15.948 -26.425  1.00  0.00    -0.507 OA
ATOM     27  H   UNL     1      12.316  16.045 -26.938  1.00  0.00     0.293 HD
ENDBRANCH   6  26
BRANCH   8  28
ATOM     28  O   UNL     1      13.479  15.157 -22.144  1.00  0.00    -0.508 OA
ATOM     29  H   UNL     1      13.805  14.426 -21.523  1.00  0.00     0.293 HD
ENDBRANCH   8  28
TORSDOF 7
ENDMDL
