MODEL 1
REMARK VINA RESULT:    -3.538      0.000      0.000
REMARK INTER + INTRA:          -4.107
REMARK INTER:                  -4.056
REMARK INTRA:                  -0.051
REMARK UNBOUND:                -0.051
REMARK SMILES CC(C)[C@@H]([NH3+])C(=O)[O-]
REMARK SMILES IDX 4 1 5 2 6 6 7 7 8 8 2 9 1 10 3 11
REMARK H PARENT 5 3 5 4 5 5
REMARK Flexibility Score: inf
ROOT
ATOM      1  C   UNL     1      56.925  17.415  13.978  1.00  0.00     0.230 C 
ENDROOT
BRANCH   1   2
ATOM      2  N   UNL     1      57.335  16.173  14.653  1.00  0.00    -0.350 N 
ATOM      3  H   UNL     1      56.656  15.406  14.448  1.00  0.00     0.345 HD
ATOM      4  H   UNL     1      57.336  16.324  15.688  1.00  0.00     0.345 HD
ATOM      5  H   UNL     1      58.293  15.877  14.359  1.00  0.00     0.345 HD
ENDBRANCH   1   2
BRANCH   1   6
ATOM      6  C   UNL     1      58.101  18.343  13.797  1.00  0.00     0.099 C 
ATOM      7  O   UNL     1      58.194  19.080  12.779  1.00  0.00    -0.544 OA
ATOM      8  O   UNL     1      59.072  18.425  14.788  1.00  0.00    -0.544 OA
ENDBRANCH   1   6
BRANCH   1   9
ATOM      9  C   UNL     1      56.201  17.165  12.621  1.00  0.00     0.047 C 
ATOM     10  C   UNL     1      56.788  15.993  11.816  1.00  0.00     0.014 C 
ATOM     11  C   UNL     1      54.689  16.972  12.807  1.00  0.00     0.014 C 
ENDBRANCH   1   9
TORSDOF 3
ENDMDL
MODEL 2
REMARK VINA RESULT:    -3.449      1.329      1.938
REMARK INTER + INTRA:          -4.004
REMARK INTER:                  -3.933
REMARK INTRA:                  -0.071
REMARK UNBOUND:                -0.051
REMARK SMILES CC(C)[C@@H]([NH3+])C(=O)[O-]
REMARK SMILES IDX 4 1 5 2 6 6 7 7 8 8 2 9 1 10 3 11
REMARK H PARENT 5 3 5 4 5 5
REMARK Flexibility Score: inf
ROOT
ATOM      1  C   UNL     1      57.165  17.379  14.142  1.00  0.00     0.230 C 
ENDROOT
BRANCH   1   2
ATOM      2  N   UNL     1      56.277  16.543  14.966  1.00  0.00    -0.350 N 
ATOM      3  H   UNL     1      55.729  17.136  15.628  1.00  0.00     0.345 HD
ATOM      4  H   UNL     1      56.852  15.882  15.537  1.00  0.00     0.345 HD
ATOM      5  H   UNL     1      55.620  15.984  14.375  1.00  0.00     0.345 HD
ENDBRANCH   1   2
BRANCH   1   6
ATOM      6  C   UNL     1      58.589  17.301  14.637  1.00  0.00     0.099 C 
ATOM      7  O   UNL     1      59.214  16.207  14.644  1.00  0.00    -0.544 OA
ATOM      8  O   UNL     1      59.241  18.460  15.045  1.00  0.00    -0.544 OA
ENDBRANCH   1   6
BRANCH   1   9
ATOM      9  C   UNL     1      57.087  17.044  12.622  1.00  0.00     0.047 C 
ATOM     10  C   UNL     1      55.682  16.630  12.154  1.00  0.00     0.014 C 
ATOM     11  C   UNL     1      57.614  18.197  11.756  1.00  0.00     0.014 C 
ENDBRANCH   1   9
TORSDOF 3
ENDMDL
MODEL 3
REMARK VINA RESULT:    -3.333      1.683      2.239
REMARK INTER + INTRA:          -3.871
REMARK INTER:                  -3.811
REMARK INTRA:                  -0.060
REMARK UNBOUND:                -0.051
REMARK SMILES CC(C)[C@@H]([NH3+])C(=O)[O-]
REMARK SMILES IDX 4 1 5 2 6 6 7 7 8 8 2 9 1 10 3 11
REMARK H PARENT 5 3 5 4 5 5
REMARK Flexibility Score: inf
ROOT
ATOM      1  C   UNL     1      57.881  17.905  13.058  1.00  0.00     0.230 C 
ENDROOT
BRANCH   1   2
ATOM      2  N   UNL     1      57.396  19.277  12.836  1.00  0.00    -0.350 N 
ATOM      3  H   UNL     1      58.159  19.874  12.444  1.00  0.00     0.345 HD
ATOM      4  H   UNL     1      57.107  19.696  13.749  1.00  0.00     0.345 HD
ATOM      5  H   UNL     1      56.575  19.293  12.189  1.00  0.00     0.345 HD
ENDBRANCH   1   2
BRANCH   1   6
ATOM      6  C   UNL     1      58.554  17.784  14.404  1.00  0.00     0.099 C 
ATOM      7  O   UNL     1      58.579  16.684  15.018  1.00  0.00    -0.544 OA
ATOM      8  O   UNL     1      59.200  18.886  14.952  1.00  0.00    -0.544 OA
ENDBRANCH   1   6
BRANCH   1   9
ATOM      9  C   UNL     1      56.766  16.828  12.896  1.00  0.00     0.047 C 
ATOM     10  C   UNL     1      55.351  17.356  13.187  1.00  0.00     0.014 C 
ATOM     11  C   UNL     1      56.809  16.166  11.511  1.00  0.00     0.014 C 
ENDBRANCH   1   9
TORSDOF 3
ENDMDL
MODEL 4
REMARK VINA RESULT:    -3.144     12.688     13.085
REMARK INTER + INTRA:          -3.655
REMARK INTER:                  -3.620
REMARK INTRA:                  -0.035
REMARK UNBOUND:                -0.051
REMARK SMILES CC(C)[C@@H]([NH3+])C(=O)[O-]
REMARK SMILES IDX 4 1 5 2 6 6 7 7 8 8 2 9 1 10 3 11
REMARK H PARENT 5 3 5 4 5 5
REMARK Flexibility Score: inf
ROOT
ATOM      1  C   UNL     1      53.700  28.475   6.908  1.00  0.00     0.230 C 
ENDROOT
BRANCH   1   2
ATOM      2  N   UNL     1      52.385  27.840   7.097  1.00  0.00    -0.350 N 
ATOM      3  H   UNL     1      52.171  27.201   6.298  1.00  0.00     0.345 HD
ATOM      4  H   UNL     1      51.643  28.576   7.118  1.00  0.00     0.345 HD
ATOM      5  H   UNL     1      52.345  27.302   7.992  1.00  0.00     0.345 HD
ENDBRANCH   1   2
BRANCH   1   6
ATOM      6  C   UNL     1      53.953  29.514   7.973  1.00  0.00     0.099 C 
ATOM      7  O   UNL     1      53.221  30.535   8.069  1.00  0.00    -0.544 OA
ATOM      8  O   UNL     1      54.976  29.321   8.894  1.00  0.00    -0.544 OA
ENDBRANCH   1   6
BRANCH   1   9
ATOM      9  C   UNL     1      54.872  27.450   6.843  1.00  0.00     0.047 C 
ATOM     10  C   UNL     1      54.427  26.029   6.459  1.00  0.00     0.014 C 
ATOM     11  C   UNL     1      55.993  27.924   5.907  1.00  0.00     0.014 C 
ENDBRANCH   1   9
TORSDOF 3
ENDMDL
MODEL 5
REMARK VINA RESULT:    -3.082     13.907     14.483
REMARK INTER + INTRA:          -3.584
REMARK INTER:                  -3.533
REMARK INTRA:                  -0.051
REMARK UNBOUND:                -0.051
REMARK SMILES CC(C)[C@@H]([NH3+])C(=O)[O-]
REMARK SMILES IDX 4 1 5 2 6 6 7 7 8 8 2 9 1 10 3 11
REMARK H PARENT 5 3 5 4 5 5
REMARK Flexibility Score: inf
ROOT
ATOM      1  C   UNL     1      53.541  30.332   7.932  1.00  0.00     0.230 C 
ENDROOT
BRANCH   1   2
ATOM      2  N   UNL     1      53.834  31.651   7.347  1.00  0.00    -0.350 N 
ATOM      3  H   UNL     1      54.634  32.101   7.846  1.00  0.00     0.345 HD
ATOM      4  H   UNL     1      53.001  32.274   7.461  1.00  0.00     0.345 HD
ATOM      5  H   UNL     1      54.056  31.577   6.329  1.00  0.00     0.345 HD
ENDBRANCH   1   2
BRANCH   1   6
ATOM      6  C   UNL     1      52.671  29.515   7.008  1.00  0.00     0.099 C 
ATOM      7  O   UNL     1      51.895  30.073   6.188  1.00  0.00    -0.544 OA
ATOM      8  O   UNL     1      52.761  28.128   7.027  1.00  0.00    -0.544 OA
ENDBRANCH   1   6
BRANCH   1   9
ATOM      9  C   UNL     1      54.823  29.541   8.331  1.00  0.00     0.047 C 
ATOM     10  C   UNL     1      55.938  29.600   7.274  1.00  0.00     0.014 C 
ATOM     11  C   UNL     1      55.366  29.986   9.698  1.00  0.00     0.014 C 
ENDBRANCH   1   9
TORSDOF 3
ENDMDL
MODEL 6
REMARK VINA RESULT:    -3.080     13.789     14.313
REMARK INTER + INTRA:          -3.582
REMARK INTER:                  -3.531
REMARK INTRA:                  -0.051
REMARK UNBOUND:                -0.051
REMARK SMILES CC(C)[C@@H]([NH3+])C(=O)[O-]
REMARK SMILES IDX 4 1 5 2 6 6 7 7 8 8 2 9 1 10 3 11
REMARK H PARENT 5 3 5 4 5 5
REMARK Flexibility Score: inf
ROOT
ATOM      1  C   UNL     1      54.520  30.072   8.213  1.00  0.00     0.230 C 
ENDROOT
BRANCH   1   2
ATOM      2  N   UNL     1      54.896  29.971   9.632  1.00  0.00    -0.350 N 
ATOM      3  H   UNL     1      55.325  29.040   9.830  1.00  0.00     0.345 HD
ATOM      4  H   UNL     1      54.039  30.055  10.226  1.00  0.00     0.345 HD
ATOM      5  H   UNL     1      55.563  30.727   9.906  1.00  0.00     0.345 HD
ENDBRANCH   1   2
BRANCH   1   6
ATOM      6  C   UNL     1      54.337  28.702   7.605  1.00  0.00     0.099 C 
ATOM      7  O   UNL     1      55.316  27.923   7.460  1.00  0.00    -0.544 OA
ATOM      8  O   UNL     1      53.064  28.273   7.247  1.00  0.00    -0.544 OA
ENDBRANCH   1   6
BRANCH   1   9
ATOM      9  C   UNL     1      53.259  30.957   7.975  1.00  0.00     0.047 C 
ATOM     10  C   UNL     1      52.957  31.924   9.132  1.00  0.00     0.014 C 
ATOM     11  C   UNL     1      53.346  31.730   6.650  1.00  0.00     0.014 C 
ENDBRANCH   1   9
TORSDOF 3
ENDMDL
MODEL 7
REMARK VINA RESULT:    -3.068      2.202      2.836
REMARK INTER + INTRA:          -3.568
REMARK INTER:                  -3.643
REMARK INTRA:                   0.074
REMARK UNBOUND:                -0.051
REMARK SMILES CC(C)[C@@H]([NH3+])C(=O)[O-]
REMARK SMILES IDX 4 1 5 2 6 6 7 7 8 8 2 9 1 10 3 11
REMARK H PARENT 5 3 5 4 5 5
REMARK Flexibility Score: inf
ROOT
ATOM      1  C   UNL     1      57.355  18.405  12.453  1.00  0.00     0.230 C 
ENDROOT
BRANCH   1   2
ATOM      2  N   UNL     1      58.153  19.551  12.920  1.00  0.00    -0.350 N 
ATOM      3  H   UNL     1      58.559  19.353  13.862  1.00  0.00     0.345 HD
ATOM      4  H   UNL     1      57.535  20.389  13.014  1.00  0.00     0.345 HD
ATOM      5  H   UNL     1      58.922  19.779  12.251  1.00  0.00     0.345 HD
ENDBRANCH   1   2
BRANCH   1   6
ATOM      6  C   UNL     1      58.244  17.328  11.880  1.00  0.00     0.099 C 
ATOM      7  O   UNL     1      59.470  17.281  12.164  1.00  0.00    -0.544 OA
ATOM      8  O   UNL     1      57.695  16.343  11.067  1.00  0.00    -0.544 OA
ENDBRANCH   1   6
BRANCH   1   9
ATOM      9  C   UNL     1      56.417  17.823  13.554  1.00  0.00     0.047 C 
ATOM     10  C   UNL     1      55.150  17.155  12.994  1.00  0.00     0.014 C 
ATOM     11  C   UNL     1      57.160  16.852  14.483  1.00  0.00     0.014 C 
ENDBRANCH   1   9
TORSDOF 3
ENDMDL
MODEL 8
REMARK VINA RESULT:    -3.052     12.987     13.521
REMARK INTER + INTRA:          -3.550
REMARK INTER:                  -3.489
REMARK INTRA:                  -0.060
REMARK UNBOUND:                -0.051
REMARK SMILES CC(C)[C@@H]([NH3+])C(=O)[O-]
REMARK SMILES IDX 4 1 5 2 6 6 7 7 8 8 2 9 1 10 3 11
REMARK H PARENT 5 3 5 4 5 5
REMARK Flexibility Score: inf
ROOT
ATOM      1  C   UNL     1      55.616  29.544   6.988  1.00  0.00     0.230 C 
ENDROOT
BRANCH   1   2
ATOM      2  N   UNL     1      56.801  30.387   7.213  1.00  0.00    -0.350 N 
ATOM      3  H   UNL     1      56.521  31.388   7.318  1.00  0.00     0.345 HD
ATOM      4  H   UNL     1      57.436  30.323   6.384  1.00  0.00     0.345 HD
ATOM      5  H   UNL     1      57.332  30.084   8.061  1.00  0.00     0.345 HD
ENDBRANCH   1   2
BRANCH   1   6
ATOM      6  C   UNL     1      56.019  28.146   6.584  1.00  0.00     0.099 C 
ATOM      7  O   UNL     1      56.770  27.950   5.592  1.00  0.00    -0.544 OA
ATOM      8  O   UNL     1      55.598  27.062   7.345  1.00  0.00    -0.544 OA
ENDBRANCH   1   6
BRANCH   1   9
ATOM      9  C   UNL     1      54.647  29.511   8.208  1.00  0.00     0.047 C 
ATOM     10  C   UNL     1      55.303  29.948   9.528  1.00  0.00     0.014 C 
ATOM     11  C   UNL     1      53.377  30.336   7.950  1.00  0.00     0.014 C 
ENDBRANCH   1   9
TORSDOF 3
ENDMDL
MODEL 9
REMARK VINA RESULT:    -3.034     13.575     14.080
REMARK INTER + INTRA:          -3.529
REMARK INTER:                  -3.609
REMARK INTRA:                   0.080
REMARK UNBOUND:                -0.051
REMARK SMILES CC(C)[C@@H]([NH3+])C(=O)[O-]
REMARK SMILES IDX 4 1 5 2 6 6 7 7 8 8 2 9 1 10 3 11
REMARK H PARENT 5 3 5 4 5 5
REMARK Flexibility Score: inf
ROOT
ATOM      1  C   UNL     1      54.596  29.568   8.611  1.00  0.00     0.230 C 
ENDROOT
BRANCH   1   2
ATOM      2  N   UNL     1      55.125  30.318   9.761  1.00  0.00    -0.350 N 
ATOM      3  H   UNL     1      56.149  30.487   9.646  1.00  0.00     0.345 HD
ATOM      4  H   UNL     1      54.994  29.755  10.633  1.00  0.00     0.345 HD
ATOM      5  H   UNL     1      54.633  31.233   9.881  1.00  0.00     0.345 HD
ENDBRANCH   1   2
BRANCH   1   6
ATOM      6  C   UNL     1      53.475  30.327   7.942  1.00  0.00     0.099 C 
ATOM      7  O   UNL     1      52.665  29.742   7.175  1.00  0.00    -0.544 OA
ATOM      8  O   UNL     1      53.302  31.679   8.214  1.00  0.00    -0.544 OA
ENDBRANCH   1   6
BRANCH   1   9
ATOM      9  C   UNL     1      55.695  29.177   7.577  1.00  0.00     0.047 C 
ATOM     10  C   UNL     1      55.569  27.734   7.059  1.00  0.00     0.014 C 
ATOM     11  C   UNL     1      55.746  30.160   6.398  1.00  0.00     0.014 C 
ENDBRANCH   1   9
TORSDOF 3
ENDMDL
