MODEL 1
REMARK VINA RESULT:    -5.025      0.000      0.000
REMARK INTER + INTRA:         -11.737
REMARK INTER:                  -9.432
REMARK INTRA:                  -2.305
REMARK UNBOUND:                -2.305
REMARK SMILES O=C([O-])CCCCCCCCCCCCCCC(=O)[O-]
REMARK SMILES IDX 10 1 9 2 8 3 7 4 6 5 5 6 4 7 2 8 1 9 3 10 11 11 12 12 13 13
REMARK SMILES IDX 14 14 15 15 16 16 17 17 18 18 19 19 20 20
REMARK H PARENT
REMARK Flexibility Score: inf
ROOT
ATOM      1  C   UNL     1      18.555  -6.352  33.025  1.00  0.00     0.000 C 
ENDROOT
BRANCH   1   2
ATOM      2  C   UNL     1      19.653  -5.348  33.397  1.00  0.00     0.000 C 
BRANCH   2   3
ATOM      3  C   UNL     1      19.054  -3.967  33.705  1.00  0.00     0.000 C 
BRANCH   3   4
ATOM      4  C   UNL     1      17.534  -3.918  33.488  1.00  0.00     0.000 C 
BRANCH   4   5
ATOM      5  C   UNL     1      16.772  -3.451  34.738  1.00  0.00     0.000 C 
BRANCH   5   6
ATOM      6  C   UNL     1      17.723  -3.288  35.931  1.00  0.00     0.006 C 
BRANCH   6   7
ATOM      7  C   UNL     1      17.504  -1.943  36.629  1.00  0.00     0.053 C 
BRANCH   7   8
ATOM      8  C   UNL     1      18.301  -0.869  35.956  1.00  0.00     0.041 C 
ATOM      9  O   UNL     1      17.885  -0.346  34.889  1.00  0.00    -0.550 OA
ATOM     10  O   UNL     1      19.527  -0.483  36.480  1.00  0.00    -0.550 OA
ENDBRANCH   7   8
ENDBRANCH   6   7
ENDBRANCH   5   6
ENDBRANCH   4   5
ENDBRANCH   3   4
ENDBRANCH   2   3
ENDBRANCH   1   2
BRANCH   1  11
ATOM     11  C   UNL     1      18.612  -7.590  33.932  1.00  0.00     0.000 C 
BRANCH  11  12
ATOM     12  C   UNL     1      18.657  -7.228  35.426  1.00  0.00     0.000 C 
BRANCH  12  13
ATOM     13  C   UNL     1      17.273  -6.851  35.982  1.00  0.00     0.000 C 
BRANCH  13  14
ATOM     14  C   UNL     1      16.131  -7.607  35.285  1.00  0.00     0.000 C 
BRANCH  14  15
ATOM     15  C   UNL     1      15.187  -6.677  34.508  1.00  0.00     0.000 C 
BRANCH  15  16
ATOM     16  C   UNL     1      15.006  -7.164  33.062  1.00  0.00     0.006 C 
BRANCH  16  17
ATOM     17  C   UNL     1      15.265  -8.669  32.918  1.00  0.00     0.053 C 
BRANCH  17  18
ATOM     18  C   UNL     1      15.901  -9.003  31.603  1.00  0.00     0.041 C 
ATOM     19  O   UNL     1      17.097  -9.395  31.560  1.00  0.00    -0.550 OA
ATOM     20  O   UNL     1      15.182  -8.853  30.424  1.00  0.00    -0.550 OA
ENDBRANCH  17  18
ENDBRANCH  16  17
ENDBRANCH  15  16
ENDBRANCH  14  15
ENDBRANCH  13  14
ENDBRANCH  12  13
ENDBRANCH  11  12
ENDBRANCH   1  11
TORSDOF 15
ENDMDL
MODEL 2
REMARK VINA RESULT:    -4.940     15.502     17.296
REMARK INTER + INTRA:         -11.576
REMARK INTER:                 -10.358
REMARK INTRA:                  -1.218
REMARK UNBOUND:                -2.305
REMARK SMILES O=C([O-])CCCCCCCCCCCCCCC(=O)[O-]
REMARK SMILES IDX 10 1 9 2 8 3 7 4 6 5 5 6 4 7 2 8 1 9 3 10 11 11 12 12 13 13
REMARK SMILES IDX 14 14 15 15 16 16 17 17 18 18 19 19 20 20
REMARK H PARENT
REMARK Flexibility Score: inf
ROOT
ATOM      1  C   UNL     1      10.055   2.172  20.418  1.00  0.00     0.000 C 
ENDROOT
BRANCH   1   2
ATOM      2  C   UNL     1      10.595   2.200  21.853  1.00  0.00     0.000 C 
BRANCH   2   3
ATOM      3  C   UNL     1      10.612   0.789  22.461  1.00  0.00     0.000 C 
BRANCH   3   4
ATOM      4  C   UNL     1      11.218   0.758  23.873  1.00  0.00     0.000 C 
BRANCH   4   5
ATOM      5  C   UNL     1      10.193   0.369  24.949  1.00  0.00     0.000 C 
BRANCH   5   6
ATOM      6  C   UNL     1      10.890   0.013  26.268  1.00  0.00     0.006 C 
BRANCH   6   7
ATOM      7  C   UNL     1      12.209  -0.721  26.012  1.00  0.00     0.053 C 
BRANCH   7   8
ATOM      8  C   UNL     1      13.284  -0.194  26.911  1.00  0.00     0.041 C 
ATOM      9  O   UNL     1      14.465  -0.085  26.489  1.00  0.00    -0.550 OA
ATOM     10  O   UNL     1      12.990   0.128  28.230  1.00  0.00    -0.550 OA
ENDBRANCH   7   8
ENDBRANCH   6   7
ENDBRANCH   5   6
ENDBRANCH   4   5
ENDBRANCH   3   4
ENDBRANCH   2   3
ENDBRANCH   1   2
BRANCH   1  11
ATOM     11  C   UNL     1      10.211   3.545  19.746  1.00  0.00     0.000 C 
BRANCH  11  12
ATOM     12  C   UNL     1       8.889   4.069  19.157  1.00  0.00     0.000 C 
BRANCH  12  13
ATOM     13  C   UNL     1       8.489   5.437  19.738  1.00  0.00     0.000 C 
BRANCH  13  14
ATOM     14  C   UNL     1       9.068   5.676  21.141  1.00  0.00     0.000 C 
BRANCH  14  15
ATOM     15  C   UNL     1       9.870   6.982  21.241  1.00  0.00     0.000 C 
BRANCH  15  16
ATOM     16  C   UNL     1      11.380   6.705  21.183  1.00  0.00     0.006 C 
BRANCH  16  17
ATOM     17  C   UNL     1      12.070   7.475  20.050  1.00  0.00     0.053 C 
BRANCH  17  18
ATOM     18  C   UNL     1      11.774   6.878  18.708  1.00  0.00     0.041 C 
ATOM     19  O   UNL     1      12.388   5.848  18.324  1.00  0.00    -0.550 OA
ATOM     20  O   UNL     1      10.843   7.477  17.870  1.00  0.00    -0.550 OA
ENDBRANCH  17  18
ENDBRANCH  16  17
ENDBRANCH  15  16
ENDBRANCH  14  15
ENDBRANCH  13  14
ENDBRANCH  12  13
ENDBRANCH  11  12
ENDBRANCH   1  11
TORSDOF 15
ENDMDL
MODEL 3
REMARK VINA RESULT:    -4.913     14.924     16.268
REMARK INTER + INTRA:         -11.527
REMARK INTER:                 -10.479
REMARK INTRA:                  -1.048
REMARK UNBOUND:                -2.305
REMARK SMILES O=C([O-])CCCCCCCCCCCCCCC(=O)[O-]
REMARK SMILES IDX 10 1 9 2 8 3 7 4 6 5 5 6 4 7 2 8 1 9 3 10 11 11 12 12 13 13
REMARK SMILES IDX 14 14 15 15 16 16 17 17 18 18 19 19 20 20
REMARK H PARENT
REMARK Flexibility Score: inf
ROOT
ATOM      1  C   UNL     1      10.081   3.471  21.059  1.00  0.00     0.000 C 
ENDROOT
BRANCH   1   2
ATOM      2  C   UNL     1      10.186   2.773  19.697  1.00  0.00     0.000 C 
BRANCH   2   3
ATOM      3  C   UNL     1      10.715   3.737  18.625  1.00  0.00     0.000 C 
BRANCH   3   4
ATOM      4  C   UNL     1      11.868   4.616  19.133  1.00  0.00     0.000 C 
BRANCH   4   5
ATOM      5  C   UNL     1      12.037   5.904  18.314  1.00  0.00     0.000 C 
BRANCH   5   6
ATOM      6  C   UNL     1      12.063   7.137  19.227  1.00  0.00     0.006 C 
BRANCH   6   7
ATOM      7  C   UNL     1      11.571   6.788  20.635  1.00  0.00     0.053 C 
BRANCH   7   8
ATOM      8  C   UNL     1      10.178   7.295  20.842  1.00  0.00     0.041 C 
ATOM      9  O   UNL     1       9.956   8.219  21.667  1.00  0.00    -0.550 OA
ATOM     10  O   UNL     1       9.118   6.709  20.162  1.00  0.00    -0.550 OA
ENDBRANCH   7   8
ENDBRANCH   6   7
ENDBRANCH   5   6
ENDBRANCH   4   5
ENDBRANCH   3   4
ENDBRANCH   2   3
ENDBRANCH   1   2
BRANCH   1  11
ATOM     11  C   UNL     1      10.964   2.772  22.104  1.00  0.00     0.000 C 
BRANCH  11  12
ATOM     12  C   UNL     1      10.561   1.305  22.333  1.00  0.00     0.000 C 
BRANCH  12  13
ATOM     13  C   UNL     1      11.196   0.712  23.603  1.00  0.00     0.000 C 
BRANCH  13  14
ATOM     14  C   UNL     1      10.153   0.362  24.676  1.00  0.00     0.000 C 
BRANCH  14  15
ATOM     15  C   UNL     1      10.763   0.234  26.081  1.00  0.00     0.000 C 
BRANCH  15  16
ATOM     16  C   UNL     1      12.298   0.238  26.015  1.00  0.00     0.006 C 
BRANCH  16  17
ATOM     17  C   UNL     1      12.896  -1.142  26.318  1.00  0.00     0.053 C 
BRANCH  17  18
ATOM     18  C   UNL     1      14.391  -1.136  26.224  1.00  0.00     0.041 C 
ATOM     19  O   UNL     1      15.022  -2.219  26.103  1.00  0.00    -0.550 OA
ATOM     20  O   UNL     1      15.088   0.063  26.299  1.00  0.00    -0.550 OA
ENDBRANCH  17  18
ENDBRANCH  16  17
ENDBRANCH  15  16
ENDBRANCH  14  15
ENDBRANCH  13  14
ENDBRANCH  12  13
ENDBRANCH  11  12
ENDBRANCH   1  11
TORSDOF 15
ENDMDL
MODEL 4
REMARK VINA RESULT:    -4.910     13.739     15.181
REMARK INTER + INTRA:         -11.522
REMARK INTER:                 -10.833
REMARK INTRA:                  -0.688
REMARK UNBOUND:                -2.305
REMARK SMILES O=C([O-])CCCCCCCCCCCCCCC(=O)[O-]
REMARK SMILES IDX 10 1 9 2 8 3 7 4 6 5 5 6 4 7 2 8 1 9 3 10 11 11 12 12 13 13
REMARK SMILES IDX 14 14 15 15 16 16 17 17 18 18 19 19 20 20
REMARK H PARENT
REMARK Flexibility Score: inf
ROOT
ATOM      1  C   UNL     1      10.682   2.216  22.163  1.00  0.00     0.000 C 
ENDROOT
BRANCH   1   2
ATOM      2  C   UNL     1      10.297   2.202  20.678  1.00  0.00     0.000 C 
BRANCH   2   3
ATOM      3  C   UNL     1      10.295   3.624  20.098  1.00  0.00     0.000 C 
BRANCH   3   4
ATOM      4  C   UNL     1      11.450   4.486  20.633  1.00  0.00     0.000 C 
BRANCH   4   5
ATOM      5  C   UNL     1      10.962   5.777  21.307  1.00  0.00     0.000 C 
BRANCH   5   6
ATOM      6  C   UNL     1      11.367   7.010  20.489  1.00  0.00     0.006 C 
BRANCH   6   7
ATOM      7  C   UNL     1      11.636   8.211  21.401  1.00  0.00     0.053 C 
BRANCH   7   8
ATOM      8  C   UNL     1      13.098   8.532  21.425  1.00  0.00     0.041 C 
ATOM      9  O   UNL     1      13.711   8.612  22.522  1.00  0.00    -0.550 OA
ATOM     10  O   UNL     1      13.771   8.794  20.239  1.00  0.00    -0.550 OA
ENDBRANCH   7   8
ENDBRANCH   6   7
ENDBRANCH   5   6
ENDBRANCH   4   5
ENDBRANCH   3   4
ENDBRANCH   2   3
ENDBRANCH   1   2
BRANCH   1  11
ATOM     11  C   UNL     1      10.711   0.791  22.736  1.00  0.00     0.000 C 
BRANCH  11  12
ATOM     12  C   UNL     1      11.480   0.703  24.066  1.00  0.00     0.000 C 
BRANCH  12  13
ATOM     13  C   UNL     1      10.578   0.292  25.242  1.00  0.00     0.000 C 
BRANCH  13  14
ATOM     14  C   UNL     1      11.379  -0.166  26.470  1.00  0.00     0.000 C 
BRANCH  14  15
ATOM     15  C   UNL     1      12.520  -1.131  26.111  1.00  0.00     0.000 C 
BRANCH  15  16
ATOM     16  C   UNL     1      13.761  -0.858  26.974  1.00  0.00     0.006 C 
BRANCH  16  17
ATOM     17  C   UNL     1      13.615   0.415  27.817  1.00  0.00     0.053 C 
BRANCH  17  18
ATOM     18  C   UNL     1      13.718   0.128  29.284  1.00  0.00     0.041 C 
ATOM     19  O   UNL     1      14.541  -0.727  29.705  1.00  0.00    -0.550 OA
ATOM     20  O   UNL     1      12.884   0.783  30.182  1.00  0.00    -0.550 OA
ENDBRANCH  17  18
ENDBRANCH  16  17
ENDBRANCH  15  16
ENDBRANCH  14  15
ENDBRANCH  13  14
ENDBRANCH  12  13
ENDBRANCH  11  12
ENDBRANCH   1  11
TORSDOF 15
ENDMDL
MODEL 5
REMARK VINA RESULT:    -4.893     13.876     15.829
REMARK INTER + INTRA:         -11.490
REMARK INTER:                 -10.498
REMARK INTRA:                  -0.992
REMARK UNBOUND:                -2.305
REMARK SMILES O=C([O-])CCCCCCCCCCCCCCC(=O)[O-]
REMARK SMILES IDX 10 1 9 2 8 3 7 4 6 5 5 6 4 7 2 8 1 9 3 10 11 11 12 12 13 13
REMARK SMILES IDX 14 14 15 15 16 16 17 17 18 18 19 19 20 20
REMARK H PARENT
REMARK Flexibility Score: inf
ROOT
ATOM      1  C   UNL     1      11.335   0.727  23.881  1.00  0.00     0.000 C 
ENDROOT
BRANCH   1   2
ATOM      2  C   UNL     1      10.358   0.397  25.016  1.00  0.00     0.000 C 
BRANCH   2   3
ATOM      3  C   UNL     1      11.110  -0.098  26.262  1.00  0.00     0.000 C 
BRANCH   3   4
ATOM      4  C   UNL     1      12.411  -0.839  25.915  1.00  0.00     0.000 C 
BRANCH   4   5
ATOM      5  C   UNL     1      13.427  -0.821  27.067  1.00  0.00     0.000 C 
BRANCH   5   6
ATOM      6  C   UNL     1      14.714  -0.097  26.652  1.00  0.00     0.006 C 
BRANCH   6   7
ATOM      7  C   UNL     1      14.562   1.420  26.795  1.00  0.00     0.053 C 
BRANCH   7   8
ATOM      8  C   UNL     1      14.706   2.088  25.463  1.00  0.00     0.041 C 
ATOM      9  O   UNL     1      15.754   1.927  24.784  1.00  0.00    -0.550 OA
ATOM     10  O   UNL     1      13.705   2.929  24.996  1.00  0.00    -0.550 OA
ENDBRANCH   7   8
ENDBRANCH   6   7
ENDBRANCH   5   6
ENDBRANCH   4   5
ENDBRANCH   3   4
ENDBRANCH   2   3
ENDBRANCH   1   2
BRANCH   1  11
ATOM     11  C   UNL     1      10.597   0.845  22.539  1.00  0.00     0.000 C 
BRANCH  11  12
ATOM     12  C   UNL     1      10.596   2.281  21.988  1.00  0.00     0.000 C 
BRANCH  12  13
ATOM     13  C   UNL     1      10.204   2.341  20.501  1.00  0.00     0.000 C 
BRANCH  13  14
ATOM     14  C   UNL     1       9.795   3.753  20.054  1.00  0.00     0.000 C 
BRANCH  14  15
ATOM     15  C   UNL     1       9.712   4.747  21.222  1.00  0.00     0.000 C 
BRANCH  15  16
ATOM     16  C   UNL     1      10.255   6.124  20.810  1.00  0.00     0.006 C 
BRANCH  16  17
ATOM     17  C   UNL     1      11.552   6.482  21.548  1.00  0.00     0.053 C 
BRANCH  17  18
ATOM     18  C   UNL     1      12.182   7.726  20.999  1.00  0.00     0.041 C 
ATOM     19  O   UNL     1      12.222   8.775  21.694  1.00  0.00    -0.550 OA
ATOM     20  O   UNL     1      12.696   7.734  19.709  1.00  0.00    -0.550 OA
ENDBRANCH  17  18
ENDBRANCH  16  17
ENDBRANCH  15  16
ENDBRANCH  14  15
ENDBRANCH  13  14
ENDBRANCH  12  13
ENDBRANCH  11  12
ENDBRANCH   1  11
TORSDOF 15
ENDMDL
MODEL 6
REMARK VINA RESULT:    -4.890     14.088     16.269
REMARK INTER + INTRA:         -11.482
REMARK INTER:                 -10.779
REMARK INTRA:                  -0.704
REMARK UNBOUND:                -2.305
REMARK SMILES O=C([O-])CCCCCCCCCCCCCCC(=O)[O-]
REMARK SMILES IDX 10 1 9 2 8 3 7 4 6 5 5 6 4 7 2 8 1 9 3 10 11 11 12 12 13 13
REMARK SMILES IDX 14 14 15 15 16 16 17 17 18 18 19 19 20 20
REMARK H PARENT
REMARK Flexibility Score: inf
ROOT
ATOM      1  C   UNL     1      10.584   0.992  22.537  1.00  0.00     0.000 C 
ENDROOT
BRANCH   1   2
ATOM      2  C   UNL     1      11.241   0.838  23.914  1.00  0.00     0.000 C 
BRANCH   2   3
ATOM      3  C   UNL     1      10.205   0.438  24.976  1.00  0.00     0.000 C 
BRANCH   3   4
ATOM      4  C   UNL     1      10.850  -0.032  26.289  1.00  0.00     0.000 C 
BRANCH   4   5
ATOM      5  C   UNL     1      12.208  -0.716  26.070  1.00  0.00     0.000 C 
BRANCH   5   6
ATOM      6  C   UNL     1      13.294  -0.073  26.942  1.00  0.00     0.006 C 
BRANCH   6   7
ATOM      7  C   UNL     1      14.692  -0.392  26.403  1.00  0.00     0.053 C 
BRANCH   7   8
ATOM      8  C   UNL     1      15.142  -1.737  26.880  1.00  0.00     0.041 C 
ATOM      9  O   UNL     1      15.797  -2.493  26.116  1.00  0.00    -0.550 OA
ATOM     10  O   UNL     1      14.793  -2.176  28.150  1.00  0.00    -0.550 OA
ENDBRANCH   7   8
ENDBRANCH   6   7
ENDBRANCH   5   6
ENDBRANCH   4   5
ENDBRANCH   3   4
ENDBRANCH   2   3
ENDBRANCH   1   2
BRANCH   1  11
ATOM     11  C   UNL     1      10.754   2.423  22.004  1.00  0.00     0.000 C 
BRANCH  11  12
ATOM     12  C   UNL     1      10.186   2.597  20.585  1.00  0.00     0.000 C 
BRANCH  12  13
ATOM     13  C   UNL     1       9.468   3.946  20.401  1.00  0.00     0.000 C 
BRANCH  13  14
ATOM     14  C   UNL     1      10.201   5.105  21.093  1.00  0.00     0.000 C 
BRANCH  14  15
ATOM     15  C   UNL     1       9.464   6.446  20.953  1.00  0.00     0.000 C 
BRANCH  15  16
ATOM     16  C   UNL     1      10.346   7.609  21.431  1.00  0.00     0.006 C 
BRANCH  16  17
ATOM     17  C   UNL     1      11.842   7.283  21.334  1.00  0.00     0.053 C 
BRANCH  17  18
ATOM     18  C   UNL     1      12.680   8.522  21.254  1.00  0.00     0.041 C 
ATOM     19  O   UNL     1      12.436   9.501  22.008  1.00  0.00    -0.550 OA
ATOM     20  O   UNL     1      13.710   8.607  20.326  1.00  0.00    -0.550 OA
ENDBRANCH  17  18
ENDBRANCH  16  17
ENDBRANCH  15  16
ENDBRANCH  14  15
ENDBRANCH  13  14
ENDBRANCH  12  13
ENDBRANCH  11  12
ENDBRANCH   1  11
TORSDOF 15
ENDMDL
MODEL 7
REMARK VINA RESULT:    -4.848     15.687     17.366
REMARK INTER + INTRA:         -11.405
REMARK INTER:                 -10.210
REMARK INTRA:                  -1.194
REMARK UNBOUND:                -2.305
REMARK SMILES O=C([O-])CCCCCCCCCCCCCCC(=O)[O-]
REMARK SMILES IDX 10 1 9 2 8 3 7 4 6 5 5 6 4 7 2 8 1 9 3 10 11 11 12 12 13 13
REMARK SMILES IDX 14 14 15 15 16 16 17 17 18 18 19 19 20 20
REMARK H PARENT
REMARK Flexibility Score: inf
ROOT
ATOM      1  C   UNL     1      10.261   2.102  20.695  1.00  0.00     0.000 C 
ENDROOT
BRANCH   1   2
ATOM      2  C   UNL     1      10.634   2.203  22.179  1.00  0.00     0.000 C 
BRANCH   2   3
ATOM      3  C   UNL     1      10.751   0.809  22.813  1.00  0.00     0.000 C 
BRANCH   3   4
ATOM      4  C   UNL     1      11.549   0.818  24.126  1.00  0.00     0.000 C 
BRANCH   4   5
ATOM      5  C   UNL     1      10.717   0.347  25.328  1.00  0.00     0.000 C 
BRANCH   5   6
ATOM      6  C   UNL     1      11.608   0.114  26.555  1.00  0.00     0.006 C 
BRANCH   6   7
ATOM      7  C   UNL     1      13.044   0.575  26.288  1.00  0.00     0.053 C 
BRANCH   7   8
ATOM      8  C   UNL     1      13.935   0.201  27.430  1.00  0.00     0.041 C 
ATOM      9  O   UNL     1      14.287  -0.997  27.594  1.00  0.00    -0.550 OA
ATOM     10  O   UNL     1      14.335   1.167  28.344  1.00  0.00    -0.550 OA
ENDBRANCH   7   8
ENDBRANCH   6   7
ENDBRANCH   5   6
ENDBRANCH   4   5
ENDBRANCH   3   4
ENDBRANCH   2   3
ENDBRANCH   1   2
BRANCH   1  11
ATOM     11  C   UNL     1      10.120   3.497  20.067  1.00  0.00     0.000 C 
BRANCH  11  12
ATOM     12  C   UNL     1       9.702   4.566  21.091  1.00  0.00     0.000 C 
BRANCH  12  13
ATOM     13  C   UNL     1       8.605   5.500  20.550  1.00  0.00     0.000 C 
BRANCH  13  14
ATOM     14  C   UNL     1       8.016   5.011  19.218  1.00  0.00     0.000 C 
BRANCH  14  15
ATOM     15  C   UNL     1       8.142   6.049  18.093  1.00  0.00     0.000 C 
BRANCH  15  16
ATOM     16  C   UNL     1       9.421   5.819  17.274  1.00  0.00     0.006 C 
BRANCH  16  17
ATOM     17  C   UNL     1      10.436   6.957  17.449  1.00  0.00     0.053 C 
BRANCH  17  18
ATOM     18  C   UNL     1      11.513   6.599  18.426  1.00  0.00     0.041 C 
ATOM     19  O   UNL     1      11.594   7.202  19.529  1.00  0.00    -0.550 OA
ATOM     20  O   UNL     1      12.446   5.621  18.107  1.00  0.00    -0.550 OA
ENDBRANCH  17  18
ENDBRANCH  16  17
ENDBRANCH  15  16
ENDBRANCH  14  15
ENDBRANCH  13  14
ENDBRANCH  12  13
ENDBRANCH  11  12
ENDBRANCH   1  11
TORSDOF 15
ENDMDL
MODEL 8
REMARK VINA RESULT:    -4.836     14.421     16.520
REMARK INTER + INTRA:         -11.382
REMARK INTER:                 -10.477
REMARK INTRA:                  -0.905
REMARK UNBOUND:                -2.305
REMARK SMILES O=C([O-])CCCCCCCCCCCCCCC(=O)[O-]
REMARK SMILES IDX 10 1 9 2 8 3 7 4 6 5 5 6 4 7 2 8 1 9 3 10 11 11 12 12 13 13
REMARK SMILES IDX 14 14 15 15 16 16 17 17 18 18 19 19 20 20
REMARK H PARENT
REMARK Flexibility Score: inf
ROOT
ATOM      1  C   UNL     1      10.685   2.101  22.353  1.00  0.00     0.000 C 
ENDROOT
BRANCH   1   2
ATOM      2  C   UNL     1      10.928   0.717  22.968  1.00  0.00     0.000 C 
BRANCH   2   3
ATOM      3  C   UNL     1      11.629   0.836  24.330  1.00  0.00     0.000 C 
BRANCH   3   4
ATOM      4  C   UNL     1      10.738   0.381  25.497  1.00  0.00     0.000 C 
BRANCH   4   5
ATOM      5  C   UNL     1      11.518  -0.391  26.572  1.00  0.00     0.000 C 
BRANCH   5   6
ATOM      6  C   UNL     1      12.824  -0.959  26.000  1.00  0.00     0.006 C 
BRANCH   6   7
ATOM      7  C   UNL     1      13.982  -0.773  26.984  1.00  0.00     0.053 C 
BRANCH   7   8
ATOM      8  C   UNL     1      14.208   0.681  27.256  1.00  0.00     0.041 C 
ATOM      9  O   UNL     1      14.072   1.136  28.422  1.00  0.00    -0.550 OA
ATOM     10  O   UNL     1      14.519   1.543  26.212  1.00  0.00    -0.550 OA
ENDBRANCH   7   8
ENDBRANCH   6   7
ENDBRANCH   5   6
ENDBRANCH   4   5
ENDBRANCH   3   4
ENDBRANCH   2   3
ENDBRANCH   1   2
BRANCH   1  11
ATOM     11  C   UNL     1      10.276   1.981  20.877  1.00  0.00     0.000 C 
BRANCH  11  12
ATOM     12  C   UNL     1       9.951   3.344  20.241  1.00  0.00     0.000 C 
BRANCH  12  13
ATOM     13  C   UNL     1      10.324   3.402  18.750  1.00  0.00     0.000 C 
BRANCH  13  14
ATOM     14  C   UNL     1      11.293   4.549  18.427  1.00  0.00     0.000 C 
BRANCH  14  15
ATOM     15  C   UNL     1      11.937   5.157  19.682  1.00  0.00     0.000 C 
BRANCH  15  16
ATOM     16  C   UNL     1      11.771   6.684  19.700  1.00  0.00     0.006 C 
BRANCH  16  17
ATOM     17  C   UNL     1      11.851   7.261  21.119  1.00  0.00     0.053 C 
BRANCH  17  18
ATOM     18  C   UNL     1      12.962   8.256  21.256  1.00  0.00     0.041 C 
ATOM     19  O   UNL     1      13.248   8.736  22.385  1.00  0.00    -0.550 OA
ATOM     20  O   UNL     1      13.662   8.677  20.132  1.00  0.00    -0.550 OA
ENDBRANCH  17  18
ENDBRANCH  16  17
ENDBRANCH  15  16
ENDBRANCH  14  15
ENDBRANCH  13  14
ENDBRANCH  12  13
ENDBRANCH  11  12
ENDBRANCH   1  11
TORSDOF 15
ENDMDL
MODEL 9
REMARK VINA RESULT:    -4.836     14.599     16.137
REMARK INTER + INTRA:         -11.381
REMARK INTER:                 -10.399
REMARK INTRA:                  -0.982
REMARK UNBOUND:                -2.305
REMARK SMILES O=C([O-])CCCCCCCCCCCCCCC(=O)[O-]
REMARK SMILES IDX 10 1 9 2 8 3 7 4 6 5 5 6 4 7 2 8 1 9 3 10 11 11 12 12 13 13
REMARK SMILES IDX 14 14 15 15 16 16 17 17 18 18 19 19 20 20
REMARK H PARENT
REMARK Flexibility Score: inf
ROOT
ATOM      1  C   UNL     1      10.671   2.270  22.158  1.00  0.00     0.000 C 
ENDROOT
BRANCH   1   2
ATOM      2  C   UNL     1      10.258   2.232  20.681  1.00  0.00     0.000 C 
BRANCH   2   3
ATOM      3  C   UNL     1      10.279   3.641  20.068  1.00  0.00     0.000 C 
BRANCH   3   4
ATOM      4  C   UNL     1      10.973   3.682  18.698  1.00  0.00     0.000 C 
BRANCH   4   5
ATOM      5  C   UNL     1      12.188   4.620  18.677  1.00  0.00     0.000 C 
BRANCH   5   6
ATOM      6  C   UNL     1      11.792   6.021  18.192  1.00  0.00     0.006 C 
BRANCH   6   7
ATOM      7  C   UNL     1      12.041   7.071  19.279  1.00  0.00     0.053 C 
BRANCH   7   8
ATOM      8  C   UNL     1      10.766   7.399  19.990  1.00  0.00     0.041 C 
ATOM      9  O   UNL     1      10.796   7.891  21.149  1.00  0.00    -0.550 OA
ATOM     10  O   UNL     1       9.545   7.114  19.394  1.00  0.00    -0.550 OA
ENDBRANCH   7   8
ENDBRANCH   6   7
ENDBRANCH   5   6
ENDBRANCH   4   5
ENDBRANCH   3   4
ENDBRANCH   2   3
ENDBRANCH   1   2
BRANCH   1  11
ATOM     11  C   UNL     1      10.636   0.863  22.774  1.00  0.00     0.000 C 
BRANCH  11  12
ATOM     12  C   UNL     1      11.522   0.744  24.026  1.00  0.00     0.000 C 
BRANCH  12  13
ATOM     13  C   UNL     1      10.719   0.359  25.281  1.00  0.00     0.000 C 
BRANCH  13  14
ATOM     14  C   UNL     1      11.619   0.051  26.487  1.00  0.00     0.000 C 
BRANCH  14  15
ATOM     15  C   UNL     1      12.788  -0.882  26.137  1.00  0.00     0.000 C 
BRANCH  15  16
ATOM     16  C   UNL     1      14.095  -0.388  26.776  1.00  0.00     0.006 C 
BRANCH  16  17
ATOM     17  C   UNL     1      14.102   1.132  26.985  1.00  0.00     0.053 C 
BRANCH  17  18
ATOM     18  C   UNL     1      14.683   1.855  25.809  1.00  0.00     0.041 C 
ATOM     19  O   UNL     1      15.847   1.584  25.412  1.00  0.00    -0.550 OA
ATOM     20  O   UNL     1      13.952   2.849  25.172  1.00  0.00    -0.550 OA
ENDBRANCH  17  18
ENDBRANCH  16  17
ENDBRANCH  15  16
ENDBRANCH  14  15
ENDBRANCH  13  14
ENDBRANCH  12  13
ENDBRANCH  11  12
ENDBRANCH   1  11
TORSDOF 15
ENDMDL
