MODEL 1
REMARK VINA RESULT:    -3.924      0.000      0.000
REMARK INTER + INTRA:          -4.283
REMARK INTER:                  -4.268
REMARK INTRA:                  -0.015
REMARK UNBOUND:                -0.015
REMARK SMILES OCc1ccco1
REMARK SMILES IDX 2 1 3 2 5 3 6 4 4 5 7 6 1 7
REMARK H PARENT 1 8
REMARK Flexibility Score: inf
ROOT
ATOM      1  C   UNL     1      13.726  33.296  85.882  1.00  0.00     0.231 C 
ENDROOT
BRANCH   1   2
ATOM      2  C   UNL     1      13.137  34.311  84.955  1.00  0.00     0.129 A 
ATOM      3  C   UNL     1      12.902  35.916  83.475  1.00  0.00     0.042 A 
ATOM      4  C   UNL     1      11.677  35.405  83.852  1.00  0.00     0.195 A 
ATOM      5  C   UNL     1      13.848  35.209  84.184  1.00  0.00     0.048 A 
ATOM      6  O   UNL     1      11.850  34.446  84.733  1.00  0.00    -0.467 OA
ENDBRANCH   1   2
BRANCH   1   7
ATOM      7  O   UNL     1      13.371  33.592  87.205  1.00  0.00    -0.388 OA
ATOM      8  H   UNL     1      12.695  34.318  87.162  1.00  0.00     0.211 HD
ENDBRANCH   1   7
TORSDOF 2
ENDMDL
MODEL 2
REMARK VINA RESULT:    -3.840      1.905      2.983
REMARK INTER + INTRA:          -4.191
REMARK INTER:                  -4.175
REMARK INTRA:                  -0.016
REMARK UNBOUND:                -0.015
REMARK SMILES OCc1ccco1
REMARK SMILES IDX 2 1 3 2 5 3 6 4 4 5 7 6 1 7
REMARK H PARENT 1 8
REMARK Flexibility Score: inf
ROOT
ATOM      1  C   UNL     1      11.305  34.594  84.915  1.00  0.00     0.231 C 
ENDROOT
BRANCH   1   2
ATOM      2  C   UNL     1      12.658  33.973  85.068  1.00  0.00     0.129 A 
ATOM      3  C   UNL     1      14.323  32.705  85.733  1.00  0.00     0.042 A 
ATOM      4  C   UNL     1      14.711  33.536  84.701  1.00  0.00     0.195 A 
ATOM      5  C   UNL     1      12.994  32.983  85.970  1.00  0.00     0.048 A 
ATOM      6  O   UNL     1      13.696  34.278  84.324  1.00  0.00    -0.467 OA
ENDBRANCH   1   2
BRANCH   1   7
ATOM      7  O   UNL     1      10.494  34.249  86.005  1.00  0.00    -0.388 OA
ATOM      8  H   UNL     1      10.784  34.817  86.766  1.00  0.00     0.211 HD
ENDBRANCH   1   7
TORSDOF 2
ENDMDL
MODEL 3
REMARK VINA RESULT:    -3.744      1.706      1.752
REMARK INTER + INTRA:          -4.087
REMARK INTER:                  -4.072
REMARK INTRA:                  -0.015
REMARK UNBOUND:                -0.015
REMARK SMILES OCc1ccco1
REMARK SMILES IDX 2 1 3 2 5 3 6 4 4 5 7 6 1 7
REMARK H PARENT 1 8
REMARK Flexibility Score: inf
ROOT
ATOM      1  C   UNL     1      14.709  33.462  84.796  1.00  0.00     0.231 C 
ENDROOT
BRANCH   1   2
ATOM      2  C   UNL     1      13.520  34.336  84.551  1.00  0.00     0.129 A 
ATOM      3  C   UNL     1      12.235  36.013  83.951  1.00  0.00     0.042 A 
ATOM      4  C   UNL     1      11.485  34.958  84.431  1.00  0.00     0.195 A 
ATOM      5  C   UNL     1      13.551  35.612  84.025  1.00  0.00     0.048 A 
ATOM      6  O   UNL     1      12.279  33.971  84.777  1.00  0.00    -0.467 OA
ENDBRANCH   1   2
BRANCH   1   7
ATOM      7  O   UNL     1      15.620  33.584  83.739  1.00  0.00    -0.388 OA
ATOM      8  H   UNL     1      15.318  32.958  83.030  1.00  0.00     0.211 HD
ENDBRANCH   1   7
TORSDOF 2
ENDMDL
MODEL 4
REMARK VINA RESULT:    -3.677      1.998      3.160
REMARK INTER + INTRA:          -4.014
REMARK INTER:                  -4.000
REMARK INTRA:                  -0.014
REMARK UNBOUND:                -0.015
REMARK SMILES OCc1ccco1
REMARK SMILES IDX 2 1 3 2 5 3 6 4 4 5 7 6 1 7
REMARK H PARENT 1 8
REMARK Flexibility Score: inf
ROOT
ATOM      1  C   UNL     1      15.042  34.311  84.031  1.00  0.00     0.231 C 
ENDROOT
BRANCH   1   2
ATOM      2  C   UNL     1      14.078  33.683  84.987  1.00  0.00     0.129 A 
ATOM      3  C   UNL     1      13.199  32.438  86.567  1.00  0.00     0.042 A 
ATOM      4  C   UNL     1      12.269  33.319  86.052  1.00  0.00     0.195 A 
ATOM      5  C   UNL     1      14.371  32.675  85.882  1.00  0.00     0.048 A 
ATOM      6  O   UNL     1      12.823  34.050  85.114  1.00  0.00    -0.467 OA
ENDBRANCH   1   2
BRANCH   1   7
ATOM      7  O   UNL     1      15.854  33.326  83.453  1.00  0.00    -0.388 OA
ATOM      8  H   UNL     1      16.793  33.575  83.659  1.00  0.00     0.211 HD
ENDBRANCH   1   7
TORSDOF 2
ENDMDL
MODEL 5
REMARK VINA RESULT:    -3.568      1.899      3.478
REMARK INTER + INTRA:          -3.895
REMARK INTER:                  -3.878
REMARK INTRA:                  -0.017
REMARK UNBOUND:                -0.015
REMARK SMILES OCc1ccco1
REMARK SMILES IDX 2 1 3 2 5 3 6 4 4 5 7 6 1 7
REMARK H PARENT 1 8
REMARK Flexibility Score: inf
ROOT
ATOM      1  C   UNL     1      13.138  36.093  83.977  1.00  0.00     0.231 C 
ENDROOT
BRANCH   1   2
ATOM      2  C   UNL     1      13.669  34.777  84.452  1.00  0.00     0.129 A 
ATOM      3  C   UNL     1      13.849  32.804  85.400  1.00  0.00     0.042 A 
ATOM      4  C   UNL     1      14.991  33.123  84.693  1.00  0.00     0.195 A 
ATOM      5  C   UNL     1      12.991  33.871  85.242  1.00  0.00     0.048 A 
ATOM      6  O   UNL     1      14.853  34.304  84.136  1.00  0.00    -0.467 OA
ENDBRANCH   1   2
BRANCH   1   7
ATOM      7  O   UNL     1      13.120  36.125  82.577  1.00  0.00    -0.388 OA
ATOM      8  H   UNL     1      12.360  35.554  82.290  1.00  0.00     0.211 HD
ENDBRANCH   1   7
TORSDOF 2
ENDMDL
MODEL 6
REMARK VINA RESULT:    -3.319      1.818      2.338
REMARK INTER + INTRA:          -3.625
REMARK INTER:                  -3.604
REMARK INTRA:                  -0.021
REMARK UNBOUND:                -0.015
REMARK SMILES OCc1ccco1
REMARK SMILES IDX 2 1 3 2 5 3 6 4 4 5 7 6 1 7
REMARK H PARENT 1 8
REMARK Flexibility Score: inf
ROOT
ATOM      1  C   UNL     1      12.573  33.206  86.445  1.00  0.00     0.231 C 
ENDROOT
BRANCH   1   2
ATOM      2  C   UNL     1      13.577  33.613  85.413  1.00  0.00     0.129 A 
ATOM      3  C   UNL     1      14.697  34.757  83.910  1.00  0.00     0.042 A 
ATOM      4  C   UNL     1      15.299  33.539  84.159  1.00  0.00     0.195 A 
ATOM      5  C   UNL     1      13.586  34.808  84.723  1.00  0.00     0.048 A 
ATOM      6  O   UNL     1      14.609  32.881  85.062  1.00  0.00    -0.467 OA
ENDBRANCH   1   2
BRANCH   1   7
ATOM      7  O   UNL     1      12.746  31.856  86.776  1.00  0.00    -0.388 OA
ATOM      8  H   UNL     1      13.496  31.816  87.425  1.00  0.00     0.211 HD
ENDBRANCH   1   7
TORSDOF 2
ENDMDL
MODEL 7
REMARK VINA RESULT:    -3.291      1.153      2.788
REMARK INTER + INTRA:          -3.594
REMARK INTER:                  -3.574
REMARK INTRA:                  -0.020
REMARK UNBOUND:                -0.015
REMARK SMILES OCc1ccco1
REMARK SMILES IDX 2 1 3 2 5 3 6 4 4 5 7 6 1 7
REMARK H PARENT 1 8
REMARK Flexibility Score: inf
ROOT
ATOM      1  C   UNL     1      12.059  35.935  84.026  1.00  0.00     0.231 C 
ENDROOT
BRANCH   1   2
ATOM      2  C   UNL     1      12.922  34.783  84.432  1.00  0.00     0.129 A 
ATOM      3  C   UNL     1      14.652  33.474  84.775  1.00  0.00     0.042 A 
ATOM      4  C   UNL     1      13.502  32.930  85.310  1.00  0.00     0.195 A 
ATOM      5  C   UNL     1      14.280  34.674  84.209  1.00  0.00     0.048 A 
ATOM      6  O   UNL     1      12.488  33.735  85.093  1.00  0.00    -0.467 OA
ENDBRANCH   1   2
BRANCH   1   7
ATOM      7  O   UNL     1      11.039  36.125  84.967  1.00  0.00    -0.388 OA
ATOM      8  H   UNL     1      11.430  35.919  85.856  1.00  0.00     0.211 HD
ENDBRANCH   1   7
TORSDOF 2
ENDMDL
MODEL 8
REMARK VINA RESULT:    -2.979     11.161     11.718
REMARK INTER + INTRA:          -3.255
REMARK INTER:                  -3.240
REMARK INTRA:                  -0.015
REMARK UNBOUND:                -0.015
REMARK SMILES OCc1ccco1
REMARK SMILES IDX 2 1 3 2 5 3 6 4 4 5 7 6 1 7
REMARK H PARENT 1 8
REMARK Flexibility Score: inf
ROOT
ATOM      1  C   UNL     1      22.043  33.371  79.339  1.00  0.00     0.231 C 
ENDROOT
BRANCH   1   2
ATOM      2  C   UNL     1      21.875  32.794  77.969  1.00  0.00     0.129 A 
ATOM      3  C   UNL     1      21.000  32.021  76.110  1.00  0.00     0.042 A 
ATOM      4  C   UNL     1      22.378  32.061  76.033  1.00  0.00     0.195 A 
ATOM      5  C   UNL     1      20.673  32.498  77.360  1.00  0.00     0.048 A 
ATOM      6  O   UNL     1      22.871  32.529  77.155  1.00  0.00    -0.467 OA
ENDBRANCH   1   2
BRANCH   1   7
ATOM      7  O   UNL     1      21.020  34.291  79.601  1.00  0.00    -0.388 OA
ATOM      8  H   UNL     1      20.190  33.763  79.736  1.00  0.00     0.211 HD
ENDBRANCH   1   7
TORSDOF 2
ENDMDL
