MODEL 1
REMARK VINA RESULT:    -6.947      0.000      0.000
REMARK INTER + INTRA:         -11.495
REMARK INTER:                  -9.994
REMARK INTRA:                  -1.501
REMARK UNBOUND:                -1.501
REMARK SMILES O=c1c(O[C@H]2O[C@@H](CO)[C@H](O)[C@H](O)[C@@H]2O)c(-c2ccc(O)cc2)oc2cc(O)cc(O)c12
REMARK SMILES IDX 4 1 3 2 16 3 24 4 2 5 25 6 1 7 32 8 26 9 30 10 27 11 29 12
REMARK SMILES IDX 17 13 18 14 19 15 20 16 23 17 22 18 21 19 31 21 28 23 5 25
REMARK SMILES IDX 14 26 6 27 12 28 7 29 10 30 15 31 13 33 8 35 9 36 11 38
REMARK H PARENT 21 20 31 22 28 24 15 32 13 34 9 37 11 39
REMARK Flexibility Score: inf
ROOT
ATOM      1  O   UNL     1     -37.694   5.436  81.718  1.00  0.00    -0.454 OA
ENDROOT
BRANCH   1   2
ATOM      2  C   UNL     1     -38.459   4.858  80.687  1.00  0.00     0.214 A 
ATOM      3  C   UNL     1     -37.893   4.764  79.399  1.00  0.00     0.180 A 
ATOM      4  O   UNL     1     -38.600   4.263  78.393  1.00  0.00    -0.452 OA
ATOM      5  C   UNL     1     -39.774   4.381  80.875  1.00  0.00     0.239 A 
ATOM      6  C   UNL     1     -39.840   3.811  78.525  1.00  0.00     0.146 A 
ATOM      7  O   UNL     1     -40.305   4.421  82.017  1.00  0.00    -0.285 OA
ATOM      8  C   UNL     1     -40.488   3.847  79.781  1.00  0.00     0.111 A 
ATOM      9  C   UNL     1     -40.499   3.298  77.405  1.00  0.00     0.094 A 
ATOM     10  C   UNL     1     -41.812   3.353  79.886  1.00  0.00     0.134 A 
ATOM     11  C   UNL     1     -41.803   2.812  77.513  1.00  0.00     0.123 A 
ATOM     12  C   UNL     1     -42.455   2.840  78.750  1.00  0.00     0.093 A 
BRANCH   3  13
ATOM     13  C   UNL     1     -36.528   5.257  79.107  1.00  0.00     0.021 A 
ATOM     14  C   UNL     1     -35.387   4.568  79.552  1.00  0.00     0.016 A 
ATOM     15  C   UNL     1     -34.108   5.053  79.261  1.00  0.00     0.047 A 
ATOM     16  C   UNL     1     -33.954   6.222  78.506  1.00  0.00     0.115 A 
ATOM     17  C   UNL     1     -36.365   6.417  78.331  1.00  0.00     0.016 A 
ATOM     18  C   UNL     1     -35.086   6.900  78.040  1.00  0.00     0.047 A 
BRANCH  16  19
ATOM     19  O   UNL     1     -32.686   6.716  78.210  1.00  0.00    -0.508 OA
ATOM     20  H   UNL     1     -32.510   7.250  77.367  1.00  0.00     0.293 HD
ENDBRANCH  16  19
ENDBRANCH   3  13
BRANCH  10  21
ATOM     21  O   UNL     1     -42.491   3.368  81.105  1.00  0.00    -0.507 OA
ATOM     22  H   UNL     1     -42.047   3.071  81.966  1.00  0.00     0.293 HD
ENDBRANCH  10  21
BRANCH  11  23
ATOM     23  O   UNL     1     -42.442   2.303  76.384  1.00  0.00    -0.508 OA
ATOM     24  H   UNL     1     -42.959   1.432  76.416  1.00  0.00     0.293 HD
ENDBRANCH  11  23
ENDBRANCH   1   2
BRANCH   1  25
ATOM     25  C   UNL     1     -37.921   6.707  82.333  1.00  0.00     0.339 C 
ATOM     26  C   UNL     1     -37.126   7.795  81.592  1.00  0.00     0.214 C 
ATOM     27  O   UNL     1     -37.640   6.685  83.728  1.00  0.00    -0.332 OA
ATOM     28  C   UNL     1     -35.623   7.616  81.849  1.00  0.00     0.180 C 
ATOM     29  C   UNL     1     -36.265   6.522  84.055  1.00  0.00     0.179 C 
ATOM     30  C   UNL     1     -35.342   7.552  83.359  1.00  0.00     0.177 C 
BRANCH  26  31
ATOM     31  O   UNL     1     -37.539   9.070  82.016  1.00  0.00    -0.384 OA
ATOM     32  H   UNL     1     -38.530   9.052  82.058  1.00  0.00     0.211 HD
ENDBRANCH  26  31
BRANCH  28  33
ATOM     33  O   UNL     1     -34.897   8.671  81.271  1.00  0.00    -0.387 OA
ATOM     34  H   UNL     1     -33.948   8.379  81.234  1.00  0.00     0.211 HD
ENDBRANCH  28  33
BRANCH  29  35
ATOM     35  C   UNL     1     -35.792   5.064  83.897  1.00  0.00     0.191 C 
BRANCH  35  36
ATOM     36  O   UNL     1     -36.862   4.188  84.125  1.00  0.00    -0.394 OA
ATOM     37  H   UNL     1     -37.018   3.713  83.267  1.00  0.00     0.210 HD
ENDBRANCH  35  36
ENDBRANCH  29  35
BRANCH  30  38
ATOM     38  O   UNL     1     -35.546   8.812  83.949  1.00  0.00    -0.387 OA
ATOM     39  H   UNL     1     -35.766   8.657  84.904  1.00  0.00     0.211 HD
ENDBRANCH  30  38
ENDBRANCH   1  25
TORSDOF 11
ENDMDL
MODEL 2
REMARK VINA RESULT:    -6.472      2.626      4.563
REMARK INTER + INTRA:         -10.811
REMARK INTER:                  -9.164
REMARK INTRA:                  -1.647
REMARK UNBOUND:                -1.501
REMARK SMILES O=c1c(O[C@H]2O[C@@H](CO)[C@H](O)[C@H](O)[C@@H]2O)c(-c2ccc(O)cc2)oc2cc(O)cc(O)c12
REMARK SMILES IDX 4 1 3 2 16 3 24 4 2 5 25 6 1 7 32 8 26 9 30 10 27 11 29 12
REMARK SMILES IDX 17 13 18 14 19 15 20 16 23 17 22 18 21 19 31 21 28 23 5 25
REMARK SMILES IDX 14 26 6 27 12 28 7 29 10 30 15 31 13 33 8 35 9 36 11 38
REMARK H PARENT 21 20 31 22 28 24 15 32 13 34 9 37 11 39
REMARK Flexibility Score: inf
ROOT
ATOM      1  O   UNL     1     -36.347   6.178  79.484  1.00  0.00    -0.454 OA
ENDROOT
BRANCH   1   2
ATOM      2  C   UNL     1     -37.429   5.470  80.042  1.00  0.00     0.214 A 
ATOM      3  C   UNL     1     -38.725   5.719  79.546  1.00  0.00     0.180 A 
ATOM      4  O   UNL     1     -39.775   5.101  80.077  1.00  0.00    -0.452 OA
ATOM      5  C   UNL     1     -37.283   4.533  81.088  1.00  0.00     0.239 A 
ATOM      6  C   UNL     1     -39.681   4.221  81.064  1.00  0.00     0.146 A 
ATOM      7  O   UNL     1     -36.138   4.262  81.539  1.00  0.00    -0.285 OA
ATOM      8  C   UNL     1     -38.423   3.892  81.617  1.00  0.00     0.111 A 
ATOM      9  C   UNL     1     -40.846   3.621  81.551  1.00  0.00     0.094 A 
ATOM     10  C   UNL     1     -38.361   2.944  82.669  1.00  0.00     0.134 A 
ATOM     11  C   UNL     1     -40.779   2.687  82.587  1.00  0.00     0.123 A 
ATOM     12  C   UNL     1     -39.541   2.351  83.143  1.00  0.00     0.093 A 
BRANCH   3  13
ATOM     13  C   UNL     1     -38.974   6.700  78.465  1.00  0.00     0.021 A 
ATOM     14  C   UNL     1     -38.497   6.491  77.160  1.00  0.00     0.016 A 
ATOM     15  C   UNL     1     -38.747   7.432  76.156  1.00  0.00     0.047 A 
ATOM     16  C   UNL     1     -39.493   8.582  76.440  1.00  0.00     0.115 A 
ATOM     17  C   UNL     1     -39.741   7.846  78.737  1.00  0.00     0.016 A 
ATOM     18  C   UNL     1     -39.991   8.784  77.731  1.00  0.00     0.047 A 
BRANCH  16  19
ATOM     19  O   UNL     1     -39.748   9.527  75.449  1.00  0.00    -0.508 OA
ATOM     20  H   UNL     1     -39.209   9.553  74.591  1.00  0.00     0.293 HD
ENDBRANCH  16  19
ENDBRANCH   3  13
BRANCH  10  21
ATOM     21  O   UNL     1     -37.140   2.588  83.245  1.00  0.00    -0.507 OA
ATOM     22  H   UNL     1     -36.424   2.101  82.719  1.00  0.00     0.293 HD
ENDBRANCH  10  21
BRANCH  11  23
ATOM     23  O   UNL     1     -41.951   2.100  83.058  1.00  0.00    -0.508 OA
ATOM     24  H   UNL     1     -41.952   1.496  83.872  1.00  0.00     0.293 HD
ENDBRANCH  11  23
ENDBRANCH   1   2
BRANCH   1  25
ATOM     25  C   UNL     1     -35.767   7.382  79.994  1.00  0.00     0.339 C 
ATOM     26  C   UNL     1     -35.756   8.460  78.897  1.00  0.00     0.214 C 
ATOM     27  O   UNL     1     -34.476   7.160  80.550  1.00  0.00    -0.332 OA
ATOM     28  C   UNL     1     -34.742   8.092  77.806  1.00  0.00     0.180 C 
ATOM     29  C   UNL     1     -33.473   6.812  79.602  1.00  0.00     0.179 C 
ATOM     30  C   UNL     1     -33.364   7.815  78.427  1.00  0.00     0.177 C 
BRANCH  26  31
ATOM     31  O   UNL     1     -35.435   9.711  79.452  1.00  0.00    -0.384 OA
ATOM     32  H   UNL     1     -34.923  10.209  78.763  1.00  0.00     0.211 HD
ENDBRANCH  26  31
BRANCH  28  33
ATOM     33  O   UNL     1     -34.642   9.126  76.859  1.00  0.00    -0.387 OA
ATOM     34  H   UNL     1     -35.538   9.221  76.443  1.00  0.00     0.211 HD
ENDBRANCH  28  33
BRANCH  29  35
ATOM     35  C   UNL     1     -33.574   5.342  79.151  1.00  0.00     0.191 C 
BRANCH  35  36
ATOM     36  O   UNL     1     -33.778   4.515  80.264  1.00  0.00    -0.394 OA
ATOM     37  H   UNL     1     -32.877   4.332  80.641  1.00  0.00     0.210 HD
ENDBRANCH  35  36
ENDBRANCH  29  35
BRANCH  30  38
ATOM     38  O   UNL     1     -32.792   9.009  78.903  1.00  0.00    -0.387 OA
ATOM     39  H   UNL     1     -31.834   8.997  78.646  1.00  0.00     0.211 HD
ENDBRANCH  30  38
ENDBRANCH   1  25
TORSDOF 11
ENDMDL
MODEL 3
REMARK VINA RESULT:    -6.325      1.443      2.416
REMARK INTER + INTRA:         -10.599
REMARK INTER:                  -9.718
REMARK INTRA:                  -0.882
REMARK UNBOUND:                -1.501
REMARK SMILES O=c1c(O[C@H]2O[C@@H](CO)[C@H](O)[C@H](O)[C@@H]2O)c(-c2ccc(O)cc2)oc2cc(O)cc(O)c12
REMARK SMILES IDX 4 1 3 2 16 3 24 4 2 5 25 6 1 7 32 8 26 9 30 10 27 11 29 12
REMARK SMILES IDX 17 13 18 14 19 15 20 16 23 17 22 18 21 19 31 21 28 23 5 25
REMARK SMILES IDX 14 26 6 27 12 28 7 29 10 30 15 31 13 33 8 35 9 36 11 38
REMARK H PARENT 21 20 31 22 28 24 15 32 13 34 9 37 11 39
REMARK Flexibility Score: inf
ROOT
ATOM      1  O   UNL     1     -37.405   5.966  81.185  1.00  0.00    -0.454 OA
ENDROOT
BRANCH   1   2
ATOM      2  C   UNL     1     -38.278   5.308  80.297  1.00  0.00     0.214 A 
ATOM      3  C   UNL     1     -38.048   5.430  78.912  1.00  0.00     0.180 A 
ATOM      4  O   UNL     1     -38.875   4.859  78.044  1.00  0.00    -0.452 OA
ATOM      5  C   UNL     1     -39.385   4.544  80.726  1.00  0.00     0.239 A 
ATOM      6  C   UNL     1     -39.930   4.140  78.404  1.00  0.00     0.146 A 
ATOM      7  O   UNL     1     -39.608   4.388  81.956  1.00  0.00    -0.285 OA
ATOM      8  C   UNL     1     -40.234   3.946  79.771  1.00  0.00     0.111 A 
ATOM      9  C   UNL     1     -40.738   3.575  77.414  1.00  0.00     0.094 A 
ATOM     10  C   UNL     1     -41.367   3.169  80.120  1.00  0.00     0.134 A 
ATOM     11  C   UNL     1     -41.853   2.810  77.762  1.00  0.00     0.123 A 
ATOM     12  C   UNL     1     -42.164   2.609  79.111  1.00  0.00     0.093 A 
BRANCH   3  13
ATOM     13  C   UNL     1     -36.924   6.228  78.373  1.00  0.00     0.021 A 
ATOM     14  C   UNL     1     -35.705   5.629  78.011  1.00  0.00     0.016 A 
ATOM     15  C   UNL     1     -34.659   6.404  77.502  1.00  0.00     0.047 A 
ATOM     16  C   UNL     1     -34.825   7.784  77.330  1.00  0.00     0.115 A 
ATOM     17  C   UNL     1     -37.090   7.610  78.177  1.00  0.00     0.016 A 
ATOM     18  C   UNL     1     -36.043   8.383  77.666  1.00  0.00     0.047 A 
BRANCH  16  19
ATOM     19  O   UNL     1     -33.790   8.567  76.825  1.00  0.00    -0.508 OA
ATOM     20  H   UNL     1     -33.064   8.171  76.240  1.00  0.00     0.293 HD
ENDBRANCH  16  19
ENDBRANCH   3  13
BRANCH  10  21
ATOM     21  O   UNL     1     -41.706   2.950  81.456  1.00  0.00    -0.507 OA
ATOM     22  H   UNL     1     -42.576   3.290  81.848  1.00  0.00     0.293 HD
ENDBRANCH  10  21
BRANCH  11  23
ATOM     23  O   UNL     1     -42.645   2.255  76.760  1.00  0.00    -0.508 OA
ATOM     24  H   UNL     1     -43.383   1.594  76.973  1.00  0.00     0.293 HD
ENDBRANCH  11  23
ENDBRANCH   1   2
BRANCH   1  25
ATOM     25  C   UNL     1     -35.990   5.778  81.278  1.00  0.00     0.339 C 
ATOM     26  C   UNL     1     -35.679   4.307  81.598  1.00  0.00     0.214 C 
ATOM     27  O   UNL     1     -35.391   6.673  82.210  1.00  0.00    -0.332 OA
ATOM     28  C   UNL     1     -36.110   3.977  83.034  1.00  0.00     0.180 C 
ATOM     29  C   UNL     1     -35.740   6.436  83.569  1.00  0.00     0.179 C 
ATOM     30  C   UNL     1     -35.488   4.977  84.022  1.00  0.00     0.177 C 
BRANCH  26  31
ATOM     31  O   UNL     1     -34.306   4.055  81.436  1.00  0.00    -0.384 OA
ATOM     32  H   UNL     1     -34.226   3.199  80.941  1.00  0.00     0.211 HD
ENDBRANCH  26  31
BRANCH  28  33
ATOM     33  O   UNL     1     -35.726   2.668  83.373  1.00  0.00    -0.387 OA
ATOM     34  H   UNL     1     -35.999   2.084  82.618  1.00  0.00     0.211 HD
ENDBRANCH  28  33
BRANCH  29  35
ATOM     35  C   UNL     1     -37.148   6.956  83.915  1.00  0.00     0.191 C 
BRANCH  35  36
ATOM     36  O   UNL     1     -38.020   5.877  84.113  1.00  0.00    -0.394 OA
ATOM     37  H   UNL     1     -38.915   6.273  84.281  1.00  0.00     0.210 HD
ENDBRANCH  35  36
ENDBRANCH  29  35
BRANCH  30  38
ATOM     38  O   UNL     1     -34.102   4.767  84.124  1.00  0.00    -0.387 OA
ATOM     39  H   UNL     1     -33.860   4.074  83.456  1.00  0.00     0.211 HD
ENDBRANCH  30  38
ENDBRANCH   1  25
TORSDOF 11
ENDMDL
MODEL 4
REMARK VINA RESULT:    -6.087      2.079      6.432
REMARK INTER + INTRA:         -10.257
REMARK INTER:                  -9.106
REMARK INTRA:                  -1.152
REMARK UNBOUND:                -1.501
REMARK SMILES O=c1c(O[C@H]2O[C@@H](CO)[C@H](O)[C@H](O)[C@@H]2O)c(-c2ccc(O)cc2)oc2cc(O)cc(O)c12
REMARK SMILES IDX 4 1 3 2 16 3 24 4 2 5 25 6 1 7 32 8 26 9 30 10 27 11 29 12
REMARK SMILES IDX 17 13 18 14 19 15 20 16 23 17 22 18 21 19 31 21 28 23 5 25
REMARK SMILES IDX 14 26 6 27 12 28 7 29 10 30 15 31 13 33 8 35 9 36 11 38
REMARK H PARENT 21 20 31 22 28 24 15 32 13 34 9 37 11 39
REMARK Flexibility Score: inf
ROOT
ATOM      1  O   UNL     1     -37.290   5.228  81.422  1.00  0.00    -0.454 OA
ENDROOT
BRANCH   1   2
ATOM      2  C   UNL     1     -36.745   6.064  80.429  1.00  0.00     0.214 A 
ATOM      3  C   UNL     1     -37.375   6.113  79.168  1.00  0.00     0.180 A 
ATOM      4  O   UNL     1     -36.864   6.857  78.194  1.00  0.00    -0.452 OA
ATOM      5  C   UNL     1     -35.585   6.845  80.627  1.00  0.00     0.239 A 
ATOM      6  C   UNL     1     -35.774   7.599  78.336  1.00  0.00     0.146 A 
ATOM      7  O   UNL     1     -35.010   6.851  81.747  1.00  0.00    -0.285 OA
ATOM      8  C   UNL     1     -35.081   7.630  79.568  1.00  0.00     0.111 A 
ATOM      9  C   UNL     1     -35.318   8.351  77.250  1.00  0.00     0.094 A 
ATOM     10  C   UNL     1     -33.922   8.437  79.684  1.00  0.00     0.134 A 
ATOM     11  C   UNL     1     -34.176   9.145  77.370  1.00  0.00     0.123 A 
ATOM     12  C   UNL     1     -33.482   9.186  78.583  1.00  0.00     0.093 A 
BRANCH   3  13
ATOM     13  C   UNL     1     -38.582   5.311  78.866  1.00  0.00     0.021 A 
ATOM     14  C   UNL     1     -39.872   5.790  79.152  1.00  0.00     0.016 A 
ATOM     15  C   UNL     1     -40.997   5.015  78.855  1.00  0.00     0.047 A 
ATOM     16  C   UNL     1     -40.847   3.760  78.251  1.00  0.00     0.115 A 
ATOM     17  C   UNL     1     -38.441   4.061  78.240  1.00  0.00     0.016 A 
ATOM     18  C   UNL     1     -39.567   3.288  77.942  1.00  0.00     0.047 A 
BRANCH  16  19
ATOM     19  O   UNL     1     -41.960   2.978  77.951  1.00  0.00    -0.508 OA
ATOM     20  H   UNL     1     -42.398   2.391  78.651  1.00  0.00     0.293 HD
ENDBRANCH  16  19
ENDBRANCH   3  13
BRANCH  10  21
ATOM     21  O   UNL     1     -33.206   8.499  80.881  1.00  0.00    -0.507 OA
ATOM     22  H   UNL     1     -32.271   8.118  80.964  1.00  0.00     0.293 HD
ENDBRANCH  10  21
BRANCH  11  23
ATOM     23  O   UNL     1     -33.739   9.889  76.276  1.00  0.00    -0.508 OA
ATOM     24  H   UNL     1     -32.872  10.412  76.304  1.00  0.00     0.293 HD
ENDBRANCH  11  23
ENDBRANCH   1   2
BRANCH   1  25
ATOM     25  C   UNL     1     -37.300   3.798  81.416  1.00  0.00     0.339 C 
ATOM     26  C   UNL     1     -38.719   3.286  81.717  1.00  0.00     0.214 C 
ATOM     27  O   UNL     1     -36.327   3.252  82.301  1.00  0.00    -0.332 OA
ATOM     28  C   UNL     1     -39.083   3.571  83.181  1.00  0.00     0.180 C 
ATOM     29  C   UNL     1     -36.590   3.473  83.682  1.00  0.00     0.179 C 
ATOM     30  C   UNL     1     -38.001   3.011  84.120  1.00  0.00     0.177 C 
BRANCH  26  31
ATOM     31  O   UNL     1     -38.800   1.906  81.460  1.00  0.00    -0.384 OA
ATOM     32  H   UNL     1     -37.904   1.619  81.142  1.00  0.00     0.211 HD
ENDBRANCH  26  31
BRANCH  28  33
ATOM     33  O   UNL     1     -40.330   3.004  83.496  1.00  0.00    -0.387 OA
ATOM     34  H   UNL     1     -40.836   3.692  84.004  1.00  0.00     0.211 HD
ENDBRANCH  28  33
BRANCH  29  35
ATOM     35  C   UNL     1     -36.244   4.907  84.125  1.00  0.00     0.191 C 
BRANCH  35  36
ATOM     36  O   UNL     1     -34.865   5.124  84.004  1.00  0.00    -0.394 OA
ATOM     37  H   UNL     1     -34.735   6.108  84.053  1.00  0.00     0.210 HD
ENDBRANCH  35  36
ENDBRANCH  29  35
BRANCH  30  38
ATOM     38  O   UNL     1     -38.037   1.605  84.125  1.00  0.00    -0.387 OA
ATOM     39  H   UNL     1     -38.502   1.321  83.296  1.00  0.00     0.211 HD
ENDBRANCH  30  38
ENDBRANCH   1  25
TORSDOF 11
ENDMDL
MODEL 5
REMARK VINA RESULT:    -6.065      2.161      7.379
REMARK INTER + INTRA:         -10.225
REMARK INTER:                  -9.475
REMARK INTRA:                  -0.751
REMARK UNBOUND:                -1.501
REMARK SMILES O=c1c(O[C@H]2O[C@@H](CO)[C@H](O)[C@H](O)[C@@H]2O)c(-c2ccc(O)cc2)oc2cc(O)cc(O)c12
REMARK SMILES IDX 4 1 3 2 16 3 24 4 2 5 25 6 1 7 32 8 26 9 30 10 27 11 29 12
REMARK SMILES IDX 17 13 18 14 19 15 20 16 23 17 22 18 21 19 31 21 28 23 5 25
REMARK SMILES IDX 14 26 6 27 12 28 7 29 10 30 15 31 13 33 8 35 9 36 11 38
REMARK H PARENT 21 20 31 22 28 24 15 32 13 34 9 37 11 39
REMARK Flexibility Score: inf
ROOT
ATOM      1  O   UNL     1     -37.702   5.005  78.845  1.00  0.00    -0.454 OA
ENDROOT
BRANCH   1   2
ATOM      2  C   UNL     1     -36.607   5.698  79.396  1.00  0.00     0.214 A 
ATOM      3  C   UNL     1     -36.378   5.602  80.784  1.00  0.00     0.180 A 
ATOM      4  O   UNL     1     -35.380   6.276  81.345  1.00  0.00    -0.452 OA
ATOM      5  C   UNL     1     -35.735   6.500  78.629  1.00  0.00     0.239 A 
ATOM      6  C   UNL     1     -34.543   7.045  80.662  1.00  0.00     0.146 A 
ATOM      7  O   UNL     1     -35.889   6.589  77.382  1.00  0.00    -0.285 OA
ATOM      8  C   UNL     1     -34.681   7.192  79.263  1.00  0.00     0.111 A 
ATOM      9  C   UNL     1     -33.521   7.710  81.345  1.00  0.00     0.094 A 
ATOM     10  C   UNL     1     -33.766   8.019  78.565  1.00  0.00     0.134 A 
ATOM     11  C   UNL     1     -32.622   8.524  80.653  1.00  0.00     0.123 A 
ATOM     12  C   UNL     1     -32.746   8.677  79.268  1.00  0.00     0.093 A 
BRANCH   3  13
ATOM     13  C   UNL     1     -37.254   4.801  81.668  1.00  0.00     0.021 A 
ATOM     14  C   UNL     1     -38.142   5.411  82.571  1.00  0.00     0.016 A 
ATOM     15  C   UNL     1     -38.961   4.633  83.393  1.00  0.00     0.047 A 
ATOM     16  C   UNL     1     -38.918   3.235  83.310  1.00  0.00     0.115 A 
ATOM     17  C   UNL     1     -37.233   3.399  81.574  1.00  0.00     0.016 A 
ATOM     18  C   UNL     1     -38.054   2.622  82.396  1.00  0.00     0.047 A 
BRANCH  16  19
ATOM     19  O   UNL     1     -39.729   2.449  84.125  1.00  0.00    -0.508 OA
ATOM     20  H   UNL     1     -40.146   2.819  84.971  1.00  0.00     0.293 HD
ENDBRANCH  16  19
ENDBRANCH   3  13
BRANCH  10  21
ATOM     21  O   UNL     1     -33.863   8.194  77.184  1.00  0.00    -0.507 OA
ATOM     22  H   UNL     1     -34.715   8.526  76.747  1.00  0.00     0.293 HD
ENDBRANCH  10  21
BRANCH  11  23
ATOM     23  O   UNL     1     -31.610   9.178  81.352  1.00  0.00    -0.508 OA
ATOM     24  H   UNL     1     -30.839   9.626  80.871  1.00  0.00     0.293 HD
ENDBRANCH  11  23
ENDBRANCH   1   2
BRANCH   1  25
ATOM     25  C   UNL     1     -38.926   5.582  78.382  1.00  0.00     0.339 C 
ATOM     26  C   UNL     1     -39.910   5.729  79.555  1.00  0.00     0.214 C 
ATOM     27  O   UNL     1     -39.484   4.853  77.295  1.00  0.00    -0.332 OA
ATOM     28  C   UNL     1     -40.397   4.347  80.011  1.00  0.00     0.180 C 
ATOM     29  C   UNL     1     -39.962   3.556  77.632  1.00  0.00     0.179 C 
ATOM     30  C   UNL     1     -40.958   3.558  78.817  1.00  0.00     0.177 C 
BRANCH  26  31
ATOM     31  O   UNL     1     -41.003   6.525  79.173  1.00  0.00    -0.384 OA
ATOM     32  H   UNL     1     -41.454   6.815  80.008  1.00  0.00     0.211 HD
ENDBRANCH  26  31
BRANCH  28  33
ATOM     33  O   UNL     1     -41.383   4.476  81.004  1.00  0.00    -0.387 OA
ATOM     34  H   UNL     1     -40.998   4.102  81.840  1.00  0.00     0.211 HD
ENDBRANCH  28  33
BRANCH  29  35
ATOM     35  C   UNL     1     -38.822   2.531  77.785  1.00  0.00     0.191 C 
BRANCH  35  36
ATOM     36  O   UNL     1     -38.664   2.192  79.136  1.00  0.00    -0.394 OA
ATOM     37  H   UNL     1     -39.457   2.557  79.607  1.00  0.00     0.210 HD
ENDBRANCH  35  36
ENDBRANCH  29  35
BRANCH  30  38
ATOM     38  O   UNL     1     -42.174   4.119  78.386  1.00  0.00    -0.387 OA
ATOM     39  H   UNL     1     -42.199   4.038  77.397  1.00  0.00     0.211 HD
ENDBRANCH  30  38
ENDBRANCH   1  25
TORSDOF 11
ENDMDL
MODEL 6
REMARK VINA RESULT:    -6.062      2.956      7.069
REMARK INTER + INTRA:         -10.220
REMARK INTER:                  -9.879
REMARK INTRA:                  -0.341
REMARK UNBOUND:                -1.501
REMARK SMILES O=c1c(O[C@H]2O[C@@H](CO)[C@H](O)[C@H](O)[C@@H]2O)c(-c2ccc(O)cc2)oc2cc(O)cc(O)c12
REMARK SMILES IDX 4 1 3 2 16 3 24 4 2 5 25 6 1 7 32 8 26 9 30 10 27 11 29 12
REMARK SMILES IDX 17 13 18 14 19 15 20 16 23 17 22 18 21 19 31 21 28 23 5 25
REMARK SMILES IDX 14 26 6 27 12 28 7 29 10 30 15 31 13 33 8 35 9 36 11 38
REMARK H PARENT 21 20 31 22 28 24 15 32 13 34 9 37 11 39
REMARK Flexibility Score: inf
ROOT
ATOM      1  O   UNL     1     -38.140   5.419  77.680  1.00  0.00    -0.454 OA
ENDROOT
BRANCH   1   2
ATOM      2  C   UNL     1     -37.120   6.303  78.081  1.00  0.00     0.214 A 
ATOM      3  C   UNL     1     -37.354   7.690  77.983  1.00  0.00     0.180 A 
ATOM      4  O   UNL     1     -36.400   8.555  78.311  1.00  0.00    -0.452 OA
ATOM      5  C   UNL     1     -35.865   5.870  78.561  1.00  0.00     0.239 A 
ATOM      6  C   UNL     1     -35.207   8.189  78.759  1.00  0.00     0.146 A 
ATOM      7  O   UNL     1     -35.627   4.640  78.690  1.00  0.00    -0.285 OA
ATOM      8  C   UNL     1     -34.882   6.821  78.908  1.00  0.00     0.111 A 
ATOM      9  C   UNL     1     -34.272   9.176  79.083  1.00  0.00     0.094 A 
ATOM     10  C   UNL     1     -33.599   6.468  79.393  1.00  0.00     0.134 A 
ATOM     11  C   UNL     1     -33.008   8.823  79.560  1.00  0.00     0.123 A 
ATOM     12  C   UNL     1     -32.675   7.474  79.714  1.00  0.00     0.093 A 
BRANCH   3  13
ATOM     13  C   UNL     1     -38.632   8.233  77.471  1.00  0.00     0.021 A 
ATOM     14  C   UNL     1     -39.664   8.626  78.340  1.00  0.00     0.016 A 
ATOM     15  C   UNL     1     -40.862   9.138  77.832  1.00  0.00     0.047 A 
ATOM     16  C   UNL     1     -41.035   9.282  76.450  1.00  0.00     0.115 A 
ATOM     17  C   UNL     1     -38.805   8.402  76.086  1.00  0.00     0.016 A 
ATOM     18  C   UNL     1     -40.003   8.916  75.580  1.00  0.00     0.047 A 
BRANCH  16  19
ATOM     19  O   UNL     1     -42.224   9.790  75.931  1.00  0.00    -0.508 OA
ATOM     20  H   UNL     1     -43.073   9.819  76.484  1.00  0.00     0.293 HD
ENDBRANCH  16  19
ENDBRANCH   3  13
BRANCH  10  21
ATOM     21  O   UNL     1     -33.234   5.131  79.557  1.00  0.00    -0.507 OA
ATOM     22  H   UNL     1     -32.530   4.695  78.974  1.00  0.00     0.293 HD
ENDBRANCH  10  21
BRANCH  11  23
ATOM     23  O   UNL     1     -32.091   9.822  79.879  1.00  0.00    -0.508 OA
ATOM     24  H   UNL     1     -32.266  10.794  79.653  1.00  0.00     0.293 HD
ENDBRANCH  11  23
ENDBRANCH   1   2
BRANCH   1  25
ATOM     25  C   UNL     1     -39.411   5.247  78.312  1.00  0.00     0.339 C 
ATOM     26  C   UNL     1     -39.298   5.581  79.809  1.00  0.00     0.214 C 
ATOM     27  O   UNL     1     -39.952   3.950  78.085  1.00  0.00    -0.332 OA
ATOM     28  C   UNL     1     -38.472   4.506  80.528  1.00  0.00     0.180 C 
ATOM     29  C   UNL     1     -39.242   2.892  78.718  1.00  0.00     0.179 C 
ATOM     30  C   UNL     1     -39.044   3.109  80.238  1.00  0.00     0.177 C 
BRANCH  26  31
ATOM     31  O   UNL     1     -40.578   5.669  80.383  1.00  0.00    -0.384 OA
ATOM     32  H   UNL     1     -41.056   6.400  79.911  1.00  0.00     0.211 HD
ENDBRANCH  26  31
BRANCH  28  33
ATOM     33  O   UNL     1     -38.460   4.740  81.913  1.00  0.00    -0.387 OA
ATOM     34  H   UNL     1     -39.404   4.701  82.219  1.00  0.00     0.211 HD
ENDBRANCH  28  33
BRANCH  29  35
ATOM     35  C   UNL     1     -37.945   2.524  77.972  1.00  0.00     0.191 C 
BRANCH  35  36
ATOM     36  O   UNL     1     -37.978   1.176  77.593  1.00  0.00    -0.394 OA
ATOM     37  H   UNL     1     -37.137   0.772  77.933  1.00  0.00     0.210 HD
ENDBRANCH  35  36
ENDBRANCH  29  35
BRANCH  30  38
ATOM     38  O   UNL     1     -40.282   2.942  80.884  1.00  0.00    -0.387 OA
ATOM     39  H   UNL     1     -40.358   3.665  81.561  1.00  0.00     0.211 HD
ENDBRANCH  30  38
ENDBRANCH   1  25
TORSDOF 11
ENDMDL
MODEL 7
REMARK VINA RESULT:    -5.898      2.784      4.718
REMARK INTER + INTRA:          -9.985
REMARK INTER:                  -8.401
REMARK INTRA:                  -1.584
REMARK UNBOUND:                -1.501
REMARK SMILES O=c1c(O[C@H]2O[C@@H](CO)[C@H](O)[C@H](O)[C@@H]2O)c(-c2ccc(O)cc2)oc2cc(O)cc(O)c12
REMARK SMILES IDX 4 1 3 2 16 3 24 4 2 5 25 6 1 7 32 8 26 9 30 10 27 11 29 12
REMARK SMILES IDX 17 13 18 14 19 15 20 16 23 17 22 18 21 19 31 21 28 23 5 25
REMARK SMILES IDX 14 26 6 27 12 28 7 29 10 30 15 31 13 33 8 35 9 36 11 38
REMARK H PARENT 21 20 31 22 28 24 15 32 13 34 9 37 11 39
REMARK Flexibility Score: inf
ROOT
ATOM      1  O   UNL     1     -38.539   6.419  79.311  1.00  0.00    -0.454 OA
ENDROOT
BRANCH   1   2
ATOM      2  C   UNL     1     -38.556   5.332  80.206  1.00  0.00     0.214 A 
ATOM      3  C   UNL     1     -37.327   4.790  80.633  1.00  0.00     0.180 A 
ATOM      4  O   UNL     1     -37.304   3.738  81.443  1.00  0.00    -0.452 OA
ATOM      5  C   UNL     1     -39.747   4.746  80.687  1.00  0.00     0.239 A 
ATOM      6  C   UNL     1     -38.399   3.154  81.912  1.00  0.00     0.146 A 
ATOM      7  O   UNL     1     -40.866   5.219  80.352  1.00  0.00    -0.285 OA
ATOM      8  C   UNL     1     -39.679   3.635  81.555  1.00  0.00     0.111 A 
ATOM      9  C   UNL     1     -38.270   2.054  82.764  1.00  0.00     0.094 A 
ATOM     10  C   UNL     1     -40.827   2.988  82.077  1.00  0.00     0.134 A 
ATOM     11  C   UNL     1     -39.403   1.420  83.276  1.00  0.00     0.123 A 
ATOM     12  C   UNL     1     -40.676   1.886  82.933  1.00  0.00     0.093 A 
BRANCH   3  13
ATOM     13  C   UNL     1     -36.030   5.329  80.163  1.00  0.00     0.021 A 
ATOM     14  C   UNL     1     -35.217   4.610  79.270  1.00  0.00     0.016 A 
ATOM     15  C   UNL     1     -33.998   5.141  78.839  1.00  0.00     0.047 A 
ATOM     16  C   UNL     1     -33.585   6.405  79.279  1.00  0.00     0.115 A 
ATOM     17  C   UNL     1     -35.620   6.605  80.583  1.00  0.00     0.016 A 
ATOM     18  C   UNL     1     -34.401   7.135  80.149  1.00  0.00     0.047 A 
BRANCH  16  19
ATOM     19  O   UNL     1     -32.372   6.944  78.857  1.00  0.00    -0.508 OA
ATOM     20  H   UNL     1     -32.067   7.861  79.162  1.00  0.00     0.293 HD
ENDBRANCH  16  19
ENDBRANCH   3  13
BRANCH  10  21
ATOM     21  O   UNL     1     -42.111   3.428  81.753  1.00  0.00    -0.507 OA
ATOM     22  H   UNL     1     -42.285   4.018  80.948  1.00  0.00     0.293 HD
ENDBRANCH  10  21
BRANCH  11  23
ATOM     23  O   UNL     1     -39.253   0.326  84.125  1.00  0.00    -0.508 OA
ATOM     24  H   UNL     1     -38.621  -0.435  83.903  1.00  0.00     0.293 HD
ENDBRANCH  11  23
ENDBRANCH   1   2
BRANCH   1  25
ATOM     25  C   UNL     1     -38.481   6.342  77.884  1.00  0.00     0.339 C 
ATOM     26  C   UNL     1     -37.212   7.044  77.375  1.00  0.00     0.214 C 
ATOM     27  O   UNL     1     -39.663   6.847  77.272  1.00  0.00    -0.332 OA
ATOM     28  C   UNL     1     -37.331   8.560  77.577  1.00  0.00     0.180 C 
ATOM     29  C   UNL     1     -39.851   8.251  77.413  1.00  0.00     0.179 C 
ATOM     30  C   UNL     1     -38.632   9.083  76.947  1.00  0.00     0.177 C 
BRANCH  26  31
ATOM     31  O   UNL     1     -37.010   6.752  76.014  1.00  0.00    -0.384 OA
ATOM     32  H   UNL     1     -37.144   7.600  75.515  1.00  0.00     0.211 HD
ENDBRANCH  26  31
BRANCH  28  33
ATOM     33  O   UNL     1     -36.226   9.220  77.010  1.00  0.00    -0.387 OA
ATOM     34  H   UNL     1     -36.429  10.192  77.036  1.00  0.00     0.211 HD
ENDBRANCH  28  33
BRANCH  29  35
ATOM     35  C   UNL     1     -40.363   8.638  78.814  1.00  0.00     0.191 C 
BRANCH  35  36
ATOM     36  O   UNL     1     -41.309   7.701  79.252  1.00  0.00    -0.394 OA
ATOM     37  H   UNL     1     -41.037   7.444  80.172  1.00  0.00     0.210 HD
ENDBRANCH  35  36
ENDBRANCH  29  35
BRANCH  30  38
ATOM     38  O   UNL     1     -38.555   9.026  75.544  1.00  0.00    -0.387 OA
ATOM     39  H   UNL     1     -38.417   9.954  75.219  1.00  0.00     0.211 HD
ENDBRANCH  30  38
ENDBRANCH   1  25
TORSDOF 11
ENDMDL
MODEL 8
REMARK VINA RESULT:    -5.795      2.673      4.917
REMARK INTER + INTRA:          -9.836
REMARK INTER:                  -8.894
REMARK INTRA:                  -0.942
REMARK UNBOUND:                -1.501
REMARK SMILES O=c1c(O[C@H]2O[C@@H](CO)[C@H](O)[C@H](O)[C@@H]2O)c(-c2ccc(O)cc2)oc2cc(O)cc(O)c12
REMARK SMILES IDX 4 1 3 2 16 3 24 4 2 5 25 6 1 7 32 8 26 9 30 10 27 11 29 12
REMARK SMILES IDX 17 13 18 14 19 15 20 16 23 17 22 18 21 19 31 21 28 23 5 25
REMARK SMILES IDX 14 26 6 27 12 28 7 29 10 30 15 31 13 33 8 35 9 36 11 38
REMARK H PARENT 21 20 31 22 28 24 15 32 13 34 9 37 11 39
REMARK Flexibility Score: inf
ROOT
ATOM      1  O   UNL     1     -36.940   7.541  79.855  1.00  0.00    -0.454 OA
ENDROOT
BRANCH   1   2
ATOM      2  C   UNL     1     -37.851   6.544  80.253  1.00  0.00     0.214 A 
ATOM      3  C   UNL     1     -39.039   6.382  79.512  1.00  0.00     0.180 A 
ATOM      4  O   UNL     1     -39.942   5.481  79.883  1.00  0.00    -0.452 OA
ATOM      5  C   UNL     1     -37.641   5.707  81.370  1.00  0.00     0.239 A 
ATOM      6  C   UNL     1     -39.787   4.681  80.929  1.00  0.00     0.146 A 
ATOM      7  O   UNL     1     -36.579   5.800  82.041  1.00  0.00    -0.285 OA
ATOM      8  C   UNL     1     -38.621   4.755  81.725  1.00  0.00     0.111 A 
ATOM      9  C   UNL     1     -40.793   3.761  81.235  1.00  0.00     0.094 A 
ATOM     10  C   UNL     1     -38.488   3.882  82.833  1.00  0.00     0.134 A 
ATOM     11  C   UNL     1     -40.658   2.902  82.328  1.00  0.00     0.123 A 
ATOM     12  C   UNL     1     -39.509   2.964  83.122  1.00  0.00     0.093 A 
BRANCH   3  13
ATOM     13  C   UNL     1     -39.351   7.230  78.339  1.00  0.00     0.021 A 
ATOM     14  C   UNL     1     -38.909   6.890  77.049  1.00  0.00     0.016 A 
ATOM     15  C   UNL     1     -39.218   7.706  75.957  1.00  0.00     0.047 A 
ATOM     16  C   UNL     1     -39.989   8.862  76.137  1.00  0.00     0.115 A 
ATOM     17  C   UNL     1     -40.142   8.379  78.509  1.00  0.00     0.016 A 
ATOM     18  C   UNL     1     -40.452   9.193  77.415  1.00  0.00     0.047 A 
BRANCH  16  19
ATOM     19  O   UNL     1     -40.303   9.683  75.057  1.00  0.00    -0.508 OA
ATOM     20  H   UNL     1     -41.018   9.426  74.388  1.00  0.00     0.293 HD
ENDBRANCH  16  19
ENDBRANCH   3  13
BRANCH  10  21
ATOM     21  O   UNL     1     -37.354   3.919  83.646  1.00  0.00    -0.507 OA
ATOM     22  H   UNL     1     -37.237   4.622  84.366  1.00  0.00     0.293 HD
ENDBRANCH  10  21
BRANCH  11  23
ATOM     23  O   UNL     1     -41.672   1.992  82.615  1.00  0.00    -0.508 OA
ATOM     24  H   UNL     1     -42.232   1.573  81.881  1.00  0.00     0.293 HD
ENDBRANCH  11  23
ENDBRANCH   1   2
BRANCH   1  25
ATOM     25  C   UNL     1     -36.167   7.553  78.651  1.00  0.00     0.339 C 
ATOM     26  C   UNL     1     -35.612   6.146  78.375  1.00  0.00     0.214 C 
ATOM     27  O   UNL     1     -35.144   8.543  78.681  1.00  0.00    -0.332 OA
ATOM     28  C   UNL     1     -34.533   5.792  79.407  1.00  0.00     0.180 C 
ATOM     29  C   UNL     1     -34.101   8.291  79.615  1.00  0.00     0.179 C 
ATOM     30  C   UNL     1     -33.459   6.891  79.456  1.00  0.00     0.177 C 
BRANCH  26  31
ATOM     31  O   UNL     1     -35.077   6.083  77.076  1.00  0.00    -0.384 OA
ATOM     32  H   UNL     1     -35.819   5.820  76.471  1.00  0.00     0.211 HD
ENDBRANCH  26  31
BRANCH  28  33
ATOM     33  O   UNL     1     -33.939   4.557  79.094  1.00  0.00    -0.387 OA
ATOM     34  H   UNL     1     -34.676   3.939  78.847  1.00  0.00     0.211 HD
ENDBRANCH  28  33
BRANCH  29  35
ATOM     35  C   UNL     1     -34.515   8.619  81.063  1.00  0.00     0.191 C 
BRANCH  35  36
ATOM     36  O   UNL     1     -35.282   9.792  81.085  1.00  0.00    -0.394 OA
ATOM     37  H   UNL     1     -36.067   9.597  81.661  1.00  0.00     0.210 HD
ENDBRANCH  35  36
ENDBRANCH  29  35
BRANCH  30  38
ATOM     38  O   UNL     1     -32.689   6.877  78.278  1.00  0.00    -0.387 OA
ATOM     39  H   UNL     1     -33.061   6.166  77.694  1.00  0.00     0.211 HD
ENDBRANCH  30  38
ENDBRANCH   1  25
TORSDOF 11
ENDMDL
MODEL 9
REMARK VINA RESULT:    -5.780      3.692      5.964
REMARK INTER + INTRA:          -9.815
REMARK INTER:                  -8.117
REMARK INTRA:                  -1.698
REMARK UNBOUND:                -1.501
REMARK SMILES O=c1c(O[C@H]2O[C@@H](CO)[C@H](O)[C@H](O)[C@@H]2O)c(-c2ccc(O)cc2)oc2cc(O)cc(O)c12
REMARK SMILES IDX 4 1 3 2 16 3 24 4 2 5 25 6 1 7 32 8 26 9 30 10 27 11 29 12
REMARK SMILES IDX 17 13 18 14 19 15 20 16 23 17 22 18 21 19 31 21 28 23 5 25
REMARK SMILES IDX 14 26 6 27 12 28 7 29 10 30 15 31 13 33 8 35 9 36 11 38
REMARK H PARENT 21 20 31 22 28 24 15 32 13 34 9 37 11 39
REMARK Flexibility Score: inf
ROOT
ATOM      1  O   UNL     1     -37.019   7.044  78.942  1.00  0.00    -0.454 OA
ENDROOT
BRANCH   1   2
ATOM      2  C   UNL     1     -38.289   7.576  78.645  1.00  0.00     0.214 A 
ATOM      3  C   UNL     1     -39.366   7.268  79.501  1.00  0.00     0.180 A 
ATOM      4  O   UNL     1     -40.586   7.717  79.229  1.00  0.00    -0.452 OA
ATOM      5  C   UNL     1     -38.541   8.391  77.519  1.00  0.00     0.239 A 
ATOM      6  C   UNL     1     -40.867   8.478  78.179  1.00  0.00     0.146 A 
ATOM      7  O   UNL     1     -37.600   8.712  76.746  1.00  0.00    -0.285 OA
ATOM      8  C   UNL     1     -39.850   8.855  77.272  1.00  0.00     0.111 A 
ATOM      9  C   UNL     1     -42.183   8.905  77.982  1.00  0.00     0.094 A 
ATOM     10  C   UNL     1     -40.186   9.672  76.164  1.00  0.00     0.134 A 
ATOM     11  C   UNL     1     -42.509   9.709  76.889  1.00  0.00     0.123 A 
ATOM     12  C   UNL     1     -41.513  10.091  75.984  1.00  0.00     0.093 A 
BRANCH   3  13
ATOM     13  C   UNL     1     -39.197   6.405  80.691  1.00  0.00     0.021 A 
ATOM     14  C   UNL     1     -39.493   5.031  80.650  1.00  0.00     0.016 A 
ATOM     15  C   UNL     1     -39.322   4.236  81.787  1.00  0.00     0.047 A 
ATOM     16  C   UNL     1     -38.835   4.799  82.973  1.00  0.00     0.115 A 
ATOM     17  C   UNL     1     -38.687   6.958  81.878  1.00  0.00     0.016 A 
ATOM     18  C   UNL     1     -38.516   6.160  83.014  1.00  0.00     0.047 A 
BRANCH  16  19
ATOM     19  O   UNL     1     -38.662   4.017  84.113  1.00  0.00    -0.508 OA
ATOM     20  H   UNL     1     -38.282   3.080  84.058  1.00  0.00     0.293 HD
ENDBRANCH  16  19
ENDBRANCH   3  13
BRANCH  10  21
ATOM     21  O   UNL     1     -39.216  10.069  75.242  1.00  0.00    -0.507 OA
ATOM     22  H   UNL     1     -39.462  10.389  74.313  1.00  0.00     0.293 HD
ENDBRANCH  10  21
BRANCH  11  23
ATOM     23  O   UNL     1     -43.827  10.125  76.711  1.00  0.00    -0.508 OA
ATOM     24  H   UNL     1     -44.306  10.003  75.826  1.00  0.00     0.293 HD
ENDBRANCH  11  23
ENDBRANCH   1   2
BRANCH   1  25
ATOM     25  C   UNL     1     -36.366   5.973  78.255  1.00  0.00     0.339 C 
ATOM     26  C   UNL     1     -36.114   4.808  79.226  1.00  0.00     0.214 C 
ATOM     27  O   UNL     1     -35.175   6.403  77.603  1.00  0.00    -0.332 OA
ATOM     28  C   UNL     1     -35.036   5.196  80.247  1.00  0.00     0.180 C 
ATOM     29  C   UNL     1     -34.121   6.782  78.481  1.00  0.00     0.179 C 
ATOM     30  C   UNL     1     -33.773   5.696  79.528  1.00  0.00     0.177 C 
BRANCH  26  31
ATOM     31  O   UNL     1     -35.715   3.663  78.515  1.00  0.00    -0.384 OA
ATOM     32  H   UNL     1     -36.536   3.133  78.339  1.00  0.00     0.211 HD
ENDBRANCH  26  31
BRANCH  28  33
ATOM     33  O   UNL     1     -34.717   4.099  81.066  1.00  0.00    -0.387 OA
ATOM     34  H   UNL     1     -35.338   4.129  81.841  1.00  0.00     0.211 HD
ENDBRANCH  28  33
BRANCH  29  35
ATOM     35  C   UNL     1     -34.338   8.180  79.090  1.00  0.00     0.191 C 
BRANCH  35  36
ATOM     36  O   UNL     1     -34.830   9.056  78.113  1.00  0.00    -0.394 OA
ATOM     37  H   UNL     1     -35.494   8.538  77.587  1.00  0.00     0.210 HD
ENDBRANCH  35  36
ENDBRANCH  29  35
BRANCH  30  38
ATOM     38  O   UNL     1     -33.125   4.631  78.876  1.00  0.00    -0.387 OA
ATOM     39  H   UNL     1     -33.762   4.265  78.208  1.00  0.00     0.211 HD
ENDBRANCH  30  38
ENDBRANCH   1  25
TORSDOF 11
ENDMDL
