MODEL 1
REMARK VINA RESULT:    -3.976      0.000      0.000
REMARK INTER + INTRA:          -4.681
REMARK INTER:                  -4.673
REMARK INTRA:                  -0.008
REMARK UNBOUND:                -0.008
REMARK SMILES [NH3+][C@@H](CO)C(=O)[O-]
REMARK SMILES IDX 3 1 2 2 1 3 5 7 6 8 7 9 4 10
REMARK H PARENT 1 4 1 5 1 6 4 11
REMARK Flexibility Score: inf
ROOT
ATOM      1  C   UNL     1       4.807  -9.182   1.346  1.00  0.00     0.227 C 
ENDROOT
BRANCH   1   2
ATOM      2  C   UNL     1       3.350  -9.519   1.715  1.00  0.00     0.253 C 
BRANCH   2   3
ATOM      3  N   UNL     1       3.211 -10.931   2.094  1.00  0.00    -0.348 N 
ATOM      4  H   UNL     1       3.864 -11.516   1.521  1.00  0.00     0.345 HD
ATOM      5  H   UNL     1       3.463 -11.052   3.102  1.00  0.00     0.345 HD
ATOM      6  H   UNL     1       2.232 -11.266   1.943  1.00  0.00     0.345 HD
ENDBRANCH   2   3
BRANCH   2   7
ATOM      7  C   UNL     1       2.415  -9.169   0.587  1.00  0.00     0.102 C 
ATOM      8  O   UNL     1       1.976 -10.074  -0.169  1.00  0.00    -0.544 OA
ATOM      9  O   UNL     1       1.989  -7.858   0.403  1.00  0.00    -0.544 OA
ENDBRANCH   2   7
ENDBRANCH   1   2
BRANCH   1  10
ATOM     10  O   UNL     1       5.677 -10.228   1.691  1.00  0.00    -0.390 OA
ATOM     11  H   UNL     1       5.194 -11.076   1.510  1.00  0.00     0.210 HD
ENDBRANCH   1  10
TORSDOF 4
ENDMDL
MODEL 2
REMARK VINA RESULT:    -3.901      1.907      3.172
REMARK INTER + INTRA:          -4.592
REMARK INTER:                  -4.247
REMARK INTRA:                  -0.345
REMARK UNBOUND:                -0.008
REMARK SMILES [NH3+][C@@H](CO)C(=O)[O-]
REMARK SMILES IDX 3 1 2 2 1 3 5 7 6 8 7 9 4 10
REMARK H PARENT 1 4 1 5 1 6 4 11
REMARK Flexibility Score: inf
ROOT
ATOM      1  C   UNL     1       1.620  -7.809  -0.520  1.00  0.00     0.227 C 
ENDROOT
BRANCH   1   2
ATOM      2  C   UNL     1       2.355  -9.156  -0.386  1.00  0.00     0.253 C 
BRANCH   2   3
ATOM      3  N   UNL     1       1.408 -10.280  -0.393  1.00  0.00    -0.348 N 
ATOM      4  H   UNL     1       0.530 -10.004   0.103  1.00  0.00     0.345 HD
ATOM      5  H   UNL     1       1.163 -10.527  -1.380  1.00  0.00     0.345 HD
ATOM      6  H   UNL     1       1.818 -11.119   0.078  1.00  0.00     0.345 HD
ENDBRANCH   2   3
BRANCH   2   7
ATOM      7  C   UNL     1       3.210  -9.180   0.854  1.00  0.00     0.102 C 
ATOM      8  O   UNL     1       4.462  -9.103   0.755  1.00  0.00    -0.544 OA
ATOM      9  O   UNL     1       2.625  -9.234   2.115  1.00  0.00    -0.544 OA
ENDBRANCH   2   7
ENDBRANCH   1   2
BRANCH   1  10
ATOM     10  O   UNL     1       2.278  -6.794   0.191  1.00  0.00    -0.390 OA
ATOM     11  H   UNL     1       1.593  -6.114   0.422  1.00  0.00     0.210 HD
ENDBRANCH   1  10
TORSDOF 4
ENDMDL
MODEL 3
REMARK VINA RESULT:    -3.863      4.630      5.205
REMARK INTER + INTRA:          -4.549
REMARK INTER:                  -4.163
REMARK INTRA:                  -0.386
REMARK UNBOUND:                -0.008
REMARK SMILES [NH3+][C@@H](CO)C(=O)[O-]
REMARK SMILES IDX 3 1 2 2 1 3 5 7 6 8 7 9 4 10
REMARK H PARENT 1 4 1 5 1 6 4 11
REMARK Flexibility Score: inf
ROOT
ATOM      1  C   UNL     1       3.740  -6.247  -2.955  1.00  0.00     0.227 C 
ENDROOT
BRANCH   1   2
ATOM      2  C   UNL     1       3.350  -5.739  -1.555  1.00  0.00     0.253 C 
BRANCH   2   3
ATOM      3  N   UNL     1       3.894  -6.610  -0.503  1.00  0.00    -0.348 N 
ATOM      4  H   UNL     1       3.162  -6.782   0.224  1.00  0.00     0.345 HD
ATOM      5  H   UNL     1       4.169  -7.531  -0.916  1.00  0.00     0.345 HD
ATOM      6  H   UNL     1       4.729  -6.174  -0.050  1.00  0.00     0.345 HD
ENDBRANCH   2   3
BRANCH   2   7
ATOM      7  C   UNL     1       1.855  -5.610  -1.427  1.00  0.00     0.102 C 
ATOM      8  O   UNL     1       1.308  -4.484  -1.558  1.00  0.00    -0.544 OA
ATOM      9  O   UNL     1       1.063  -6.734  -1.218  1.00  0.00    -0.544 OA
ENDBRANCH   2   7
ENDBRANCH   1   2
BRANCH   1  10
ATOM     10  O   UNL     1       2.630  -6.288  -3.813  1.00  0.00    -0.390 OA
ATOM     11  H   UNL     1       2.334  -5.350  -3.945  1.00  0.00     0.210 HD
ENDBRANCH   1  10
TORSDOF 4
ENDMDL
MODEL 4
REMARK VINA RESULT:    -3.822      3.696      4.813
REMARK INTER + INTRA:          -4.500
REMARK INTER:                  -4.122
REMARK INTRA:                  -0.379
REMARK UNBOUND:                -0.008
REMARK SMILES [NH3+][C@@H](CO)C(=O)[O-]
REMARK SMILES IDX 3 1 2 2 1 3 5 7 6 8 7 9 4 10
REMARK H PARENT 1 4 1 5 1 6 4 11
REMARK Flexibility Score: inf
ROOT
ATOM      1  C   UNL     1       1.849  -5.012  -1.757  1.00  0.00     0.227 C 
ENDROOT
BRANCH   1   2
ATOM      2  C   UNL     1       2.264  -5.816  -0.511  1.00  0.00     0.253 C 
BRANCH   2   3
ATOM      3  N   UNL     1       3.662  -5.549  -0.148  1.00  0.00    -0.348 N 
ATOM      4  H   UNL     1       3.770  -4.543   0.121  1.00  0.00     0.345 HD
ATOM      5  H   UNL     1       3.932  -6.138   0.673  1.00  0.00     0.345 HD
ATOM      6  H   UNL     1       4.305  -5.759  -0.946  1.00  0.00     0.345 HD
ENDBRANCH   2   3
BRANCH   2   7
ATOM      7  C   UNL     1       2.035  -7.290  -0.723  1.00  0.00     0.102 C 
ATOM      8  O   UNL     1       0.890  -7.780  -0.544  1.00  0.00    -0.544 OA
ATOM      9  O   UNL     1       3.068  -8.110  -1.165  1.00  0.00    -0.544 OA
ENDBRANCH   2   7
ENDBRANCH   1   2
BRANCH   1  10
ATOM     10  O   UNL     1       1.538  -5.858  -2.833  1.00  0.00    -0.390 OA
ATOM     11  H   UNL     1       0.671  -6.290  -2.618  1.00  0.00     0.210 HD
ENDBRANCH   1  10
TORSDOF 4
ENDMDL
MODEL 5
REMARK VINA RESULT:    -3.815      9.388      9.940
REMARK INTER + INTRA:          -4.492
REMARK INTER:                  -4.249
REMARK INTRA:                  -0.243
REMARK UNBOUND:                -0.008
REMARK SMILES [NH3+][C@@H](CO)C(=O)[O-]
REMARK SMILES IDX 3 1 2 2 1 3 5 7 6 8 7 9 4 10
REMARK H PARENT 1 4 1 5 1 6 4 11
REMARK Flexibility Score: inf
ROOT
ATOM      1  C   UNL     1      -6.378  -9.358   0.038  1.00  0.00     0.227 C 
ENDROOT
BRANCH   1   2
ATOM      2  C   UNL     1      -6.907  -8.511   1.210  1.00  0.00     0.253 C 
BRANCH   2   3
ATOM      3  N   UNL     1      -7.611  -7.315   0.726  1.00  0.00    -0.348 N 
ATOM      4  H   UNL     1      -7.963  -7.483  -0.245  1.00  0.00     0.345 HD
ATOM      5  H   UNL     1      -8.432  -7.117   1.342  1.00  0.00     0.345 HD
ATOM      6  H   UNL     1      -6.978  -6.483   0.720  1.00  0.00     0.345 HD
ENDBRANCH   2   3
BRANCH   2   7
ATOM      7  C   UNL     1      -5.789  -8.135   2.148  1.00  0.00     0.102 C 
ATOM      8  O   UNL     1      -5.817  -7.028   2.746  1.00  0.00    -0.544 OA
ATOM      9  O   UNL     1      -4.750  -9.023   2.401  1.00  0.00    -0.544 OA
ENDBRANCH   2   7
ENDBRANCH   1   2
BRANCH   1  10
ATOM     10  O   UNL     1      -5.238  -8.779  -0.539  1.00  0.00    -0.390 OA
ATOM     11  H   UNL     1      -4.450  -9.205  -0.110  1.00  0.00     0.210 HD
ENDBRANCH   1  10
TORSDOF 4
ENDMDL
MODEL 6
REMARK VINA RESULT:    -3.791      8.490      9.307
REMARK INTER + INTRA:          -4.464
REMARK INTER:                  -4.079
REMARK INTRA:                  -0.384
REMARK UNBOUND:                -0.008
REMARK SMILES [NH3+][C@@H](CO)C(=O)[O-]
REMARK SMILES IDX 3 1 2 2 1 3 5 7 6 8 7 9 4 10
REMARK H PARENT 1 4 1 5 1 6 4 11
REMARK Flexibility Score: inf
ROOT
ATOM      1  C   UNL     1      -4.227  -4.542   4.107  1.00  0.00     0.227 C 
ENDROOT
BRANCH   1   2
ATOM      2  C   UNL     1      -4.486  -5.162   2.722  1.00  0.00     0.253 C 
BRANCH   2   3
ATOM      3  N   UNL     1      -5.792  -4.748   2.190  1.00  0.00    -0.348 N 
ATOM      4  H   UNL     1      -5.773  -3.726   1.966  1.00  0.00     0.345 HD
ATOM      5  H   UNL     1      -5.995  -5.273   1.308  1.00  0.00     0.345 HD
ATOM      6  H   UNL     1      -6.554  -4.932   2.882  1.00  0.00     0.345 HD
ENDBRANCH   2   3
BRANCH   2   7
ATOM      7  C   UNL     1      -4.377  -6.664   2.776  1.00  0.00     0.102 C 
ATOM      8  O   UNL     1      -3.252  -7.217   2.667  1.00  0.00    -0.544 OA
ATOM      9  O   UNL     1      -5.506  -7.446   2.997  1.00  0.00    -0.544 OA
ENDBRANCH   2   7
ENDBRANCH   1   2
BRANCH   1  10
ATOM     10  O   UNL     1      -4.187  -5.525   5.108  1.00  0.00    -0.390 OA
ATOM     11  H   UNL     1      -5.071  -5.976   5.105  1.00  0.00     0.210 HD
ENDBRANCH   1  10
TORSDOF 4
ENDMDL
MODEL 7
REMARK VINA RESULT:    -3.779      8.855      9.947
REMARK INTER + INTRA:          -4.450
REMARK INTER:                  -4.071
REMARK INTRA:                  -0.379
REMARK UNBOUND:                -0.008
REMARK SMILES [NH3+][C@@H](CO)C(=O)[O-]
REMARK SMILES IDX 3 1 2 2 1 3 5 7 6 8 7 9 4 10
REMARK H PARENT 1 4 1 5 1 6 4 11
REMARK Flexibility Score: inf
ROOT
ATOM      1  C   UNL     1      -5.991  -5.501   4.923  1.00  0.00     0.227 C 
ENDROOT
BRANCH   1   2
ATOM      2  C   UNL     1      -5.510  -5.017   3.543  1.00  0.00     0.253 C 
BRANCH   2   3
ATOM      3  N   UNL     1      -6.184  -5.746   2.460  1.00  0.00    -0.348 N 
ATOM      4  H   UNL     1      -5.870  -5.371   1.535  1.00  0.00     0.345 HD
ATOM      5  H   UNL     1      -5.929  -6.759   2.506  1.00  0.00     0.345 HD
ATOM      6  H   UNL     1      -7.223  -5.649   2.532  1.00  0.00     0.345 HD
ENDBRANCH   2   3
BRANCH   2   7
ATOM      7  C   UNL     1      -4.013  -5.137   3.424  1.00  0.00     0.102 C 
ATOM      8  O   UNL     1      -3.286  -4.122   3.587  1.00  0.00    -0.544 OA
ATOM      9  O   UNL     1      -3.420  -6.372   3.185  1.00  0.00    -0.544 OA
ENDBRANCH   2   7
ENDBRANCH   1   2
BRANCH   1  10
ATOM     10  O   UNL     1      -4.919  -5.650   5.816  1.00  0.00    -0.390 OA
ATOM     11  H   UNL     1      -5.173  -6.367   6.454  1.00  0.00     0.210 HD
ENDBRANCH   1  10
TORSDOF 4
ENDMDL
MODEL 8
REMARK VINA RESULT:    -3.760      4.626      4.802
REMARK INTER + INTRA:          -4.427
REMARK INTER:                  -4.062
REMARK INTRA:                  -0.366
REMARK UNBOUND:                -0.008
REMARK SMILES [NH3+][C@@H](CO)C(=O)[O-]
REMARK SMILES IDX 3 1 2 2 1 3 5 7 6 8 7 9 4 10
REMARK H PARENT 1 4 1 5 1 6 4 11
REMARK Flexibility Score: inf
ROOT
ATOM      1  C   UNL     1       4.221  -6.103  -1.362  1.00  0.00     0.227 C 
ENDROOT
BRANCH   1   2
ATOM      2  C   UNL     1       2.951  -6.620  -2.061  1.00  0.00     0.253 C 
BRANCH   2   3
ATOM      3  N   UNL     1       2.947  -6.264  -3.487  1.00  0.00    -0.348 N 
ATOM      4  H   UNL     1       3.462  -5.364  -3.627  1.00  0.00     0.345 HD
ATOM      5  H   UNL     1       3.434  -7.009  -4.037  1.00  0.00     0.345 HD
ATOM      6  H   UNL     1       1.970  -6.157  -3.845  1.00  0.00     0.345 HD
ENDBRANCH   2   3
BRANCH   2   7
ATOM      7  C   UNL     1       1.712  -6.106  -1.374  1.00  0.00     0.102 C 
ATOM      8  O   UNL     1       1.046  -6.868  -0.627  1.00  0.00    -0.544 OA
ATOM      9  O   UNL     1       1.325  -4.778  -1.518  1.00  0.00    -0.544 OA
ENDBRANCH   2   7
ENDBRANCH   1   2
BRANCH   1  10
ATOM     10  O   UNL     1       3.911  -5.416  -0.179  1.00  0.00    -0.390 OA
ATOM     11  H   UNL     1       4.229  -4.483  -0.295  1.00  0.00     0.210 HD
ENDBRANCH   1  10
TORSDOF 4
ENDMDL
MODEL 9
REMARK VINA RESULT:    -3.738      8.579      9.805
REMARK INTER + INTRA:          -4.401
REMARK INTER:                  -4.024
REMARK INTRA:                  -0.377
REMARK UNBOUND:                -0.008
REMARK SMILES [NH3+][C@@H](CO)C(=O)[O-]
REMARK SMILES IDX 3 1 2 2 1 3 5 7 6 8 7 9 4 10
REMARK H PARENT 1 4 1 5 1 6 4 11
REMARK Flexibility Score: inf
ROOT
ATOM      1  C   UNL     1      -6.372  -5.154   3.391  1.00  0.00     0.227 C 
ENDROOT
BRANCH   1   2
ATOM      2  C   UNL     1      -5.182  -5.886   4.038  1.00  0.00     0.253 C 
BRANCH   2   3
ATOM      3  N   UNL     1      -5.056  -5.540   5.461  1.00  0.00    -0.348 N 
ATOM      4  H   UNL     1      -4.630  -6.340   5.982  1.00  0.00     0.345 HD
ATOM      5  H   UNL     1      -4.429  -4.709   5.566  1.00  0.00     0.345 HD
ATOM      6  H   UNL     1      -5.989  -5.320   5.878  1.00  0.00     0.345 HD
ENDBRANCH   2   3
BRANCH   2   7
ATOM      7  C   UNL     1      -3.904  -5.595   3.297  1.00  0.00     0.102 C 
ATOM      8  O   UNL     1      -3.435  -6.444   2.495  1.00  0.00    -0.544 OA
ATOM      9  O   UNL     1      -3.260  -4.371   3.451  1.00  0.00    -0.544 OA
ENDBRANCH   2   7
ENDBRANCH   1   2
BRANCH   1  10
ATOM     10  O   UNL     1      -6.002  -4.547   2.180  1.00  0.00    -0.390 OA
ATOM     11  H   UNL     1      -6.614  -3.778   2.045  1.00  0.00     0.210 HD
ENDBRANCH   1  10
TORSDOF 4
ENDMDL
