MODEL 1
REMARK VINA RESULT:    -7.568      0.000      0.000
REMARK INTER + INTRA:          -9.552
REMARK INTER:                  -9.117
REMARK INTRA:                  -0.436
REMARK UNBOUND:                -0.436
REMARK SMILES O=c1c(O)c(-c2ccc(O)cc2O)oc2cc(O)cc(O)c12
REMARK SMILES IDX 5 1 3 2 2 3 1 4 22 5 20 6 19 7 17 8 16 9 15 10 14 11 6 12
REMARK SMILES IDX 8 13 7 14 9 15 11 16 12 17 10 18 13 20 4 22 21 24 18 26
REMARK H PARENT 10 19 13 21 4 23 21 25 18 27
REMARK Flexibility Score: inf
ROOT
ATOM      1  C   UNL     1      13.636  77.405 116.796  1.00  0.00     0.184 A 
ATOM      2  C   UNL     1      13.743  78.786 116.562  1.00  0.00     0.208 A 
ATOM      3  C   UNL     1      14.970  79.425 116.803  1.00  0.00     0.238 A 
ATOM      4  O   UNL     1      15.038  80.673 116.661  1.00  0.00    -0.285 OA
ATOM      5  C   UNL     1      16.088  78.665 117.227  1.00  0.00     0.111 A 
ATOM      6  C   UNL     1      17.392  79.201 117.459  1.00  0.00     0.134 A 
ATOM      7  C   UNL     1      18.394  78.373 117.980  1.00  0.00     0.093 A 
ATOM      8  C   UNL     1      18.159  77.017 118.218  1.00  0.00     0.123 A 
ATOM      9  C   UNL     1      16.907  76.474 117.942  1.00  0.00     0.094 A 
ATOM     10  C   UNL     1      15.874  77.281 117.457  1.00  0.00     0.146 A 
ATOM     11  O   UNL     1      14.691  76.726 117.228  1.00  0.00    -0.451 OA
ENDROOT
BRANCH   1  12
ATOM     12  C   UNL     1      12.369  76.671 116.575  1.00  0.00     0.063 A 
ATOM     13  C   UNL     1      10.698  75.751 115.062  1.00  0.00     0.047 A 
ATOM     14  C   UNL     1      11.907  76.419 115.271  1.00  0.00     0.020 A 
ATOM     15  C   UNL     1       9.927  75.335 116.153  1.00  0.00     0.119 A 
ATOM     16  C   UNL     1      10.369  75.593 117.454  1.00  0.00     0.093 A 
ATOM     17  C   UNL     1      11.583  76.261 117.672  1.00  0.00     0.130 A 
BRANCH  15  18
ATOM     18  O   UNL     1       8.719  74.668 115.956  1.00  0.00    -0.508 OA
ATOM     19  H   UNL     1       8.062  74.963 115.244  1.00  0.00     0.293 HD
ENDBRANCH  15  18
BRANCH  17  20
ATOM     20  O   UNL     1      12.015  76.507 118.976  1.00  0.00    -0.507 OA
ATOM     21  H   UNL     1      12.326  75.757 119.583  1.00  0.00     0.293 HD
ENDBRANCH  17  20
ENDBRANCH   1  12
BRANCH   2  22
ATOM     22  O   UNL     1      12.644  79.503 116.078  1.00  0.00    -0.502 OA
ATOM     23  H   UNL     1      12.715  80.466 115.774  1.00  0.00     0.293 HD
ENDBRANCH   2  22
BRANCH   6  24
ATOM     24  O   UNL     1      17.759  80.518 117.173  1.00  0.00    -0.507 OA
ATOM     25  H   UNL     1      18.491  81.029 117.644  1.00  0.00     0.293 HD
ENDBRANCH   6  24
BRANCH   8  26
ATOM     26  O   UNL     1      19.168  76.198 118.721  1.00  0.00    -0.508 OA
ATOM     27  H   UNL     1      18.968  75.458 119.384  1.00  0.00     0.293 HD
ENDBRANCH   8  26
TORSDOF 6
ENDMDL
MODEL 2
REMARK VINA RESULT:    -7.531      3.778      4.973
REMARK INTER + INTRA:          -9.508
REMARK INTER:                  -9.196
REMARK INTRA:                  -0.312
REMARK UNBOUND:                -0.436
REMARK SMILES O=c1c(O)c(-c2ccc(O)cc2O)oc2cc(O)cc(O)c12
REMARK SMILES IDX 5 1 3 2 2 3 1 4 22 5 20 6 19 7 17 8 16 9 15 10 14 11 6 12
REMARK SMILES IDX 8 13 7 14 9 15 11 16 12 17 10 18 13 20 4 22 21 24 18 26
REMARK H PARENT 10 19 13 21 4 23 21 25 18 27
REMARK Flexibility Score: inf
ROOT
ATOM      1  C   UNL     1      14.852  81.131 114.575  1.00  0.00     0.184 A 
ATOM      2  C   UNL     1      15.143  82.383 115.141  1.00  0.00     0.208 A 
ATOM      3  C   UNL     1      15.876  82.435 116.338  1.00  0.00     0.238 A 
ATOM      4  O   UNL     1      16.071  83.555 116.877  1.00  0.00    -0.285 OA
ATOM      5  C   UNL     1      16.353  81.237 116.925  1.00  0.00     0.111 A 
ATOM      6  C   UNL     1      17.144  81.174 118.112  1.00  0.00     0.134 A 
ATOM      7  C   UNL     1      17.467  79.927 118.660  1.00  0.00     0.093 A 
ATOM      8  C   UNL     1      17.083  78.741 118.030  1.00  0.00     0.123 A 
ATOM      9  C   UNL     1      16.359  78.793 116.842  1.00  0.00     0.094 A 
ATOM     10  C   UNL     1      15.988  80.021 116.290  1.00  0.00     0.146 A 
ATOM     11  O   UNL     1      15.281  80.024 115.167  1.00  0.00    -0.451 OA
ENDROOT
BRANCH   1  12
ATOM     12  C   UNL     1      14.072  81.002 113.322  1.00  0.00     0.063 A 
ATOM     13  C   UNL     1      13.749  81.547 110.971  1.00  0.00     0.047 A 
ATOM     14  C   UNL     1      14.499  81.645 112.146  1.00  0.00     0.020 A 
ATOM     15  C   UNL     1      12.556  80.815 110.958  1.00  0.00     0.119 A 
ATOM     16  C   UNL     1      12.114  80.186 112.125  1.00  0.00     0.093 A 
ATOM     17  C   UNL     1      12.863  80.277 113.308  1.00  0.00     0.130 A 
BRANCH  15  18
ATOM     18  O   UNL     1      11.800  80.712 109.792  1.00  0.00    -0.508 OA
ATOM     19  H   UNL     1      11.629  79.817 109.350  1.00  0.00     0.293 HD
ENDBRANCH  15  18
BRANCH  17  20
ATOM     20  O   UNL     1      12.414  79.638 114.464  1.00  0.00    -0.507 OA
ATOM     21  H   UNL     1      11.455  79.721 114.780  1.00  0.00     0.293 HD
ENDBRANCH  17  20
ENDBRANCH   1  12
BRANCH   2  22
ATOM     22  O   UNL     1      14.721  83.556 114.508  1.00  0.00    -0.502 OA
ATOM     23  H   UNL     1      13.747  83.738 114.295  1.00  0.00     0.293 HD
ENDBRANCH   2  22
BRANCH   6  24
ATOM     24  O   UNL     1      17.655  82.295 118.773  1.00  0.00    -0.507 OA
ATOM     25  H   UNL     1      17.347  82.624 119.676  1.00  0.00     0.293 HD
ENDBRANCH   6  24
BRANCH   8  26
ATOM     26  O   UNL     1      17.423  77.504 118.574  1.00  0.00    -0.508 OA
ATOM     27  H   UNL     1      16.907  77.106 119.350  1.00  0.00     0.293 HD
ENDBRANCH   8  26
TORSDOF 6
ENDMDL
MODEL 3
REMARK VINA RESULT:    -7.405      1.961      3.548
REMARK INTER + INTRA:          -9.355
REMARK INTER:                  -8.878
REMARK INTRA:                  -0.477
REMARK UNBOUND:                -0.436
REMARK SMILES O=c1c(O)c(-c2ccc(O)cc2O)oc2cc(O)cc(O)c12
REMARK SMILES IDX 5 1 3 2 2 3 1 4 22 5 20 6 19 7 17 8 16 9 15 10 14 11 6 12
REMARK SMILES IDX 8 13 7 14 9 15 11 16 12 17 10 18 13 20 4 22 21 24 18 26
REMARK H PARENT 10 19 13 21 4 23 21 25 18 27
REMARK Flexibility Score: inf
ROOT
ATOM      1  C   UNL     1      14.214  77.759 116.432  1.00  0.00     0.184 A 
ATOM      2  C   UNL     1      15.102  77.453 117.476  1.00  0.00     0.208 A 
ATOM      3  C   UNL     1      15.913  78.471 118.002  1.00  0.00     0.238 A 
ATOM      4  O   UNL     1      16.756  78.173 118.887  1.00  0.00    -0.285 OA
ATOM      5  C   UNL     1      15.790  79.794 117.512  1.00  0.00     0.111 A 
ATOM      6  C   UNL     1      16.529  80.913 118.001  1.00  0.00     0.134 A 
ATOM      7  C   UNL     1      16.403  82.155 117.365  1.00  0.00     0.093 A 
ATOM      8  C   UNL     1      15.517  82.333 116.300  1.00  0.00     0.123 A 
ATOM      9  C   UNL     1      14.751  81.260 115.852  1.00  0.00     0.094 A 
ATOM     10  C   UNL     1      14.881  80.000 116.439  1.00  0.00     0.146 A 
ATOM     11  O   UNL     1      14.147  79.001 115.967  1.00  0.00    -0.451 OA
ENDROOT
BRANCH   1  12
ATOM     12  C   UNL     1      13.340  76.731 115.822  1.00  0.00     0.063 A 
ATOM     13  C   UNL     1      13.034  74.844 114.315  1.00  0.00     0.047 A 
ATOM     14  C   UNL     1      13.864  75.796 114.911  1.00  0.00     0.020 A 
ATOM     15  C   UNL     1      11.666  74.820 114.610  1.00  0.00     0.119 A 
ATOM     16  C   UNL     1      11.132  75.754 115.501  1.00  0.00     0.093 A 
ATOM     17  C   UNL     1      11.959  76.712 116.106  1.00  0.00     0.130 A 
BRANCH  15  18
ATOM     18  O   UNL     1      10.829  73.875 114.019  1.00  0.00    -0.508 OA
ATOM     19  H   UNL     1      10.647  72.981 114.458  1.00  0.00     0.293 HD
ENDBRANCH  15  18
BRANCH  17  20
ATOM     20  O   UNL     1      11.413  77.635 116.999  1.00  0.00    -0.507 OA
ATOM     21  H   UNL     1      10.843  77.342 117.784  1.00  0.00     0.293 HD
ENDBRANCH  17  20
ENDBRANCH   1  12
BRANCH   2  22
ATOM     22  O   UNL     1      15.157  76.154 117.991  1.00  0.00    -0.502 OA
ATOM     23  H   UNL     1      14.392  75.498 117.895  1.00  0.00     0.293 HD
ENDBRANCH   2  22
BRANCH   6  24
ATOM     24  O   UNL     1      17.374  80.868 119.113  1.00  0.00    -0.507 OA
ATOM     25  H   UNL     1      18.381  80.919 119.076  1.00  0.00     0.293 HD
ENDBRANCH   6  24
BRANCH   8  26
ATOM     26  O   UNL     1      15.386  83.576 115.685  1.00  0.00    -0.508 OA
ATOM     27  H   UNL     1      15.031  84.381 116.188  1.00  0.00     0.293 HD
ENDBRANCH   8  26
TORSDOF 6
ENDMDL
MODEL 4
REMARK VINA RESULT:    -7.401      1.372      2.831
REMARK INTER + INTRA:          -9.351
REMARK INTER:                  -8.891
REMARK INTRA:                  -0.460
REMARK UNBOUND:                -0.436
REMARK SMILES O=c1c(O)c(-c2ccc(O)cc2O)oc2cc(O)cc(O)c12
REMARK SMILES IDX 5 1 3 2 2 3 1 4 22 5 20 6 19 7 17 8 16 9 15 10 14 11 6 12
REMARK SMILES IDX 8 13 7 14 9 15 11 16 12 17 10 18 13 20 4 22 21 24 18 26
REMARK H PARENT 10 19 13 21 4 23 21 25 18 27
REMARK Flexibility Score: inf
ROOT
ATOM      1  C   UNL     1      14.136  76.552 117.028  1.00  0.00     0.184 A 
ATOM      2  C   UNL     1      15.163  75.595 116.982  1.00  0.00     0.208 A 
ATOM      3  C   UNL     1      16.456  75.961 117.389  1.00  0.00     0.238 A 
ATOM      4  O   UNL     1      17.385  75.121 117.276  1.00  0.00    -0.285 OA
ATOM      5  C   UNL     1      16.694  77.267 117.886  1.00  0.00     0.111 A 
ATOM      6  C   UNL     1      17.955  77.734 118.367  1.00  0.00     0.134 A 
ATOM      7  C   UNL     1      18.098  79.079 118.732  1.00  0.00     0.093 A 
ATOM      8  C   UNL     1      17.012  79.956 118.695  1.00  0.00     0.123 A 
ATOM      9  C   UNL     1      15.765  79.495 118.279  1.00  0.00     0.094 A 
ATOM     10  C   UNL     1      15.598  78.170 117.872  1.00  0.00     0.146 A 
ATOM     11  O   UNL     1      14.398  77.778 117.464  1.00  0.00    -0.451 OA
ENDROOT
BRANCH   1  12
ATOM     12  C   UNL     1      12.753  76.237 116.602  1.00  0.00     0.063 A 
ATOM     13  C   UNL     1      11.142  75.776 114.836  1.00  0.00     0.047 A 
ATOM     14  C   UNL     1      12.451  76.046 115.241  1.00  0.00     0.020 A 
ATOM     15  C   UNL     1      10.113  75.705 115.782  1.00  0.00     0.119 A 
ATOM     16  C   UNL     1      10.400  75.909 117.135  1.00  0.00     0.093 A 
ATOM     17  C   UNL     1      11.713  76.177 117.551  1.00  0.00     0.130 A 
BRANCH  15  18
ATOM     18  O   UNL     1       8.804  75.437 115.389  1.00  0.00    -0.508 OA
ATOM     19  H   UNL     1       8.380  75.914 114.603  1.00  0.00     0.293 HD
ENDBRANCH  15  18
BRANCH  17  20
ATOM     20  O   UNL     1      11.985  76.372 118.905  1.00  0.00    -0.507 OA
ATOM     21  H   UNL     1      11.907  75.617 119.577  1.00  0.00     0.293 HD
ENDBRANCH  17  20
ENDBRANCH   1  12
BRANCH   2  22
ATOM     22  O   UNL     1      14.889  74.292 116.553  1.00  0.00    -0.502 OA
ATOM     23  H   UNL     1      15.214  73.475 117.055  1.00  0.00     0.293 HD
ENDBRANCH   2  22
BRANCH   6  24
ATOM     24  O   UNL     1      19.081  76.923 118.529  1.00  0.00    -0.507 OA
ATOM     25  H   UNL     1      19.494  76.677 119.416  1.00  0.00     0.293 HD
ENDBRANCH   6  24
BRANCH   8  26
ATOM     26  O   UNL     1      17.160  81.288 119.077  1.00  0.00    -0.508 OA
ATOM     27  H   UNL     1      17.820  81.562 119.796  1.00  0.00     0.293 HD
ENDBRANCH   8  26
TORSDOF 6
ENDMDL
MODEL 5
REMARK VINA RESULT:    -7.338      3.355      6.355
REMARK INTER + INTRA:          -9.274
REMARK INTER:                  -8.804
REMARK INTRA:                  -0.471
REMARK UNBOUND:                -0.436
REMARK SMILES O=c1c(O)c(-c2ccc(O)cc2O)oc2cc(O)cc(O)c12
REMARK SMILES IDX 5 1 3 2 2 3 1 4 22 5 20 6 19 7 17 8 16 9 15 10 14 11 6 12
REMARK SMILES IDX 8 13 7 14 9 15 11 16 12 17 10 18 13 20 4 22 21 24 18 26
REMARK H PARENT 10 19 13 21 4 23 21 25 18 27
REMARK Flexibility Score: inf
ROOT
ATOM      1  C   UNL     1      15.520  79.770 115.515  1.00  0.00     0.184 A 
ATOM      2  C   UNL     1      15.453  81.170 115.612  1.00  0.00     0.208 A 
ATOM      3  C   UNL     1      14.886  81.900 114.555  1.00  0.00     0.238 A 
ATOM      4  O   UNL     1      14.895  83.156 114.615  1.00  0.00    -0.285 OA
ATOM      5  C   UNL     1      14.346  81.216 113.437  1.00  0.00     0.111 A 
ATOM      6  C   UNL     1      13.707  81.851 112.328  1.00  0.00     0.134 A 
ATOM      7  C   UNL     1      13.309  81.081 111.229  1.00  0.00     0.093 A 
ATOM      8  C   UNL     1      13.467  79.693 111.224  1.00  0.00     0.123 A 
ATOM      9  C   UNL     1      14.038  79.059 112.325  1.00  0.00     0.094 A 
ATOM     10  C   UNL     1      14.481  79.803 113.421  1.00  0.00     0.146 A 
ATOM     11  O   UNL     1      15.039  79.160 114.439  1.00  0.00    -0.451 OA
ENDROOT
BRANCH   1  12
ATOM     12  C   UNL     1      16.117  78.941 116.587  1.00  0.00     0.063 A 
ATOM     13  C   UNL     1      18.075  77.987 117.675  1.00  0.00     0.047 A 
ATOM     14  C   UNL     1      17.512  78.792 116.682  1.00  0.00     0.020 A 
ATOM     15  C   UNL     1      17.250  77.310 118.582  1.00  0.00     0.119 A 
ATOM     16  C   UNL     1      15.862  77.438 118.487  1.00  0.00     0.093 A 
ATOM     17  C   UNL     1      15.290  78.247 117.493  1.00  0.00     0.130 A 
BRANCH  15  18
ATOM     18  O   UNL     1      17.801  76.503 119.576  1.00  0.00    -0.508 OA
ATOM     19  H   UNL     1      18.632  75.950 119.409  1.00  0.00     0.293 HD
ENDBRANCH  15  18
BRANCH  17  20
ATOM     20  O   UNL     1      13.902  78.371 117.415  1.00  0.00    -0.507 OA
ATOM     21  H   UNL     1      13.286  77.591 117.610  1.00  0.00     0.293 HD
ENDBRANCH  17  20
ENDBRANCH   1  12
BRANCH   2  22
ATOM     22  O   UNL     1      15.930  81.818 116.755  1.00  0.00    -0.502 OA
ATOM     23  H   UNL     1      15.587  81.605 117.684  1.00  0.00     0.293 HD
ENDBRANCH   2  22
BRANCH   6  24
ATOM     24  O   UNL     1      13.420  83.217 112.268  1.00  0.00    -0.507 OA
ATOM     25  H   UNL     1      12.931  83.672 111.511  1.00  0.00     0.293 HD
ENDBRANCH   6  24
BRANCH   8  26
ATOM     26  O   UNL     1      13.052  78.934 110.133  1.00  0.00    -0.508 OA
ATOM     27  H   UNL     1      13.665  78.257 109.694  1.00  0.00     0.293 HD
ENDBRANCH   8  26
TORSDOF 6
ENDMDL
MODEL 6
REMARK VINA RESULT:    -7.299      1.774      6.840
REMARK INTER + INTRA:          -9.228
REMARK INTER:                  -8.762
REMARK INTRA:                  -0.466
REMARK UNBOUND:                -0.436
REMARK SMILES O=c1c(O)c(-c2ccc(O)cc2O)oc2cc(O)cc(O)c12
REMARK SMILES IDX 5 1 3 2 2 3 1 4 22 5 20 6 19 7 17 8 16 9 15 10 14 11 6 12
REMARK SMILES IDX 8 13 7 14 9 15 11 16 12 17 10 18 13 20 4 22 21 24 18 26
REMARK H PARENT 10 19 13 21 4 23 21 25 18 27
REMARK Flexibility Score: inf
ROOT
ATOM      1  C   UNL     1      13.424  76.794 116.965  1.00  0.00     0.184 A 
ATOM      2  C   UNL     1      12.307  76.484 117.759  1.00  0.00     0.208 A 
ATOM      3  C   UNL     1      11.125  76.056 117.136  1.00  0.00     0.238 A 
ATOM      4  O   UNL     1      10.108  75.850 117.847  1.00  0.00    -0.285 OA
ATOM      5  C   UNL     1      11.090  75.892 115.729  1.00  0.00     0.111 A 
ATOM      6  C   UNL     1       9.959  75.421 114.995  1.00  0.00     0.134 A 
ATOM      7  C   UNL     1      10.005  75.403 113.595  1.00  0.00     0.093 A 
ATOM      8  C   UNL     1      11.161  75.778 112.906  1.00  0.00     0.123 A 
ATOM      9  C   UNL     1      12.287  76.186 113.616  1.00  0.00     0.094 A 
ATOM     10  C   UNL     1      12.261  76.252 115.011  1.00  0.00     0.146 A 
ATOM     11  O   UNL     1      13.350  76.666 115.646  1.00  0.00    -0.451 OA
ENDROOT
BRANCH   1  12
ATOM     12  C   UNL     1      14.698  77.264 117.556  1.00  0.00     0.063 A 
ATOM     13  C   UNL     1      16.076  79.065 118.441  1.00  0.00     0.047 A 
ATOM     14  C   UNL     1      14.866  78.615 117.909  1.00  0.00     0.020 A 
ATOM     15  C   UNL     1      17.142  78.173 118.617  1.00  0.00     0.119 A 
ATOM     16  C   UNL     1      16.991  76.832 118.255  1.00  0.00     0.093 A 
ATOM     17  C   UNL     1      15.777  76.372 117.722  1.00  0.00     0.130 A 
BRANCH  15  18
ATOM     18  O   UNL     1      18.354  78.612 119.145  1.00  0.00    -0.508 OA
ATOM     19  H   UNL     1      19.228  78.157 118.912  1.00  0.00     0.293 HD
ENDBRANCH  15  18
BRANCH  17  20
ATOM     20  O   UNL     1      15.638  75.029 117.372  1.00  0.00    -0.507 OA
ATOM     21  H   UNL     1      16.186  74.614 116.628  1.00  0.00     0.293 HD
ENDBRANCH  17  20
ENDBRANCH   1  12
BRANCH   2  22
ATOM     22  O   UNL     1      12.386  76.588 119.152  1.00  0.00    -0.502 OA
ATOM     23  H   UNL     1      12.792  77.392 119.615  1.00  0.00     0.293 HD
ENDBRANCH   2  22
BRANCH   6  24
ATOM     24  O   UNL     1       8.787  74.940 115.585  1.00  0.00    -0.507 OA
ATOM     25  H   UNL     1       8.697  74.048 116.047  1.00  0.00     0.293 HD
ENDBRANCH   6  24
BRANCH   8  26
ATOM     26  O   UNL     1      11.201  75.741 111.514  1.00  0.00    -0.508 OA
ATOM     27  H   UNL     1      11.918  76.231 110.991  1.00  0.00     0.293 HD
ENDBRANCH   8  26
TORSDOF 6
ENDMDL
MODEL 7
REMARK VINA RESULT:    -7.279      1.894      6.773
REMARK INTER + INTRA:          -9.203
REMARK INTER:                  -8.836
REMARK INTRA:                  -0.368
REMARK UNBOUND:                -0.436
REMARK SMILES O=c1c(O)c(-c2ccc(O)cc2O)oc2cc(O)cc(O)c12
REMARK SMILES IDX 5 1 3 2 2 3 1 4 22 5 20 6 19 7 17 8 16 9 15 10 14 11 6 12
REMARK SMILES IDX 8 13 7 14 9 15 11 16 12 17 10 18 13 20 4 22 21 24 18 26
REMARK H PARENT 10 19 13 21 4 23 21 25 18 27
REMARK Flexibility Score: inf
ROOT
ATOM      1  C   UNL     1      13.885  78.226 115.691  1.00  0.00     0.184 A 
ATOM      2  C   UNL     1      13.741  77.860 114.343  1.00  0.00     0.208 A 
ATOM      3  C   UNL     1      12.718  76.968 113.985  1.00  0.00     0.238 A 
ATOM      4  O   UNL     1      12.640  76.588 112.788  1.00  0.00    -0.285 OA
ATOM      5  C   UNL     1      11.819  76.493 114.972  1.00  0.00     0.111 A 
ATOM      6  C   UNL     1      10.718  75.621 114.716  1.00  0.00     0.134 A 
ATOM      7  C   UNL     1       9.962  75.130 115.788  1.00  0.00     0.093 A 
ATOM      8  C   UNL     1      10.227  75.531 117.100  1.00  0.00     0.123 A 
ATOM      9  C   UNL     1      11.264  76.425 117.354  1.00  0.00     0.094 A 
ATOM     10  C   UNL     1      12.061  76.902 116.311  1.00  0.00     0.146 A 
ATOM     11  O   UNL     1      13.051  77.736 116.600  1.00  0.00    -0.451 OA
ENDROOT
BRANCH   1  12
ATOM     12  C   UNL     1      14.951  79.152 116.140  1.00  0.00     0.063 A 
ATOM     13  C   UNL     1      15.693  81.401 116.703  1.00  0.00     0.047 A 
ATOM     14  C   UNL     1      14.682  80.523 116.307  1.00  0.00     0.020 A 
ATOM     15  C   UNL     1      16.991  80.925 116.928  1.00  0.00     0.119 A 
ATOM     16  C   UNL     1      17.272  79.567 116.750  1.00  0.00     0.093 A 
ATOM     17  C   UNL     1      16.261  78.678 116.355  1.00  0.00     0.130 A 
BRANCH  15  18
ATOM     18  O   UNL     1      18.007  81.792 117.323  1.00  0.00    -0.508 OA
ATOM     19  H   UNL     1      17.971  82.281 118.209  1.00  0.00     0.293 HD
ENDBRANCH  15  18
BRANCH  17  20
ATOM     20  O   UNL     1      16.555  77.324 116.188  1.00  0.00    -0.507 OA
ATOM     21  H   UNL     1      17.066  76.986 115.381  1.00  0.00     0.293 HD
ENDBRANCH  17  20
ENDBRANCH   1  12
BRANCH   2  22
ATOM     22  O   UNL     1      14.597  78.395 113.375  1.00  0.00    -0.502 OA
ATOM     23  H   UNL     1      15.110  79.256 113.519  1.00  0.00     0.293 HD
ENDBRANCH   2  22
BRANCH   6  24
ATOM     24  O   UNL     1      10.312  75.228 113.438  1.00  0.00    -0.507 OA
ATOM     25  H   UNL     1       9.723  75.773 112.826  1.00  0.00     0.293 HD
ENDBRANCH   6  24
BRANCH   8  26
ATOM     26  O   UNL     1       9.459  75.050 118.158  1.00  0.00    -0.508 OA
ATOM     27  H   UNL     1       9.870  74.846 119.062  1.00  0.00     0.293 HD
ENDBRANCH   8  26
TORSDOF 6
ENDMDL
MODEL 8
REMARK VINA RESULT:    -7.247      6.047      7.844
REMARK INTER + INTRA:          -9.166
REMARK INTER:                  -8.849
REMARK INTRA:                  -0.317
REMARK UNBOUND:                -0.436
REMARK SMILES O=c1c(O)c(-c2ccc(O)cc2O)oc2cc(O)cc(O)c12
REMARK SMILES IDX 5 1 3 2 2 3 1 4 22 5 20 6 19 7 17 8 16 9 15 10 14 11 6 12
REMARK SMILES IDX 8 13 7 14 9 15 11 16 12 17 10 18 13 20 4 22 21 24 18 26
REMARK H PARENT 10 19 13 21 4 23 21 25 18 27
REMARK Flexibility Score: inf
ROOT
ATOM      1  C   UNL     1      13.087  81.878 111.818  1.00  0.00     0.184 A 
ATOM      2  C   UNL     1      13.463  80.525 111.873  1.00  0.00     0.208 A 
ATOM      3  C   UNL     1      14.246  80.079 112.950  1.00  0.00     0.238 A 
ATOM      4  O   UNL     1      14.639  78.885 112.955  1.00  0.00    -0.285 OA
ATOM      5  C   UNL     1      14.601  80.981 113.984  1.00  0.00     0.111 A 
ATOM      6  C   UNL     1      15.354  80.628 115.145  1.00  0.00     0.134 A 
ATOM      7  C   UNL     1      15.738  81.628 116.048  1.00  0.00     0.093 A 
ATOM      8  C   UNL     1      15.341  82.955 115.866  1.00  0.00     0.123 A 
ATOM      9  C   UNL     1      14.560  83.298 114.766  1.00  0.00     0.094 A 
ATOM     10  C   UNL     1      14.193  82.332 113.826  1.00  0.00     0.146 A 
ATOM     11  O   UNL     1      13.465  82.707 112.782  1.00  0.00    -0.451 OA
ENDROOT
BRANCH   1  12
ATOM     12  C   UNL     1      12.273  82.418 110.704  1.00  0.00     0.063 A 
ATOM     13  C   UNL     1      10.259  82.353 109.338  1.00  0.00     0.047 A 
ATOM     14  C   UNL     1      11.015  81.863 110.405  1.00  0.00     0.020 A 
ATOM     15  C   UNL     1      10.753  83.398 108.547  1.00  0.00     0.119 A 
ATOM     16  C   UNL     1      12.008  83.945 108.826  1.00  0.00     0.093 A 
ATOM     17  C   UNL     1      12.772  83.460 109.898  1.00  0.00     0.130 A 
BRANCH  15  18
ATOM     18  O   UNL     1      10.007  83.894 107.479  1.00  0.00    -0.508 OA
ATOM     19  H   UNL     1       9.432  84.721 107.575  1.00  0.00     0.293 HD
ENDBRANCH  15  18
BRANCH  17  20
ATOM     20  O   UNL     1      14.021  84.021 110.169  1.00  0.00    -0.507 OA
ATOM     21  H   UNL     1      14.881  83.517 109.991  1.00  0.00     0.293 HD
ENDBRANCH  17  20
ENDBRANCH   1  12
BRANCH   2  22
ATOM     22  O   UNL     1      13.043  79.639 110.876  1.00  0.00    -0.502 OA
ATOM     23  H   UNL     1      12.076  79.568 110.584  1.00  0.00     0.293 HD
ENDBRANCH   2  22
BRANCH   6  24
ATOM     24  O   UNL     1      15.726  79.321 115.469  1.00  0.00    -0.507 OA
ATOM     25  H   UNL     1      15.646  78.908 116.386  1.00  0.00     0.293 HD
ENDBRANCH   6  24
BRANCH   8  26
ATOM     26  O   UNL     1      15.714  83.939 116.779  1.00  0.00    -0.508 OA
ATOM     27  H   UNL     1      15.176  84.113 117.620  1.00  0.00     0.293 HD
ENDBRANCH   8  26
TORSDOF 6
ENDMDL
MODEL 9
REMARK VINA RESULT:    -7.237      3.149      5.655
REMARK INTER + INTRA:          -9.153
REMARK INTER:                  -8.699
REMARK INTRA:                  -0.454
REMARK UNBOUND:                -0.436
REMARK SMILES O=c1c(O)c(-c2ccc(O)cc2O)oc2cc(O)cc(O)c12
REMARK SMILES IDX 5 1 3 2 2 3 1 4 22 5 20 6 19 7 17 8 16 9 15 10 14 11 6 12
REMARK SMILES IDX 8 13 7 14 9 15 11 16 12 17 10 18 13 20 4 22 21 24 18 26
REMARK H PARENT 10 19 13 21 4 23 21 25 18 27
REMARK Flexibility Score: inf
ROOT
ATOM      1  C   UNL     1      14.861  80.302 115.203  1.00  0.00     0.184 A 
ATOM      2  C   UNL     1      13.818  79.426 115.547  1.00  0.00     0.208 A 
ATOM      3  C   UNL     1      14.033  78.474 116.556  1.00  0.00     0.238 A 
ATOM      4  O   UNL     1      13.121  77.646 116.809  1.00  0.00    -0.285 OA
ATOM      5  C   UNL     1      15.271  78.445 117.245  1.00  0.00     0.111 A 
ATOM      6  C   UNL     1      15.584  77.552 118.315  1.00  0.00     0.134 A 
ATOM      7  C   UNL     1      16.879  77.541 118.848  1.00  0.00     0.093 A 
ATOM      8  C   UNL     1      17.853  78.433 118.394  1.00  0.00     0.123 A 
ATOM      9  C   UNL     1      17.541  79.345 117.389  1.00  0.00     0.094 A 
ATOM     10  C   UNL     1      16.270  79.355 116.810  1.00  0.00     0.146 A 
ATOM     11  O   UNL     1      16.022  80.227 115.840  1.00  0.00    -0.451 OA
ENDROOT
BRANCH   1  12
ATOM     12  C   UNL     1      14.707  81.321 114.139  1.00  0.00     0.063 A 
ATOM     13  C   UNL     1      14.500  81.898 111.783  1.00  0.00     0.047 A 
ATOM     14  C   UNL     1      14.617  80.936 112.789  1.00  0.00     0.020 A 
ATOM     15  C   UNL     1      14.482  83.259 112.110  1.00  0.00     0.119 A 
ATOM     16  C   UNL     1      14.586  83.653 113.446  1.00  0.00     0.093 A 
ATOM     17  C   UNL     1      14.701  82.693 114.463  1.00  0.00     0.130 A 
BRANCH  15  18
ATOM     18  O   UNL     1      14.366  84.227 111.114  1.00  0.00    -0.508 OA
ATOM     19  H   UNL     1      13.604  84.893 111.109  1.00  0.00     0.293 HD
ENDBRANCH  15  18
BRANCH  17  20
ATOM     20  O   UNL     1      14.797  83.100 115.794  1.00  0.00    -0.507 OA
ATOM     21  H   UNL     1      14.759  84.079 116.055  1.00  0.00     0.293 HD
ENDBRANCH  17  20
ENDBRANCH   1  12
BRANCH   2  22
ATOM     22  O   UNL     1      12.582  79.519 114.901  1.00  0.00    -0.502 OA
ATOM     23  H   UNL     1      12.226  78.784 114.301  1.00  0.00     0.293 HD
ENDBRANCH   2  22
BRANCH   6  24
ATOM     24  O   UNL     1      14.662  76.682 118.903  1.00  0.00    -0.507 OA
ATOM     25  H   UNL     1      13.674  76.661 118.698  1.00  0.00     0.293 HD
ENDBRANCH   6  24
BRANCH   8  26
ATOM     26  O   UNL     1      19.134  78.426 118.942  1.00  0.00    -0.508 OA
ATOM     27  H   UNL     1      19.292  78.632 119.922  1.00  0.00     0.293 HD
ENDBRANCH   8  26
TORSDOF 6
ENDMDL
