MODEL 1
REMARK VINA RESULT:     5.285      0.000      0.000
REMARK INTER + INTRA:           8.039
REMARK INTER:                   8.374
REMARK INTRA:                  -0.336
REMARK UNBOUND:                -0.336
REMARK SMILES CCCCCCCCCCCC(=O)[O-]
REMARK SMILES IDX 7 1 8 2 9 3 10 4 11 5 12 6 13 7 14 8 6 9 5 10 4 11 3 12 2 13
REMARK SMILES IDX 1 14
REMARK H PARENT
REMARK Flexibility Score: inf
ROOT
ATOM      1  C   UNL     1      15.525 -15.808   7.011  1.00  0.00     0.000 C 
ENDROOT
BRANCH   1   2
ATOM      2  C   UNL     1      14.673 -14.530   7.099  1.00  0.00     0.000 C 
BRANCH   2   3
ATOM      3  C   UNL     1      13.472 -14.549   6.137  1.00  0.00     0.000 C 
BRANCH   3   4
ATOM      4  C   UNL     1      12.600 -13.290   6.258  1.00  0.00     0.006 C 
BRANCH   4   5
ATOM      5  C   UNL     1      11.296 -13.399   5.457  1.00  0.00     0.053 C 
BRANCH   5   6
ATOM      6  C   UNL     1      10.499 -12.138   5.585  1.00  0.00     0.041 C 
ATOM      7  O   UNL     1      11.067 -11.060   5.901  1.00  0.00    -0.550 OA
ATOM      8  O   UNL     1       9.123 -12.164   5.402  1.00  0.00    -0.550 OA
ENDBRANCH   5   6
ENDBRANCH   4   5
ENDBRANCH   3   4
ENDBRANCH   2   3
ENDBRANCH   1   2
BRANCH   1   9
ATOM      9  C   UNL     1      17.013 -15.508   6.762  1.00  0.00     0.000 C 
BRANCH   9  10
ATOM     10  C   UNL     1      17.917 -16.712   7.073  1.00  0.00    -0.000 C 
BRANCH  10  11
ATOM     11  C   UNL     1      19.125 -16.807   6.126  1.00  0.00    -0.000 C 
BRANCH  11  12
ATOM     12  C   UNL     1      18.808 -16.291   4.712  1.00  0.00    -0.000 C 
BRANCH  12  13
ATOM     13  C   UNL     1      19.056 -17.352   3.629  1.00  0.00    -0.003 C 
ATOM     14  C   UNL     1      18.140 -17.134   2.429  1.00  0.00     0.004 C 
ENDBRANCH  12  13
ENDBRANCH  11  12
ENDBRANCH  10  11
ENDBRANCH   9  10
ENDBRANCH   1   9
TORSDOF 10
ENDMDL
MODEL 2
REMARK VINA RESULT:     5.358      1.057      1.669
REMARK INTER + INTRA:           8.155
REMARK INTER:                   8.323
REMARK INTRA:                  -0.168
REMARK UNBOUND:                -0.336
REMARK SMILES CCCCCCCCCCCC(=O)[O-]
REMARK SMILES IDX 7 1 8 2 9 3 10 4 11 5 12 6 13 7 14 8 6 9 5 10 4 11 3 12 2 13
REMARK SMILES IDX 1 14
REMARK H PARENT
REMARK Flexibility Score: inf
ROOT
ATOM      1  C   UNL     1      14.803 -14.527   7.129  1.00  0.00     0.000 C 
ENDROOT
BRANCH   1   2
ATOM      2  C   UNL     1      13.455 -14.580   6.391  1.00  0.00     0.000 C 
BRANCH   2   3
ATOM      3  C   UNL     1      12.613 -13.309   6.600  1.00  0.00     0.000 C 
BRANCH   3   4
ATOM      4  C   UNL     1      11.476 -13.180   5.574  1.00  0.00     0.006 C 
BRANCH   4   5
ATOM      5  C   UNL     1      10.599 -11.944   5.821  1.00  0.00     0.053 C 
BRANCH   5   6
ATOM      6  C   UNL     1      11.312 -10.704   5.382  1.00  0.00     0.041 C 
ATOM      7  O   UNL     1      10.872  -9.571   5.712  1.00  0.00    -0.550 OA
ATOM      8  O   UNL     1      12.434 -10.798   4.570  1.00  0.00    -0.550 OA
ENDBRANCH   5   6
ENDBRANCH   4   5
ENDBRANCH   3   4
ENDBRANCH   2   3
ENDBRANCH   1   2
BRANCH   1   9
ATOM      9  C   UNL     1      15.612 -15.826   6.971  1.00  0.00     0.000 C 
BRANCH   9  10
ATOM     10  C   UNL     1      17.129 -15.577   6.948  1.00  0.00    -0.000 C 
BRANCH  10  11
ATOM     11  C   UNL     1      17.938 -16.866   6.726  1.00  0.00    -0.000 C 
BRANCH  11  12
ATOM     12  C   UNL     1      19.109 -16.667   5.749  1.00  0.00    -0.000 C 
BRANCH  12  13
ATOM     13  C   UNL     1      19.118 -17.708   4.620  1.00  0.00    -0.003 C 
ATOM     14  C   UNL     1      18.727 -17.076   3.287  1.00  0.00     0.004 C 
ENDBRANCH  12  13
ENDBRANCH  11  12
ENDBRANCH  10  11
ENDBRANCH   9  10
ENDBRANCH   1   9
TORSDOF 10
ENDMDL
MODEL 3
REMARK VINA RESULT:     5.783      4.036      7.929
REMARK INTER + INTRA:           8.828
REMARK INTER:                   9.233
REMARK INTRA:                  -0.405
REMARK UNBOUND:                -0.336
REMARK SMILES CCCCCCCCCCCC(=O)[O-]
REMARK SMILES IDX 7 1 8 2 9 3 10 4 11 5 12 6 13 7 14 8 6 9 5 10 4 11 3 12 2 13
REMARK SMILES IDX 1 14
REMARK H PARENT
REMARK Flexibility Score: inf
ROOT
ATOM      1  C   UNL     1      14.943 -14.314   6.996  1.00  0.00     0.000 C 
ENDROOT
BRANCH   1   2
ATOM      2  C   UNL     1      14.893 -15.835   6.776  1.00  0.00     0.000 C 
BRANCH   2   3
ATOM      3  C   UNL     1      16.239 -16.522   7.064  1.00  0.00     0.000 C 
BRANCH   3   4
ATOM      4  C   UNL     1      17.442 -15.620   6.743  1.00  0.00     0.006 C 
BRANCH   4   5
ATOM      5  C   UNL     1      18.766 -16.396   6.709  1.00  0.00     0.053 C 
BRANCH   5   6
ATOM      6  C   UNL     1      18.992 -16.981   5.350  1.00  0.00     0.041 C 
ATOM      7  O   UNL     1      19.018 -16.234   4.336  1.00  0.00    -0.550 OA
ATOM      8  O   UNL     1      19.125 -18.355   5.198  1.00  0.00    -0.550 OA
ENDBRANCH   5   6
ENDBRANCH   4   5
ENDBRANCH   3   4
ENDBRANCH   2   3
ENDBRANCH   1   2
BRANCH   1   9
ATOM      9  C   UNL     1      13.553 -13.712   7.265  1.00  0.00     0.000 C 
BRANCH   9  10
ATOM     10  C   UNL     1      12.687 -13.637   5.997  1.00  0.00    -0.000 C 
BRANCH  10  11
ATOM     11  C   UNL     1      12.282 -12.197   5.639  1.00  0.00    -0.000 C 
BRANCH  11  12
ATOM     12  C   UNL     1      10.822 -11.887   6.005  1.00  0.00    -0.000 C 
BRANCH  12  13
ATOM     13  C   UNL     1       9.826 -12.811   5.289  1.00  0.00    -0.003 C 
ATOM     14  C   UNL     1       8.446 -12.165   5.198  1.00  0.00     0.004 C 
ENDBRANCH  12  13
ENDBRANCH  11  12
ENDBRANCH  10  11
ENDBRANCH   9  10
ENDBRANCH   1   9
TORSDOF 10
ENDMDL
MODEL 4
REMARK VINA RESULT:     6.782      5.649      7.092
REMARK INTER + INTRA:          10.412
REMARK INTER:                  10.777
REMARK INTRA:                  -0.365
REMARK UNBOUND:                -0.336
REMARK SMILES CCCCCCCCCCCC(=O)[O-]
REMARK SMILES IDX 7 1 8 2 9 3 10 4 11 5 12 6 13 7 14 8 6 9 5 10 4 11 3 12 2 13
REMARK SMILES IDX 1 14
REMARK H PARENT
REMARK Flexibility Score: inf
ROOT
ATOM      1  C   UNL     1      14.005  -9.945   3.540  1.00  0.00     0.000 C 
ENDROOT
BRANCH   1   2
ATOM      2  C   UNL     1      12.964 -10.902   4.143  1.00  0.00     0.000 C 
BRANCH   2   3
ATOM      3  C   UNL     1      11.826 -10.162   4.868  1.00  0.00     0.000 C 
BRANCH   3   4
ATOM      4  C   UNL     1      10.966 -11.101   5.729  1.00  0.00     0.006 C 
BRANCH   4   5
ATOM      5  C   UNL     1      11.240 -12.582   5.437  1.00  0.00     0.053 C 
BRANCH   5   6
ATOM      6  C   UNL     1       9.954 -13.319   5.231  1.00  0.00     0.041 C 
ATOM      7  O   UNL     1       9.934 -14.578   5.257  1.00  0.00    -0.550 OA
ATOM      8  O   UNL     1       8.787 -12.617   4.963  1.00  0.00    -0.550 OA
ENDBRANCH   5   6
ENDBRANCH   4   5
ENDBRANCH   3   4
ENDBRANCH   2   3
ENDBRANCH   1   2
BRANCH   1   9
ATOM      9  C   UNL     1      14.696 -10.534   2.298  1.00  0.00     0.000 C 
BRANCH   9  10
ATOM     10  C   UNL     1      15.935  -9.728   1.875  1.00  0.00    -0.000 C 
BRANCH  10  11
ATOM     11  C   UNL     1      15.868  -8.258   2.322  1.00  0.00    -0.000 C 
BRANCH  11  12
ATOM     12  C   UNL     1      17.245  -7.574   2.312  1.00  0.00    -0.000 C 
BRANCH  12  13
ATOM     13  C   UNL     1      17.167  -6.098   1.896  1.00  0.00    -0.003 C 
ATOM     14  C   UNL     1      18.551  -5.455   1.893  1.00  0.00     0.004 C 
ENDBRANCH  12  13
ENDBRANCH  11  12
ENDBRANCH  10  11
ENDBRANCH   9  10
ENDBRANCH   1   9
TORSDOF 10
ENDMDL
