MODEL 1
REMARK VINA RESULT:    -4.724      0.000      0.000
REMARK INTER + INTRA:         -10.985
REMARK INTER:                  -8.591
REMARK INTRA:                  -2.394
REMARK UNBOUND:                -2.394
REMARK SMILES CCCCCCCCCCCCCC[C@H](C)C(=O)[O-]
REMARK SMILES IDX 9 1 10 2 11 3 12 4 13 5 14 6 15 7 16 8 17 9 18 10 19 11 8 12
REMARK SMILES IDX 7 13 6 14 5 15 4 16 3 17 2 18 1 19
REMARK H PARENT
REMARK Flexibility Score: inf
ROOT
ATOM      1  C   UNL     1      19.019 -33.249  22.175  1.00  0.00     0.000 C 
ENDROOT
BRANCH   1   2
ATOM      2  C   UNL     1      18.689 -31.746  22.169  1.00  0.00     0.000 C 
BRANCH   2   3
ATOM      3  C   UNL     1      17.878 -31.326  20.931  1.00  0.00     0.000 C 
BRANCH   3   4
ATOM      4  C   UNL     1      16.518 -30.709  21.300  1.00  0.00     0.000 C 
BRANCH   4   5
ATOM      5  C   UNL     1      16.124 -30.976  22.762  1.00  0.00     0.001 C 
BRANCH   5   6
ATOM      6  C   UNL     1      15.078 -29.976  23.289  1.00  0.00     0.009 C 
BRANCH   6   7
ATOM      7  C   UNL     1      13.732 -30.659  23.607  1.00  0.00     0.032 C 
ATOM      8  C   UNL     1      13.944 -32.139  23.944  1.00  0.00     0.014 C 
BRANCH   7   9
ATOM      9  C   UNL     1      12.769 -30.537  22.456  1.00  0.00     0.044 C 
ATOM     10  O   UNL     1      12.939 -31.224  21.415  1.00  0.00    -0.550 OA
ATOM     11  O   UNL     1      11.689 -29.665  22.533  1.00  0.00    -0.550 OA
ENDBRANCH   7   9
ENDBRANCH   6   7
ENDBRANCH   5   6
ENDBRANCH   4   5
ENDBRANCH   3   4
ENDBRANCH   2   3
ENDBRANCH   1   2
BRANCH   1  12
ATOM     12  C   UNL     1      18.160 -34.046  23.173  1.00  0.00     0.000 C 
BRANCH  12  13
ATOM     13  C   UNL     1      17.879 -35.505  22.770  1.00  0.00    -0.000 C 
BRANCH  13  14
ATOM     14  C   UNL     1      18.471 -35.870  21.397  1.00  0.00    -0.000 C 
BRANCH  14  15
ATOM     15  C   UNL     1      17.663 -36.962  20.678  1.00  0.00    -0.000 C 
BRANCH  15  16
ATOM     16  C   UNL     1      16.608 -36.383  19.723  1.00  0.00    -0.000 C 
BRANCH  16  17
ATOM     17  C   UNL     1      16.959 -34.940  19.330  1.00  0.00    -0.000 C 
BRANCH  17  18
ATOM     18  C   UNL     1      15.782 -33.971  19.523  1.00  0.00    -0.003 C 
ATOM     19  C   UNL     1      15.074 -34.162  20.864  1.00  0.00     0.004 C 
ENDBRANCH  17  18
ENDBRANCH  16  17
ENDBRANCH  15  16
ENDBRANCH  14  15
ENDBRANCH  13  14
ENDBRANCH  12  13
ENDBRANCH   1  12
TORSDOF 14
ENDMDL
MODEL 2
REMARK VINA RESULT:    -4.689      1.409      3.995
REMARK INTER + INTRA:         -10.921
REMARK INTER:                  -8.364
REMARK INTRA:                  -2.557
REMARK UNBOUND:                -2.394
REMARK SMILES CCCCCCCCCCCCCC[C@H](C)C(=O)[O-]
REMARK SMILES IDX 9 1 10 2 11 3 12 4 13 5 14 6 15 7 16 8 17 9 18 10 19 11 8 12
REMARK SMILES IDX 7 13 6 14 5 15 4 16 3 17 2 18 1 19
REMARK H PARENT
REMARK Flexibility Score: inf
ROOT
ATOM      1  C   UNL     1      18.021 -34.832  20.955  1.00  0.00     0.000 C 
ENDROOT
BRANCH   1   2
ATOM      2  C   UNL     1      16.521 -34.919  21.292  1.00  0.00     0.000 C 
BRANCH   2   3
ATOM      3  C   UNL     1      15.634 -34.883  20.036  1.00  0.00     0.000 C 
BRANCH   3   4
ATOM      4  C   UNL     1      14.571 -33.772  20.098  1.00  0.00     0.000 C 
BRANCH   4   5
ATOM      5  C   UNL     1      14.638 -32.962  21.403  1.00  0.00     0.001 C 
BRANCH   5   6
ATOM      6  C   UNL     1      13.923 -31.602  21.297  1.00  0.00     0.009 C 
BRANCH   6   7
ATOM      7  C   UNL     1      13.725 -30.942  22.676  1.00  0.00     0.032 C 
ATOM      8  C   UNL     1      13.730 -31.998  23.787  1.00  0.00     0.014 C 
BRANCH   7   9
ATOM      9  C   UNL     1      12.440 -30.159  22.731  1.00  0.00     0.044 C 
ATOM     10  O   UNL     1      12.276 -29.275  23.612  1.00  0.00    -0.550 OA
ATOM     11  O   UNL     1      11.426 -30.408  21.814  1.00  0.00    -0.550 OA
ENDBRANCH   7   9
ENDBRANCH   6   7
ENDBRANCH   5   6
ENDBRANCH   4   5
ENDBRANCH   3   4
ENDBRANCH   2   3
ENDBRANCH   1   2
BRANCH   1  12
ATOM     12  C   UNL     1      18.619 -33.444  21.246  1.00  0.00     0.000 C 
BRANCH  12  13
ATOM     13  C   UNL     1      18.279 -32.358  20.211  1.00  0.00    -0.000 C 
BRANCH  13  14
ATOM     14  C   UNL     1      17.698 -31.084  20.850  1.00  0.00    -0.000 C 
BRANCH  14  15
ATOM     15  C   UNL     1      18.289 -30.799  22.240  1.00  0.00    -0.000 C 
BRANCH  15  16
ATOM     16  C   UNL     1      17.205 -30.586  23.309  1.00  0.00    -0.000 C 
BRANCH  16  17
ATOM     17  C   UNL     1      17.502 -31.421  24.563  1.00  0.00    -0.000 C 
BRANCH  17  18
ATOM     18  C   UNL     1      17.411 -32.933  24.303  1.00  0.00    -0.003 C 
ATOM     19  C   UNL     1      16.636 -33.674  25.391  1.00  0.00     0.004 C 
ENDBRANCH  17  18
ENDBRANCH  16  17
ENDBRANCH  15  16
ENDBRANCH  14  15
ENDBRANCH  13  14
ENDBRANCH  12  13
ENDBRANCH   1  12
TORSDOF 14
ENDMDL
MODEL 3
REMARK VINA RESULT:    -4.625      1.273      3.046
REMARK INTER + INTRA:         -10.804
REMARK INTER:                  -8.089
REMARK INTRA:                  -2.715
REMARK UNBOUND:                -2.394
REMARK SMILES CCCCCCCCCCCCCC[C@H](C)C(=O)[O-]
REMARK SMILES IDX 9 1 10 2 11 3 12 4 13 5 14 6 15 7 16 8 17 9 18 10 19 11 8 12
REMARK SMILES IDX 7 13 6 14 5 15 4 16 3 17 2 18 1 19
REMARK H PARENT
REMARK Flexibility Score: inf
ROOT
ATOM      1  C   UNL     1      19.128 -35.675  22.150  1.00  0.00     0.000 C 
ENDROOT
BRANCH   1   2
ATOM      2  C   UNL     1      18.633 -34.761  23.285  1.00  0.00     0.000 C 
BRANCH   2   3
ATOM      3  C   UNL     1      17.104 -34.805  23.450  1.00  0.00     0.000 C 
BRANCH   3   4
ATOM      4  C   UNL     1      16.519 -33.447  23.879  1.00  0.00     0.000 C 
BRANCH   4   5
ATOM      5  C   UNL     1      15.064 -33.260  23.421  1.00  0.00     0.001 C 
BRANCH   5   6
ATOM      6  C   UNL     1      14.643 -31.779  23.370  1.00  0.00     0.009 C 
BRANCH   6   7
ATOM      7  C   UNL     1      13.504 -31.535  22.358  1.00  0.00     0.032 C 
ATOM      8  C   UNL     1      14.073 -31.202  20.975  1.00  0.00     0.014 C 
BRANCH   7   9
ATOM      9  C   UNL     1      12.596 -30.423  22.812  1.00  0.00     0.044 C 
ATOM     10  O   UNL     1      11.564 -30.140  22.149  1.00  0.00    -0.550 OA
ATOM     11  O   UNL     1      12.891 -29.699  23.961  1.00  0.00    -0.550 OA
ENDBRANCH   7   9
ENDBRANCH   6   7
ENDBRANCH   5   6
ENDBRANCH   4   5
ENDBRANCH   3   4
ENDBRANCH   2   3
ENDBRANCH   1   2
BRANCH   1  12
ATOM     12  C   UNL     1      18.002 -36.520  21.528  1.00  0.00     0.000 C 
BRANCH  12  13
ATOM     13  C   UNL     1      17.666 -36.180  20.065  1.00  0.00    -0.000 C 
BRANCH  13  14
ATOM     14  C   UNL     1      16.222 -35.678  19.885  1.00  0.00    -0.000 C 
BRANCH  14  15
ATOM     15  C   UNL     1      16.124 -34.144  19.903  1.00  0.00    -0.000 C 
BRANCH  15  16
ATOM     16  C   UNL     1      17.486 -33.464  19.699  1.00  0.00    -0.000 C 
BRANCH  16  17
ATOM     17  C   UNL     1      17.556 -32.136  20.468  1.00  0.00    -0.000 C 
BRANCH  17  18
ATOM     18  C   UNL     1      18.978 -31.803  20.945  1.00  0.00    -0.003 C 
ATOM     19  C   UNL     1      19.000 -31.152  22.328  1.00  0.00     0.004 C 
ENDBRANCH  17  18
ENDBRANCH  16  17
ENDBRANCH  15  16
ENDBRANCH  14  15
ENDBRANCH  13  14
ENDBRANCH  12  13
ENDBRANCH   1  12
TORSDOF 14
ENDMDL
MODEL 4
REMARK VINA RESULT:    -4.561      1.313      2.811
REMARK INTER + INTRA:         -10.688
REMARK INTER:                  -8.118
REMARK INTRA:                  -2.570
REMARK UNBOUND:                -2.394
REMARK SMILES CCCCCCCCCCCCCC[C@H](C)C(=O)[O-]
REMARK SMILES IDX 9 1 10 2 11 3 12 4 13 5 14 6 15 7 16 8 17 9 18 10 19 11 8 12
REMARK SMILES IDX 7 13 6 14 5 15 4 16 3 17 2 18 1 19
REMARK H PARENT
REMARK Flexibility Score: inf
ROOT
ATOM      1  C   UNL     1      18.264 -34.947  22.804  1.00  0.00     0.000 C 
ENDROOT
BRANCH   1   2
ATOM      2  C   UNL     1      17.190 -34.380  23.750  1.00  0.00     0.000 C 
BRANCH   2   3
ATOM      3  C   UNL     1      15.892 -34.012  23.011  1.00  0.00     0.000 C 
BRANCH   3   4
ATOM      4  C   UNL     1      15.025 -33.017  23.804  1.00  0.00     0.000 C 
BRANCH   4   5
ATOM      5  C   UNL     1      15.502 -31.564  23.650  1.00  0.00     0.001 C 
BRANCH   5   6
ATOM      6  C   UNL     1      14.879 -30.860  22.430  1.00  0.00     0.009 C 
BRANCH   6   7
ATOM      7  C   UNL     1      13.495 -31.437  22.072  1.00  0.00     0.032 C 
ATOM      8  C   UNL     1      13.440 -31.831  20.591  1.00  0.00     0.014 C 
BRANCH   7   9
ATOM      9  C   UNL     1      12.395 -30.454  22.373  1.00  0.00     0.044 C 
ATOM     10  O   UNL     1      11.341 -30.456  21.685  1.00  0.00    -0.550 OA
ATOM     11  O   UNL     1      12.537 -29.536  23.407  1.00  0.00    -0.550 OA
ENDBRANCH   7   9
ENDBRANCH   6   7
ENDBRANCH   5   6
ENDBRANCH   4   5
ENDBRANCH   3   4
ENDBRANCH   2   3
ENDBRANCH   1   2
BRANCH   1  12
ATOM     12  C   UNL     1      19.514 -34.054  22.714  1.00  0.00     0.000 C 
BRANCH  12  13
ATOM     13  C   UNL     1      19.356 -32.650  23.323  1.00  0.00    -0.000 C 
BRANCH  13  14
ATOM     14  C   UNL     1      18.786 -31.626  22.325  1.00  0.00    -0.000 C 
BRANCH  14  15
ATOM     15  C   UNL     1      18.923 -32.087  20.865  1.00  0.00    -0.000 C 
BRANCH  15  16
ATOM     16  C   UNL     1      17.562 -32.320  20.191  1.00  0.00    -0.000 C 
BRANCH  16  17
ATOM     17  C   UNL     1      17.569 -33.624  19.379  1.00  0.00    -0.000 C 
BRANCH  17  18
ATOM     18  C   UNL     1      16.213 -34.345  19.406  1.00  0.00    -0.003 C 
ATOM     19  C   UNL     1      16.339 -35.831  19.741  1.00  0.00     0.004 C 
ENDBRANCH  17  18
ENDBRANCH  16  17
ENDBRANCH  15  16
ENDBRANCH  14  15
ENDBRANCH  13  14
ENDBRANCH  12  13
ENDBRANCH   1  12
TORSDOF 14
ENDMDL
MODEL 5
REMARK VINA RESULT:    -4.556      2.655      5.701
REMARK INTER + INTRA:         -10.679
REMARK INTER:                  -8.000
REMARK INTRA:                  -2.678
REMARK UNBOUND:                -2.394
REMARK SMILES CCCCCCCCCCCCCC[C@H](C)C(=O)[O-]
REMARK SMILES IDX 9 1 10 2 11 3 12 4 13 5 14 6 15 7 16 8 17 9 18 10 19 11 8 12
REMARK SMILES IDX 7 13 6 14 5 15 4 16 3 17 2 18 1 19
REMARK H PARENT
REMARK Flexibility Score: inf
ROOT
ATOM      1  C   UNL     1      15.395 -35.354  20.145  1.00  0.00     0.000 C 
ENDROOT
BRANCH   1   2
ATOM      2  C   UNL     1      16.778 -35.680  19.553  1.00  0.00     0.000 C 
BRANCH   2   3
ATOM      3  C   UNL     1      17.604 -36.605  20.462  1.00  0.00     0.000 C 
BRANCH   3   4
ATOM      4  C   UNL     1      17.989 -35.933  21.792  1.00  0.00     0.000 C 
BRANCH   4   5
ATOM      5  C   UNL     1      18.938 -34.739  21.598  1.00  0.00     0.001 C 
BRANCH   5   6
ATOM      6  C   UNL     1      18.623 -33.568  22.546  1.00  0.00     0.009 C 
BRANCH   6   7
ATOM      7  C   UNL     1      18.358 -32.256  21.780  1.00  0.00     0.032 C 
ATOM      8  C   UNL     1      18.351 -32.506  20.268  1.00  0.00     0.014 C 
BRANCH   7   9
ATOM      9  C   UNL     1      19.387 -31.208  22.113  1.00  0.00     0.044 C 
ATOM     10  O   UNL     1      19.890 -30.504  21.199  1.00  0.00    -0.550 OA
ATOM     11  O   UNL     1      19.792 -31.014  23.429  1.00  0.00    -0.550 OA
ENDBRANCH   7   9
ENDBRANCH   6   7
ENDBRANCH   5   6
ENDBRANCH   4   5
ENDBRANCH   3   4
ENDBRANCH   2   3
ENDBRANCH   1   2
BRANCH   1  12
ATOM     12  C   UNL     1      14.886 -33.958  19.744  1.00  0.00     0.000 C 
BRANCH  12  13
ATOM     13  C   UNL     1      14.713 -32.968  20.910  1.00  0.00    -0.000 C 
BRANCH  13  14
ATOM     14  C   UNL     1      15.002 -33.604  22.282  1.00  0.00    -0.000 C 
BRANCH  14  15
ATOM     15  C   UNL     1      14.606 -32.690  23.452  1.00  0.00    -0.000 C 
BRANCH  15  16
ATOM     16  C   UNL     1      13.746 -31.498  23.004  1.00  0.00    -0.000 C 
BRANCH  16  17
ATOM     17  C   UNL     1      14.335 -30.175  23.515  1.00  0.00    -0.000 C 
BRANCH  17  18
ATOM     18  C   UNL     1      15.829 -30.028  23.188  1.00  0.00    -0.003 C 
ATOM     19  C   UNL     1      16.078 -29.256  21.893  1.00  0.00     0.004 C 
ENDBRANCH  17  18
ENDBRANCH  16  17
ENDBRANCH  15  16
ENDBRANCH  14  15
ENDBRANCH  13  14
ENDBRANCH  12  13
ENDBRANCH   1  12
TORSDOF 14
ENDMDL
MODEL 6
REMARK VINA RESULT:    -4.551      1.846      3.592
REMARK INTER + INTRA:         -10.671
REMARK INTER:                  -8.000
REMARK INTRA:                  -2.670
REMARK UNBOUND:                -2.394
REMARK SMILES CCCCCCCCCCCCCC[C@H](C)C(=O)[O-]
REMARK SMILES IDX 9 1 10 2 11 3 12 4 13 5 14 6 15 7 16 8 17 9 18 10 19 11 8 12
REMARK SMILES IDX 7 13 6 14 5 15 4 16 3 17 2 18 1 19
REMARK H PARENT
REMARK Flexibility Score: inf
ROOT
ATOM      1  C   UNL     1      18.484 -33.191  21.435  1.00  0.00     0.000 C 
ENDROOT
BRANCH   1   2
ATOM      2  C   UNL     1      18.843 -31.700  21.302  1.00  0.00     0.000 C 
BRANCH   2   3
ATOM      3  C   UNL     1      17.637 -30.839  20.890  1.00  0.00     0.000 C 
BRANCH   3   4
ATOM      4  C   UNL     1      17.280 -29.781  21.948  1.00  0.00     0.000 C 
BRANCH   4   5
ATOM      5  C   UNL     1      15.763 -29.627  22.142  1.00  0.00     0.001 C 
BRANCH   5   6
ATOM      6  C   UNL     1      15.188 -30.629  23.160  1.00  0.00     0.009 C 
BRANCH   6   7
ATOM      7  C   UNL     1      13.819 -31.184  22.717  1.00  0.00     0.032 C 
ATOM      8  C   UNL     1      13.833 -31.529  21.224  1.00  0.00     0.014 C 
BRANCH   7   9
ATOM      9  C   UNL     1      12.712 -30.203  22.998  1.00  0.00     0.044 C 
ATOM     10  O   UNL     1      11.721 -30.131  22.225  1.00  0.00    -0.550 OA
ATOM     11  O   UNL     1      12.778 -29.366  24.106  1.00  0.00    -0.550 OA
ENDBRANCH   7   9
ENDBRANCH   6   7
ENDBRANCH   5   6
ENDBRANCH   4   5
ENDBRANCH   3   4
ENDBRANCH   2   3
ENDBRANCH   1   2
BRANCH   1  12
ATOM     12  C   UNL     1      17.057 -33.507  20.952  1.00  0.00     0.000 C 
BRANCH  12  13
ATOM     13  C   UNL     1      16.197 -34.309  21.945  1.00  0.00    -0.000 C 
BRANCH  13  14
ATOM     14  C   UNL     1      16.890 -34.519  23.303  1.00  0.00    -0.000 C 
BRANCH  14  15
ATOM     15  C   UNL     1      16.047 -34.010  24.482  1.00  0.00    -0.000 C 
BRANCH  15  16
ATOM     16  C   UNL     1      16.886 -33.770  25.747  1.00  0.00    -0.000 C 
BRANCH  16  17
ATOM     17  C   UNL     1      18.365 -33.558  25.391  1.00  0.00    -0.000 C 
BRANCH  17  18
ATOM     18  C   UNL     1      18.917 -32.228  25.926  1.00  0.00    -0.003 C 
ATOM     19  C   UNL     1      18.298 -31.012  25.239  1.00  0.00     0.004 C 
ENDBRANCH  17  18
ENDBRANCH  16  17
ENDBRANCH  15  16
ENDBRANCH  14  15
ENDBRANCH  13  14
ENDBRANCH  12  13
ENDBRANCH   1  12
TORSDOF 14
ENDMDL
MODEL 7
REMARK VINA RESULT:    -4.531      1.189      2.552
REMARK INTER + INTRA:         -10.632
REMARK INTER:                  -8.546
REMARK INTRA:                  -2.087
REMARK UNBOUND:                -2.394
REMARK SMILES CCCCCCCCCCCCCC[C@H](C)C(=O)[O-]
REMARK SMILES IDX 9 1 10 2 11 3 12 4 13 5 14 6 15 7 16 8 17 9 18 10 19 11 8 12
REMARK SMILES IDX 7 13 6 14 5 15 4 16 3 17 2 18 1 19
REMARK H PARENT
REMARK Flexibility Score: inf
ROOT
ATOM      1  C   UNL     1      18.214 -32.783  19.971  1.00  0.00     0.000 C 
ENDROOT
BRANCH   1   2
ATOM      2  C   UNL     1      18.734 -31.687  20.918  1.00  0.00     0.000 C 
BRANCH   2   3
ATOM      3  C   UNL     1      17.667 -30.625  21.230  1.00  0.00     0.000 C 
BRANCH   3   4
ATOM      4  C   UNL     1      17.484 -30.401  22.742  1.00  0.00     0.000 C 
BRANCH   4   5
ATOM      5  C   UNL     1      16.032 -30.064  23.119  1.00  0.00     0.001 C 
BRANCH   5   6
ATOM      6  C   UNL     1      15.081 -30.094  21.908  1.00  0.00     0.009 C 
BRANCH   6   7
ATOM      7  C   UNL     1      13.859 -31.002  22.153  1.00  0.00     0.032 C 
ATOM      8  C   UNL     1      13.487 -31.763  20.876  1.00  0.00     0.014 C 
BRANCH   7   9
ATOM      9  C   UNL     1      12.673 -30.209  22.632  1.00  0.00     0.044 C 
ATOM     10  O   UNL     1      12.760 -29.508  23.674  1.00  0.00    -0.550 OA
ATOM     11  O   UNL     1      11.473 -30.246  21.931  1.00  0.00    -0.550 OA
ENDBRANCH   7   9
ENDBRANCH   6   7
ENDBRANCH   5   6
ENDBRANCH   4   5
ENDBRANCH   3   4
ENDBRANCH   2   3
ENDBRANCH   1   2
BRANCH   1  12
ATOM     12  C   UNL     1      16.792 -33.256  20.327  1.00  0.00     0.000 C 
BRANCH  12  13
ATOM     13  C   UNL     1      16.214 -34.336  19.397  1.00  0.00    -0.000 C 
BRANCH  13  14
ATOM     14  C   UNL     1      16.122 -35.717  20.070  1.00  0.00    -0.000 C 
BRANCH  14  15
ATOM     15  C   UNL     1      17.401 -36.549  19.887  1.00  0.00    -0.000 C 
BRANCH  15  16
ATOM     16  C   UNL     1      17.980 -37.042  21.222  1.00  0.00    -0.000 C 
BRANCH  16  17
ATOM     17  C   UNL     1      18.673 -35.896  21.975  1.00  0.00    -0.000 C 
BRANCH  17  18
ATOM     18  C   UNL     1      17.871 -35.420  23.196  1.00  0.00    -0.003 C 
ATOM     19  C   UNL     1      18.375 -34.089  23.752  1.00  0.00     0.004 C 
ENDBRANCH  17  18
ENDBRANCH  16  17
ENDBRANCH  15  16
ENDBRANCH  14  15
ENDBRANCH  13  14
ENDBRANCH  12  13
ENDBRANCH   1  12
TORSDOF 14
ENDMDL
MODEL 8
REMARK VINA RESULT:    -4.519      1.004      3.337
REMARK INTER + INTRA:         -10.612
REMARK INTER:                  -8.110
REMARK INTRA:                  -2.502
REMARK UNBOUND:                -2.394
REMARK SMILES CCCCCCCCCCCCCC[C@H](C)C(=O)[O-]
REMARK SMILES IDX 9 1 10 2 11 3 12 4 13 5 14 6 15 7 16 8 17 9 18 10 19 11 8 12
REMARK SMILES IDX 7 13 6 14 5 15 4 16 3 17 2 18 1 19
REMARK H PARENT
REMARK Flexibility Score: inf
ROOT
ATOM      1  C   UNL     1      16.945 -35.521  19.376  1.00  0.00     0.000 C 
ENDROOT
BRANCH   1   2
ATOM      2  C   UNL     1      16.305 -34.121  19.368  1.00  0.00     0.000 C 
BRANCH   2   3
ATOM      3  C   UNL     1      14.996 -34.068  20.174  1.00  0.00     0.000 C 
BRANCH   3   4
ATOM      4  C   UNL     1      14.934 -32.855  21.119  1.00  0.00     0.000 C 
BRANCH   4   5
ATOM      5  C   UNL     1      14.775 -33.260  22.593  1.00  0.00     0.001 C 
BRANCH   5   6
ATOM      6  C   UNL     1      14.620 -32.048  23.530  1.00  0.00     0.009 C 
BRANCH   6   7
ATOM      7  C   UNL     1      14.308 -30.752  22.754  1.00  0.00     0.032 C 
ATOM      8  C   UNL     1      15.298 -29.645  23.131  1.00  0.00     0.014 C 
BRANCH   7   9
ATOM      9  C   UNL     1      12.902 -30.281  23.016  1.00  0.00     0.044 C 
ATOM     10  O   UNL     1      11.955 -30.689  22.294  1.00  0.00    -0.550 OA
ATOM     11  O   UNL     1      12.639 -29.392  24.051  1.00  0.00    -0.550 OA
ENDBRANCH   7   9
ENDBRANCH   6   7
ENDBRANCH   5   6
ENDBRANCH   4   5
ENDBRANCH   3   4
ENDBRANCH   2   3
ENDBRANCH   1   2
BRANCH   1  12
ATOM     12  C   UNL     1      16.952 -36.167  20.773  1.00  0.00     0.000 C 
BRANCH  12  13
ATOM     13  C   UNL     1      18.179 -35.830  21.639  1.00  0.00    -0.000 C 
BRANCH  13  14
ATOM     14  C   UNL     1      17.801 -35.181  22.983  1.00  0.00    -0.000 C 
BRANCH  14  15
ATOM     15  C   UNL     1      18.288 -33.727  23.093  1.00  0.00    -0.000 C 
BRANCH  15  16
ATOM     16  C   UNL     1      19.113 -33.288  21.874  1.00  0.00    -0.000 C 
BRANCH  16  17
ATOM     17  C   UNL     1      19.285 -31.761  21.850  1.00  0.00    -0.000 C 
BRANCH  17  18
ATOM     18  C   UNL     1      18.106 -31.044  21.175  1.00  0.00    -0.003 C 
ATOM     19  C   UNL     1      18.377 -29.559  20.935  1.00  0.00     0.004 C 
ENDBRANCH  17  18
ENDBRANCH  16  17
ENDBRANCH  15  16
ENDBRANCH  14  15
ENDBRANCH  13  14
ENDBRANCH  12  13
ENDBRANCH   1  12
TORSDOF 14
ENDMDL
MODEL 9
REMARK VINA RESULT:    -4.514      3.508      5.744
REMARK INTER + INTRA:         -10.601
REMARK INTER:                  -8.751
REMARK INTRA:                  -1.850
REMARK UNBOUND:                -2.394
REMARK SMILES CCCCCCCCCCCCCC[C@H](C)C(=O)[O-]
REMARK SMILES IDX 9 1 10 2 11 3 12 4 13 5 14 6 15 7 16 8 17 9 18 10 19 11 8 12
REMARK SMILES IDX 7 13 6 14 5 15 4 16 3 17 2 18 1 19
REMARK H PARENT
REMARK Flexibility Score: inf
ROOT
ATOM      1  C   UNL     1      17.384 -35.048  19.657  1.00  0.00     0.000 C 
ENDROOT
BRANCH   1   2
ATOM      2  C   UNL     1      17.713 -33.595  19.271  1.00  0.00     0.000 C 
BRANCH   2   3
ATOM      3  C   UNL     1      18.320 -32.799  20.439  1.00  0.00     0.000 C 
BRANCH   3   4
ATOM      4  C   UNL     1      17.664 -31.418  20.613  1.00  0.00     0.000 C 
BRANCH   4   5
ATOM      5  C   UNL     1      18.374 -30.555  21.670  1.00  0.00     0.001 C 
BRANCH   5   6
ATOM      6  C   UNL     1      18.838 -29.196  21.114  1.00  0.00     0.009 C 
BRANCH   6   7
ATOM      7  C   UNL     1      20.374 -29.108  21.005  1.00  0.00     0.032 C 
ATOM      8  C   UNL     1      21.041 -30.052  22.012  1.00  0.00     0.014 C 
BRANCH   7   9
ATOM      9  C   UNL     1      20.861 -27.702  21.233  1.00  0.00     0.044 C 
ATOM     10  O   UNL     1      20.431 -26.761  20.516  1.00  0.00    -0.550 OA
ATOM     11  O   UNL     1      21.790 -27.433  22.231  1.00  0.00    -0.550 OA
ENDBRANCH   7   9
ENDBRANCH   6   7
ENDBRANCH   5   6
ENDBRANCH   4   5
ENDBRANCH   3   4
ENDBRANCH   2   3
ENDBRANCH   1   2
BRANCH   1  12
ATOM     12  C   UNL     1      16.122 -35.163  20.532  1.00  0.00     0.000 C 
BRANCH  12  13
ATOM     13  C   UNL     1      14.999 -34.170  20.187  1.00  0.00    -0.000 C 
BRANCH  13  14
ATOM     14  C   UNL     1      14.635 -33.246  21.363  1.00  0.00    -0.000 C 
BRANCH  14  15
ATOM     15  C   UNL     1      15.419 -33.582  22.642  1.00  0.00    -0.000 C 
BRANCH  15  16
ATOM     16  C   UNL     1      15.302 -32.485  23.711  1.00  0.00    -0.000 C 
BRANCH  16  17
ATOM     17  C   UNL     1      13.851 -31.996  23.836  1.00  0.00    -0.000 C 
BRANCH  17  18
ATOM     18  C   UNL     1      13.729 -30.470  23.710  1.00  0.00    -0.003 C 
ATOM     19  C   UNL     1      14.980 -29.823  23.119  1.00  0.00     0.004 C 
ENDBRANCH  17  18
ENDBRANCH  16  17
ENDBRANCH  15  16
ENDBRANCH  14  15
ENDBRANCH  13  14
ENDBRANCH  12  13
ENDBRANCH   1  12
TORSDOF 14
ENDMDL
