MODEL 1
REMARK VINA RESULT:    -4.552      0.000      0.000
REMARK INTER + INTRA:          -5.060
REMARK INTER:                  -4.952
REMARK INTRA:                  -0.109
REMARK UNBOUND:                -0.109
REMARK SMILES C=C(C)[C@@H]1CC[C@H](C)C[C@H]1O
REMARK SMILES IDX 8 1 7 2 6 3 5 4 4 5 10 6 9 7 11 8 2 10 1 11 3 12
REMARK H PARENT 11 9
REMARK Flexibility Score: inf
ROOT
ATOM      1  C   UNL     1     137.112 143.105 148.110  1.00  0.00     0.008 C 
ATOM      2  C   UNL     1     138.523 142.518 148.260  1.00  0.00    -0.012 C 
ATOM      3  C   UNL     1     138.585 141.115 147.610  1.00  0.00     0.004 C 
ATOM      4  C   UNL     1     140.029 140.679 147.335  1.00  0.00     0.011 C 
ATOM      5  C   UNL     1     140.798 141.674 146.418  1.00  0.00     0.043 C 
ATOM      6  C   UNL     1     140.120 143.065 146.324  1.00  0.00     0.121 C 
ATOM      7  C   UNL     1     139.598 143.493 147.706  1.00  0.00     0.035 C 
ENDROOT
BRANCH   6   8
ATOM      8  O   UNL     1     141.052 144.005 145.855  1.00  0.00    -0.392 OA
ATOM      9  H   UNL     1     140.923 144.832 146.389  1.00  0.00     0.210 HD
ENDBRANCH   6   8
BRANCH   5  10
ATOM     10  C   UNL     1     141.055 141.093 145.032  1.00  0.00    -0.075 C 
ATOM     11  C   UNL     1     141.982 140.141 144.836  1.00  0.00     0.008 C 
ATOM     12  C   UNL     1     140.267 141.586 143.845  1.00  0.00     0.039 C 
ENDBRANCH   5  10
TORSDOF 2
ENDMDL
MODEL 2
REMARK VINA RESULT:    -4.485      1.246      4.076
REMARK INTER + INTRA:          -4.987
REMARK INTER:                  -4.765
REMARK INTRA:                  -0.222
REMARK UNBOUND:                -0.109
REMARK SMILES C=C(C)[C@@H]1CC[C@H](C)C[C@H]1O
REMARK SMILES IDX 8 1 7 2 6 3 5 4 4 5 10 6 9 7 11 8 2 10 1 11 3 12
REMARK H PARENT 11 9
REMARK Flexibility Score: inf
ROOT
ATOM      1  C   UNL     1     142.162 140.010 144.985  1.00  0.00     0.008 C 
ATOM      2  C   UNL     1     140.668 139.943 145.331  1.00  0.00    -0.012 C 
ATOM      3  C   UNL     1     140.474 140.042 146.864  1.00  0.00     0.004 C 
ATOM      4  C   UNL     1     139.035 140.423 147.232  1.00  0.00     0.011 C 
ATOM      5  C   UNL     1     138.585 141.771 146.597  1.00  0.00     0.043 C 
ATOM      6  C   UNL     1     139.488 142.223 145.421  1.00  0.00     0.121 C 
ATOM      7  C   UNL     1     139.861 141.014 144.546  1.00  0.00     0.035 C 
ENDROOT
BRANCH   6   8
ATOM      8  O   UNL     1     138.802 143.176 144.650  1.00  0.00    -0.392 OA
ATOM      9  H   UNL     1     137.931 142.771 144.398  1.00  0.00     0.210 HD
ENDBRANCH   6   8
BRANCH   5  10
ATOM     10  C   UNL     1     138.445 142.875 147.639  1.00  0.00    -0.075 C 
ATOM     11  C   UNL     1     137.288 143.076 148.291  1.00  0.00     0.008 C 
ATOM     12  C   UNL     1     139.614 143.772 147.955  1.00  0.00     0.039 C 
ENDBRANCH   5  10
TORSDOF 2
ENDMDL
MODEL 3
REMARK VINA RESULT:    -4.401      1.967      4.029
REMARK INTER + INTRA:          -4.896
REMARK INTER:                  -4.647
REMARK INTRA:                  -0.248
REMARK UNBOUND:                -0.109
REMARK SMILES C=C(C)[C@@H]1CC[C@H](C)C[C@H]1O
REMARK SMILES IDX 8 1 7 2 6 3 5 4 4 5 10 6 9 7 11 8 2 10 1 11 3 12
REMARK H PARENT 11 9
REMARK Flexibility Score: inf
ROOT
ATOM      1  C   UNL     1     138.670 138.499 145.277  1.00  0.00     0.008 C 
ATOM      2  C   UNL     1     139.596 139.721 145.223  1.00  0.00    -0.012 C 
ATOM      3  C   UNL     1     138.768 141.004 144.970  1.00  0.00     0.004 C 
ATOM      4  C   UNL     1     139.550 142.269 145.342  1.00  0.00     0.011 C 
ATOM      5  C   UNL     1     140.016 142.277 146.827  1.00  0.00     0.043 C 
ATOM      6  C   UNL     1     139.976 140.874 147.487  1.00  0.00     0.121 C 
ATOM      7  C   UNL     1     140.481 139.811 146.497  1.00  0.00     0.035 C 
ENDROOT
BRANCH   6   8
ATOM      8  O   UNL     1     140.784 140.879 148.636  1.00  0.00    -0.392 OA
ATOM      9  H   UNL     1     141.600 141.399 148.412  1.00  0.00     0.210 HD
ENDBRANCH   6   8
BRANCH   5  10
ATOM     10  C   UNL     1     139.251 143.299 147.662  1.00  0.00    -0.075 C 
ATOM     11  C   UNL     1     139.840 144.427 148.093  1.00  0.00     0.008 C 
ATOM     12  C   UNL     1     137.808 143.056 148.022  1.00  0.00     0.039 C 
ENDBRANCH   5  10
TORSDOF 2
ENDMDL
MODEL 4
REMARK VINA RESULT:    -4.091      1.406      1.503
REMARK INTER + INTRA:          -4.558
REMARK INTER:                  -4.309
REMARK INTRA:                  -0.250
REMARK UNBOUND:                -0.109
REMARK SMILES C=C(C)[C@@H]1CC[C@H](C)C[C@H]1O
REMARK SMILES IDX 8 1 7 2 6 3 5 4 4 5 10 6 9 7 11 8 2 10 1 11 3 12
REMARK H PARENT 11 9
REMARK Flexibility Score: inf
ROOT
ATOM      1  C   UNL     1     136.990 143.055 148.259  1.00  0.00     0.008 C 
ATOM      2  C   UNL     1     138.502 142.859 148.088  1.00  0.00    -0.012 C 
ATOM      3  C   UNL     1     138.891 141.401 148.432  1.00  0.00     0.004 C 
ATOM      4  C   UNL     1     140.267 141.030 147.867  1.00  0.00     0.011 C 
ATOM      5  C   UNL     1     140.355 141.205 146.323  1.00  0.00     0.043 C 
ATOM      6  C   UNL     1     139.223 142.094 145.744  1.00  0.00     0.121 C 
ATOM      7  C   UNL     1     138.968 143.294 146.671  1.00  0.00     0.035 C 
ENDROOT
BRANCH   6   8
ATOM      8  O   UNL     1     139.596 142.547 144.468  1.00  0.00    -0.392 OA
ATOM      9  H   UNL     1     140.458 143.028 144.574  1.00  0.00     0.210 HD
ENDBRANCH   6   8
BRANCH   5  10
ATOM     10  C   UNL     1     140.427 139.866 145.598  1.00  0.00    -0.075 C 
ATOM     11  C   UNL     1     141.587 139.403 145.103  1.00  0.00     0.008 C 
ATOM     12  C   UNL     1     139.185 139.032 145.421  1.00  0.00     0.039 C 
ENDBRANCH   5  10
TORSDOF 2
ENDMDL
MODEL 5
REMARK VINA RESULT:    -3.914      2.055      2.892
REMARK INTER + INTRA:          -4.366
REMARK INTER:                  -4.117
REMARK INTRA:                  -0.249
REMARK UNBOUND:                -0.109
REMARK SMILES C=C(C)[C@@H]1CC[C@H](C)C[C@H]1O
REMARK SMILES IDX 8 1 7 2 6 3 5 4 4 5 10 6 9 7 11 8 2 10 1 11 3 12
REMARK H PARENT 11 9
REMARK Flexibility Score: inf
ROOT
ATOM      1  C   UNL     1     140.763 143.765 148.707  1.00  0.00     0.008 C 
ATOM      2  C   UNL     1     139.497 143.296 147.978  1.00  0.00    -0.012 C 
ATOM      3  C   UNL     1     139.647 143.525 146.454  1.00  0.00     0.004 C 
ATOM      4  C   UNL     1     138.640 142.692 145.652  1.00  0.00     0.011 C 
ATOM      5  C   UNL     1     138.760 141.165 145.928  1.00  0.00     0.043 C 
ATOM      6  C   UNL     1     139.545 140.840 147.226  1.00  0.00     0.121 C 
ATOM      7  C   UNL     1     139.153 141.824 148.340  1.00  0.00     0.035 C 
ENDROOT
BRANCH   6   8
ATOM      8  O   UNL     1     139.254 139.526 147.626  1.00  0.00    -0.392 OA
ATOM      9  H   UNL     1     139.772 139.355 148.456  1.00  0.00     0.210 HD
ENDBRANCH   6   8
BRANCH   5  10
ATOM     10  C   UNL     1     139.336 140.411 144.735  1.00  0.00    -0.075 C 
ATOM     11  C   UNL     1     138.540 139.758 143.873  1.00  0.00     0.008 C 
ATOM     12  C   UNL     1     140.825 140.385 144.501  1.00  0.00     0.039 C 
ENDBRANCH   5  10
TORSDOF 2
ENDMDL
MODEL 6
REMARK VINA RESULT:    -3.903      1.715      3.923
REMARK INTER + INTRA:          -4.354
REMARK INTER:                  -4.112
REMARK INTRA:                  -0.242
REMARK UNBOUND:                -0.109
REMARK SMILES C=C(C)[C@@H]1CC[C@H](C)C[C@H]1O
REMARK SMILES IDX 8 1 7 2 6 3 5 4 4 5 10 6 9 7 11 8 2 10 1 11 3 12
REMARK H PARENT 11 9
REMARK Flexibility Score: inf
ROOT
ATOM      1  C   UNL     1     138.127 140.333 142.982  1.00  0.00     0.008 C 
ATOM      2  C   UNL     1     138.806 141.617 143.480  1.00  0.00    -0.012 C 
ATOM      3  C   UNL     1     138.004 142.217 144.660  1.00  0.00     0.004 C 
ATOM      4  C   UNL     1     138.843 143.214 145.469  1.00  0.00     0.011 C 
ATOM      5  C   UNL     1     140.148 142.586 146.038  1.00  0.00     0.043 C 
ATOM      6  C   UNL     1     140.539 141.256 145.341  1.00  0.00     0.121 C 
ATOM      7  C   UNL     1     140.299 141.364 143.826  1.00  0.00     0.035 C 
ENDROOT
BRANCH   6   8
ATOM      8  O   UNL     1     141.894 140.984 145.591  1.00  0.00    -0.392 OA
ATOM      9  H   UNL     1     142.019 141.019 146.576  1.00  0.00     0.210 HD
ENDBRANCH   6   8
BRANCH   5  10
ATOM     10  C   UNL     1     140.089 142.416 147.552  1.00  0.00    -0.075 C 
ATOM     11  C   UNL     1     140.588 143.350 148.378  1.00  0.00     0.008 C 
ATOM     12  C   UNL     1     139.466 141.182 148.153  1.00  0.00     0.039 C 
ENDBRANCH   5  10
TORSDOF 2
ENDMDL
MODEL 7
REMARK VINA RESULT:    -3.786      7.555      8.891
REMARK INTER + INTRA:          -4.227
REMARK INTER:                  -3.996
REMARK INTRA:                  -0.231
REMARK UNBOUND:                -0.109
REMARK SMILES C=C(C)[C@@H]1CC[C@H](C)C[C@H]1O
REMARK SMILES IDX 8 1 7 2 6 3 5 4 4 5 10 6 9 7 11 8 2 10 1 11 3 12
REMARK H PARENT 11 9
REMARK Flexibility Score: inf
ROOT
ATOM      1  C   UNL     1     133.895 144.619 139.765  1.00  0.00     0.008 C 
ATOM      2  C   UNL     1     133.783 144.921 141.266  1.00  0.00    -0.012 C 
ATOM      3  C   UNL     1     135.188 144.901 141.917  1.00  0.00     0.004 C 
ATOM      4  C   UNL     1     135.196 145.615 143.274  1.00  0.00     0.011 C 
ATOM      5  C   UNL     1     134.725 147.096 143.181  1.00  0.00     0.043 C 
ATOM      6  C   UNL     1     133.961 147.412 141.869  1.00  0.00     0.121 C 
ATOM      7  C   UNL     1     133.017 146.250 141.515  1.00  0.00     0.035 C 
ENDROOT
BRANCH   6   8
ATOM      8  O   UNL     1     133.220 148.593 142.038  1.00  0.00    -0.392 OA
ATOM      9  H   UNL     1     133.617 149.075 142.811  1.00  0.00     0.210 HD
ENDBRANCH   6   8
BRANCH   5  10
ATOM     10  C   UNL     1     135.872 148.076 143.399  1.00  0.00    -0.075 C 
ATOM     11  C   UNL     1     135.851 148.960 144.410  1.00  0.00     0.008 C 
ATOM     12  C   UNL     1     137.060 148.071 142.472  1.00  0.00     0.039 C 
ENDBRANCH   5  10
TORSDOF 2
ENDMDL
MODEL 8
REMARK VINA RESULT:    -3.745      8.070      9.926
REMARK INTER + INTRA:          -4.182
REMARK INTER:                  -3.935
REMARK INTRA:                  -0.247
REMARK UNBOUND:                -0.109
REMARK SMILES C=C(C)[C@@H]1CC[C@H](C)C[C@H]1O
REMARK SMILES IDX 8 1 7 2 6 3 5 4 4 5 10 6 9 7 11 8 2 10 1 11 3 12
REMARK H PARENT 11 9
REMARK Flexibility Score: inf
ROOT
ATOM      1  C   UNL     1     146.704 134.415 151.180  1.00  0.00     0.008 C 
ATOM      2  C   UNL     1     147.714 134.740 150.071  1.00  0.00    -0.012 C 
ATOM      3  C   UNL     1     147.078 134.487 148.683  1.00  0.00     0.004 C 
ATOM      4  C   UNL     1     147.851 135.197 147.564  1.00  0.00     0.011 C 
ATOM      5  C   UNL     1     147.951 136.735 147.780  1.00  0.00     0.043 C 
ATOM      6  C   UNL     1     147.640 137.169 149.237  1.00  0.00     0.121 C 
ATOM      7  C   UNL     1     148.276 136.181 150.229  1.00  0.00     0.035 C 
ENDROOT
BRANCH   6   8
ATOM      8  O   UNL     1     148.151 138.459 149.455  1.00  0.00    -0.392 OA
ATOM      9  H   UNL     1     147.782 138.773 150.322  1.00  0.00     0.210 HD
ENDBRANCH   6   8
BRANCH   5  10
ATOM     10  C   UNL     1     147.097 137.510 146.783  1.00  0.00    -0.075 C 
ATOM     11  C   UNL     1     147.658 138.247 145.810  1.00  0.00     0.008 C 
ATOM     12  C   UNL     1     145.593 137.462 146.874  1.00  0.00     0.039 C 
ENDBRANCH   5  10
TORSDOF 2
ENDMDL
MODEL 9
REMARK VINA RESULT:    -3.701      8.898     10.190
REMARK INTER + INTRA:          -4.134
REMARK INTER:                  -3.912
REMARK INTRA:                  -0.222
REMARK UNBOUND:                -0.109
REMARK SMILES C=C(C)[C@@H]1CC[C@H](C)C[C@H]1O
REMARK SMILES IDX 8 1 7 2 6 3 5 4 4 5 10 6 9 7 11 8 2 10 1 11 3 12
REMARK H PARENT 11 9
REMARK Flexibility Score: inf
ROOT
ATOM      1  C   UNL     1     146.550 134.603 150.641  1.00  0.00     0.008 C 
ATOM      2  C   UNL     1     146.135 135.175 149.278  1.00  0.00    -0.012 C 
ATOM      3  C   UNL     1     146.421 136.695 149.230  1.00  0.00     0.004 C 
ATOM      4  C   UNL     1     146.450 137.224 147.791  1.00  0.00     0.011 C 
ATOM      5  C   UNL     1     147.504 136.503 146.902  1.00  0.00     0.043 C 
ATOM      6  C   UNL     1     147.991 135.158 147.502  1.00  0.00     0.121 C 
ATOM      7  C   UNL     1     146.806 134.393 148.114  1.00  0.00     0.035 C 
ENDROOT
BRANCH   6   8
ATOM      8  O   UNL     1     148.584 134.387 146.489  1.00  0.00    -0.392 OA
ATOM      9  H   UNL     1     147.859 134.128 145.862  1.00  0.00     0.210 HD
ENDBRANCH   6   8
BRANCH   5  10
ATOM     10  C   UNL     1     148.680 137.410 146.560  1.00  0.00    -0.075 C 
ATOM     11  C   UNL     1     149.008 137.676 145.284  1.00  0.00     0.008 C 
ATOM     12  C   UNL     1     149.506 138.028 147.659  1.00  0.00     0.039 C 
ENDBRANCH   5  10
TORSDOF 2
ENDMDL
