MODEL 1
REMARK VINA RESULT:    -3.824      0.000      0.000
REMARK INTER + INTRA:          -5.640
REMARK INTER:                  -5.835
REMARK INTRA:                   0.195
REMARK UNBOUND:                 0.195
REMARK SMILES CC1=CCC[C@@H](C)C(=O)C[C@H](C(C)C)C(=O)C1
REMARK SMILES IDX 8 1 9 2 6 3 7 4 5 5 4 6 3 7 2 8 1 9 10 11 11 12 15 13 16 14
REMARK SMILES IDX 17 15 12 17 13 18 14 19
REMARK H PARENT
REMARK Flexibility Score: 70.00
ROOT
ATOM      1  C   UNL     1     -13.509  -2.826   6.285  1.00  0.00     0.136 C 
ATOM      2  O   UNL     1     -13.385  -2.627   7.485  1.00  0.00    -0.299 OA
ENDROOT
BRANCH   1   3
ATOM      3  C   UNL     1     -12.734  -1.978   5.301  1.00  0.00     0.053 C 
ATOM      4  C   UNL     1     -11.565  -1.260   5.985  1.00  0.00     0.016 C 
BRANCH   3   5
ATOM      5  C   UNL     1     -13.703  -0.972   4.629  1.00  0.00     0.015 C 
BRANCH   5   6
ATOM      6  C   UNL     1     -14.054  -1.257   3.156  1.00  0.00     0.028 C 
BRANCH   6   7
ATOM      7  C   UNL     1     -15.485  -1.012   2.727  1.00  0.00    -0.028 C 
ATOM      8  C   UNL     1     -16.574  -1.747   3.063  1.00  0.00    -0.070 CG0
ATOM      9  C   UNL     1     -17.922  -1.245   2.611  1.00  0.00     0.039 C 
ATOM     10  G   UNL     1     -16.514  -3.080   3.787  1.00  0.00     0.000 G0
ENDBRANCH   6   7
ENDBRANCH   5   6
ENDBRANCH   3   5
ENDBRANCH   1   3
BRANCH   1  11
ATOM     11  C   UNL     1     -14.492  -3.869   5.806  1.00  0.00     0.087 C 
BRANCH  11  12
ATOM     12  C   UNL     1     -15.936  -3.611   6.327  1.00  0.00     0.066 C 
BRANCH  12  13
ATOM     13  C   UNL     1     -16.783  -2.906   5.275  1.00  0.00     0.140 C 
ATOM     14  O   UNL     1     -17.680  -2.157   5.637  1.00  0.00    -0.299 OA
BRANCH  13  15
ATOM     15  C   UNL     1     -16.535  -3.084   3.791  1.00  0.00     0.106 CG0
ATOM     16  G   UNL     1     -16.553  -1.744   3.076  1.00  0.00     0.000 G0
ENDBRANCH  13  15
ENDBRANCH  12  13
BRANCH  12  17
ATOM     17  C   UNL     1     -16.610  -4.917   6.850  1.00  0.00    -0.006 C 
ATOM     18  C   UNL     1     -17.236  -4.785   8.250  1.00  0.00     0.008 C 
ATOM     19  C   UNL     1     -15.636  -6.105   6.817  1.00  0.00     0.008 C 
ENDBRANCH  12  17
ENDBRANCH  11  12
ENDBRANCH   1  11
TORSDOF 1
ENDMDL
MODEL 2
REMARK VINA RESULT:    -3.749     16.684     18.531
REMARK INTER + INTRA:          -5.527
REMARK INTER:                  -5.776
REMARK INTRA:                   0.249
REMARK UNBOUND:                 0.195
REMARK SMILES CC1=CCC[C@@H](C)C(=O)C[C@H](C(C)C)C(=O)C1
REMARK SMILES IDX 8 1 9 2 6 3 7 4 5 5 4 6 3 7 2 8 1 9 10 11 11 12 15 13 16 14
REMARK SMILES IDX 17 15 12 17 13 18 14 19
REMARK H PARENT
REMARK Flexibility Score: 70.00
ROOT
ATOM      1  C   UNL     1      -1.124   4.669  13.356  1.00  0.00     0.136 C 
ATOM      2  O   UNL     1      -0.420   3.797  13.846  1.00  0.00    -0.299 OA
ENDROOT
BRANCH   1   3
ATOM      3  C   UNL     1      -1.176   4.834  11.853  1.00  0.00     0.053 C 
ATOM      4  C   UNL     1      -0.327   6.025  11.395  1.00  0.00     0.016 C 
BRANCH   3   5
ATOM      5  C   UNL     1      -2.654   4.986  11.413  1.00  0.00     0.015 C 
BRANCH   5   6
ATOM      6  C   UNL     1      -3.068   6.385  10.916  1.00  0.00     0.028 C 
BRANCH   6   7
ATOM      7  C   UNL     1      -4.282   7.016  11.562  1.00  0.00    -0.028 C 
ATOM      8  C   UNL     1      -4.300   8.099  12.378  1.00  0.00    -0.070 CG0
ATOM      9  C   UNL     1      -5.646   8.622  12.814  1.00  0.00     0.039 C 
ATOM     10  G   UNL     1      -3.058   8.761  12.948  1.00  0.00     0.000 G0
ENDBRANCH   6   7
ENDBRANCH   5   6
ENDBRANCH   3   5
ENDBRANCH   1   3
BRANCH   1  11
ATOM     11  C   UNL     1      -1.872   5.614  14.268  1.00  0.00     0.087 C 
BRANCH  11  12
ATOM     12  C   UNL     1      -1.379   7.084  14.138  1.00  0.00     0.066 C 
BRANCH  12  13
ATOM     13  C   UNL     1      -2.544   8.064  14.194  1.00  0.00     0.140 C 
ATOM     14  O   UNL     1      -3.076   8.296  15.271  1.00  0.00    -0.299 OA
BRANCH  13  15
ATOM     15  C   UNL     1      -3.052   8.782  12.960  1.00  0.00     0.106 CG0
ATOM     16  G   UNL     1      -4.271   8.078  12.389  1.00  0.00     0.000 G0
ENDBRANCH  13  15
ENDBRANCH  12  13
BRANCH  12  17
ATOM     17  C   UNL     1      -0.272   7.423  15.183  1.00  0.00    -0.006 C 
ATOM     18  C   UNL     1      -0.555   6.882  16.597  1.00  0.00     0.008 C 
ATOM     19  C   UNL     1       0.006   8.933  15.241  1.00  0.00     0.008 C 
ENDBRANCH  12  17
ENDBRANCH  11  12
ENDBRANCH   1  11
TORSDOF 1
ENDMDL
MODEL 3
REMARK VINA RESULT:    -3.712      3.130      4.940
REMARK INTER + INTRA:          -5.470
REMARK INTER:                  -5.476
REMARK INTRA:                   0.006
REMARK UNBOUND:                 0.195
REMARK SMILES CC1=CCC[C@@H](C)C(=O)C[C@H](C(C)C)C(=O)C1
REMARK SMILES IDX 8 1 9 2 6 3 7 4 5 5 4 6 3 7 2 8 1 9 10 11 11 12 15 13 16 14
REMARK SMILES IDX 17 15 12 17 13 18 14 19
REMARK H PARENT
REMARK Flexibility Score: 70.00
ROOT
ATOM      1  C   UNL     1     -15.151  -3.725   7.427  1.00  0.00     0.136 C 
ATOM      2  O   UNL     1     -14.210  -3.506   8.178  1.00  0.00    -0.299 OA
ENDROOT
BRANCH   1   3
ATOM      3  C   UNL     1     -15.214  -3.031   6.084  1.00  0.00     0.053 C 
ATOM      4  C   UNL     1     -16.663  -2.755   5.669  1.00  0.00     0.016 C 
BRANCH   3   5
ATOM      5  C   UNL     1     -14.479  -3.900   5.032  1.00  0.00     0.015 C 
BRANCH   5   6
ATOM      6  C   UNL     1     -13.216  -4.631   5.527  1.00  0.00     0.028 C 
BRANCH   6   7
ATOM      7  C   UNL     1     -13.121  -6.115   5.243  1.00  0.00    -0.028 C 
ATOM      8  C   UNL     1     -13.503  -7.128   6.060  1.00  0.00    -0.070 CG0
ATOM      9  C   UNL     1     -13.420  -8.533   5.516  1.00  0.00     0.039 C 
ATOM     10  G   UNL     1     -13.922  -6.945   7.508  1.00  0.00     0.000 G0
ENDBRANCH   6   7
ENDBRANCH   5   6
ENDBRANCH   3   5
ENDBRANCH   1   3
BRANCH   1  11
ATOM     11  C   UNL     1     -16.270  -4.629   7.888  1.00  0.00     0.087 C 
BRANCH  11  12
ATOM     12  C   UNL     1     -16.335  -5.957   7.080  1.00  0.00     0.066 C 
BRANCH  12  13
ATOM     13  C   UNL     1     -15.417  -7.014   7.681  1.00  0.00     0.140 C 
ATOM     14  O   UNL     1     -15.907  -7.948   8.299  1.00  0.00    -0.299 OA
BRANCH  13  15
ATOM     15  C   UNL     1     -13.911  -6.958   7.517  1.00  0.00     0.106 CG0
ATOM     16  G   UNL     1     -13.518  -7.154   6.063  1.00  0.00     0.000 G0
ENDBRANCH  13  15
ENDBRANCH  12  13
BRANCH  12  17
ATOM     17  C   UNL     1     -17.800  -6.471   6.918  1.00  0.00    -0.006 C 
ATOM     18  C   UNL     1     -18.445  -6.117   5.566  1.00  0.00     0.008 C 
ATOM     19  C   UNL     1     -18.694  -5.995   8.073  1.00  0.00     0.008 C 
ENDBRANCH  12  17
ENDBRANCH  11  12
ENDBRANCH   1  11
TORSDOF 1
ENDMDL
MODEL 4
REMARK VINA RESULT:    -3.672     16.859     19.842
REMARK INTER + INTRA:          -5.409
REMARK INTER:                  -5.670
REMARK INTRA:                   0.261
REMARK UNBOUND:                 0.195
REMARK SMILES CC1=CCC[C@@H](C)C(=O)C[C@H](C(C)C)C(=O)C1
REMARK SMILES IDX 8 1 9 2 6 3 7 4 5 5 4 6 3 7 2 8 1 9 10 11 11 12 15 13 16 14
REMARK SMILES IDX 17 15 12 17 13 18 14 19
REMARK H PARENT
REMARK Flexibility Score: 70.00
ROOT
ATOM      1  C   UNL     1      -0.642   4.636  15.089  1.00  0.00     0.136 C 
ATOM      2  O   UNL     1      -1.257   3.611  14.832  1.00  0.00    -0.299 OA
ENDROOT
BRANCH   1   3
ATOM      3  C   UNL     1       0.022   4.793  16.440  1.00  0.00     0.053 C 
ATOM      4  C   UNL     1       0.081   3.457  17.187  1.00  0.00     0.016 C 
BRANCH   3   5
ATOM      5  C   UNL     1      -0.741   5.867  17.255  1.00  0.00     0.015 C 
BRANCH   5   6
ATOM      6  C   UNL     1      -0.126   7.280  17.249  1.00  0.00     0.028 C 
BRANCH   6   7
ATOM      7  C   UNL     1      -1.082   8.449  17.156  1.00  0.00    -0.028 C 
ATOM      8  C   UNL     1      -1.658   8.943  16.032  1.00  0.00    -0.070 CG0
ATOM      9  C   UNL     1      -2.673  10.047  16.195  1.00  0.00     0.039 C 
ATOM     10  G   UNL     1      -1.284   8.519  14.623  1.00  0.00     0.000 G0
ENDBRANCH   6   7
ENDBRANCH   5   6
ENDBRANCH   3   5
ENDBRANCH   1   3
BRANCH   1  11
ATOM     11  C   UNL     1      -0.620   5.759  14.078  1.00  0.00     0.087 C 
BRANCH  11  12
ATOM     12  C   UNL     1      -2.048   6.182  13.626  1.00  0.00     0.066 C 
BRANCH  12  13
ATOM     13  C   UNL     1      -2.336   7.632  13.996  1.00  0.00     0.140 C 
ATOM     14  O   UNL     1      -3.455   8.086  13.801  1.00  0.00    -0.299 OA
BRANCH  13  15
ATOM     15  C   UNL     1      -1.285   8.526  14.622  1.00  0.00     0.106 CG0
ATOM     16  G   UNL     1      -1.686   8.926  16.031  1.00  0.00     0.000 G0
ENDBRANCH  13  15
ENDBRANCH  12  13
BRANCH  12  17
ATOM     17  C   UNL     1      -2.288   5.901  12.111  1.00  0.00    -0.006 C 
ATOM     18  C   UNL     1      -3.765   5.675  11.740  1.00  0.00     0.008 C 
ATOM     19  C   UNL     1      -1.432   4.726  11.614  1.00  0.00     0.008 C 
ENDBRANCH  12  17
ENDBRANCH  11  12
ENDBRANCH   1  11
TORSDOF 1
ENDMDL
MODEL 5
REMARK VINA RESULT:    -3.584      1.940      4.254
REMARK INTER + INTRA:          -5.275
REMARK INTER:                  -4.971
REMARK INTRA:                  -0.303
REMARK UNBOUND:                 0.195
REMARK SMILES CC1=CCC[C@@H](C)C(=O)C[C@H](C(C)C)C(=O)C1
REMARK SMILES IDX 8 1 9 2 6 3 7 4 5 5 4 6 3 7 2 8 1 9 10 11 11 12 15 13 16 14
REMARK SMILES IDX 17 15 12 17 13 18 14 19
REMARK H PARENT
REMARK Flexibility Score: 70.00
ROOT
ATOM      1  C   UNL     1     -14.985  -3.695   7.771  1.00  0.00     0.136 C 
ATOM      2  O   UNL     1     -13.953  -3.369   8.342  1.00  0.00    -0.299 OA
ENDROOT
BRANCH   1   3
ATOM      3  C   UNL     1     -15.753  -4.908   8.247  1.00  0.00     0.053 C 
ATOM      4  C   UNL     1     -15.044  -6.206   7.848  1.00  0.00     0.016 C 
BRANCH   3   5
ATOM      5  C   UNL     1     -17.193  -4.849   7.678  1.00  0.00     0.015 C 
BRANCH   5   6
ATOM      6  C   UNL     1     -17.550  -5.926   6.636  1.00  0.00     0.028 C 
BRANCH   6   7
ATOM      7  C   UNL     1     -18.402  -5.495   5.461  1.00  0.00    -0.028 C 
ATOM      8  C   UNL     1     -17.973  -5.197   4.210  1.00  0.00    -0.070 CG0
ATOM      9  C   UNL     1     -19.020  -4.902   3.165  1.00  0.00     0.039 C 
ATOM     10  G   UNL     1     -16.513  -5.058   3.817  1.00  0.00     0.000 G0
ENDBRANCH   6   7
ENDBRANCH   5   6
ENDBRANCH   3   5
ENDBRANCH   1   3
BRANCH   1  11
ATOM     11  C   UNL     1     -15.433  -2.920   6.553  1.00  0.00     0.087 C 
BRANCH  11  12
ATOM     12  C   UNL     1     -14.867  -3.511   5.229  1.00  0.00     0.066 C 
BRANCH  12  13
ATOM     13  C   UNL     1     -15.968  -3.686   4.191  1.00  0.00     0.140 C 
ATOM     14  O   UNL     1     -16.426  -2.697   3.635  1.00  0.00    -0.299 OA
BRANCH  13  15
ATOM     15  C   UNL     1     -16.499  -5.051   3.803  1.00  0.00     0.106 CG0
ATOM     16  G   UNL     1     -17.964  -5.188   4.180  1.00  0.00     0.000 G0
ENDBRANCH  13  15
ENDBRANCH  12  13
BRANCH  12  17
ATOM     17  C   UNL     1     -13.667  -2.676   4.683  1.00  0.00    -0.006 C 
ATOM     18  C   UNL     1     -12.290  -3.312   4.943  1.00  0.00     0.008 C 
ATOM     19  C   UNL     1     -13.694  -1.236   5.216  1.00  0.00     0.008 C 
ENDBRANCH  12  17
ENDBRANCH  11  12
ENDBRANCH   1  11
TORSDOF 1
ENDMDL
MODEL 6
REMARK VINA RESULT:    -3.562     18.877     21.645
REMARK INTER + INTRA:          -5.241
REMARK INTER:                  -5.118
REMARK INTRA:                  -0.123
REMARK UNBOUND:                 0.195
REMARK SMILES CC1=CCC[C@@H](C)C(=O)C[C@H](C(C)C)C(=O)C1
REMARK SMILES IDX 8 1 9 2 6 3 7 4 5 5 4 6 3 7 2 8 1 9 10 11 11 12 15 13 16 14
REMARK SMILES IDX 17 15 12 17 13 18 14 19
REMARK H PARENT
REMARK Flexibility Score: 70.00
ROOT
ATOM      1  C   UNL     1       0.141   4.756  16.715  1.00  0.00     0.136 C 
ATOM      2  O   UNL     1      -0.122   4.028  15.768  1.00  0.00    -0.299 OA
ENDROOT
BRANCH   1   3
ATOM      3  C   UNL     1       0.467   4.147  18.060  1.00  0.00     0.053 C 
ATOM      4  C   UNL     1      -0.609   3.145  18.491  1.00  0.00     0.016 C 
BRANCH   3   5
ATOM      5  C   UNL     1       0.635   5.283  19.101  1.00  0.00     0.015 C 
BRANCH   5   6
ATOM      6  C   UNL     1      -0.622   5.640  19.917  1.00  0.00     0.028 C 
BRANCH   6   7
ATOM      7  C   UNL     1      -0.834   7.101  20.254  1.00  0.00    -0.028 C 
ATOM      8  C   UNL     1      -1.732   7.945  19.690  1.00  0.00    -0.070 CG0
ATOM      9  C   UNL     1      -1.844   9.334  20.269  1.00  0.00     0.039 C 
ATOM     10  G   UNL     1      -2.567   7.612  18.466  1.00  0.00     0.000 G0
ENDBRANCH   6   7
ENDBRANCH   5   6
ENDBRANCH   3   5
ENDBRANCH   1   3
BRANCH   1  11
ATOM     11  C   UNL     1       0.064   6.255  16.538  1.00  0.00     0.087 C 
BRANCH  11  12
ATOM     12  C   UNL     1      -1.381   6.746  16.231  1.00  0.00     0.066 C 
BRANCH  12  13
ATOM     13  C   UNL     1      -1.794   7.867  17.176  1.00  0.00     0.140 C 
ATOM     14  O   UNL     1      -1.512   9.022  16.889  1.00  0.00    -0.299 OA
BRANCH  13  15
ATOM     15  C   UNL     1      -2.568   7.601  18.451  1.00  0.00     0.106 CG0
ATOM     16  G   UNL     1      -1.738   7.961  19.671  1.00  0.00     0.000 G0
ENDBRANCH  13  15
ENDBRANCH  12  13
BRANCH  12  17
ATOM     17  C   UNL     1      -1.556   7.141  14.732  1.00  0.00    -0.006 C 
ATOM     18  C   UNL     1      -2.216   6.052  13.867  1.00  0.00     0.008 C 
ATOM     19  C   UNL     1      -0.224   7.580  14.106  1.00  0.00     0.008 C 
ENDBRANCH  12  17
ENDBRANCH  11  12
ENDBRANCH   1  11
TORSDOF 1
ENDMDL
MODEL 7
REMARK VINA RESULT:    -3.532      2.456      4.484
REMARK INTER + INTRA:          -5.195
REMARK INTER:                  -5.351
REMARK INTRA:                   0.156
REMARK UNBOUND:                 0.195
REMARK SMILES CC1=CCC[C@@H](C)C(=O)C[C@H](C(C)C)C(=O)C1
REMARK SMILES IDX 8 1 9 2 6 3 7 4 5 5 4 6 3 7 2 8 1 9 10 11 11 12 15 13 16 14
REMARK SMILES IDX 17 15 12 17 13 18 14 19
REMARK H PARENT
REMARK Flexibility Score: 70.00
ROOT
ATOM      1  C   UNL     1     -14.870  -5.136   8.179  1.00  0.00     0.136 C 
ATOM      2  O   UNL     1     -14.127  -4.351   8.753  1.00  0.00    -0.299 OA
ENDROOT
BRANCH   1   3
ATOM      3  C   UNL     1     -16.358  -4.866   8.140  1.00  0.00     0.053 C 
ATOM      4  C   UNL     1     -17.148  -6.017   8.772  1.00  0.00     0.016 C 
BRANCH   3   5
ATOM      5  C   UNL     1     -16.788  -4.620   6.672  1.00  0.00     0.015 C 
BRANCH   5   6
ATOM      6  C   UNL     1     -16.322  -3.291   6.047  1.00  0.00     0.028 C 
BRANCH   6   7
ATOM      7  C   UNL     1     -15.680  -3.359   4.678  1.00  0.00    -0.028 C 
ATOM      8  C   UNL     1     -14.393  -3.678   4.396  1.00  0.00    -0.070 CG0
ATOM      9  C   UNL     1     -14.004  -3.794   2.943  1.00  0.00     0.039 C 
ATOM     10  G   UNL     1     -13.304  -3.839   5.442  1.00  0.00     0.000 G0
ENDBRANCH   6   7
ENDBRANCH   5   6
ENDBRANCH   3   5
ENDBRANCH   1   3
BRANCH   1  11
ATOM     11  C   UNL     1     -14.294  -6.400   7.584  1.00  0.00     0.087 C 
BRANCH  11  12
ATOM     12  C   UNL     1     -14.119  -6.307   6.041  1.00  0.00     0.066 C 
BRANCH  12  13
ATOM     13  C   UNL     1     -13.018  -5.321   5.670  1.00  0.00     0.140 C 
ATOM     14  O   UNL     1     -11.872  -5.728   5.542  1.00  0.00    -0.299 OA
BRANCH  13  15
ATOM     15  C   UNL     1     -13.301  -3.852   5.428  1.00  0.00     0.106 CG0
ATOM     16  G   UNL     1     -14.402  -3.676   4.396  1.00  0.00     0.000 G0
ENDBRANCH  13  15
ENDBRANCH  12  13
BRANCH  12  17
ATOM     17  C   UNL     1     -13.899  -7.709   5.392  1.00  0.00    -0.006 C 
ATOM     18  C   UNL     1     -13.890  -7.695   3.853  1.00  0.00     0.008 C 
ATOM     19  C   UNL     1     -14.922  -8.733   5.906  1.00  0.00     0.008 C 
ENDBRANCH  12  17
ENDBRANCH  11  12
ENDBRANCH   1  11
TORSDOF 1
ENDMDL
MODEL 8
REMARK VINA RESULT:    -3.497     12.473     15.084
REMARK INTER + INTRA:          -5.141
REMARK INTER:                  -5.159
REMARK INTRA:                   0.018
REMARK UNBOUND:                 0.195
REMARK SMILES CC1=CCC[C@@H](C)C(=O)C[C@H](C(C)C)C(=O)C1
REMARK SMILES IDX 8 1 9 2 6 3 7 4 5 5 4 6 3 7 2 8 1 9 10 11 11 12 15 13 16 14
REMARK SMILES IDX 17 15 12 17 13 18 14 19
REMARK H PARENT
REMARK Flexibility Score: 70.00
ROOT
ATOM      1  C   UNL     1      -2.971   4.807  10.577  1.00  0.00     0.136 C 
ATOM      2  O   UNL     1      -3.305   3.693  10.957  1.00  0.00    -0.299 OA
ENDROOT
BRANCH   1   3
ATOM      3  C   UNL     1      -1.823   5.518  11.259  1.00  0.00     0.053 C 
ATOM      4  C   UNL     1      -1.194   4.641  12.348  1.00  0.00     0.016 C 
BRANCH   3   5
ATOM      5  C   UNL     1      -2.334   6.862  11.837  1.00  0.00     0.015 C 
BRANCH   5   6
ATOM      6  C   UNL     1      -3.623   6.787  12.677  1.00  0.00     0.028 C 
BRANCH   6   7
ATOM      7  C   UNL     1      -4.769   7.687  12.266  1.00  0.00    -0.028 C 
ATOM      8  C   UNL     1      -5.982   7.301  11.800  1.00  0.00    -0.070 CG0
ATOM      9  C   UNL     1      -7.013   8.375  11.561  1.00  0.00     0.039 C 
ATOM     10  G   UNL     1      -6.337   5.873  11.422  1.00  0.00     0.000 G0
ENDBRANCH   6   7
ENDBRANCH   5   6
ENDBRANCH   3   5
ENDBRANCH   1   3
BRANCH   1  11
ATOM     11  C   UNL     1      -3.762   5.482   9.481  1.00  0.00     0.087 C 
BRANCH  11  12
ATOM     12  C   UNL     1      -5.160   4.833   9.268  1.00  0.00     0.066 C 
BRANCH  12  13
ATOM     13  C   UNL     1      -6.258   5.666   9.917  1.00  0.00     0.140 C 
ATOM     14  O   UNL     1      -7.120   6.170   9.211  1.00  0.00    -0.299 OA
BRANCH  13  15
ATOM     15  C   UNL     1      -6.333   5.870  11.417  1.00  0.00     0.106 CG0
ATOM     16  G   UNL     1      -5.992   7.303  11.785  1.00  0.00     0.000 G0
ENDBRANCH  13  15
ENDBRANCH  12  13
BRANCH  12  17
ATOM     17  C   UNL     1      -5.448   4.548   7.761  1.00  0.00    -0.006 C 
ATOM     18  C   UNL     1      -5.395   3.057   7.382  1.00  0.00     0.008 C 
ATOM     19  C   UNL     1      -4.518   5.360   6.847  1.00  0.00     0.008 C 
ENDBRANCH  12  17
ENDBRANCH  11  12
ENDBRANCH   1  11
TORSDOF 1
ENDMDL
MODEL 9
REMARK VINA RESULT:    -3.458     13.511     16.431
REMARK INTER + INTRA:          -5.082
REMARK INTER:                  -4.925
REMARK INTRA:                  -0.157
REMARK UNBOUND:                 0.195
REMARK SMILES CC1=CCC[C@@H](C)C(=O)C[C@H](C(C)C)C(=O)C1
REMARK SMILES IDX 8 1 9 2 6 3 7 4 5 5 4 6 3 7 2 8 1 9 10 11 11 12 15 13 16 14
REMARK SMILES IDX 17 15 12 17 13 18 14 19
REMARK H PARENT
REMARK Flexibility Score: 70.00
ROOT
ATOM      1  C   UNL     1      -2.037   5.373  12.193  1.00  0.00     0.136 C 
ATOM      2  O   UNL     1      -1.895   4.515  13.053  1.00  0.00    -0.299 OA
ENDROOT
BRANCH   1   3
ATOM      3  C   UNL     1      -1.813   6.828  12.542  1.00  0.00     0.053 C 
ATOM      4  C   UNL     1      -0.411   7.050  13.120  1.00  0.00     0.016 C 
BRANCH   3   5
ATOM      5  C   UNL     1      -2.914   7.285  13.531  1.00  0.00     0.015 C 
BRANCH   5   6
ATOM      6  C   UNL     1      -3.998   8.213  12.950  1.00  0.00     0.028 C 
BRANCH   6   7
ATOM      7  C   UNL     1      -3.624   9.037  11.736  1.00  0.00    -0.028 C 
ATOM      8  C   UNL     1      -4.101   8.893  10.475  1.00  0.00    -0.070 CG0
ATOM      9  C   UNL     1      -3.669   9.907   9.445  1.00  0.00     0.039 C 
ATOM     10  G   UNL     1      -4.968   7.733  10.017  1.00  0.00     0.000 G0
ENDBRANCH   6   7
ENDBRANCH   5   6
ENDBRANCH   3   5
ENDBRANCH   1   3
BRANCH   1  11
ATOM     11  C   UNL     1      -2.508   4.968  10.815  1.00  0.00     0.087 C 
BRANCH  11  12
ATOM     12  C   UNL     1      -4.003   5.325  10.567  1.00  0.00     0.066 C 
BRANCH  12  13
ATOM     13  C   UNL     1      -4.135   6.525   9.637  1.00  0.00     0.140 C 
ATOM     14  O   UNL     1      -3.566   6.506   8.555  1.00  0.00    -0.299 OA
BRANCH  13  15
ATOM     15  C   UNL     1      -4.971   7.735  10.000  1.00  0.00     0.106 CG0
ATOM     16  G   UNL     1      -4.089   8.883  10.459  1.00  0.00     0.000 G0
ENDBRANCH  13  15
ENDBRANCH  12  13
BRANCH  12  17
ATOM     17  C   UNL     1      -4.821   4.095  10.064  1.00  0.00    -0.006 C 
ATOM     18  C   UNL     1      -4.058   3.196   9.074  1.00  0.00     0.008 C 
ATOM     19  C   UNL     1      -6.167   4.523   9.460  1.00  0.00     0.008 C 
ENDBRANCH  12  17
ENDBRANCH  11  12
ENDBRANCH   1  11
TORSDOF 1
ENDMDL
