MODEL 1
REMARK VINA RESULT:    -5.334      0.000      0.000
REMARK INTER + INTRA:          -5.957
REMARK INTER:                  -5.957
REMARK INTRA:                   0.000
REMARK UNBOUND:                 0.000
REMARK SMILES Oc1cc(O)c2c(ccc3ccc(O)c(O)c32)c1
REMARK SMILES IDX 9 1 8 2 7 3 18 4 2 5 3 6 4 7 6 8 17 9 10 10 11 11 12 12
REMARK SMILES IDX 13 13 15 14 16 15 1 17 5 19 14 21
REMARK H PARENT 16 16 1 18 5 20 14 22
REMARK Flexibility Score: inf
ROOT
ATOM      1  C   UNL     1      35.326 -40.581  10.332  1.00  0.00     0.009 A 
ATOM      2  C   UNL     1      35.192 -39.962   9.096  1.00  0.00     0.009 A 
ATOM      3  C   UNL     1      34.681 -38.663   9.008  1.00  0.00    -0.010 A 
ATOM      4  C   UNL     1      34.485 -38.089   7.743  1.00  0.00     0.055 A 
ATOM      5  C   UNL     1      33.858 -36.852   7.618  1.00  0.00     0.119 A 
ATOM      6  C   UNL     1      33.368 -36.208   8.755  1.00  0.00     0.093 A 
ATOM      7  C   UNL     1      33.535 -36.774  10.026  1.00  0.00     0.127 A 
ATOM      8  C   UNL     1      34.320 -37.950  10.187  1.00  0.00     0.035 A 
ATOM      9  C   UNL     1      34.674 -38.508  11.459  1.00  0.00     0.039 A 
ATOM     10  C   UNL     1      35.081 -39.870  11.511  1.00  0.00    -0.014 A 
ATOM     11  C   UNL     1      35.287 -40.501  12.745  1.00  0.00     0.013 A 
ATOM     12  C   UNL     1      35.149 -39.787  13.930  1.00  0.00     0.051 A 
ATOM     13  C   UNL     1      34.898 -38.416  13.904  1.00  0.00     0.158 A 
ATOM     14  C   UNL     1      34.751 -37.751  12.663  1.00  0.00     0.166 A 
ENDROOT
BRANCH  14  15
ATOM     15  O   UNL     1      34.807 -36.356  12.606  1.00  0.00    -0.504 OA
ATOM     16  H   UNL     1      35.506 -35.801  13.081  1.00  0.00     0.293 HD
ENDBRANCH  14  15
BRANCH   5  17
ATOM     17  O   UNL     1      33.693 -36.288   6.354  1.00  0.00    -0.508 OA
ATOM     18  H   UNL     1      32.860 -36.456   5.804  1.00  0.00     0.293 HD
ENDBRANCH   5  17
BRANCH   7  19
ATOM     19  O   UNL     1      32.835 -36.215  11.097  1.00  0.00    -0.507 OA
ATOM     20  H   UNL     1      32.812 -36.655  12.009  1.00  0.00     0.293 HD
ENDBRANCH   7  19
BRANCH  13  21
ATOM     21  O   UNL     1      34.808 -37.745  15.125  1.00  0.00    -0.504 OA
ATOM     22  H   UNL     1      35.437 -37.910  15.899  1.00  0.00     0.293 HD
ENDBRANCH  13  21
TORSDOF 4
ENDMDL
MODEL 2
REMARK VINA RESULT:    -5.167      2.962      4.908
REMARK INTER + INTRA:          -5.771
REMARK INTER:                  -5.771
REMARK INTRA:                   0.000
REMARK UNBOUND:                 0.000
REMARK SMILES Oc1cc(O)c2c(ccc3ccc(O)c(O)c32)c1
REMARK SMILES IDX 9 1 8 2 7 3 18 4 2 5 3 6 4 7 6 8 17 9 10 10 11 11 12 12
REMARK SMILES IDX 13 13 15 14 16 15 1 17 5 19 14 21
REMARK H PARENT 16 16 1 18 5 20 14 22
REMARK Flexibility Score: inf
ROOT
ATOM      1  C   UNL     1      30.566 -36.792   7.216  1.00  0.00     0.009 A 
ATOM      2  C   UNL     1      30.886 -37.024   5.884  1.00  0.00     0.009 A 
ATOM      3  C   UNL     1      32.221 -37.027   5.468  1.00  0.00    -0.010 A 
ATOM      4  C   UNL     1      32.513 -37.189   4.106  1.00  0.00     0.055 A 
ATOM      5  C   UNL     1      33.821 -37.065   3.644  1.00  0.00     0.119 A 
ATOM      6  C   UNL     1      34.839 -36.718   4.535  1.00  0.00     0.093 A 
ATOM      7  C   UNL     1      34.564 -36.530   5.896  1.00  0.00     0.127 A 
ATOM      8  C   UNL     1      33.270 -36.819   6.411  1.00  0.00     0.035 A 
ATOM      9  C   UNL     1      32.942 -36.808   7.806  1.00  0.00     0.039 A 
ATOM     10  C   UNL     1      31.574 -36.691   8.180  1.00  0.00    -0.014 A 
ATOM     11  C   UNL     1      31.220 -36.521   9.524  1.00  0.00     0.013 A 
ATOM     12  C   UNL     1      32.196 -36.520  10.513  1.00  0.00     0.051 A 
ATOM     13  C   UNL     1      33.528 -36.782  10.192  1.00  0.00     0.158 A 
ATOM     14  C   UNL     1      33.893 -37.019   8.846  1.00  0.00     0.166 A 
ENDROOT
BRANCH  14  15
ATOM     15  O   UNL     1      35.138 -37.578   8.546  1.00  0.00    -0.504 OA
ATOM     16  H   UNL     1      35.373 -37.982   7.650  1.00  0.00     0.293 HD
ENDBRANCH  14  15
BRANCH   5  17
ATOM     17  O   UNL     1      34.095 -37.253   2.290  1.00  0.00    -0.508 OA
ATOM     18  H   UNL     1      33.518 -36.835   1.570  1.00  0.00     0.293 HD
ENDBRANCH   5  17
BRANCH   7  19
ATOM     19  O   UNL     1      35.556 -35.965   6.699  1.00  0.00    -0.507 OA
ATOM     20  H   UNL     1      35.343 -35.265   7.400  1.00  0.00     0.293 HD
ENDBRANCH   7  19
BRANCH  13  21
ATOM     21  O   UNL     1      34.458 -36.806  11.232  1.00  0.00    -0.504 OA
ATOM     22  H   UNL     1      34.956 -37.638  11.516  1.00  0.00     0.293 HD
ENDBRANCH  13  21
TORSDOF 4
ENDMDL
MODEL 3
REMARK VINA RESULT:    -4.797      4.532      7.649
REMARK INTER + INTRA:          -5.358
REMARK INTER:                  -5.358
REMARK INTRA:                   0.000
REMARK UNBOUND:                 0.000
REMARK SMILES Oc1cc(O)c2c(ccc3ccc(O)c(O)c32)c1
REMARK SMILES IDX 9 1 8 2 7 3 18 4 2 5 3 6 4 7 6 8 17 9 10 10 11 11 12 12
REMARK SMILES IDX 13 13 15 14 16 15 1 17 5 19 14 21
REMARK H PARENT 16 16 1 18 5 20 14 22
REMARK Flexibility Score: inf
ROOT
ATOM      1  C   UNL     1      35.498 -35.875   5.838  1.00  0.00     0.009 A 
ATOM      2  C   UNL     1      34.820 -35.901   7.050  1.00  0.00     0.009 A 
ATOM      3  C   UNL     1      33.497 -36.349   7.111  1.00  0.00    -0.010 A 
ATOM      4  C   UNL     1      32.811 -36.295   8.334  1.00  0.00     0.055 A 
ATOM      5  C   UNL     1      31.456 -36.609   8.399  1.00  0.00     0.119 A 
ATOM      6  C   UNL     1      30.763 -36.922   7.228  1.00  0.00     0.093 A 
ATOM      7  C   UNL     1      31.424 -36.961   5.993  1.00  0.00     0.127 A 
ATOM      8  C   UNL     1      32.838 -36.809   5.935  1.00  0.00     0.035 A 
ATOM      9  C   UNL     1      33.614 -36.991   4.743  1.00  0.00     0.039 A 
ATOM     10  C   UNL     1      34.915 -36.419   4.688  1.00  0.00    -0.014 A 
ATOM     11  C   UNL     1      35.647 -36.437   3.494  1.00  0.00     0.013 A 
ATOM     12  C   UNL     1      35.132 -37.062   2.365  1.00  0.00     0.051 A 
ATOM     13  C   UNL     1      33.926 -37.760   2.431  1.00  0.00     0.158 A 
ATOM     14  C   UNL     1      33.206 -37.805   3.648  1.00  0.00     0.166 A 
ENDROOT
BRANCH  14  15
ATOM     15  O   UNL     1      32.177 -38.736   3.818  1.00  0.00    -0.504 OA
ATOM     16  H   UNL     1      32.178 -39.452   4.531  1.00  0.00     0.293 HD
ENDBRANCH  14  15
BRANCH   5  17
ATOM     17  O   UNL     1      30.798 -36.571   9.626  1.00  0.00    -0.508 OA
ATOM     18  H   UNL     1      29.852 -36.219   9.710  1.00  0.00     0.293 HD
ENDBRANCH   5  17
BRANCH   7  19
ATOM     19  O   UNL     1      30.654 -37.051   4.832  1.00  0.00    -0.507 OA
ATOM     20  H   UNL     1      29.741 -36.618   4.761  1.00  0.00     0.293 HD
ENDBRANCH   7  19
BRANCH  13  21
ATOM     21  O   UNL     1      33.479 -38.401   1.274  1.00  0.00    -0.504 OA
ATOM     22  H   UNL     1      32.875 -37.963   0.592  1.00  0.00     0.293 HD
ENDBRANCH  13  21
TORSDOF 4
ENDMDL
MODEL 4
REMARK VINA RESULT:    -4.771     15.516     16.460
REMARK INTER + INTRA:          -5.329
REMARK INTER:                  -5.329
REMARK INTRA:                   0.000
REMARK UNBOUND:                 0.000
REMARK SMILES Oc1cc(O)c2c(ccc3ccc(O)c(O)c32)c1
REMARK SMILES IDX 9 1 8 2 7 3 18 4 2 5 3 6 4 7 6 8 17 9 10 10 11 11 12 12
REMARK SMILES IDX 13 13 15 14 16 15 1 17 5 19 14 21
REMARK H PARENT 16 16 1 18 5 20 14 22
REMARK Flexibility Score: inf
ROOT
ATOM      1  C   UNL     1      37.784 -43.289  -4.620  1.00  0.00     0.009 A 
ATOM      2  C   UNL     1      36.927 -42.202  -4.493  1.00  0.00     0.009 A 
ATOM      3  C   UNL     1      35.561 -42.400  -4.272  1.00  0.00    -0.010 A 
ATOM      4  C   UNL     1      34.707 -41.289  -4.223  1.00  0.00     0.055 A 
ATOM      5  C   UNL     1      33.328 -41.460  -4.136  1.00  0.00     0.119 A 
ATOM      6  C   UNL     1      32.789 -42.748  -4.159  1.00  0.00     0.093 A 
ATOM      7  C   UNL     1      33.624 -43.872  -4.230  1.00  0.00     0.127 A 
ATOM      8  C   UNL     1      35.036 -43.719  -4.148  1.00  0.00     0.035 A 
ATOM      9  C   UNL     1      35.955 -44.815  -4.053  1.00  0.00     0.039 A 
ATOM     10  C   UNL     1      37.317 -44.588  -4.397  1.00  0.00    -0.014 A 
ATOM     11  C   UNL     1      38.217 -45.659  -4.469  1.00  0.00     0.013 A 
ATOM     12  C   UNL     1      37.802 -46.947  -4.152  1.00  0.00     0.051 A 
ATOM     13  C   UNL     1      36.514 -47.176  -3.669  1.00  0.00     0.158 A 
ATOM     14  C   UNL     1      35.613 -46.094  -3.529  1.00  0.00     0.166 A 
ENDROOT
BRANCH  14  15
ATOM     15  O   UNL     1      34.449 -46.247  -2.771  1.00  0.00    -0.504 OA
ATOM     16  H   UNL     1      33.708 -45.560  -2.733  1.00  0.00     0.293 HD
ENDBRANCH  14  15
BRANCH   5  17
ATOM     17  O   UNL     1      32.497 -40.344  -4.065  1.00  0.00    -0.508 OA
ATOM     18  H   UNL     1      32.403 -39.703  -4.844  1.00  0.00     0.293 HD
ENDBRANCH   5  17
BRANCH   7  19
ATOM     19  O   UNL     1      33.040 -45.115  -4.481  1.00  0.00    -0.507 OA
ATOM     20  H   UNL     1      33.066 -45.543  -5.399  1.00  0.00     0.293 HD
ENDBRANCH   7  19
BRANCH  13  21
ATOM     21  O   UNL     1      36.167 -48.485  -3.330  1.00  0.00    -0.504 OA
ATOM     22  H   UNL     1      36.276 -48.869  -2.402  1.00  0.00     0.293 HD
ENDBRANCH  13  21
TORSDOF 4
ENDMDL
MODEL 5
REMARK VINA RESULT:    -4.700      2.498      3.381
REMARK INTER + INTRA:          -5.250
REMARK INTER:                  -5.250
REMARK INTRA:                   0.000
REMARK UNBOUND:                 0.000
REMARK SMILES Oc1cc(O)c2c(ccc3ccc(O)c(O)c32)c1
REMARK SMILES IDX 9 1 8 2 7 3 18 4 2 5 3 6 4 7 6 8 17 9 10 10 11 11 12 12
REMARK SMILES IDX 13 13 15 14 16 15 1 17 5 19 14 21
REMARK H PARENT 16 16 1 18 5 20 14 22
REMARK Flexibility Score: inf
ROOT
ATOM      1  C   UNL     1      34.727 -37.764  13.375  1.00  0.00     0.009 A 
ATOM      2  C   UNL     1      34.293 -37.035  12.275  1.00  0.00     0.009 A 
ATOM      3  C   UNL     1      34.312 -37.603  10.997  1.00  0.00    -0.010 A 
ATOM      4  C   UNL     1      33.939 -36.820   9.895  1.00  0.00     0.055 A 
ATOM      5  C   UNL     1      34.073 -37.315   8.600  1.00  0.00     0.119 A 
ATOM      6  C   UNL     1      34.637 -38.575   8.396  1.00  0.00     0.093 A 
ATOM      7  C   UNL     1      35.036 -39.365   9.484  1.00  0.00     0.127 A 
ATOM      8  C   UNL     1      34.751 -38.946  10.813  1.00  0.00     0.035 A 
ATOM      9  C   UNL     1      34.977 -39.756  11.974  1.00  0.00     0.039 A 
ATOM     10  C   UNL     1      35.061 -39.116  13.241  1.00  0.00    -0.014 A 
ATOM     11  C   UNL     1      35.434 -39.843  14.379  1.00  0.00     0.013 A 
ATOM     12  C   UNL     1      35.672 -41.210  14.291  1.00  0.00     0.051 A 
ATOM     13  C   UNL     1      35.452 -41.890  13.094  1.00  0.00     0.158 A 
ATOM     14  C   UNL     1      35.014 -41.180  11.952  1.00  0.00     0.166 A 
ENDROOT
BRANCH  14  15
ATOM     15  O   UNL     1      34.499 -41.872  10.852  1.00  0.00    -0.504 OA
ATOM     16  H   UNL     1      33.763 -41.518  10.258  1.00  0.00     0.293 HD
ENDBRANCH  14  15
BRANCH   5  17
ATOM     17  O   UNL     1      33.676 -36.531   7.518  1.00  0.00    -0.508 OA
ATOM     18  H   UNL     1      34.223 -36.487   6.667  1.00  0.00     0.293 HD
ENDBRANCH   5  17
BRANCH   7  19
ATOM     19  O   UNL     1      35.798 -40.506   9.229  1.00  0.00    -0.507 OA
ATOM     20  H   UNL     1      36.762 -40.585   9.530  1.00  0.00     0.293 HD
ENDBRANCH   7  19
BRANCH  13  21
ATOM     21  O   UNL     1      35.672 -43.269  13.077  1.00  0.00    -0.504 OA
ATOM     22  H   UNL     1      36.318 -43.723  12.446  1.00  0.00     0.293 HD
ENDBRANCH  13  21
TORSDOF 4
ENDMDL
MODEL 6
REMARK VINA RESULT:    -4.687      3.325      6.750
REMARK INTER + INTRA:          -5.235
REMARK INTER:                  -5.235
REMARK INTRA:                   0.000
REMARK UNBOUND:                 0.000
REMARK SMILES Oc1cc(O)c2c(ccc3ccc(O)c(O)c32)c1
REMARK SMILES IDX 9 1 8 2 7 3 18 4 2 5 3 6 4 7 6 8 17 9 10 10 11 11 12 12
REMARK SMILES IDX 13 13 15 14 16 15 1 17 5 19 14 21
REMARK H PARENT 16 16 1 18 5 20 14 22
REMARK Flexibility Score: inf
ROOT
ATOM      1  C   UNL     1      30.933 -37.095   5.453  1.00  0.00     0.009 A 
ATOM      2  C   UNL     1      30.564 -36.784   6.756  1.00  0.00     0.009 A 
ATOM      3  C   UNL     1      31.536 -36.626   7.748  1.00  0.00    -0.010 A 
ATOM      4  C   UNL     1      31.133 -36.387   9.070  1.00  0.00     0.055 A 
ATOM      5  C   UNL     1      32.070 -36.356  10.100  1.00  0.00     0.119 A 
ATOM      6  C   UNL     1      33.412 -36.624   9.822  1.00  0.00     0.093 A 
ATOM      7  C   UNL     1      33.832 -36.886   8.510  1.00  0.00     0.127 A 
ATOM      8  C   UNL     1      32.919 -36.755   7.428  1.00  0.00     0.035 A 
ATOM      9  C   UNL     1      33.294 -36.848   6.047  1.00  0.00     0.039 A 
ATOM     10  C   UNL     1      32.282 -37.122   5.086  1.00  0.00    -0.014 A 
ATOM     11  C   UNL     1      32.622 -37.375   3.752  1.00  0.00     0.013 A 
ATOM     12  C   UNL     1      33.948 -37.306   3.340  1.00  0.00     0.051 A 
ATOM     13  C   UNL     1      34.943 -36.894   4.226  1.00  0.00     0.158 A 
ATOM     14  C   UNL     1      34.606 -36.573   5.562  1.00  0.00     0.166 A 
ENDROOT
BRANCH  14  15
ATOM     15  O   UNL     1      35.512 -35.875   6.365  1.00  0.00    -0.504 OA
ATOM     16  H   UNL     1      36.479 -36.143   6.487  1.00  0.00     0.293 HD
ENDBRANCH  14  15
BRANCH   5  17
ATOM     17  O   UNL     1      31.653 -36.094  11.404  1.00  0.00    -0.508 OA
ATOM     18  H   UNL     1      32.240 -36.308  12.201  1.00  0.00     0.293 HD
ENDBRANCH   5  17
BRANCH   7  19
ATOM     19  O   UNL     1      35.127 -37.371   8.315  1.00  0.00    -0.507 OA
ATOM     20  H   UNL     1      35.500 -38.136   8.863  1.00  0.00     0.293 HD
ENDBRANCH   7  19
BRANCH  13  21
ATOM     21  O   UNL     1      36.251 -36.807   3.746  1.00  0.00    -0.504 OA
ATOM     22  H   UNL     1      36.865 -37.604   3.654  1.00  0.00     0.293 HD
ENDBRANCH  13  21
TORSDOF 4
ENDMDL
MODEL 7
REMARK VINA RESULT:    -4.656      4.614      6.339
REMARK INTER + INTRA:          -5.201
REMARK INTER:                  -5.201
REMARK INTRA:                   0.000
REMARK UNBOUND:                 0.000
REMARK SMILES Oc1cc(O)c2c(ccc3ccc(O)c(O)c32)c1
REMARK SMILES IDX 9 1 8 2 7 3 18 4 2 5 3 6 4 7 6 8 17 9 10 10 11 11 12 12
REMARK SMILES IDX 13 13 15 14 16 15 1 17 5 19 14 21
REMARK H PARENT 16 16 1 18 5 20 14 22
REMARK Flexibility Score: inf
ROOT
ATOM      1  C   UNL     1      35.561 -36.526   6.497  1.00  0.00     0.009 A 
ATOM      2  C   UNL     1      35.831 -36.832   5.169  1.00  0.00     0.009 A 
ATOM      3  C   UNL     1      34.802 -37.241   4.314  1.00  0.00    -0.010 A 
ATOM      4  C   UNL     1      35.114 -37.616   2.999  1.00  0.00     0.055 A 
ATOM      5  C   UNL     1      34.135 -38.150   2.166  1.00  0.00     0.119 A 
ATOM      6  C   UNL     1      32.848 -38.370   2.663  1.00  0.00     0.093 A 
ATOM      7  C   UNL     1      32.522 -38.022   3.981  1.00  0.00     0.127 A 
ATOM      8  C   UNL     1      33.461 -37.321   4.788  1.00  0.00     0.035 A 
ATOM      9  C   UNL     1      33.162 -36.787   6.085  1.00  0.00     0.039 A 
ATOM     10  C   UNL     1      34.242 -36.492   6.962  1.00  0.00    -0.014 A 
ATOM     11  C   UNL     1      33.995 -36.118   8.289  1.00  0.00     0.013 A 
ATOM     12  C   UNL     1      32.691 -35.977   8.747  1.00  0.00     0.051 A 
ATOM     13  C   UNL     1      31.615 -36.114   7.870  1.00  0.00     0.158 A 
ATOM     14  C   UNL     1      31.851 -36.430   6.512  1.00  0.00     0.166 A 
ENDROOT
BRANCH  14  15
ATOM     15  O   UNL     1      30.832 -36.269   5.569  1.00  0.00    -0.504 OA
ATOM     16  H   UNL     1      30.873 -35.613   4.801  1.00  0.00     0.293 HD
ENDBRANCH  14  15
BRANCH   5  17
ATOM     17  O   UNL     1      34.458 -38.496   0.855  1.00  0.00    -0.508 OA
ATOM     18  H   UNL     1      34.020 -38.041   0.064  1.00  0.00     0.293 HD
ENDBRANCH   5  17
BRANCH   7  19
ATOM     19  O   UNL     1      31.305 -38.465   4.501  1.00  0.00    -0.507 OA
ATOM     20  H   UNL     1      30.423 -38.046   4.232  1.00  0.00     0.293 HD
ENDBRANCH   7  19
BRANCH  13  21
ATOM     21  O   UNL     1      30.329 -35.924   8.380  1.00  0.00    -0.504 OA
ATOM     22  H   UNL     1      29.922 -35.013   8.540  1.00  0.00     0.293 HD
ENDBRANCH  13  21
TORSDOF 4
ENDMDL
MODEL 8
REMARK VINA RESULT:    -4.654      2.474      5.854
REMARK INTER + INTRA:          -5.198
REMARK INTER:                  -5.198
REMARK INTRA:                   0.000
REMARK UNBOUND:                 0.000
REMARK SMILES Oc1cc(O)c2c(ccc3ccc(O)c(O)c32)c1
REMARK SMILES IDX 9 1 8 2 7 3 18 4 2 5 3 6 4 7 6 8 17 9 10 10 11 11 12 12
REMARK SMILES IDX 13 13 15 14 16 15 1 17 5 19 14 21
REMARK H PARENT 16 16 1 18 5 20 14 22
REMARK Flexibility Score: inf
ROOT
ATOM      1  C   UNL     1      34.373 -37.347  12.621  1.00  0.00     0.009 A 
ATOM      2  C   UNL     1      34.846 -38.239  13.576  1.00  0.00     0.009 A 
ATOM      3  C   UNL     1      35.156 -39.556  13.221  1.00  0.00    -0.010 A 
ATOM      4  C   UNL     1      35.560 -40.456  14.218  1.00  0.00     0.055 A 
ATOM      5  C   UNL     1      35.749 -41.803  13.919  1.00  0.00     0.119 A 
ATOM      6  C   UNL     1      35.476 -42.270  12.631  1.00  0.00     0.093 A 
ATOM      7  C   UNL     1      35.052 -41.390  11.626  1.00  0.00     0.127 A 
ATOM      8  C   UNL     1      35.018 -39.989  11.870  1.00  0.00     0.035 A 
ATOM      9  C   UNL     1      34.751 -39.007  10.861  1.00  0.00     0.039 A 
ATOM     10  C   UNL     1      34.328 -37.711  11.271  1.00  0.00    -0.014 A 
ATOM     11  C   UNL     1      33.908 -36.770  10.323  1.00  0.00     0.013 A 
ATOM     12  C   UNL     1      33.951 -37.073   8.967  1.00  0.00     0.051 A 
ATOM     13  C   UNL     1      34.500 -38.277   8.529  1.00  0.00     0.158 A 
ATOM     14  C   UNL     1      34.988 -39.212   9.472  1.00  0.00     0.166 A 
ENDROOT
BRANCH  14  15
ATOM     15  O   UNL     1      35.807 -40.265   9.054  1.00  0.00    -0.504 OA
ATOM     16  H   UNL     1      36.560 -40.163   8.388  1.00  0.00     0.293 HD
ENDBRANCH  14  15
BRANCH   5  17
ATOM     17  O   UNL     1      36.172 -42.678  14.917  1.00  0.00    -0.508 OA
ATOM     18  H   UNL     1      35.882 -42.562  15.881  1.00  0.00     0.293 HD
ENDBRANCH   5  17
BRANCH   7  19
ATOM     19  O   UNL     1      34.575 -41.932  10.431  1.00  0.00    -0.507 OA
ATOM     20  H   UNL     1      33.747 -41.570   9.972  1.00  0.00     0.293 HD
ENDBRANCH   7  19
BRANCH  13  21
ATOM     21  O   UNL     1      34.551 -38.509   7.153  1.00  0.00    -0.504 OA
ATOM     22  H   UNL     1      34.688 -39.424   6.746  1.00  0.00     0.293 HD
ENDBRANCH  13  21
TORSDOF 4
ENDMDL
MODEL 9
REMARK VINA RESULT:    -4.628     15.111     15.962
REMARK INTER + INTRA:          -5.169
REMARK INTER:                  -5.169
REMARK INTRA:                   0.000
REMARK UNBOUND:                 0.000
REMARK SMILES Oc1cc(O)c2c(ccc3ccc(O)c(O)c32)c1
REMARK SMILES IDX 9 1 8 2 7 3 18 4 2 5 3 6 4 7 6 8 17 9 10 10 11 11 12 12
REMARK SMILES IDX 13 13 15 14 16 15 1 17 5 19 14 21
REMARK H PARENT 16 16 1 18 5 20 14 22
REMARK Flexibility Score: inf
ROOT
ATOM      1  C   UNL     1      35.724 -44.819  -3.690  1.00  0.00     0.009 A 
ATOM      2  C   UNL     1      37.097 -44.783  -3.478  1.00  0.00     0.009 A 
ATOM      3  C   UNL     1      37.804 -43.586  -3.626  1.00  0.00    -0.010 A 
ATOM      4  C   UNL     1      39.199 -43.592  -3.480  1.00  0.00     0.055 A 
ATOM      5  C   UNL     1      39.943 -42.447  -3.750  1.00  0.00     0.119 A 
ATOM      6  C   UNL     1      39.301 -41.302  -4.228  1.00  0.00     0.093 A 
ATOM      7  C   UNL     1      37.910 -41.282  -4.401  1.00  0.00     0.127 A 
ATOM      8  C   UNL     1      37.120 -42.384  -3.970  1.00  0.00     0.035 A 
ATOM      9  C   UNL     1      35.687 -42.387  -3.962  1.00  0.00     0.039 A 
ATOM     10  C   UNL     1      35.012 -43.639  -3.923  1.00  0.00    -0.014 A 
ATOM     11  C   UNL     1      33.620 -43.698  -4.069  1.00  0.00     0.013 A 
ATOM     12  C   UNL     1      32.878 -42.530  -4.199  1.00  0.00     0.051 A 
ATOM     13  C   UNL     1      33.495 -41.284  -4.091  1.00  0.00     0.158 A 
ATOM     14  C   UNL     1      34.892 -41.208  -3.879  1.00  0.00     0.166 A 
ENDROOT
BRANCH  14  15
ATOM     15  O   UNL     1      35.472 -40.005  -3.466  1.00  0.00    -0.504 OA
ATOM     16  H   UNL     1      35.953 -39.885  -2.585  1.00  0.00     0.293 HD
ENDBRANCH  14  15
BRANCH   5  17
ATOM     17  O   UNL     1      41.325 -42.466  -3.577  1.00  0.00    -0.508 OA
ATOM     18  H   UNL     1      41.850 -41.616  -3.409  1.00  0.00     0.293 HD
ENDBRANCH   5  17
BRANCH   7  19
ATOM     19  O   UNL     1      37.345 -40.208  -5.091  1.00  0.00    -0.507 OA
ATOM     20  H   UNL     1      36.348 -40.026  -5.074  1.00  0.00     0.293 HD
ENDBRANCH   7  19
BRANCH  13  21
ATOM     21  O   UNL     1      32.692 -40.147  -4.191  1.00  0.00    -0.504 OA
ATOM     22  H   UNL     1      31.738 -40.165  -4.525  1.00  0.00     0.293 HD
ENDBRANCH  13  21
TORSDOF 4
ENDMDL
