MODEL 1
REMARK VINA RESULT:    -4.146      0.000      0.000
REMARK INTER + INTRA:          -6.220
REMARK INTER:                  -5.722
REMARK INTRA:                  -0.498
REMARK UNBOUND:                -0.498
REMARK SMILES OC[C@@H](O)C(O)[C@H](O)CO
REMARK SMILES IDX 5 1 7 2 9 3 10 4 8 6 3 8 2 9 1 10 4 12 6 14
REMARK H PARENT 10 5 8 7 1 11 4 13 6 15
REMARK Flexibility Score: inf
ROOT
ATOM      1  C   UNL     1       9.054 -23.272  55.622  1.00  0.00     0.176 C 
ENDROOT
BRANCH   1   2
ATOM      2  C   UNL     1       9.672 -22.378  56.730  1.00  0.00     0.171 C 
BRANCH   2   3
ATOM      3  C   UNL     1       8.669 -21.399  57.368  1.00  0.00     0.190 C 
BRANCH   3   4
ATOM      4  O   UNL     1       7.600 -22.099  57.946  1.00  0.00    -0.394 OA
ATOM      5  H   UNL     1       7.577 -22.993  57.513  1.00  0.00     0.210 HD
ENDBRANCH   3   4
ENDBRANCH   2   3
BRANCH   2   6
ATOM      6  O   UNL     1      10.271 -23.176  57.719  1.00  0.00    -0.388 OA
ATOM      7  H   UNL     1      10.979 -22.627  58.149  1.00  0.00     0.211 HD
ENDBRANCH   2   6
ENDBRANCH   1   2
BRANCH   1   8
ATOM      8  C   UNL     1       8.652 -24.718  56.034  1.00  0.00     0.171 C 
BRANCH   8   9
ATOM      9  C   UNL     1       9.639 -25.806  55.572  1.00  0.00     0.190 C 
BRANCH   9  10
ATOM     10  O   UNL     1      10.543 -26.137  56.592  1.00  0.00    -0.394 OA
ATOM     11  H   UNL     1      11.402 -25.694  56.363  1.00  0.00     0.210 HD
ENDBRANCH   9  10
ENDBRANCH   8   9
BRANCH   8  12
ATOM     12  O   UNL     1       8.464 -24.794  57.424  1.00  0.00    -0.388 OA
ATOM     13  H   UNL     1       8.333 -23.866  57.752  1.00  0.00     0.211 HD
ENDBRANCH   8  12
ENDBRANCH   1   8
BRANCH   1  14
ATOM     14  O   UNL     1       7.933 -22.613  55.088  1.00  0.00    -0.388 OA
ATOM     15  H   UNL     1       7.377 -23.302  54.637  1.00  0.00     0.211 HD
ENDBRANCH   1  14
TORSDOF 9
ENDMDL
MODEL 2
REMARK VINA RESULT:    -4.120      1.695      3.944
REMARK INTER + INTRA:          -6.183
REMARK INTER:                  -5.939
REMARK INTRA:                  -0.244
REMARK UNBOUND:                -0.498
REMARK SMILES OC[C@@H](O)C(O)[C@H](O)CO
REMARK SMILES IDX 5 1 7 2 9 3 10 4 8 6 3 8 2 9 1 10 4 12 6 14
REMARK H PARENT 10 5 8 7 1 11 4 13 6 15
REMARK Flexibility Score: inf
ROOT
ATOM      1  C   UNL     1       9.184 -23.060  55.967  1.00  0.00     0.176 C 
ENDROOT
BRANCH   1   2
ATOM      2  C   UNL     1       8.784 -22.384  54.628  1.00  0.00     0.171 C 
BRANCH   2   3
ATOM      3  C   UNL     1       9.417 -23.044  53.388  1.00  0.00     0.190 C 
BRANCH   3   4
ATOM      4  O   UNL     1       9.661 -24.404  53.627  1.00  0.00    -0.394 OA
ATOM      5  H   UNL     1      10.548 -24.461  54.070  1.00  0.00     0.210 HD
ENDBRANCH   3   4
ENDBRANCH   2   3
BRANCH   2   6
ATOM      6  O   UNL     1       7.385 -22.349  54.501  1.00  0.00    -0.388 OA
ATOM      7  H   UNL     1       7.019 -23.044  55.109  1.00  0.00     0.211 HD
ENDBRANCH   2   6
ENDBRANCH   1   2
BRANCH   1   8
ATOM      8  C   UNL     1       9.538 -22.112  57.149  1.00  0.00     0.171 C 
BRANCH   8   9
ATOM      9  C   UNL     1       8.379 -21.206  57.605  1.00  0.00     0.190 C 
BRANCH   9  10
ATOM     10  O   UNL     1       8.496 -20.876  58.962  1.00  0.00    -0.394 OA
ATOM     11  H   UNL     1       7.812 -20.179  59.145  1.00  0.00     0.210 HD
ENDBRANCH   9  10
ENDBRANCH   8   9
BRANCH   8  12
ATOM     12  O   UNL     1      10.028 -22.852  58.238  1.00  0.00    -0.388 OA
ATOM     13  H   UNL     1      10.118 -22.224  59.002  1.00  0.00     0.211 HD
ENDBRANCH   8  12
ENDBRANCH   1   8
BRANCH   1  14
ATOM     14  O   UNL     1       8.147 -23.924  56.360  1.00  0.00    -0.388 OA
ATOM     15  H   UNL     1       7.330 -23.640  55.872  1.00  0.00     0.211 HD
ENDBRANCH   1  14
TORSDOF 9
ENDMDL
MODEL 3
REMARK VINA RESULT:    -4.037      1.857      2.721
REMARK INTER + INTRA:          -6.068
REMARK INTER:                  -5.798
REMARK INTRA:                  -0.270
REMARK UNBOUND:                -0.498
REMARK SMILES OC[C@@H](O)C(O)[C@H](O)CO
REMARK SMILES IDX 5 1 7 2 9 3 10 4 8 6 3 8 2 9 1 10 4 12 6 14
REMARK H PARENT 10 5 8 7 1 11 4 13 6 15
REMARK Flexibility Score: inf
ROOT
ATOM      1  C   UNL     1       8.841 -22.814  56.372  1.00  0.00     0.176 C 
ENDROOT
BRANCH   1   2
ATOM      2  C   UNL     1       9.673 -22.100  57.471  1.00  0.00     0.171 C 
BRANCH   2   3
ATOM      3  C   UNL     1       8.827 -21.241  58.430  1.00  0.00     0.190 C 
BRANCH   3   4
ATOM      4  O   UNL     1       9.580 -20.878  59.555  1.00  0.00    -0.394 OA
ATOM      5  H   UNL     1       9.146 -20.072  59.941  1.00  0.00     0.210 HD
ENDBRANCH   3   4
ENDBRANCH   2   3
BRANCH   2   6
ATOM      6  O   UNL     1      10.428 -23.039  58.194  1.00  0.00    -0.388 OA
ATOM      7  H   UNL     1      10.363 -23.903  57.709  1.00  0.00     0.211 HD
ENDBRANCH   2   6
ENDBRANCH   1   2
BRANCH   1   8
ATOM      8  C   UNL     1       8.675 -22.061  55.021  1.00  0.00     0.171 C 
BRANCH   8   9
ATOM      9  C   UNL     1       9.709 -22.449  53.947  1.00  0.00     0.190 C 
BRANCH   9  10
ATOM     10  O   UNL     1       9.286 -23.570  53.219  1.00  0.00    -0.394 OA
ATOM     11  H   UNL     1       8.828 -23.226  52.408  1.00  0.00     0.210 HD
ENDBRANCH   9  10
ENDBRANCH   8   9
BRANCH   8  12
ATOM     12  O   UNL     1       7.373 -22.233  54.523  1.00  0.00    -0.388 OA
ATOM     13  H   UNL     1       6.987 -21.327  54.395  1.00  0.00     0.211 HD
ENDBRANCH   8  12
ENDBRANCH   1   8
BRANCH   1  14
ATOM     14  O   UNL     1       9.407 -24.078  56.132  1.00  0.00    -0.388 OA
ATOM     15  H   UNL     1       8.710 -24.630  55.687  1.00  0.00     0.211 HD
ENDBRANCH   1  14
TORSDOF 9
ENDMDL
MODEL 4
REMARK VINA RESULT:    -4.026      1.333      2.083
REMARK INTER + INTRA:          -6.054
REMARK INTER:                  -5.367
REMARK INTRA:                  -0.686
REMARK UNBOUND:                -0.498
REMARK SMILES OC[C@@H](O)C(O)[C@H](O)CO
REMARK SMILES IDX 5 1 7 2 9 3 10 4 8 6 3 8 2 9 1 10 4 12 6 14
REMARK H PARENT 10 5 8 7 1 11 4 13 6 15
REMARK Flexibility Score: inf
ROOT
ATOM      1  C   UNL     1       8.702 -24.072  56.160  1.00  0.00     0.176 C 
ENDROOT
BRANCH   1   2
ATOM      2  C   UNL     1       8.976 -22.567  56.424  1.00  0.00     0.171 C 
BRANCH   2   3
ATOM      3  C   UNL     1       9.241 -22.235  57.905  1.00  0.00     0.190 C 
BRANCH   3   4
ATOM      4  O   UNL     1      10.394 -22.894  58.355  1.00  0.00    -0.394 OA
ATOM      5  H   UNL     1      10.693 -22.419  59.174  1.00  0.00     0.210 HD
ENDBRANCH   3   4
ENDBRANCH   2   3
BRANCH   2   6
ATOM      6  O   UNL     1      10.042 -22.120  55.625  1.00  0.00    -0.388 OA
ATOM      7  H   UNL     1      10.263 -22.855  54.994  1.00  0.00     0.211 HD
ENDBRANCH   2   6
ENDBRANCH   1   2
BRANCH   1   8
ATOM      8  C   UNL     1       9.769 -24.841  55.329  1.00  0.00     0.171 C 
BRANCH   8   9
ATOM      9  C   UNL     1       9.696 -26.374  55.466  1.00  0.00     0.190 C 
BRANCH   9  10
ATOM     10  O   UNL     1      10.601 -26.841  56.429  1.00  0.00    -0.394 OA
ATOM     11  H   UNL     1      10.252 -27.713  56.747  1.00  0.00     0.210 HD
ENDBRANCH   9  10
ENDBRANCH   8   9
BRANCH   8  12
ATOM     12  O   UNL     1       9.691 -24.473  53.975  1.00  0.00    -0.388 OA
ATOM     13  H   UNL     1       8.877 -23.915  53.871  1.00  0.00     0.211 HD
ENDBRANCH   8  12
ENDBRANCH   1   8
BRANCH   1  14
ATOM     14  O   UNL     1       8.523 -24.718  57.396  1.00  0.00    -0.388 OA
ATOM     15  H   UNL     1       9.049 -24.210  58.069  1.00  0.00     0.211 HD
ENDBRANCH   1  14
TORSDOF 9
ENDMDL
MODEL 5
REMARK VINA RESULT:    -3.932      1.552      4.184
REMARK INTER + INTRA:          -5.924
REMARK INTER:                  -5.227
REMARK INTRA:                  -0.697
REMARK UNBOUND:                -0.498
REMARK SMILES OC[C@@H](O)C(O)[C@H](O)CO
REMARK SMILES IDX 5 1 7 2 9 3 10 4 8 6 3 8 2 9 1 10 4 12 6 14
REMARK H PARENT 10 5 8 7 1 11 4 13 6 15
REMARK Flexibility Score: inf
ROOT
ATOM      1  C   UNL     1       9.272 -25.147  55.137  1.00  0.00     0.176 C 
ENDROOT
BRANCH   1   2
ATOM      2  C   UNL     1       9.979 -26.509  55.372  1.00  0.00     0.171 C 
BRANCH   2   3
ATOM      3  C   UNL     1      10.839 -26.974  54.182  1.00  0.00     0.190 C 
BRANCH   3   4
ATOM      4  O   UNL     1      12.124 -26.418  54.259  1.00  0.00    -0.394 OA
ATOM      5  H   UNL     1      12.601 -26.901  54.984  1.00  0.00     0.210 HD
ENDBRANCH   3   4
ENDBRANCH   2   3
BRANCH   2   6
ATOM      6  O   UNL     1      10.753 -26.458  56.543  1.00  0.00    -0.388 OA
ATOM      7  H   UNL     1      10.484 -27.231  57.105  1.00  0.00     0.211 HD
ENDBRANCH   2   6
ENDBRANCH   1   2
BRANCH   1   8
ATOM      8  C   UNL     1       9.241 -24.160  56.339  1.00  0.00     0.171 C 
BRANCH   8   9
ATOM      9  C   UNL     1       8.826 -22.723  55.969  1.00  0.00     0.190 C 
BRANCH   9  10
ATOM     10  O   UNL     1       7.848 -22.720  54.965  1.00  0.00    -0.394 OA
ATOM     11  H   UNL     1       7.440 -21.815  54.969  1.00  0.00     0.210 HD
ENDBRANCH   9  10
ENDBRANCH   8   9
BRANCH   8  12
ATOM     12  O   UNL     1       8.408 -24.656  57.356  1.00  0.00    -0.388 OA
ATOM     13  H   UNL     1       7.796 -25.315  56.936  1.00  0.00     0.211 HD
ENDBRANCH   8  12
ENDBRANCH   1   8
BRANCH   1  14
ATOM     14  O   UNL     1       9.872 -24.515  54.034  1.00  0.00    -0.388 OA
ATOM     15  H   UNL     1      10.104 -25.227  53.380  1.00  0.00     0.211 HD
ENDBRANCH   1  14
TORSDOF 9
ENDMDL
MODEL 6
REMARK VINA RESULT:    -3.886      1.753      3.051
REMARK INTER + INTRA:          -5.860
REMARK INTER:                  -5.363
REMARK INTRA:                  -0.497
REMARK UNBOUND:                -0.498
REMARK SMILES OC[C@@H](O)C(O)[C@H](O)CO
REMARK SMILES IDX 5 1 7 2 9 3 10 4 8 6 3 8 2 9 1 10 4 12 6 14
REMARK H PARENT 10 5 8 7 1 11 4 13 6 15
REMARK Flexibility Score: inf
ROOT
ATOM      1  C   UNL     1       9.438 -22.738  55.458  1.00  0.00     0.176 C 
ENDROOT
BRANCH   1   2
ATOM      2  C   UNL     1       8.506 -21.681  54.808  1.00  0.00     0.171 C 
BRANCH   2   3
ATOM      3  C   UNL     1       9.098 -21.024  53.546  1.00  0.00     0.190 C 
BRANCH   3   4
ATOM      4  O   UNL     1       8.976 -21.882  52.444  1.00  0.00    -0.394 OA
ATOM      5  H   UNL     1       8.282 -21.490  51.852  1.00  0.00     0.210 HD
ENDBRANCH   3   4
ENDBRANCH   2   3
BRANCH   2   6
ATOM      6  O   UNL     1       7.254 -22.249  54.520  1.00  0.00    -0.388 OA
ATOM      7  H   UNL     1       6.566 -21.563  54.728  1.00  0.00     0.211 HD
ENDBRANCH   2   6
ENDBRANCH   1   2
BRANCH   1   8
ATOM      8  C   UNL     1       9.070 -23.204  56.896  1.00  0.00     0.171 C 
BRANCH   8   9
ATOM      9  C   UNL     1       8.433 -24.605  56.966  1.00  0.00     0.190 C 
BRANCH   9  10
ATOM     10  O   UNL     1       9.393 -25.609  56.775  1.00  0.00    -0.394 OA
ATOM     11  H   UNL     1       9.784 -25.801  57.667  1.00  0.00     0.210 HD
ENDBRANCH   9  10
ENDBRANCH   8   9
BRANCH   8  12
ATOM     12  O   UNL     1      10.198 -23.144  57.732  1.00  0.00    -0.388 OA
ATOM     13  H   UNL     1       9.936 -23.540  58.604  1.00  0.00     0.211 HD
ENDBRANCH   8  12
ENDBRANCH   1   8
BRANCH   1  14
ATOM     14  O   UNL     1       9.504 -23.858  54.611  1.00  0.00    -0.388 OA
ATOM     15  H   UNL     1       9.704 -24.646  55.183  1.00  0.00     0.211 HD
ENDBRANCH   1  14
TORSDOF 9
ENDMDL
MODEL 7
REMARK VINA RESULT:    -3.859      2.205      2.965
REMARK INTER + INTRA:          -5.823
REMARK INTER:                  -5.577
REMARK INTRA:                  -0.246
REMARK UNBOUND:                -0.498
REMARK SMILES OC[C@@H](O)C(O)[C@H](O)CO
REMARK SMILES IDX 5 1 7 2 9 3 10 4 8 6 3 8 2 9 1 10 4 12 6 14
REMARK H PARENT 10 5 8 7 1 11 4 13 6 15
REMARK Flexibility Score: inf
ROOT
ATOM      1  C   UNL     1       8.897 -22.536  54.863  1.00  0.00     0.176 C 
ENDROOT
BRANCH   1   2
ATOM      2  C   UNL     1       9.087 -23.326  56.186  1.00  0.00     0.171 C 
BRANCH   2   3
ATOM      3  C   UNL     1       9.151 -22.432  57.438  1.00  0.00     0.190 C 
BRANCH   3   4
ATOM      4  O   UNL     1      10.187 -22.850  58.286  1.00  0.00    -0.394 OA
ATOM      5  H   UNL     1       9.791 -22.955  59.191  1.00  0.00     0.210 HD
ENDBRANCH   3   4
ENDBRANCH   2   3
BRANCH   2   6
ATOM      6  O   UNL     1       8.073 -24.289  56.325  1.00  0.00    -0.388 OA
ATOM      7  H   UNL     1       7.968 -24.465  57.297  1.00  0.00     0.211 HD
ENDBRANCH   2   6
ENDBRANCH   1   2
BRANCH   1   8
ATOM      8  C   UNL     1       9.506 -23.168  53.578  1.00  0.00     0.171 C 
BRANCH   8   9
ATOM      9  C   UNL     1      10.657 -22.354  52.956  1.00  0.00     0.190 C 
BRANCH   9  10
ATOM     10  O   UNL     1      11.869 -23.056  53.023  1.00  0.00    -0.394 OA
ATOM     11  H   UNL     1      11.714 -23.932  52.582  1.00  0.00     0.210 HD
ENDBRANCH   9  10
ENDBRANCH   8   9
BRANCH   8  12
ATOM     12  O   UNL     1       9.928 -24.483  53.834  1.00  0.00    -0.388 OA
ATOM     13  H   UNL     1      10.920 -24.487  53.781  1.00  0.00     0.211 HD
ENDBRANCH   8  12
ENDBRANCH   1   8
BRANCH   1  14
ATOM     14  O   UNL     1       7.523 -22.317  54.666  1.00  0.00    -0.388 OA
ATOM     15  H   UNL     1       7.063 -23.182  54.831  1.00  0.00     0.211 HD
ENDBRANCH   1  14
TORSDOF 9
ENDMDL
MODEL 8
REMARK VINA RESULT:    -3.838     13.881     15.136
REMARK INTER + INTRA:          -5.795
REMARK INTER:                  -4.834
REMARK INTRA:                  -0.961
REMARK UNBOUND:                -0.498
REMARK SMILES OC[C@@H](O)C(O)[C@H](O)CO
REMARK SMILES IDX 5 1 7 2 9 3 10 4 8 6 3 8 2 9 1 10 4 12 6 14
REMARK H PARENT 10 5 8 7 1 11 4 13 6 15
REMARK Flexibility Score: inf
ROOT
ATOM      1  C   UNL     1       0.937 -31.401  45.308  1.00  0.00     0.176 C 
ENDROOT
BRANCH   1   2
ATOM      2  C   UNL     1       1.854 -30.782  44.219  1.00  0.00     0.171 C 
BRANCH   2   3
ATOM      3  C   UNL     1       1.683 -29.260  44.056  1.00  0.00     0.190 C 
BRANCH   3   4
ATOM      4  O   UNL     1       2.270 -28.583  45.134  1.00  0.00    -0.394 OA
ATOM      5  H   UNL     1       1.829 -27.695  45.188  1.00  0.00     0.210 HD
ENDBRANCH   3   4
ENDBRANCH   2   3
BRANCH   2   6
ATOM      6  O   UNL     1       3.198 -31.097  44.480  1.00  0.00    -0.388 OA
ATOM      7  H   UNL     1       3.278 -32.086  44.453  1.00  0.00     0.211 HD
ENDBRANCH   2   6
ENDBRANCH   1   2
BRANCH   1   8
ATOM      8  C   UNL     1       1.645 -32.135  46.483  1.00  0.00     0.171 C 
BRANCH   8   9
ATOM      9  C   UNL     1       1.893 -31.255  47.723  1.00  0.00     0.190 C 
BRANCH   9  10
ATOM     10  O   UNL     1       2.898 -30.308  47.480  1.00  0.00    -0.394 OA
ATOM     11  H   UNL     1       3.557 -30.741  46.878  1.00  0.00     0.210 HD
ENDBRANCH   9  10
ENDBRANCH   8   9
BRANCH   8  12
ATOM     12  O   UNL     1       0.925 -33.286  46.844  1.00  0.00    -0.388 OA
ATOM     13  H   UNL     1       0.888 -33.870  46.042  1.00  0.00     0.211 HD
ENDBRANCH   8  12
ENDBRANCH   1   8
BRANCH   1  14
ATOM     14  O   UNL     1       0.110 -30.388  45.825  1.00  0.00    -0.388 OA
ATOM     15  H   UNL     1       0.685 -29.593  45.981  1.00  0.00     0.211 HD
ENDBRANCH   1  14
TORSDOF 9
ENDMDL
MODEL 9
REMARK VINA RESULT:    -3.718     14.280     15.543
REMARK INTER + INTRA:          -5.628
REMARK INTER:                  -4.825
REMARK INTRA:                  -0.802
REMARK UNBOUND:                -0.498
REMARK SMILES OC[C@@H](O)C(O)[C@H](O)CO
REMARK SMILES IDX 5 1 7 2 9 3 10 4 8 6 3 8 2 9 1 10 4 12 6 14
REMARK H PARENT 10 5 8 7 1 11 4 13 6 15
REMARK Flexibility Score: inf
ROOT
ATOM      1  C   UNL     1       1.526 -30.229  45.723  1.00  0.00     0.176 C 
ENDROOT
BRANCH   1   2
ATOM      2  C   UNL     1       1.677 -30.759  47.174  1.00  0.00     0.171 C 
BRANCH   2   3
ATOM      3  C   UNL     1       1.367 -32.261  47.321  1.00  0.00     0.190 C 
BRANCH   3   4
ATOM      4  O   UNL     1       0.064 -32.538  46.885  1.00  0.00    -0.394 OA
ATOM      5  H   UNL     1       0.089 -32.538  45.892  1.00  0.00     0.210 HD
ENDBRANCH   3   4
ENDBRANCH   2   3
BRANCH   2   6
ATOM      6  O   UNL     1       2.964 -30.477  47.663  1.00  0.00    -0.388 OA
ATOM      7  H   UNL     1       2.865 -29.777  48.360  1.00  0.00     0.211 HD
ENDBRANCH   2   6
ENDBRANCH   1   2
BRANCH   1   8
ATOM      8  C   UNL     1       2.134 -31.107  44.592  1.00  0.00     0.171 C 
BRANCH   8   9
ATOM      9  C   UNL     1       1.171 -31.395  43.425  1.00  0.00     0.190 C 
BRANCH   9  10
ATOM     10  O   UNL     1       0.252 -32.399  43.761  1.00  0.00    -0.394 OA
ATOM     11  H   UNL     1      -0.527 -31.944  44.174  1.00  0.00     0.210 HD
ENDBRANCH   9  10
ENDBRANCH   8   9
BRANCH   8  12
ATOM     12  O   UNL     1       3.319 -30.527  44.108  1.00  0.00    -0.388 OA
ATOM     13  H   UNL     1       3.512 -30.947  43.230  1.00  0.00     0.211 HD
ENDBRANCH   8  12
ENDBRANCH   1   8
BRANCH   1  14
ATOM     14  O   UNL     1       0.160 -30.019  45.463  1.00  0.00    -0.388 OA
ATOM     15  H   UNL     1       0.074 -29.831  44.491  1.00  0.00     0.211 HD
ENDBRANCH   1  14
TORSDOF 9
ENDMDL
