MODEL 1
REMARK VINA RESULT:    -4.609      0.000      0.000
REMARK INTER + INTRA:          -6.549
REMARK INTER:                  -5.687
REMARK INTRA:                  -0.861
REMARK UNBOUND:                -0.861
REMARK SMILES CC(C)=CCC[C@H](C)c1ccc(C)cc1
REMARK SMILES IDX 6 1 7 2 8 3 9 4 13 5 12 6 11 7 14 8 10 9 15 10 5 11 4 12
REMARK SMILES IDX 2 13 1 14 3 15
REMARK H PARENT
REMARK Flexibility Score: inf
ROOT
ATOM      1  C   UNL     1      29.984 -11.154  31.679  1.00  0.00     0.012 C 
ENDROOT
BRANCH   1   2
ATOM      2  C   UNL     1      29.108 -11.752  30.551  1.00  0.00     0.016 C 
ATOM      3  C   UNL     1      29.917 -12.055  29.279  1.00  0.00     0.013 C 
BRANCH   2   4
ATOM      4  C   UNL     1      27.952 -10.820  30.236  1.00  0.00    -0.045 A 
ATOM      5  C   UNL     1      24.632  -8.220  29.301  1.00  0.00     0.044 C 
ATOM      6  C   UNL     1      25.802  -9.098  29.629  1.00  0.00    -0.051 A 
ATOM      7  C   UNL     1      26.606  -9.616  28.603  1.00  0.00     0.004 A 
ATOM      8  C   UNL     1      26.059  -9.467  30.957  1.00  0.00     0.004 A 
ATOM      9  C   UNL     1      27.675 -10.465  28.904  1.00  0.00     0.004 A 
ATOM     10  C   UNL     1      27.128 -10.316  31.260  1.00  0.00     0.004 A 
ENDBRANCH   2   4
ENDBRANCH   1   2
BRANCH   1  11
ATOM     11  C   UNL     1      30.959 -10.060  31.211  1.00  0.00     0.028 C 
BRANCH  11  12
ATOM     12  C   UNL     1      30.444  -8.669  31.498  1.00  0.00    -0.028 C 
ATOM     13  C   UNL     1      30.807  -7.918  32.560  1.00  0.00    -0.080 C 
ATOM     14  C   UNL     1      31.747  -8.435  33.624  1.00  0.00     0.039 C 
ATOM     15  C   UNL     1      30.233  -6.531  32.687  1.00  0.00     0.039 C 
ENDBRANCH  11  12
ENDBRANCH   1  11
TORSDOF 4
ENDMDL
MODEL 2
REMARK VINA RESULT:    -4.575      4.382      6.285
REMARK INTER + INTRA:          -6.506
REMARK INTER:                  -5.789
REMARK INTRA:                  -0.717
REMARK UNBOUND:                -0.861
REMARK SMILES CC(C)=CCC[C@H](C)c1ccc(C)cc1
REMARK SMILES IDX 6 1 7 2 8 3 9 4 13 5 12 6 11 7 14 8 10 9 15 10 5 11 4 12
REMARK SMILES IDX 2 13 1 14 3 15
REMARK H PARENT
REMARK Flexibility Score: inf
ROOT
ATOM      1  C   UNL     1      34.698 -10.084  28.816  1.00  0.00     0.012 C 
ENDROOT
BRANCH   1   2
ATOM      2  C   UNL     1      33.788 -10.852  29.806  1.00  0.00     0.016 C 
ATOM      3  C   UNL     1      32.999 -11.981  29.123  1.00  0.00     0.013 C 
BRANCH   2   4
ATOM      4  C   UNL     1      32.843  -9.890  30.503  1.00  0.00    -0.045 A 
ATOM      5  C   UNL     1      30.169  -7.182  32.547  1.00  0.00     0.044 C 
ATOM      6  C   UNL     1      31.081  -8.119  31.813  1.00  0.00    -0.051 A 
ATOM      7  C   UNL     1      30.860  -9.503  31.862  1.00  0.00     0.004 A 
ATOM      8  C   UNL     1      32.202  -7.625  31.130  1.00  0.00     0.004 A 
ATOM      9  C   UNL     1      31.730 -10.381  31.208  1.00  0.00     0.004 A 
ATOM     10  C   UNL     1      33.073  -8.501  30.476  1.00  0.00     0.004 A 
ENDBRANCH   2   4
ENDBRANCH   1   2
BRANCH   1  11
ATOM     11  C   UNL     1      36.194 -10.427  28.935  1.00  0.00     0.028 C 
BRANCH  11  12
ATOM     12  C   UNL     1      36.506 -11.214  30.186  1.00  0.00    -0.028 C 
ATOM     13  C   UNL     1      37.715 -11.259  30.785  1.00  0.00    -0.080 C 
ATOM     14  C   UNL     1      38.922 -10.552  30.212  1.00  0.00     0.039 C 
ATOM     15  C   UNL     1      37.859 -12.062  32.052  1.00  0.00     0.039 C 
ENDBRANCH  11  12
ENDBRANCH   1  11
TORSDOF 4
ENDMDL
MODEL 3
REMARK VINA RESULT:    -4.395      2.446      6.233
REMARK INTER + INTRA:          -6.284
REMARK INTER:                  -5.745
REMARK INTRA:                  -0.540
REMARK UNBOUND:                -0.861
REMARK SMILES CC(C)=CCC[C@H](C)c1ccc(C)cc1
REMARK SMILES IDX 6 1 7 2 8 3 9 4 13 5 12 6 11 7 14 8 10 9 15 10 5 11 4 12
REMARK SMILES IDX 2 13 1 14 3 15
REMARK H PARENT
REMARK Flexibility Score: inf
ROOT
ATOM      1  C   UNL     1      29.869  -8.995  31.330  1.00  0.00     0.012 C 
ENDROOT
BRANCH   1   2
ATOM      2  C   UNL     1      31.130  -9.507  32.068  1.00  0.00     0.016 C 
ATOM      3  C   UNL     1      31.508  -8.621  33.267  1.00  0.00     0.013 C 
BRANCH   2   4
ATOM      4  C   UNL     1      32.296  -9.616  31.101  1.00  0.00    -0.045 A 
ATOM      5  C   UNL     1      35.566  -9.956  28.301  1.00  0.00     0.044 C 
ATOM      6  C   UNL     1      34.450  -9.840  29.295  1.00  0.00    -0.051 A 
ATOM      7  C   UNL     1      33.753 -10.983  29.710  1.00  0.00     0.004 A 
ATOM      8  C   UNL     1      34.049  -8.581  29.765  1.00  0.00     0.004 A 
ATOM      9  C   UNL     1      32.688 -10.874  30.609  1.00  0.00     0.004 A 
ATOM     10  C   UNL     1      32.985  -8.469  30.664  1.00  0.00     0.004 A 
ENDBRANCH   2   4
ENDBRANCH   1   2
BRANCH   1  11
ATOM     11  C   UNL     1      28.866 -10.099  30.950  1.00  0.00     0.028 C 
BRANCH  11  12
ATOM     12  C   UNL     1      27.467  -9.563  30.759  1.00  0.00    -0.028 C 
ATOM     13  C   UNL     1      26.828  -9.486  29.571  1.00  0.00    -0.080 C 
ATOM     14  C   UNL     1      27.493  -9.886  28.275  1.00  0.00     0.039 C 
ATOM     15  C   UNL     1      25.415  -8.961  29.550  1.00  0.00     0.039 C 
ENDBRANCH  11  12
ENDBRANCH   1  11
TORSDOF 4
ENDMDL
MODEL 4
REMARK VINA RESULT:    -4.375     18.519     21.913
REMARK INTER + INTRA:          -6.260
REMARK INTER:                  -5.711
REMARK INTRA:                  -0.549
REMARK UNBOUND:                -0.861
REMARK SMILES CC(C)=CCC[C@H](C)c1ccc(C)cc1
REMARK SMILES IDX 6 1 7 2 8 3 9 4 13 5 12 6 11 7 14 8 10 9 15 10 5 11 4 12
REMARK SMILES IDX 2 13 1 14 3 15
REMARK H PARENT
REMARK Flexibility Score: inf
ROOT
ATOM      1  C   UNL     1      37.663   6.432  43.197  1.00  0.00     0.012 C 
ENDROOT
BRANCH   1   2
ATOM      2  C   UNL     1      37.653   6.542  41.652  1.00  0.00     0.016 C 
ATOM      3  C   UNL     1      36.238   6.753  41.089  1.00  0.00     0.013 C 
BRANCH   2   4
ATOM      4  C   UNL     1      38.292   5.311  41.035  1.00  0.00    -0.045 A 
ATOM      5  C   UNL     1      40.125   1.847  39.220  1.00  0.00     0.044 C 
ATOM      6  C   UNL     1      39.473   3.032  39.868  1.00  0.00    -0.051 A 
ATOM      7  C   UNL     1      38.329   3.608  39.297  1.00  0.00     0.004 A 
ATOM      8  C   UNL     1      40.041   3.616  41.009  1.00  0.00     0.004 A 
ATOM      9  C   UNL     1      37.741   4.735  39.878  1.00  0.00     0.004 A 
ATOM     10  C   UNL     1      39.454   4.742  41.592  1.00  0.00     0.004 A 
ENDBRANCH   2   4
ENDBRANCH   1   2
BRANCH   1  11
ATOM     11  C   UNL     1      38.697   7.338  43.889  1.00  0.00     0.028 C 
BRANCH  11  12
ATOM     12  C   UNL     1      39.217   6.739  45.175  1.00  0.00    -0.028 C 
ATOM     13  C   UNL     1      38.715   6.996  46.402  1.00  0.00    -0.080 C 
ATOM     14  C   UNL     1      37.589   7.981  46.618  1.00  0.00     0.039 C 
ATOM     15  C   UNL     1      39.319   6.289  47.587  1.00  0.00     0.039 C 
ENDBRANCH  11  12
ENDBRANCH   1  11
TORSDOF 4
ENDMDL
MODEL 5
REMARK VINA RESULT:    -4.311      1.152      5.742
REMARK INTER + INTRA:          -6.180
REMARK INTER:                  -5.722
REMARK INTRA:                  -0.458
REMARK UNBOUND:                -0.861
REMARK SMILES CC(C)=CCC[C@H](C)c1ccc(C)cc1
REMARK SMILES IDX 6 1 7 2 8 3 9 4 13 5 12 6 11 7 14 8 10 9 15 10 5 11 4 12
REMARK SMILES IDX 2 13 1 14 3 15
REMARK H PARENT
REMARK Flexibility Score: inf
ROOT
ATOM      1  C   UNL     1      27.757  -9.468  30.942  1.00  0.00     0.012 C 
ENDROOT
BRANCH   1   2
ATOM      2  C   UNL     1      29.243  -9.652  30.549  1.00  0.00     0.016 C 
ATOM      3  C   UNL     1      29.619 -11.129  30.352  1.00  0.00     0.013 C 
BRANCH   2   4
ATOM      4  C   UNL     1      30.143  -9.009  31.589  1.00  0.00    -0.045 A 
ATOM      5  C   UNL     1      32.757  -7.180  34.502  1.00  0.00     0.044 C 
ATOM      6  C   UNL     1      31.834  -7.826  33.513  1.00  0.00    -0.051 A 
ATOM      7  C   UNL     1      32.137  -9.089  32.984  1.00  0.00     0.004 A 
ATOM      8  C   UNL     1      30.697  -7.144  33.056  1.00  0.00     0.004 A 
ATOM      9  C   UNL     1      31.297  -9.678  32.035  1.00  0.00     0.004 A 
ATOM     10  C   UNL     1      29.855  -7.731  32.106  1.00  0.00     0.004 A 
ENDBRANCH   2   4
ENDBRANCH   1   2
BRANCH   1  11
ATOM     11  C   UNL     1      26.757 -10.049  29.926  1.00  0.00     0.028 C 
BRANCH  11  12
ATOM     12  C   UNL     1      25.841  -8.994  29.352  1.00  0.00    -0.028 C 
ATOM     13  C   UNL     1      24.738  -8.515  29.967  1.00  0.00    -0.080 C 
ATOM     14  C   UNL     1      24.270  -9.047  31.302  1.00  0.00     0.039 C 
ATOM     15  C   UNL     1      23.947  -7.432  29.281  1.00  0.00     0.039 C 
ENDBRANCH  11  12
ENDBRANCH   1  11
TORSDOF 4
ENDMDL
MODEL 6
REMARK VINA RESULT:    -4.291      1.244      2.042
REMARK INTER + INTRA:          -6.156
REMARK INTER:                  -5.531
REMARK INTRA:                  -0.624
REMARK UNBOUND:                -0.861
REMARK SMILES CC(C)=CCC[C@H](C)c1ccc(C)cc1
REMARK SMILES IDX 6 1 7 2 8 3 9 4 13 5 12 6 11 7 14 8 10 9 15 10 5 11 4 12
REMARK SMILES IDX 2 13 1 14 3 15
REMARK H PARENT
REMARK Flexibility Score: inf
ROOT
ATOM      1  C   UNL     1      28.676 -10.153  30.191  1.00  0.00     0.012 C 
ENDROOT
BRANCH   1   2
ATOM      2  C   UNL     1      27.468 -10.215  31.159  1.00  0.00     0.016 C 
ATOM      3  C   UNL     1      27.181 -11.644  31.648  1.00  0.00     0.013 C 
BRANCH   2   4
ATOM      4  C   UNL     1      26.236  -9.622  30.498  1.00  0.00    -0.045 A 
ATOM      5  C   UNL     1      22.721  -7.999  28.584  1.00  0.00     0.044 C 
ATOM      6  C   UNL     1      23.952  -8.535  29.250  1.00  0.00    -0.051 A 
ATOM      7  C   UNL     1      25.027  -9.000  28.479  1.00  0.00     0.004 A 
ATOM      8  C   UNL     1      24.012  -8.641  30.647  1.00  0.00     0.004 A 
ATOM      9  C   UNL     1      26.161  -9.535  29.096  1.00  0.00     0.004 A 
ATOM     10  C   UNL     1      25.146  -9.175  31.267  1.00  0.00     0.004 A 
ENDBRANCH   2   4
ENDBRANCH   1   2
BRANCH   1  11
ATOM     11  C   UNL     1      30.035  -9.958  30.887  1.00  0.00     0.028 C 
BRANCH  11  12
ATOM     12  C   UNL     1      30.051  -8.747  31.789  1.00  0.00    -0.028 C 
ATOM     13  C   UNL     1      31.022  -7.808  31.800  1.00  0.00    -0.080 C 
ATOM     14  C   UNL     1      32.250  -7.914  30.925  1.00  0.00     0.039 C 
ATOM     15  C   UNL     1      30.875  -6.634  32.734  1.00  0.00     0.039 C 
ENDBRANCH  11  12
ENDBRANCH   1  11
TORSDOF 4
ENDMDL
MODEL 7
REMARK VINA RESULT:    -4.226     13.589     15.900
REMARK INTER + INTRA:          -6.075
REMARK INTER:                  -5.477
REMARK INTRA:                  -0.598
REMARK UNBOUND:                -0.861
REMARK SMILES CC(C)=CCC[C@H](C)c1ccc(C)cc1
REMARK SMILES IDX 6 1 7 2 8 3 9 4 13 5 12 6 11 7 14 8 10 9 15 10 5 11 4 12
REMARK SMILES IDX 2 13 1 14 3 15
REMARK H PARENT
REMARK Flexibility Score: inf
ROOT
ATOM      1  C   UNL     1      21.296  -1.574  40.432  1.00  0.00     0.012 C 
ENDROOT
BRANCH   1   2
ATOM      2  C   UNL     1      21.068  -0.420  41.439  1.00  0.00     0.016 C 
ATOM      3  C   UNL     1      22.074   0.728  41.252  1.00  0.00     0.013 C 
BRANCH   2   4
ATOM      4  C   UNL     1      21.123  -0.948  42.862  1.00  0.00    -0.045 A 
ATOM      5  C   UNL     1      21.346  -2.426  46.914  1.00  0.00     0.044 C 
ATOM      6  C   UNL     1      21.249  -1.933  45.501  1.00  0.00    -0.051 A 
ATOM      7  C   UNL     1      22.131  -2.414  44.523  1.00  0.00     0.004 A 
ATOM      8  C   UNL     1      20.321  -0.938  45.162  1.00  0.00     0.004 A 
ATOM      9  C   UNL     1      22.066  -1.930  43.214  1.00  0.00     0.004 A 
ATOM     10  C   UNL     1      20.255  -0.452  43.853  1.00  0.00     0.004 A 
ENDBRANCH   2   4
ENDBRANCH   1   2
BRANCH   1  11
ATOM     11  C   UNL     1      22.584  -1.444  39.600  1.00  0.00     0.028 C 
BRANCH  11  12
ATOM     12  C   UNL     1      23.340  -2.748  39.502  1.00  0.00    -0.028 C 
ATOM     13  C   UNL     1      24.336  -2.996  38.624  1.00  0.00    -0.080 C 
ATOM     14  C   UNL     1      24.762  -1.983  37.587  1.00  0.00     0.039 C 
ATOM     15  C   UNL     1      25.020  -4.338  38.676  1.00  0.00     0.039 C 
ENDBRANCH  11  12
ENDBRANCH   1  11
TORSDOF 4
ENDMDL
MODEL 8
REMARK VINA RESULT:    -4.185     15.927     18.076
REMARK INTER + INTRA:          -6.025
REMARK INTER:                  -5.555
REMARK INTRA:                  -0.470
REMARK UNBOUND:                -0.861
REMARK SMILES CC(C)=CCC[C@H](C)c1ccc(C)cc1
REMARK SMILES IDX 6 1 7 2 8 3 9 4 13 5 12 6 11 7 14 8 10 9 15 10 5 11 4 12
REMARK SMILES IDX 2 13 1 14 3 15
REMARK H PARENT
REMARK Flexibility Score: inf
ROOT
ATOM      1  C   UNL     1      20.195   0.965  43.625  1.00  0.00     0.012 C 
ENDROOT
BRANCH   1   2
ATOM      2  C   UNL     1      20.203  -0.580  43.527  1.00  0.00     0.016 C 
ATOM      3  C   UNL     1      20.631  -1.250  44.843  1.00  0.00     0.013 C 
BRANCH   2   4
ATOM      4  C   UNL     1      21.101  -1.028  42.387  1.00  0.00    -0.045 A 
ATOM      5  C   UNL     1      23.635  -2.370  39.157  1.00  0.00     0.044 C 
ATOM      6  C   UNL     1      22.773  -1.881  40.282  1.00  0.00    -0.051 A 
ATOM      7  C   UNL     1      22.978  -2.356  41.586  1.00  0.00     0.004 A 
ATOM      8  C   UNL     1      21.713  -0.999  40.030  1.00  0.00     0.004 A 
ATOM      9  C   UNL     1      22.152  -1.930  42.630  1.00  0.00     0.004 A 
ATOM     10  C   UNL     1      20.886  -0.572  41.073  1.00  0.00     0.004 A 
ENDBRANCH   2   4
ENDBRANCH   1   2
BRANCH   1  11
ATOM     11  C   UNL     1      19.875   1.509  45.029  1.00  0.00     0.028 C 
BRANCH  11  12
ATOM     12  C   UNL     1      20.410   2.905  45.240  1.00  0.00    -0.028 C 
ATOM     13  C   UNL     1      20.489   3.526  46.437  1.00  0.00    -0.080 C 
ATOM     14  C   UNL     1      19.982   2.885  47.709  1.00  0.00     0.039 C 
ATOM     15  C   UNL     1      21.084   4.909  46.490  1.00  0.00     0.039 C 
ENDBRANCH  11  12
ENDBRANCH   1  11
TORSDOF 4
ENDMDL
MODEL 9
REMARK VINA RESULT:    -3.968      5.219      8.175
REMARK INTER + INTRA:          -5.757
REMARK INTER:                  -5.161
REMARK INTRA:                  -0.596
REMARK UNBOUND:                -0.861
REMARK SMILES CC(C)=CCC[C@H](C)c1ccc(C)cc1
REMARK SMILES IDX 6 1 7 2 8 3 9 4 13 5 12 6 11 7 14 8 10 9 15 10 5 11 4 12
REMARK SMILES IDX 2 13 1 14 3 15
REMARK H PARENT
REMARK Flexibility Score: inf
ROOT
ATOM      1  C   UNL     1      33.707 -11.475  30.435  1.00  0.00     0.012 C 
ENDROOT
BRANCH   1   2
ATOM      2  C   UNL     1      34.300 -10.758  29.197  1.00  0.00     0.016 C 
ATOM      3  C   UNL     1      33.849 -11.401  27.875  1.00  0.00     0.013 C 
BRANCH   2   4
ATOM      4  C   UNL     1      35.815 -10.729  29.285  1.00  0.00    -0.045 A 
ATOM      5  C   UNL     1      40.125 -10.575  29.530  1.00  0.00     0.044 C 
ATOM      6  C   UNL     1      38.631 -10.656  29.433  1.00  0.00    -0.051 A 
ATOM      7  C   UNL     1      37.967 -10.142  28.310  1.00  0.00     0.004 A 
ATOM      8  C   UNL     1      37.880 -11.182  30.495  1.00  0.00     0.004 A 
ATOM      9  C   UNL     1      36.572 -10.182  28.234  1.00  0.00     0.004 A 
ATOM     10  C   UNL     1      36.485 -11.223  30.420  1.00  0.00     0.004 A 
ENDBRANCH   2   4
ENDBRANCH   1   2
BRANCH   1  11
ATOM     11  C   UNL     1      32.293 -11.006  30.822  1.00  0.00     0.028 C 
BRANCH  11  12
ATOM     12  C   UNL     1      32.247  -9.534  31.157  1.00  0.00    -0.028 C 
ATOM     13  C   UNL     1      31.116  -8.826  31.362  1.00  0.00    -0.080 C 
ATOM     14  C   UNL     1      29.745  -9.444  31.214  1.00  0.00     0.039 C 
ATOM     15  C   UNL     1      31.237  -7.369  31.727  1.00  0.00     0.039 C 
ENDBRANCH  11  12
ENDBRANCH   1  11
TORSDOF 4
ENDMDL
