MODEL 1
REMARK VINA RESULT:    -4.329      0.000      0.000
REMARK INTER + INTRA:          -5.332
REMARK INTER:                  -5.215
REMARK INTRA:                  -0.117
REMARK UNBOUND:                -0.117
REMARK SMILES CC[C@@H](C)[C@@H]([NH3+])C(=O)[O-]
REMARK SMILES IDX 3 1 4 2 5 3 6 4 7 8 8 9 9 10 2 11 1 12
REMARK H PARENT 6 5 6 6 6 7
REMARK Flexibility Score: inf
ROOT
ATOM      1  C   UNL     1     185.156 207.175  94.000  1.00  0.00     0.050 C 
ATOM      2  C   UNL     1     184.212 207.674  92.887  1.00  0.00     0.014 C 
ENDROOT
BRANCH   1   3
ATOM      3  C   UNL     1     186.532 207.912  93.928  1.00  0.00     0.230 C 
BRANCH   3   4
ATOM      4  N   UNL     1     186.373 209.373  93.875  1.00  0.00    -0.350 N 
ATOM      5  H   UNL     1     185.676 209.638  93.143  1.00  0.00     0.345 HD
ATOM      6  H   UNL     1     187.281 209.821  93.609  1.00  0.00     0.345 HD
ATOM      7  H   UNL     1     186.073 209.746  94.805  1.00  0.00     0.345 HD
ENDBRANCH   3   4
BRANCH   3   8
ATOM      8  C   UNL     1     187.400 207.556  95.111  1.00  0.00     0.099 C 
ATOM      9  O   UNL     1     187.829 206.380  95.249  1.00  0.00    -0.544 OA
ATOM     10  O   UNL     1     187.730 208.522  96.053  1.00  0.00    -0.544 OA
ENDBRANCH   3   8
ENDBRANCH   1   3
BRANCH   1  11
ATOM     11  C   UNL     1     184.459 207.352  95.381  1.00  0.00     0.006 C 
ATOM     12  C   UNL     1     184.277 206.028  96.125  1.00  0.00     0.004 C 
ENDBRANCH   1  11
TORSDOF 4
ENDMDL
MODEL 2
REMARK VINA RESULT:    -4.203      1.903      2.368
REMARK INTER + INTRA:          -5.180
REMARK INTER:                  -5.132
REMARK INTRA:                  -0.048
REMARK UNBOUND:                -0.117
REMARK SMILES CC[C@@H](C)[C@@H]([NH3+])C(=O)[O-]
REMARK SMILES IDX 3 1 4 2 5 3 6 4 7 8 8 9 9 10 2 11 1 12
REMARK H PARENT 6 5 6 6 6 7
REMARK Flexibility Score: inf
ROOT
ATOM      1  C   UNL     1     186.542 208.158  93.381  1.00  0.00     0.050 C 
ATOM      2  C   UNL     1     187.739 208.573  92.502  1.00  0.00     0.014 C 
ENDROOT
BRANCH   1   3
ATOM      3  C   UNL     1     186.852 208.414  94.892  1.00  0.00     0.230 C 
BRANCH   3   4
ATOM      4  N   UNL     1     185.664 208.232  95.738  1.00  0.00    -0.350 N 
ATOM      5  H   UNL     1     185.684 207.295  96.197  1.00  0.00     0.345 HD
ATOM      6  H   UNL     1     184.798 208.267  95.150  1.00  0.00     0.345 HD
ATOM      7  H   UNL     1     185.609 208.983  96.464  1.00  0.00     0.345 HD
ENDBRANCH   3   4
BRANCH   3   8
ATOM      8  C   UNL     1     187.949 207.499  95.381  1.00  0.00     0.099 C 
ATOM      9  O   UNL     1     187.808 206.250  95.313  1.00  0.00    -0.544 OA
ATOM     10  O   UNL     1     189.119 208.029  95.910  1.00  0.00    -0.544 OA
ENDBRANCH   3   8
ENDBRANCH   1   3
BRANCH   1  11
ATOM     11  C   UNL     1     185.267 208.912  92.901  1.00  0.00     0.006 C 
ATOM     12  C   UNL     1     184.063 207.984  92.726  1.00  0.00     0.004 C 
ENDBRANCH   1  11
TORSDOF 4
ENDMDL
MODEL 3
REMARK VINA RESULT:    -4.177      2.247      2.394
REMARK INTER + INTRA:          -5.149
REMARK INTER:                  -5.037
REMARK INTRA:                  -0.112
REMARK UNBOUND:                -0.117
REMARK SMILES CC[C@@H](C)[C@@H]([NH3+])C(=O)[O-]
REMARK SMILES IDX 3 1 4 2 5 3 6 4 7 8 8 9 9 10 2 11 1 12
REMARK H PARENT 6 5 6 6 6 7
REMARK Flexibility Score: inf
ROOT
ATOM      1  C   UNL     1     185.266 207.588  93.780  1.00  0.00     0.050 C 
ATOM      2  C   UNL     1     184.126 207.599  92.742  1.00  0.00     0.014 C 
ENDROOT
BRANCH   1   3
ATOM      3  C   UNL     1     186.070 208.927  93.731  1.00  0.00     0.230 C 
BRANCH   3   4
ATOM      4  N   UNL     1     187.022 209.042  94.845  1.00  0.00    -0.350 N 
ATOM      5  H   UNL     1     187.811 208.370  94.721  1.00  0.00     0.345 HD
ATOM      6  H   UNL     1     186.548 208.795  95.746  1.00  0.00     0.345 HD
ATOM      7  H   UNL     1     187.393 210.017  94.916  1.00  0.00     0.345 HD
ENDBRANCH   3   4
BRANCH   3   8
ATOM      8  C   UNL     1     186.822 209.059  92.428  1.00  0.00     0.099 C 
ATOM      9  O   UNL     1     187.828 208.337  92.202  1.00  0.00    -0.544 OA
ATOM     10  O   UNL     1     186.408 209.977  91.471  1.00  0.00    -0.544 OA
ENDBRANCH   3   8
ENDBRANCH   1   3
BRANCH   1  11
ATOM     11  C   UNL     1     184.672 207.304  95.191  1.00  0.00     0.006 C 
ATOM     12  C   UNL     1     184.988 205.893  95.691  1.00  0.00     0.004 C 
ENDBRANCH   1  11
TORSDOF 4
ENDMDL
MODEL 4
REMARK VINA RESULT:    -4.156      2.734      3.257
REMARK INTER + INTRA:          -5.124
REMARK INTER:                  -5.097
REMARK INTRA:                  -0.027
REMARK UNBOUND:                -0.117
REMARK SMILES CC[C@@H](C)[C@@H]([NH3+])C(=O)[O-]
REMARK SMILES IDX 3 1 4 2 5 3 6 4 7 8 8 9 9 10 2 11 1 12
REMARK H PARENT 6 5 6 6 6 7
REMARK Flexibility Score: inf
ROOT
ATOM      1  C   UNL     1     185.865 207.561  94.681  1.00  0.00     0.050 C 
ATOM      2  C   UNL     1     187.359 207.838  94.944  1.00  0.00     0.014 C 
ENDROOT
BRANCH   1   3
ATOM      3  C   UNL     1     185.571 207.537  93.146  1.00  0.00     0.230 C 
BRANCH   3   4
ATOM      4  N   UNL     1     184.737 206.389  92.762  1.00  0.00    -0.350 N 
ATOM      5  H   UNL     1     184.743 205.665  93.515  1.00  0.00     0.345 HD
ATOM      6  H   UNL     1     185.125 205.938  91.900  1.00  0.00     0.345 HD
ATOM      7  H   UNL     1     183.755 206.693  92.569  1.00  0.00     0.345 HD
ENDBRANCH   3   4
BRANCH   3   8
ATOM      8  C   UNL     1     184.887 208.809  92.707  1.00  0.00     0.099 C 
ATOM      9  O   UNL     1     183.666 208.798  92.401  1.00  0.00    -0.544 OA
ATOM     10  O   UNL     1     185.600 209.999  92.637  1.00  0.00    -0.544 OA
ENDBRANCH   3   8
ENDBRANCH   1   3
BRANCH   1  11
ATOM     11  C   UNL     1     185.460 206.232  95.384  1.00  0.00     0.006 C 
ATOM     12  C   UNL     1     184.125 206.340  96.125  1.00  0.00     0.004 C 
ENDBRANCH   1  11
TORSDOF 4
ENDMDL
MODEL 5
REMARK VINA RESULT:    -4.108      2.240      3.443
REMARK INTER + INTRA:          -5.066
REMARK INTER:                  -4.915
REMARK INTRA:                  -0.151
REMARK UNBOUND:                -0.117
REMARK SMILES CC[C@@H](C)[C@@H]([NH3+])C(=O)[O-]
REMARK SMILES IDX 3 1 4 2 5 3 6 4 7 8 8 9 9 10 2 11 1 12
REMARK H PARENT 6 5 6 6 6 7
REMARK Flexibility Score: inf
ROOT
ATOM      1  C   UNL     1     186.465 208.382  92.744  1.00  0.00     0.050 C 
ATOM      2  C   UNL     1     187.925 208.505  92.261  1.00  0.00     0.014 C 
ENDROOT
BRANCH   1   3
ATOM      3  C   UNL     1     186.399 207.636  94.115  1.00  0.00     0.230 C 
BRANCH   3   4
ATOM      4  N   UNL     1     186.265 208.568  95.245  1.00  0.00    -0.350 N 
ATOM      5  H   UNL     1     185.257 208.731  95.464  1.00  0.00     0.345 HD
ATOM      6  H   UNL     1     186.678 209.496  94.993  1.00  0.00     0.345 HD
ATOM      7  H   UNL     1     186.758 208.198  96.090  1.00  0.00     0.345 HD
ENDBRANCH   3   4
BRANCH   3   8
ATOM      8  C   UNL     1     185.248 206.659  94.145  1.00  0.00     0.099 C 
ATOM      9  O   UNL     1     185.037 205.962  95.172  1.00  0.00    -0.544 OA
ATOM     10  O   UNL     1     184.415 206.525  93.041  1.00  0.00    -0.544 OA
ENDBRANCH   3   8
ENDBRANCH   1   3
BRANCH   1  11
ATOM     11  C   UNL     1     185.826 209.801  92.808  1.00  0.00     0.006 C 
ATOM     12  C   UNL     1     184.500 209.885  92.048  1.00  0.00     0.004 C 
ENDBRANCH   1  11
TORSDOF 4
ENDMDL
MODEL 6
REMARK VINA RESULT:    -3.973     18.030     18.530
REMARK INTER + INTRA:          -4.904
REMARK INTER:                  -4.779
REMARK INTRA:                  -0.124
REMARK UNBOUND:                -0.117
REMARK SMILES CC[C@@H](C)[C@@H]([NH3+])C(=O)[O-]
REMARK SMILES IDX 3 1 4 2 5 3 6 4 7 8 8 9 9 10 2 11 1 12
REMARK H PARENT 6 5 6 6 6 7
REMARK Flexibility Score: inf
ROOT
ATOM      1  C   UNL     1     190.416 193.632  82.571  1.00  0.00     0.050 C 
ATOM      2  C   UNL     1     189.105 193.022  82.036  1.00  0.00     0.014 C 
ENDROOT
BRANCH   1   3
ATOM      3  C   UNL     1     190.513 195.146  82.196  1.00  0.00     0.230 C 
BRANCH   3   4
ATOM      4  N   UNL     1     189.930 196.010  83.233  1.00  0.00    -0.350 N 
ATOM      5  H   UNL     1     190.509 195.979  84.101  1.00  0.00     0.345 HD
ATOM      6  H   UNL     1     188.975 195.665  83.489  1.00  0.00     0.345 HD
ATOM      7  H   UNL     1     189.852 196.996  82.892  1.00  0.00     0.345 HD
ENDBRANCH   3   4
BRANCH   3   8
ATOM      8  C   UNL     1     191.948 195.555  81.966  1.00  0.00     0.099 C 
ATOM      9  O   UNL     1     192.416 196.572  82.543  1.00  0.00    -0.544 OA
ATOM     10  O   UNL     1     192.760 194.814  81.117  1.00  0.00    -0.544 OA
ENDBRANCH   3   8
ENDBRANCH   1   3
BRANCH   1  11
ATOM     11  C   UNL     1     190.502 193.394  84.108  1.00  0.00     0.006 C 
ATOM     12  C   UNL     1     191.918 193.051  84.574  1.00  0.00     0.004 C 
ENDBRANCH   1  11
TORSDOF 4
ENDMDL
MODEL 7
REMARK VINA RESULT:    -3.964      2.243      3.705
REMARK INTER + INTRA:          -4.893
REMARK INTER:                  -4.790
REMARK INTRA:                  -0.103
REMARK UNBOUND:                -0.117
REMARK SMILES CC[C@@H](C)[C@@H]([NH3+])C(=O)[O-]
REMARK SMILES IDX 3 1 4 2 5 3 6 4 7 8 8 9 9 10 2 11 1 12
REMARK H PARENT 6 5 6 6 6 7
REMARK Flexibility Score: inf
ROOT
ATOM      1  C   UNL     1     186.956 207.942  93.651  1.00  0.00     0.050 C 
ATOM      2  C   UNL     1     187.828 208.345  94.857  1.00  0.00     0.014 C 
ENDROOT
BRANCH   1   3
ATOM      3  C   UNL     1     185.445 208.199  93.954  1.00  0.00     0.230 C 
BRANCH   3   4
ATOM      4  N   UNL     1     184.705 208.624  92.756  1.00  0.00    -0.350 N 
ATOM      5  H   UNL     1     184.596 207.825  92.093  1.00  0.00     0.345 HD
ATOM      6  H   UNL     1     185.241 209.369  92.253  1.00  0.00     0.345 HD
ATOM      7  H   UNL     1     183.766 209.002  93.017  1.00  0.00     0.345 HD
ENDBRANCH   3   4
BRANCH   3   8
ATOM      8  C   UNL     1     184.789 206.963  94.522  1.00  0.00     0.099 C 
ATOM      9  O   UNL     1     185.213 205.820  94.205  1.00  0.00    -0.544 OA
ATOM     10  O   UNL     1     183.717 207.078  95.397  1.00  0.00    -0.544 OA
ENDBRANCH   3   8
ENDBRANCH   1   3
BRANCH   1  11
ATOM     11  C   UNL     1     187.446 208.706  92.386  1.00  0.00     0.006 C 
ATOM     12  C   UNL     1     188.064 210.066  92.720  1.00  0.00     0.004 C 
ENDBRANCH   1  11
TORSDOF 4
ENDMDL
MODEL 8
REMARK VINA RESULT:    -3.956      1.861      2.835
REMARK INTER + INTRA:          -4.883
REMARK INTER:                  -4.803
REMARK INTRA:                  -0.080
REMARK UNBOUND:                -0.117
REMARK SMILES CC[C@@H](C)[C@@H]([NH3+])C(=O)[O-]
REMARK SMILES IDX 3 1 4 2 5 3 6 4 7 8 8 9 9 10 2 11 1 12
REMARK H PARENT 6 5 6 6 6 7
REMARK Flexibility Score: inf
ROOT
ATOM      1  C   UNL     1     185.372 207.541  94.909  1.00  0.00     0.050 C 
ATOM      2  C   UNL     1     184.968 206.470  95.943  1.00  0.00     0.014 C 
ENDROOT
BRANCH   1   3
ATOM      3  C   UNL     1     186.896 207.869  95.022  1.00  0.00     0.230 C 
BRANCH   3   4
ATOM      4  N   UNL     1     187.722 206.653  95.033  1.00  0.00    -0.350 N 
ATOM      5  H   UNL     1     188.733 206.900  95.112  1.00  0.00     0.345 HD
ATOM      6  H   UNL     1     187.604 206.133  94.132  1.00  0.00     0.345 HD
ATOM      7  H   UNL     1     187.446 206.025  95.822  1.00  0.00     0.345 HD
ENDBRANCH   3   4
BRANCH   3   8
ATOM      8  C   UNL     1     187.344 208.756  93.885  1.00  0.00     0.099 C 
ATOM      9  O   UNL     1     187.034 209.976  93.874  1.00  0.00    -0.544 OA
ATOM     10  O   UNL     1     188.100 208.232  92.844  1.00  0.00    -0.544 OA
ENDBRANCH   3   8
ENDBRANCH   1   3
BRANCH   1  11
ATOM     11  C   UNL     1     184.972 207.055  93.485  1.00  0.00     0.006 C 
ATOM     12  C   UNL     1     184.016 208.019  92.779  1.00  0.00     0.004 C 
ENDBRANCH   1  11
TORSDOF 4
ENDMDL
MODEL 9
REMARK VINA RESULT:    -3.858     19.209     19.732
REMARK INTER + INTRA:          -4.764
REMARK INTER:                  -4.619
REMARK INTRA:                  -0.145
REMARK UNBOUND:                -0.117
REMARK SMILES CC[C@@H](C)[C@@H]([NH3+])C(=O)[O-]
REMARK SMILES IDX 3 1 4 2 5 3 6 4 7 8 8 9 9 10 2 11 1 12
REMARK H PARENT 6 5 6 6 6 7
REMARK Flexibility Score: inf
ROOT
ATOM      1  C   UNL     1     191.184 194.628  82.627  1.00  0.00     0.050 C 
ATOM      2  C   UNL     1     191.235 196.133  82.960  1.00  0.00     0.014 C 
ENDROOT
BRANCH   1   3
ATOM      3  C   UNL     1     191.697 194.368  81.174  1.00  0.00     0.230 C 
BRANCH   3   4
ATOM      4  N   UNL     1     193.125 194.017  81.147  1.00  0.00    -0.350 N 
ATOM      5  H   UNL     1     193.247 193.002  80.935  1.00  0.00     0.345 HD
ATOM      6  H   UNL     1     193.552 194.187  82.088  1.00  0.00     0.345 HD
ATOM      7  H   UNL     1     193.634 194.593  80.437  1.00  0.00     0.345 HD
ENDBRANCH   3   4
BRANCH   3   8
ATOM      8  C   UNL     1     190.909 193.264  80.512  1.00  0.00     0.099 C 
ATOM      9  O   UNL     1     191.285 192.792  79.406  1.00  0.00    -0.544 OA
ATOM     10  O   UNL     1     189.764 192.761  81.117  1.00  0.00    -0.544 OA
ENDBRANCH   3   8
ENDBRANCH   1   3
BRANCH   1  11
ATOM     11  C   UNL     1     191.999 193.840  83.694  1.00  0.00     0.006 C 
ATOM     12  C   UNL     1     191.130 192.876  84.505  1.00  0.00     0.004 C 
ENDBRANCH   1  11
TORSDOF 4
ENDMDL
