MODEL 1
REMARK VINA RESULT:     2.235      0.000      0.000
REMARK INTER + INTRA:           2.469
REMARK INTER:                   2.496
REMARK INTRA:                  -0.027
REMARK UNBOUND:                -0.027
REMARK SMILES CCCC(=O)[O-]
REMARK SMILES IDX 3 1 4 2 5 3 6 4 2 5 1 6
REMARK H PARENT
REMARK Flexibility Score: inf
ROOT
ATOM      1  C   UNL     1     -12.944   0.734 -17.137  1.00  0.00     0.052 C 
ENDROOT
BRANCH   1   2
ATOM      2  C   UNL     1     -12.282  -0.547 -17.542  1.00  0.00     0.041 C 
ATOM      3  O   UNL     1     -11.208  -0.528 -18.199  1.00  0.00    -0.550 OA
ATOM      4  O   UNL     1     -12.835  -1.765 -17.163  1.00  0.00    -0.550 OA
ENDBRANCH   1   2
BRANCH   1   5
ATOM      5  C   UNL     1     -12.076   1.952 -17.475  1.00  0.00     0.003 C 
ATOM      6  C   UNL     1     -12.860   3.036 -18.217  1.00  0.00     0.004 C 
ENDBRANCH   1   5
TORSDOF 2
ENDMDL
MODEL 2
REMARK VINA RESULT:     2.369      2.588      3.522
REMARK INTER + INTRA:           2.619
REMARK INTER:                   2.624
REMARK INTRA:                  -0.005
REMARK UNBOUND:                -0.027
REMARK SMILES CCCC(=O)[O-]
REMARK SMILES IDX 3 1 4 2 5 3 6 4 2 5 1 6
REMARK H PARENT
REMARK Flexibility Score: inf
ROOT
ATOM      1  C   UNL     1     -12.871   0.980 -17.488  1.00  0.00     0.052 C 
ENDROOT
BRANCH   1   2
ATOM      2  C   UNL     1     -12.447   2.410 -17.623  1.00  0.00     0.041 C 
ATOM      3  O   UNL     1     -12.998   3.158 -18.473  1.00  0.00    -0.550 OA
ATOM      4  O   UNL     1     -11.464   2.926 -16.787  1.00  0.00    -0.550 OA
ENDBRANCH   1   2
BRANCH   1   5
ATOM      5  C   UNL     1     -11.676   0.023 -17.572  1.00  0.00     0.003 C 
ATOM      6  C   UNL     1     -12.108  -1.428 -17.790  1.00  0.00     0.004 C 
ENDBRANCH   1   5
TORSDOF 2
ENDMDL
MODEL 3
REMARK VINA RESULT:     3.331      3.796      4.562
REMARK INTER + INTRA:           3.694
REMARK INTER:                   3.700
REMARK INTRA:                  -0.006
REMARK UNBOUND:                -0.027
REMARK SMILES CCCC(=O)[O-]
REMARK SMILES IDX 3 1 4 2 5 3 6 4 2 5 1 6
REMARK H PARENT
REMARK Flexibility Score: inf
ROOT
ATOM      1  C   UNL     1      -8.924  -1.471 -17.239  1.00  0.00     0.052 C 
ENDROOT
BRANCH   1   2
ATOM      2  C   UNL     1      -7.628  -1.003 -16.653  1.00  0.00     0.041 C 
ATOM      3  O   UNL     1      -6.875  -0.235 -17.309  1.00  0.00    -0.550 OA
ATOM      4  O   UNL     1      -7.265  -1.390 -15.368  1.00  0.00    -0.550 OA
ENDBRANCH   1   2
BRANCH   1   5
ATOM      5  C   UNL     1     -10.006  -0.385 -17.163  1.00  0.00     0.003 C 
ATOM      6  C   UNL     1     -11.298  -0.804 -17.865  1.00  0.00     0.004 C 
ENDBRANCH   1   5
TORSDOF 2
ENDMDL
MODEL 4
REMARK VINA RESULT:     3.491      2.382      3.370
REMARK INTER + INTRA:           3.873
REMARK INTER:                   3.878
REMARK INTRA:                  -0.005
REMARK UNBOUND:                -0.027
REMARK SMILES CCCC(=O)[O-]
REMARK SMILES IDX 3 1 4 2 5 3 6 4 2 5 1 6
REMARK H PARENT
REMARK Flexibility Score: inf
ROOT
ATOM      1  C   UNL     1     -10.420  -0.929 -17.951  1.00  0.00     0.052 C 
ENDROOT
BRANCH   1   2
ATOM      2  C   UNL     1     -11.811  -0.532 -17.565  1.00  0.00     0.041 C 
ATOM      3  O   UNL     1     -12.135   0.684 -17.520  1.00  0.00    -0.550 OA
ATOM      4  O   UNL     1     -12.761  -1.508 -17.288  1.00  0.00    -0.550 OA
ENDBRANCH   1   2
BRANCH   1   5
ATOM      5  C   UNL     1      -9.380  -0.388 -16.962  1.00  0.00     0.003 C 
ATOM      6  C   UNL     1      -8.078  -1.189 -16.991  1.00  0.00     0.004 C 
ENDBRANCH   1   5
TORSDOF 2
ENDMDL
MODEL 5
REMARK VINA RESULT:     3.532      1.989      3.470
REMARK INTER + INTRA:           3.919
REMARK INTER:                   3.927
REMARK INTRA:                  -0.009
REMARK UNBOUND:                -0.027
REMARK SMILES CCCC(=O)[O-]
REMARK SMILES IDX 3 1 4 2 5 3 6 4 2 5 1 6
REMARK H PARENT
REMARK Flexibility Score: inf
ROOT
ATOM      1  C   UNL     1     -13.211  -0.573 -16.485  1.00  0.00     0.052 C 
ENDROOT
BRANCH   1   2
ATOM      2  C   UNL     1     -12.313   0.119 -17.463  1.00  0.00     0.041 C 
ATOM      3  O   UNL     1     -12.358   1.371 -17.591  1.00  0.00    -0.550 OA
ATOM      4  O   UNL     1     -11.401  -0.617 -18.211  1.00  0.00    -0.550 OA
ENDBRANCH   1   2
BRANCH   1   5
ATOM      5  C   UNL     1     -13.455  -2.036 -16.875  1.00  0.00     0.003 C 
ATOM      6  C   UNL     1     -14.266  -2.790 -15.821  1.00  0.00     0.004 C 
ENDBRANCH   1   5
TORSDOF 2
ENDMDL
MODEL 6
REMARK VINA RESULT:     4.677      5.043      5.970
REMARK INTER + INTRA:           5.197
REMARK INTER:                   5.218
REMARK INTRA:                  -0.021
REMARK UNBOUND:                -0.027
REMARK SMILES CCCC(=O)[O-]
REMARK SMILES IDX 3 1 4 2 5 3 6 4 2 5 1 6
REMARK H PARENT
REMARK Flexibility Score: inf
ROOT
ATOM      1  C   UNL     1      -7.076  -1.623 -16.170  1.00  0.00     0.052 C 
ENDROOT
BRANCH   1   2
ATOM      2  C   UNL     1      -7.638  -0.600 -17.108  1.00  0.00     0.041 C 
ATOM      3  O   UNL     1      -6.877   0.042 -17.879  1.00  0.00    -0.550 OA
ATOM      4  O   UNL     1      -9.010  -0.379 -17.155  1.00  0.00    -0.550 OA
ENDBRANCH   1   2
BRANCH   1   5
ATOM      5  C   UNL     1      -6.875  -1.051 -14.761  1.00  0.00     0.003 C 
ATOM      6  C   UNL     1      -7.613  -1.861 -13.694  1.00  0.00     0.004 C 
ENDBRANCH   1   5
TORSDOF 2
ENDMDL
MODEL 7
REMARK VINA RESULT:     4.821      5.491      6.134
REMARK INTER + INTRA:           5.358
REMARK INTER:                   5.264
REMARK INTRA:                   0.094
REMARK UNBOUND:                -0.027
REMARK SMILES CCCC(=O)[O-]
REMARK SMILES IDX 3 1 4 2 5 3 6 4 2 5 1 6
REMARK H PARENT
REMARK Flexibility Score: inf
ROOT
ATOM      1  C   UNL     1      -6.902  -0.674 -16.731  1.00  0.00     0.052 C 
ENDROOT
BRANCH   1   2
ATOM      2  C   UNL     1      -7.092  -0.945 -15.271  1.00  0.00     0.041 C 
ATOM      3  O   UNL     1      -6.875  -2.094 -14.805  1.00  0.00    -0.550 OA
ATOM      4  O   UNL     1      -7.477   0.083 -14.418  1.00  0.00    -0.550 OA
ENDBRANCH   1   2
BRANCH   1   5
ATOM      5  C   UNL     1      -8.080  -1.194 -17.564  1.00  0.00     0.003 C 
ATOM      6  C   UNL     1      -8.036  -2.712 -17.748  1.00  0.00     0.004 C 
ENDBRANCH   1   5
TORSDOF 2
ENDMDL
MODEL 8
REMARK VINA RESULT:     4.893     15.722     16.343
REMARK INTER + INTRA:           5.438
REMARK INTER:                   5.444
REMARK INTRA:                  -0.005
REMARK UNBOUND:                -0.027
REMARK SMILES CCCC(=O)[O-]
REMARK SMILES IDX 3 1 4 2 5 3 6 4 2 5 1 6
REMARK H PARENT
REMARK Flexibility Score: inf
ROOT
ATOM      1  C   UNL     1     -25.818   7.320 -13.683  1.00  0.00     0.052 C 
ENDROOT
BRANCH   1   2
ATOM      2  C   UNL     1     -26.083   8.511 -14.551  1.00  0.00     0.041 C 
ATOM      3  O   UNL     1     -25.383   8.717 -15.578  1.00  0.00    -0.550 OA
ATOM      4  O   UNL     1     -27.125   9.378 -14.244  1.00  0.00    -0.550 OA
ENDBRANCH   1   2
BRANCH   1   5
ATOM      5  C   UNL     1     -26.735   6.143 -14.040  1.00  0.00     0.003 C 
ATOM      6  C   UNL     1     -26.774   5.083 -12.938  1.00  0.00     0.004 C 
ENDBRANCH   1   5
TORSDOF 2
ENDMDL
