MODEL 1
REMARK VINA RESULT:    -4.515      0.000      0.000
REMARK INTER + INTRA:          -4.966
REMARK INTER:                  -4.779
REMARK INTRA:                  -0.187
REMARK UNBOUND:                -0.187
REMARK SMILES C=C1CC=C(C(C)C)CC1
REMARK SMILES IDX 5 1 4 2 3 3 2 4 1 5 10 6 9 7 6 8 7 9 8 10
REMARK H PARENT
REMARK Flexibility Score: inf
ROOT
ATOM      1  C   UNL     1     165.837 162.189 199.910  1.00  0.00    -0.071 C 
ATOM      2  C   UNL     1     165.349 161.791 198.717  1.00  0.00    -0.023 C 
ATOM      3  C   UNL     1     163.904 162.012 198.352  1.00  0.00     0.057 C 
ATOM      4  C   UNL     1     163.404 163.331 198.906  1.00  0.00    -0.073 C 
ATOM      5  C   UNL     1     162.399 163.978 198.299  1.00  0.00     0.008 C 
ATOM      6  C   UNL     1     164.015 163.903 200.169  1.00  0.00     0.035 C 
ATOM      7  C   UNL     1     164.895 162.868 200.885  1.00  0.00     0.035 C 
ENDROOT
BRANCH   1   8
ATOM      8  C   UNL     1     167.315 162.021 200.229  1.00  0.00     0.008 C 
ATOM      9  C   UNL     1     167.631 162.491 201.653  1.00  0.00     0.012 C 
ATOM     10  C   UNL     1     168.181 162.753 199.199  1.00  0.00     0.012 C 
ENDBRANCH   1   8
TORSDOF 1
ENDMDL
MODEL 2
REMARK VINA RESULT:    -4.452      6.162      7.767
REMARK INTER + INTRA:          -4.899
REMARK INTER:                  -4.712
REMARK INTRA:                  -0.187
REMARK UNBOUND:                -0.187
REMARK SMILES C=C1CC=C(C(C)C)CC1
REMARK SMILES IDX 5 1 4 2 3 3 2 4 1 5 10 6 9 7 6 8 7 9 8 10
REMARK H PARENT
REMARK Flexibility Score: inf
ROOT
ATOM      1  C   UNL     1     166.121 169.822 199.964  1.00  0.00    -0.071 C 
ATOM      2  C   UNL     1     166.485 170.211 198.725  1.00  0.00    -0.023 C 
ATOM      3  C   UNL     1     167.903 170.045 198.242  1.00  0.00     0.057 C 
ATOM      4  C   UNL     1     168.510 168.766 198.779  1.00  0.00    -0.073 C 
ATOM      5  C   UNL     1     169.488 168.148 198.102  1.00  0.00     0.008 C 
ATOM      6  C   UNL     1     168.036 168.200 200.103  1.00  0.00     0.035 C 
ATOM      7  C   UNL     1     167.173 169.212 200.869  1.00  0.00     0.035 C 
ENDROOT
BRANCH   1   8
ATOM      8  C   UNL     1     164.669 169.932 200.406  1.00  0.00     0.008 C 
ATOM      9  C   UNL     1     164.491 169.451 201.851  1.00  0.00     0.012 C 
ATOM     10  C   UNL     1     163.749 169.166 199.451  1.00  0.00     0.012 C 
ENDBRANCH   1   8
TORSDOF 1
ENDMDL
MODEL 3
REMARK VINA RESULT:    -4.335      0.938      4.477
REMARK INTER + INTRA:          -4.775
REMARK INTER:                  -4.587
REMARK INTRA:                  -0.188
REMARK UNBOUND:                -0.187
REMARK SMILES C=C1CC=C(C(C)C)CC1
REMARK SMILES IDX 5 1 4 2 3 3 2 4 1 5 10 6 9 7 6 8 7 9 8 10
REMARK H PARENT
REMARK Flexibility Score: inf
ROOT
ATOM      1  C   UNL     1     163.641 163.386 199.574  1.00  0.00    -0.071 C 
ATOM      2  C   UNL     1     164.342 163.796 200.651  1.00  0.00    -0.023 C 
ATOM      3  C   UNL     1     165.453 162.955 201.225  1.00  0.00     0.057 C 
ATOM      4  C   UNL     1     166.214 162.244 200.125  1.00  0.00    -0.073 C 
ATOM      5  C   UNL     1     167.498 161.902 200.307  1.00  0.00     0.008 C 
ATOM      6  C   UNL     1     165.515 161.884 198.830  1.00  0.00     0.035 C 
ATOM      7  C   UNL     1     163.993 162.051 198.948  1.00  0.00     0.035 C 
ENDROOT
BRANCH   1   8
ATOM      8  C   UNL     1     162.573 164.284 198.967  1.00  0.00     0.008 C 
ATOM      9  C   UNL     1     162.988 164.776 197.576  1.00  0.00     0.012 C 
ATOM     10  C   UNL     1     162.256 165.458 199.898  1.00  0.00     0.012 C 
ENDBRANCH   1   8
TORSDOF 1
ENDMDL
MODEL 4
REMARK VINA RESULT:    -4.323      5.916      6.769
REMARK INTER + INTRA:          -4.763
REMARK INTER:                  -4.576
REMARK INTRA:                  -0.187
REMARK UNBOUND:                -0.187
REMARK SMILES C=C1CC=C(C(C)C)CC1
REMARK SMILES IDX 5 1 4 2 3 3 2 4 1 5 10 6 9 7 6 8 7 9 8 10
REMARK H PARENT
REMARK Flexibility Score: inf
ROOT
ATOM      1  C   UNL     1     168.345 168.550 199.608  1.00  0.00    -0.071 C 
ATOM      2  C   UNL     1     167.588 168.143 200.648  1.00  0.00    -0.023 C 
ATOM      3  C   UNL     1     166.487 169.013 201.200  1.00  0.00     0.057 C 
ATOM      4  C   UNL     1     165.795 169.775 200.088  1.00  0.00    -0.073 C 
ATOM      5  C   UNL     1     164.519 170.160 200.229  1.00  0.00     0.008 C 
ATOM      6  C   UNL     1     166.557 170.136 198.829  1.00  0.00     0.035 C 
ATOM      7  C   UNL     1     168.065 169.911 199.000  1.00  0.00     0.035 C 
ENDROOT
BRANCH   1   8
ATOM      8  C   UNL     1     169.402 167.627 199.022  1.00  0.00     0.008 C 
ATOM      9  C   UNL     1     168.963 167.075 197.661  1.00  0.00     0.012 C 
ATOM     10  C   UNL     1     169.737 166.494 199.997  1.00  0.00     0.012 C 
ENDBRANCH   1   8
TORSDOF 1
ENDMDL
MODEL 5
REMARK VINA RESULT:    -4.300      5.895      6.804
REMARK INTER + INTRA:          -4.739
REMARK INTER:                  -4.549
REMARK INTRA:                  -0.190
REMARK UNBOUND:                -0.187
REMARK SMILES C=C1CC=C(C(C)C)CC1
REMARK SMILES IDX 5 1 4 2 3 3 2 4 1 5 10 6 9 7 6 8 7 9 8 10
REMARK H PARENT
REMARK Flexibility Score: inf
ROOT
ATOM      1  C   UNL     1     166.361 169.544 200.358  1.00  0.00    -0.071 C 
ATOM      2  C   UNL     1     165.659 169.128 201.432  1.00  0.00    -0.023 C 
ATOM      3  C   UNL     1     164.154 169.209 201.459  1.00  0.00     0.057 C 
ATOM      4  C   UNL     1     163.575 168.918 200.090  1.00  0.00    -0.073 C 
ATOM      5  C   UNL     1     162.338 168.413 199.975  1.00  0.00     0.008 C 
ATOM      6  C   UNL     1     164.379 169.231 198.844  1.00  0.00     0.035 C 
ATOM      7  C   UNL     1     165.602 170.100 199.169  1.00  0.00     0.035 C 
ENDROOT
BRANCH   1   8
ATOM      8  C   UNL     1     167.874 169.386 200.324  1.00  0.00     0.008 C 
ATOM      9  C   UNL     1     168.431 169.689 198.929  1.00  0.00     0.012 C 
ATOM     10  C   UNL     1     168.287 167.988 200.793  1.00  0.00     0.012 C 
ENDBRANCH   1   8
TORSDOF 1
ENDMDL
MODEL 6
REMARK VINA RESULT:    -4.286      3.264      5.093
REMARK INTER + INTRA:          -4.724
REMARK INTER:                  -4.531
REMARK INTRA:                  -0.193
REMARK UNBOUND:                -0.187
REMARK SMILES C=C1CC=C(C(C)C)CC1
REMARK SMILES IDX 5 1 4 2 3 3 2 4 1 5 10 6 9 7 6 8 7 9 8 10
REMARK H PARENT
REMARK Flexibility Score: inf
ROOT
ATOM      1  C   UNL     1     169.302 165.579 200.575  1.00  0.00    -0.071 C 
ATOM      2  C   UNL     1     169.661 164.729 199.591  1.00  0.00    -0.023 C 
ATOM      3  C   UNL     1     169.383 163.251 199.698  1.00  0.00     0.057 C 
ATOM      4  C   UNL     1     168.060 163.000 200.389  1.00  0.00    -0.073 C 
ATOM      5  C   UNL     1     167.367 161.882 200.132  1.00  0.00     0.008 C 
ATOM      6  C   UNL     1     167.533 163.996 201.403  1.00  0.00     0.035 C 
ATOM      7  C   UNL     1     168.610 165.015 201.801  1.00  0.00     0.035 C 
ENDROOT
BRANCH   1   8
ATOM      8  C   UNL     1     169.527 167.075 200.415  1.00  0.00     0.008 C 
ATOM      9  C   UNL     1     168.592 167.877 201.329  1.00  0.00     0.012 C 
ATOM     10  C   UNL     1     169.365 167.497 198.951  1.00  0.00     0.012 C 
ENDBRANCH   1   8
TORSDOF 1
ENDMDL
MODEL 7
REMARK VINA RESULT:    -4.264      6.179      7.622
REMARK INTER + INTRA:          -4.700
REMARK INTER:                  -4.507
REMARK INTRA:                  -0.193
REMARK UNBOUND:                -0.187
REMARK SMILES C=C1CC=C(C(C)C)CC1
REMARK SMILES IDX 5 1 4 2 3 3 2 4 1 5 10 6 9 7 6 8 7 9 8 10
REMARK H PARENT
REMARK Flexibility Score: inf
ROOT
ATOM      1  C   UNL     1     164.597 169.573 199.678  1.00  0.00    -0.071 C 
ATOM      2  C   UNL     1     165.795 169.527 199.059  1.00  0.00    -0.023 C 
ATOM      3  C   UNL     1     167.080 169.680 199.833  1.00  0.00     0.057 C 
ATOM      4  C   UNL     1     166.970 169.023 201.193  1.00  0.00    -0.073 C 
ATOM      5  C   UNL     1     168.069 168.564 201.809  1.00  0.00     0.008 C 
ATOM      6  C   UNL     1     165.622 168.916 201.878  1.00  0.00     0.035 C 
ATOM      7  C   UNL     1     164.567 169.785 201.179  1.00  0.00     0.035 C 
ENDROOT
BRANCH   1   8
ATOM      8  C   UNL     1     163.317 169.345 198.888  1.00  0.00     0.008 C 
ATOM      9  C   UNL     1     162.254 168.650 199.746  1.00  0.00     0.012 C 
ATOM     10  C   UNL     1     163.601 168.551 197.609  1.00  0.00     0.012 C 
ENDBRANCH   1   8
TORSDOF 1
ENDMDL
MODEL 8
REMARK VINA RESULT:    -4.258      1.617      2.532
REMARK INTER + INTRA:          -4.694
REMARK INTER:                  -4.501
REMARK INTRA:                  -0.193
REMARK UNBOUND:                -0.187
REMARK SMILES C=C1CC=C(C(C)C)CC1
REMARK SMILES IDX 5 1 4 2 3 3 2 4 1 5 10 6 9 7 6 8 7 9 8 10
REMARK H PARENT
REMARK Flexibility Score: inf
ROOT
ATOM      1  C   UNL     1     167.420 162.426 199.646  1.00  0.00    -0.071 C 
ATOM      2  C   UNL     1     166.206 162.425 199.058  1.00  0.00    -0.023 C 
ATOM      3  C   UNL     1     164.945 162.274 199.871  1.00  0.00     0.057 C 
ATOM      4  C   UNL     1     165.076 162.983 201.203  1.00  0.00    -0.073 C 
ATOM      5  C   UNL     1     163.984 163.441 201.831  1.00  0.00     0.008 C 
ATOM      6  C   UNL     1     166.438 163.142 201.847  1.00  0.00     0.035 C 
ATOM      7  C   UNL     1     167.493 162.270 201.152  1.00  0.00     0.035 C 
ENDROOT
BRANCH   1   8
ATOM      8  C   UNL     1     168.674 162.652 198.815  1.00  0.00     0.008 C 
ATOM      9  C   UNL     1     169.758 163.366 199.631  1.00  0.00     0.012 C 
ATOM     10  C   UNL     1     168.346 163.426 197.534  1.00  0.00     0.012 C 
ENDBRANCH   1   8
TORSDOF 1
ENDMDL
MODEL 9
REMARK VINA RESULT:    -4.212      6.538      7.461
REMARK INTER + INTRA:          -4.645
REMARK INTER:                  -4.504
REMARK INTRA:                  -0.140
REMARK UNBOUND:                -0.187
REMARK SMILES C=C1CC=C(C(C)C)CC1
REMARK SMILES IDX 5 1 4 2 3 3 2 4 1 5 10 6 9 7 6 8 7 9 8 10
REMARK H PARENT
REMARK Flexibility Score: inf
ROOT
ATOM      1  C   UNL     1     166.864 169.482 199.705  1.00  0.00    -0.071 C 
ATOM      2  C   UNL     1     165.631 170.028 199.648  1.00  0.00    -0.023 C 
ATOM      3  C   UNL     1     164.580 169.688 200.673  1.00  0.00     0.057 C 
ATOM      4  C   UNL     1     165.201 169.507 202.043  1.00  0.00    -0.073 C 
ATOM      5  C   UNL     1     164.475 169.735 203.147  1.00  0.00     0.008 C 
ATOM      6  C   UNL     1     166.635 169.032 202.168  1.00  0.00     0.035 C 
ATOM      7  C   UNL     1     167.173 168.511 200.828  1.00  0.00     0.035 C 
ENDROOT
BRANCH   1   8
ATOM      8  C   UNL     1     167.931 169.893 198.702  1.00  0.00     0.008 C 
ATOM      9  C   UNL     1     167.302 170.414 197.405  1.00  0.00     0.012 C 
ATOM     10  C   UNL     1     168.893 168.734 198.424  1.00  0.00     0.012 C 
ENDBRANCH   1   8
TORSDOF 1
ENDMDL
