MODEL 1
REMARK VINA RESULT:    -1.530      0.000      0.000
REMARK INTER + INTRA:          -1.835
REMARK INTER:                  -1.798
REMARK INTRA:                  -0.037
REMARK UNBOUND:                -0.037
REMARK SMILES CCCCC(=O)[O-]
REMARK SMILES IDX 4 1 5 2 6 3 7 4 3 5 2 6 1 7
REMARK H PARENT
REMARK Flexibility Score: inf
ROOT
ATOM      1  C   UNL     1     172.924 178.061 194.522  1.00  0.00     0.053 C 
ENDROOT
BRANCH   1   2
ATOM      2  C   UNL     1     173.022 177.970 196.014  1.00  0.00     0.041 C 
ATOM      3  O   UNL     1     172.805 176.876 196.597  1.00  0.00    -0.550 OA
ATOM      4  O   UNL     1     173.322 179.102 196.762  1.00  0.00    -0.550 OA
ENDBRANCH   1   2
BRANCH   1   5
ATOM      5  C   UNL     1     172.147 176.879 193.929  1.00  0.00     0.006 C 
BRANCH   5   6
ATOM      6  C   UNL     1     171.804 177.094 192.448  1.00  0.00    -0.003 C 
ATOM      7  C   UNL     1     171.726 178.580 192.112  1.00  0.00     0.004 C 
ENDBRANCH   5   6
ENDBRANCH   1   5
TORSDOF 3
ENDMDL
MODEL 2
REMARK VINA RESULT:    -1.503      2.913      5.125
REMARK INTER + INTRA:          -1.804
REMARK INTER:                  -1.786
REMARK INTRA:                  -0.018
REMARK UNBOUND:                -0.037
REMARK SMILES CCCCC(=O)[O-]
REMARK SMILES IDX 4 1 5 2 6 3 7 4 3 5 2 6 1 7
REMARK H PARENT
REMARK Flexibility Score: inf
ROOT
ATOM      1  C   UNL     1     172.966 177.173 197.824  1.00  0.00     0.053 C 
ENDROOT
BRANCH   1   2
ATOM      2  C   UNL     1     173.235 177.865 196.524  1.00  0.00     0.041 C 
ATOM      3  O   UNL     1     174.014 178.853 196.482  1.00  0.00    -0.550 OA
ATOM      4  O   UNL     1     172.599 177.439 195.364  1.00  0.00    -0.550 OA
ENDBRANCH   1   2
BRANCH   1   5
ATOM      5  C   UNL     1     172.606 178.166 198.936  1.00  0.00     0.006 C 
BRANCH   5   6
ATOM      6  C   UNL     1     172.360 177.468 200.281  1.00  0.00    -0.003 C 
ATOM      7  C   UNL     1     170.885 177.119 200.457  1.00  0.00     0.004 C 
ENDBRANCH   5   6
ENDBRANCH   1   5
TORSDOF 3
ENDMDL
MODEL 3
REMARK VINA RESULT:    -1.422      4.895      5.755
REMARK INTER + INTRA:          -1.709
REMARK INTER:                  -1.622
REMARK INTRA:                  -0.086
REMARK UNBOUND:                -0.037
REMARK SMILES CCCCC(=O)[O-]
REMARK SMILES IDX 4 1 5 2 6 3 7 4 3 5 2 6 1 7
REMARK H PARENT
REMARK Flexibility Score: inf
ROOT
ATOM      1  C   UNL     1     172.059 179.042 200.472  1.00  0.00     0.053 C 
ENDROOT
BRANCH   1   2
ATOM      2  C   UNL     1     171.802 177.703 199.852  1.00  0.00     0.041 C 
ATOM      3  O   UNL     1     170.966 176.916 200.369  1.00  0.00    -0.550 OA
ATOM      4  O   UNL     1     172.510 177.311 198.723  1.00  0.00    -0.550 OA
ENDBRANCH   1   2
BRANCH   1   5
ATOM      5  C   UNL     1     171.168 180.132 199.864  1.00  0.00     0.006 C 
BRANCH   5   6
ATOM      6  C   UNL     1     171.986 181.288 199.272  1.00  0.00    -0.003 C 
ATOM      7  C   UNL     1     172.843 180.812 198.103  1.00  0.00     0.004 C 
ENDBRANCH   5   6
ENDBRANCH   1   5
TORSDOF 3
ENDMDL
MODEL 4
REMARK VINA RESULT:    -1.402      3.214      3.968
REMARK INTER + INTRA:          -1.686
REMARK INTER:                  -1.631
REMARK INTRA:                  -0.055
REMARK UNBOUND:                -0.037
REMARK SMILES CCCCC(=O)[O-]
REMARK SMILES IDX 4 1 5 2 6 3 7 4 3 5 2 6 1 7
REMARK H PARENT
REMARK Flexibility Score: inf
ROOT
ATOM      1  C   UNL     1     173.236 178.289 198.603  1.00  0.00     0.053 C 
ENDROOT
BRANCH   1   2
ATOM      2  C   UNL     1     172.371 178.128 199.815  1.00  0.00     0.041 C 
ATOM      3  O   UNL     1     171.488 177.232 199.848  1.00  0.00    -0.550 OA
ATOM      4  O   UNL     1     172.519 178.989 200.895  1.00  0.00    -0.550 OA
ENDBRANCH   1   2
BRANCH   1   5
ATOM      5  C   UNL     1     172.992 177.177 197.576  1.00  0.00     0.006 C 
BRANCH   5   6
ATOM      6  C   UNL     1     173.104 177.684 196.132  1.00  0.00    -0.003 C 
ATOM      7  C   UNL     1     173.260 179.202 196.093  1.00  0.00     0.004 C 
ENDBRANCH   5   6
ENDBRANCH   1   5
TORSDOF 3
ENDMDL
MODEL 5
REMARK VINA RESULT:    -1.401      2.239      4.161
REMARK INTER + INTRA:          -1.684
REMARK INTER:                  -1.662
REMARK INTRA:                  -0.022
REMARK UNBOUND:                -0.037
REMARK SMILES CCCCC(=O)[O-]
REMARK SMILES IDX 4 1 5 2 6 3 7 4 3 5 2 6 1 7
REMARK H PARENT
REMARK Flexibility Score: inf
ROOT
ATOM      1  C   UNL     1     173.335 178.151 196.031  1.00  0.00     0.053 C 
ENDROOT
BRANCH   1   2
ATOM      2  C   UNL     1     172.751 177.871 194.681  1.00  0.00     0.041 C 
ATOM      3  O   UNL     1     172.001 176.875 194.509  1.00  0.00    -0.550 OA
ATOM      4  O   UNL     1     173.063 178.692 193.604  1.00  0.00    -0.550 OA
ENDBRANCH   1   2
BRANCH   1   5
ATOM      5  C   UNL     1     173.133 176.975 196.995  1.00  0.00     0.006 C 
BRANCH   5   6
ATOM      6  C   UNL     1     173.548 177.323 198.431  1.00  0.00    -0.003 C 
ATOM      7  C   UNL     1     172.337 177.711 199.274  1.00  0.00     0.004 C 
ENDBRANCH   5   6
ENDBRANCH   1   5
TORSDOF 3
ENDMDL
MODEL 6
REMARK VINA RESULT:    -1.391      1.468      2.183
REMARK INTER + INTRA:          -1.673
REMARK INTER:                  -1.636
REMARK INTRA:                  -0.037
REMARK UNBOUND:                -0.037
REMARK SMILES CCCCC(=O)[O-]
REMARK SMILES IDX 4 1 5 2 6 3 7 4 3 5 2 6 1 7
REMARK H PARENT
REMARK Flexibility Score: inf
ROOT
ATOM      1  C   UNL     1     173.237 178.297 196.229  1.00  0.00     0.053 C 
ENDROOT
BRANCH   1   2
ATOM      2  C   UNL     1     173.083 178.526 197.701  1.00  0.00     0.041 C 
ATOM      3  O   UNL     1     172.803 179.673 198.137  1.00  0.00    -0.550 OA
ATOM      4  O   UNL     1     173.283 177.480 198.593  1.00  0.00    -0.550 OA
ENDBRANCH   1   2
BRANCH   1   5
ATOM      5  C   UNL     1     172.677 176.934 195.803  1.00  0.00     0.006 C 
BRANCH   5   6
ATOM      6  C   UNL     1     172.369 176.876 194.300  1.00  0.00    -0.003 C 
ATOM      7  C   UNL     1     172.694 178.203 193.621  1.00  0.00     0.004 C 
ENDBRANCH   5   6
ENDBRANCH   1   5
TORSDOF 3
ENDMDL
MODEL 7
REMARK VINA RESULT:    -1.382      3.720      4.700
REMARK INTER + INTRA:          -1.662
REMARK INTER:                  -1.624
REMARK INTRA:                  -0.038
REMARK UNBOUND:                -0.037
REMARK SMILES CCCCC(=O)[O-]
REMARK SMILES IDX 4 1 5 2 6 3 7 4 3 5 2 6 1 7
REMARK H PARENT
REMARK Flexibility Score: inf
ROOT
ATOM      1  C   UNL     1     172.717 177.688 199.123  1.00  0.00     0.053 C 
ENDROOT
BRANCH   1   2
ATOM      2  C   UNL     1     171.607 177.854 200.116  1.00  0.00     0.041 C 
ATOM      3  O   UNL     1     170.875 176.875 200.417  1.00  0.00    -0.550 OA
ATOM      4  O   UNL     1     171.362 179.098 200.683  1.00  0.00    -0.550 OA
ENDBRANCH   1   2
BRANCH   1   5
ATOM      5  C   UNL     1     173.162 179.032 198.535  1.00  0.00     0.006 C 
BRANCH   5   6
ATOM      6  C   UNL     1     173.145 179.029 197.000  1.00  0.00    -0.003 C 
ATOM      7  C   UNL     1     173.794 177.764 196.446  1.00  0.00     0.004 C 
ENDBRANCH   5   6
ENDBRANCH   1   5
TORSDOF 3
ENDMDL
MODEL 8
REMARK VINA RESULT:    -1.348      2.701      3.976
REMARK INTER + INTRA:          -1.622
REMARK INTER:                  -1.604
REMARK INTRA:                  -0.018
REMARK UNBOUND:                -0.037
REMARK SMILES CCCCC(=O)[O-]
REMARK SMILES IDX 4 1 5 2 6 3 7 4 3 5 2 6 1 7
REMARK H PARENT
REMARK Flexibility Score: inf
ROOT
ATOM      1  C   UNL     1     172.984 178.260 193.722  1.00  0.00     0.053 C 
ENDROOT
BRANCH   1   2
ATOM      2  C   UNL     1     171.969 178.038 192.644  1.00  0.00     0.041 C 
ATOM      3  O   UNL     1     171.560 176.875 192.388  1.00  0.00    -0.550 OA
ATOM      4  O   UNL     1     171.498 179.113 191.899  1.00  0.00    -0.550 OA
ENDBRANCH   1   2
BRANCH   1   5
ATOM      5  C   UNL     1     172.699 177.399 194.960  1.00  0.00     0.006 C 
BRANCH   5   6
ATOM      6  C   UNL     1     173.131 178.091 196.260  1.00  0.00    -0.003 C 
ATOM      7  C   UNL     1     173.085 177.123 197.439  1.00  0.00     0.004 C 
ENDBRANCH   5   6
ENDBRANCH   1   5
TORSDOF 3
ENDMDL
