MODEL 1
REMARK VINA RESULT:    -6.291      0.000      0.000
REMARK INTER + INTRA:          -6.751
REMARK INTER:                  -6.659
REMARK INTRA:                  -0.092
REMARK UNBOUND:                -0.092
REMARK SMILES C=C(C)[C@H]1CC=C(C)C(=O)C1
REMARK SMILES IDX 8 1 7 2 6 3 5 4 4 5 11 6 9 7 10 8 2 9 1 10 3 11
REMARK H PARENT
REMARK Flexibility Score: inf
ROOT
ATOM      1  C   UNL     1      31.501  12.570  79.227  1.00  0.00     0.048 C 
ATOM      2  C   UNL     1      30.409  13.538  79.591  1.00  0.00    -0.012 C 
ATOM      3  C   UNL     1      29.349  13.686  78.779  1.00  0.00    -0.019 C 
ATOM      4  C   UNL     1      28.237  14.656  79.085  1.00  0.00     0.036 C 
ATOM      5  C   UNL     1      28.022  14.789  80.605  1.00  0.00     0.025 C 
ATOM      6  C   UNL     1      29.340  15.176  81.299  1.00  0.00     0.089 C 
ATOM      7  C   UNL     1      30.443  14.234  80.903  1.00  0.00     0.158 C 
ATOM      8  O   UNL     1      31.420  14.068  81.682  1.00  0.00    -0.295 OA
ENDROOT
BRANCH   5   9
ATOM      9  C   UNL     1      26.905  15.773  80.930  1.00  0.00    -0.077 C 
ATOM     10  C   UNL     1      25.639  15.548  80.537  1.00  0.00     0.008 C 
ATOM     11  C   UNL     1      27.205  17.027  81.709  1.00  0.00     0.039 C 
ENDBRANCH   5   9
TORSDOF 1
ENDMDL
MODEL 2
REMARK VINA RESULT:    -6.029      3.168      3.975
REMARK INTER + INTRA:          -6.474
REMARK INTER:                  -6.376
REMARK INTRA:                  -0.097
REMARK UNBOUND:                -0.092
REMARK SMILES C=C(C)[C@H]1CC=C(C)C(=O)C1
REMARK SMILES IDX 8 1 7 2 6 3 5 4 4 5 11 6 9 7 10 8 2 9 1 10 3 11
REMARK H PARENT
REMARK Flexibility Score: inf
ROOT
ATOM      1  C   UNL     1      28.534  11.372  84.634  1.00  0.00     0.048 C 
ATOM      2  C   UNL     1      27.842  12.412  83.797  1.00  0.00    -0.012 C 
ATOM      3  C   UNL     1      27.698  13.662  84.267  1.00  0.00    -0.019 C 
ATOM      4  C   UNL     1      26.996  14.738  83.479  1.00  0.00     0.036 C 
ATOM      5  C   UNL     1      27.211  14.543  81.965  1.00  0.00     0.025 C 
ATOM      6  C   UNL     1      26.773  13.129  81.541  1.00  0.00     0.089 C 
ATOM      7  C   UNL     1      27.432  12.090  82.406  1.00  0.00     0.158 C 
ATOM      8  O   UNL     1      27.599  10.927  81.950  1.00  0.00    -0.295 OA
ENDROOT
BRANCH   5   9
ATOM      9  C   UNL     1      26.500  15.618  81.154  1.00  0.00    -0.077 C 
ATOM     10  C   UNL     1      25.916  15.334  79.977  1.00  0.00     0.008 C 
ATOM     11  C   UNL     1      26.438  17.034  81.665  1.00  0.00     0.039 C 
ENDBRANCH   5   9
TORSDOF 1
ENDMDL
MODEL 3
REMARK VINA RESULT:    -5.957      2.245      4.729
REMARK INTER + INTRA:          -6.397
REMARK INTER:                  -6.304
REMARK INTRA:                  -0.094
REMARK UNBOUND:                -0.092
REMARK SMILES C=C(C)[C@H]1CC=C(C)C(=O)C1
REMARK SMILES IDX 8 1 7 2 6 3 5 4 4 5 11 6 9 7 10 8 2 9 1 10 3 11
REMARK H PARENT
REMARK Flexibility Score: inf
ROOT
ATOM      1  C   UNL     1      24.516  15.172  82.360  1.00  0.00     0.048 C 
ATOM      2  C   UNL     1      25.976  14.912  82.111  1.00  0.00    -0.012 C 
ATOM      3  C   UNL     1      26.417  13.650  81.976  1.00  0.00    -0.019 C 
ATOM      4  C   UNL     1      27.871  13.332  81.745  1.00  0.00     0.036 C 
ATOM      5  C   UNL     1      28.557  14.441  80.924  1.00  0.00     0.025 C 
ATOM      6  C   UNL     1      28.359  15.808  81.603  1.00  0.00     0.089 C 
ATOM      7  C   UNL     1      26.903  16.051  81.891  1.00  0.00     0.158 C 
ATOM      8  O   UNL     1      26.484  17.236  81.982  1.00  0.00    -0.295 OA
ENDROOT
BRANCH   5   9
ATOM      9  C   UNL     1      30.031  14.137  80.689  1.00  0.00    -0.077 C 
ATOM     10  C   UNL     1      30.959  14.420  81.620  1.00  0.00     0.008 C 
ATOM     11  C   UNL     1      30.477  13.507  79.396  1.00  0.00     0.039 C 
ENDBRANCH   5   9
TORSDOF 1
ENDMDL
MODEL 4
REMARK VINA RESULT:    -5.839      2.090      4.612
REMARK INTER + INTRA:          -6.273
REMARK INTER:                  -6.177
REMARK INTRA:                  -0.096
REMARK UNBOUND:                -0.092
REMARK SMILES C=C(C)[C@H]1CC=C(C)C(=O)C1
REMARK SMILES IDX 8 1 7 2 6 3 5 4 4 5 11 6 9 7 10 8 2 9 1 10 3 11
REMARK H PARENT
REMARK Flexibility Score: inf
ROOT
ATOM      1  C   UNL     1      24.241  15.652  81.976  1.00  0.00     0.048 C 
ATOM      2  C   UNL     1      25.586  15.136  81.546  1.00  0.00    -0.012 C 
ATOM      3  C   UNL     1      25.935  15.177  80.249  1.00  0.00    -0.019 C 
ATOM      4  C   UNL     1      27.262  14.656  79.761  1.00  0.00     0.036 C 
ATOM      5  C   UNL     1      28.360  14.856  80.824  1.00  0.00     0.025 C 
ATOM      6  C   UNL     1      27.936  14.215  82.158  1.00  0.00     0.089 C 
ATOM      7  C   UNL     1      26.571  14.698  82.567  1.00  0.00     0.158 C 
ATOM      8  O   UNL     1      26.259  14.692  83.788  1.00  0.00    -0.295 OA
ENDROOT
BRANCH   5   9
ATOM      9  C   UNL     1      29.706  14.326  80.348  1.00  0.00    -0.077 C 
ATOM     10  C   UNL     1      30.791  14.362  81.142  1.00  0.00     0.008 C 
ATOM     11  C   UNL     1      29.844  13.745  78.965  1.00  0.00     0.039 C 
ENDBRANCH   5   9
TORSDOF 1
ENDMDL
MODEL 5
REMARK VINA RESULT:    -5.837      1.546      2.348
REMARK INTER + INTRA:          -6.270
REMARK INTER:                  -6.177
REMARK INTRA:                  -0.093
REMARK UNBOUND:                -0.092
REMARK SMILES C=C(C)[C@H]1CC=C(C)C(=O)C1
REMARK SMILES IDX 8 1 7 2 6 3 5 4 4 5 11 6 9 7 10 8 2 9 1 10 3 11
REMARK H PARENT
REMARK Flexibility Score: inf
ROOT
ATOM      1  C   UNL     1      31.372  12.540  79.012  1.00  0.00     0.048 C 
ATOM      2  C   UNL     1      30.251  13.265  79.704  1.00  0.00    -0.012 C 
ATOM      3  C   UNL     1      30.526  14.146  80.681  1.00  0.00    -0.019 C 
ATOM      4  C   UNL     1      29.441  14.884  81.420  1.00  0.00     0.036 C 
ATOM      5  C   UNL     1      28.234  15.158  80.502  1.00  0.00     0.025 C 
ATOM      6  C   UNL     1      27.726  13.844  79.881  1.00  0.00     0.089 C 
ATOM      7  C   UNL     1      28.855  13.098  79.225  1.00  0.00     0.158 C 
ATOM      8  O   UNL     1      28.599  12.298  78.285  1.00  0.00    -0.295 OA
ENDROOT
BRANCH   5   9
ATOM      9  C   UNL     1      27.123  15.897  81.238  1.00  0.00    -0.077 C 
ATOM     10  C   UNL     1      27.360  17.058  81.875  1.00  0.00     0.008 C 
ATOM     11  C   UNL     1      25.727  15.334  81.263  1.00  0.00     0.039 C 
ENDBRANCH   5   9
TORSDOF 1
ENDMDL
MODEL 6
REMARK VINA RESULT:    -5.820      1.760      2.933
REMARK INTER + INTRA:          -6.252
REMARK INTER:                  -6.161
REMARK INTRA:                  -0.091
REMARK UNBOUND:                -0.092
REMARK SMILES C=C(C)[C@H]1CC=C(C)C(=O)C1
REMARK SMILES IDX 8 1 7 2 6 3 5 4 4 5 11 6 9 7 10 8 2 9 1 10 3 11
REMARK H PARENT
REMARK Flexibility Score: inf
ROOT
ATOM      1  C   UNL     1      31.152  14.331  82.006  1.00  0.00     0.048 C 
ATOM      2  C   UNL     1      30.128  14.358  80.904  1.00  0.00    -0.012 C 
ATOM      3  C   UNL     1      30.408  13.795  79.717  1.00  0.00    -0.019 C 
ATOM      4  C   UNL     1      29.427  13.810  78.574  1.00  0.00     0.036 C 
ATOM      5  C   UNL     1      27.976  13.754  79.089  1.00  0.00     0.025 C 
ATOM      6  C   UNL     1      27.721  14.895  80.092  1.00  0.00     0.089 C 
ATOM      7  C   UNL     1      28.769  14.895  81.171  1.00  0.00     0.158 C 
ATOM      8  O   UNL     1      28.493  15.391  82.295  1.00  0.00    -0.295 OA
ENDROOT
BRANCH   5   9
ATOM      9  C   UNL     1      26.971  13.778  77.944  1.00  0.00    -0.077 C 
ATOM     10  C   UNL     1      26.838  12.732  77.110  1.00  0.00     0.008 C 
ATOM     11  C   UNL     1      26.100  14.988  77.727  1.00  0.00     0.039 C 
ENDBRANCH   5   9
TORSDOF 1
ENDMDL
MODEL 7
REMARK VINA RESULT:    -5.811      2.686      4.093
REMARK INTER + INTRA:          -6.243
REMARK INTER:                  -6.147
REMARK INTRA:                  -0.096
REMARK UNBOUND:                -0.092
REMARK SMILES C=C(C)[C@H]1CC=C(C)C(=O)C1
REMARK SMILES IDX 8 1 7 2 6 3 5 4 4 5 11 6 9 7 10 8 2 9 1 10 3 11
REMARK H PARENT
REMARK Flexibility Score: inf
ROOT
ATOM      1  C   UNL     1      26.005  15.083  77.788  1.00  0.00     0.048 C 
ATOM      2  C   UNL     1      26.519  14.720  79.154  1.00  0.00    -0.012 C 
ATOM      3  C   UNL     1      25.846  15.113  80.248  1.00  0.00    -0.019 C 
ATOM      4  C   UNL     1      26.326  14.794  81.640  1.00  0.00     0.036 C 
ATOM      5  C   UNL     1      27.057  13.438  81.676  1.00  0.00     0.025 C 
ATOM      6  C   UNL     1      28.201  13.421  80.646  1.00  0.00     0.089 C 
ATOM      7  C   UNL     1      27.697  13.825  79.288  1.00  0.00     0.158 C 
ATOM      8  O   UNL     1      28.309  13.425  78.261  1.00  0.00    -0.295 OA
ENDROOT
BRANCH   5   9
ATOM      9  C   UNL     1      27.557  13.106  83.076  1.00  0.00    -0.077 C 
ATOM     10  C   UNL     1      27.379  13.957  84.102  1.00  0.00     0.008 C 
ATOM     11  C   UNL     1      28.264  11.802  83.337  1.00  0.00     0.039 C 
ENDBRANCH   5   9
TORSDOF 1
ENDMDL
MODEL 8
REMARK VINA RESULT:    -5.782      1.588      2.975
REMARK INTER + INTRA:          -6.212
REMARK INTER:                  -6.115
REMARK INTRA:                  -0.097
REMARK UNBOUND:                -0.092
REMARK SMILES C=C(C)[C@H]1CC=C(C)C(=O)C1
REMARK SMILES IDX 8 1 7 2 6 3 5 4 4 5 11 6 9 7 10 8 2 9 1 10 3 11
REMARK H PARENT
REMARK Flexibility Score: inf
ROOT
ATOM      1  C   UNL     1      31.316  14.371  81.924  1.00  0.00     0.048 C 
ATOM      2  C   UNL     1      30.177  14.128  80.972  1.00  0.00    -0.012 C 
ATOM      3  C   UNL     1      28.987  14.711  81.190  1.00  0.00    -0.019 C 
ATOM      4  C   UNL     1      27.808  14.486  80.280  1.00  0.00     0.036 C 
ATOM      5  C   UNL     1      28.265  14.273  78.824  1.00  0.00     0.025 C 
ATOM      6  C   UNL     1      29.288  13.125  78.748  1.00  0.00     0.089 C 
ATOM      7  C   UNL     1      30.406  13.347  79.730  1.00  0.00     0.158 C 
ATOM      8  O   UNL     1      31.532  12.828  79.505  1.00  0.00    -0.295 OA
ENDROOT
BRANCH   5   9
ATOM      9  C   UNL     1      27.083  14.036  77.893  1.00  0.00    -0.077 C 
ATOM     10  C   UNL     1      26.958  12.890  77.201  1.00  0.00     0.008 C 
ATOM     11  C   UNL     1      26.023  15.094  77.731  1.00  0.00     0.039 C 
ENDBRANCH   5   9
TORSDOF 1
ENDMDL
MODEL 9
REMARK VINA RESULT:    -5.750      3.289      4.994
REMARK INTER + INTRA:          -6.178
REMARK INTER:                  -6.085
REMARK INTRA:                  -0.093
REMARK UNBOUND:                -0.092
REMARK SMILES C=C(C)[C@H]1CC=C(C)C(=O)C1
REMARK SMILES IDX 8 1 7 2 6 3 5 4 4 5 11 6 9 7 10 8 2 9 1 10 3 11
REMARK H PARENT
REMARK Flexibility Score: inf
ROOT
ATOM      1  C   UNL     1      26.476  17.473  81.344  1.00  0.00     0.048 C 
ATOM      2  C   UNL     1      26.906  16.063  81.641  1.00  0.00    -0.012 C 
ATOM      3  C   UNL     1      28.212  15.748  81.640  1.00  0.00    -0.019 C 
ATOM      4  C   UNL     1      28.697  14.348  81.912  1.00  0.00     0.036 C 
ATOM      5  C   UNL     1      27.769  13.624  82.906  1.00  0.00     0.025 C 
ATOM      6  C   UNL     1      26.316  13.649  82.396  1.00  0.00     0.089 C 
ATOM      7  C   UNL     1      25.899  15.054  82.058  1.00  0.00     0.158 C 
ATOM      8  O   UNL     1      24.676  15.357  82.095  1.00  0.00    -0.295 OA
ENDROOT
BRANCH   5   9
ATOM      9  C   UNL     1      28.242  12.203  83.185  1.00  0.00    -0.077 C 
ATOM     10  C   UNL     1      28.547  11.359  82.184  1.00  0.00     0.008 C 
ATOM     11  C   UNL     1      28.379  11.717  84.604  1.00  0.00     0.039 C 
ENDBRANCH   5   9
TORSDOF 1
ENDMDL
