MODEL 1
REMARK VINA RESULT:    -2.980      0.000      0.000
REMARK INTER + INTRA:          -7.100
REMARK INTER:                  -5.419
REMARK INTRA:                  -1.681
REMARK UNBOUND:                -1.681
REMARK SMILES CCCCCCCCCCCCCCCC(=O)[O-]
REMARK SMILES IDX 9 1 10 2 11 3 12 4 13 5 14 6 15 7 16 8 17 9 18 10 8 11 7 12
REMARK SMILES IDX 6 13 5 14 4 15 3 16 2 17 1 18
REMARK H PARENT
REMARK Flexibility Score: inf
ROOT
ATOM      1  C   UNL     1       9.840  -2.481  -1.543  1.00  0.00     0.000 C 
ENDROOT
BRANCH   1   2
ATOM      2  C   UNL     1      10.120  -1.820  -0.180  1.00  0.00     0.000 C 
BRANCH   2   3
ATOM      3  C   UNL     1       8.892  -1.220   0.532  1.00  0.00     0.000 C 
BRANCH   3   4
ATOM      4  C   UNL     1       8.600  -1.881   1.888  1.00  0.00     0.000 C 
BRANCH   4   5
ATOM      5  C   UNL     1       9.305  -3.238   2.053  1.00  0.00     0.000 C 
BRANCH   5   6
ATOM      6  C   UNL     1       8.375  -4.450   1.835  1.00  0.00     0.006 C 
BRANCH   6   7
ATOM      7  C   UNL     1       9.068  -5.578   1.059  1.00  0.00     0.053 C 
BRANCH   7   8
ATOM      8  C   UNL     1       8.426  -6.895   1.361  1.00  0.00     0.041 C 
ATOM      9  O   UNL     1       8.324  -7.291   2.553  1.00  0.00    -0.550 OA
ATOM     10  O   UNL     1       7.985  -7.708   0.325  1.00  0.00    -0.550 OA
ENDBRANCH   7   8
ENDBRANCH   6   7
ENDBRANCH   5   6
ENDBRANCH   4   5
ENDBRANCH   3   4
ENDBRANCH   2   3
ENDBRANCH   1   2
BRANCH   1  11
ATOM     11  C   UNL     1       8.432  -3.093  -1.637  1.00  0.00     0.000 C 
BRANCH  11  12
ATOM     12  C   UNL     1       7.612  -2.538  -2.817  1.00  0.00    -0.000 C 
BRANCH  12  13
ATOM     13  C   UNL     1       8.076  -1.172  -3.359  1.00  0.00    -0.000 C 
BRANCH  13  14
ATOM     14  C   UNL     1       7.089  -0.034  -3.042  1.00  0.00    -0.000 C 
BRANCH  14  15
ATOM     15  C   UNL     1       7.659   0.975  -2.032  1.00  0.00    -0.000 C 
BRANCH  15  16
ATOM     16  C   UNL     1       7.191   2.413  -2.303  1.00  0.00    -0.000 C 
BRANCH  16  17
ATOM     17  C   UNL     1       7.328   3.280  -1.045  1.00  0.00    -0.003 C 
ATOM     18  C   UNL     1       8.302   2.658  -0.050  1.00  0.00     0.004 C 
ENDBRANCH  16  17
ENDBRANCH  15  16
ENDBRANCH  14  15
ENDBRANCH  13  14
ENDBRANCH  12  13
ENDBRANCH  11  12
ENDBRANCH   1  11
TORSDOF 14
ENDMDL
MODEL 2
REMARK VINA RESULT:    -2.978      3.708      7.335
REMARK INTER + INTRA:          -7.096
REMARK INTER:                  -5.894
REMARK INTRA:                  -1.202
REMARK UNBOUND:                -1.681
REMARK SMILES CCCCCCCCCCCCCCCC(=O)[O-]
REMARK SMILES IDX 9 1 10 2 11 3 12 4 13 5 14 6 15 7 16 8 17 9 18 10 8 11 7 12
REMARK SMILES IDX 6 13 5 14 4 15 3 16 2 17 1 18
REMARK H PARENT
REMARK Flexibility Score: inf
ROOT
ATOM      1  C   UNL     1       8.013  -2.512  -2.292  1.00  0.00     0.000 C 
ENDROOT
BRANCH   1   2
ATOM      2  C   UNL     1       8.278  -0.995  -2.301  1.00  0.00     0.000 C 
BRANCH   2   3
ATOM      3  C   UNL     1       7.141  -0.125  -2.871  1.00  0.00     0.000 C 
BRANCH   3   4
ATOM      4  C   UNL     1       7.242   1.349  -2.450  1.00  0.00     0.000 C 
BRANCH   4   5
ATOM      5  C   UNL     1       8.292   1.585  -1.351  1.00  0.00     0.000 C 
BRANCH   5   6
ATOM      6  C   UNL     1       7.887   2.667  -0.328  1.00  0.00     0.006 C 
BRANCH   6   7
ATOM      7  C   UNL     1       8.444   2.378   1.072  1.00  0.00     0.053 C 
BRANCH   7   8
ATOM      8  C   UNL     1       7.620   3.060   2.116  1.00  0.00     0.041 C 
ATOM      9  O   UNL     1       6.813   3.971   1.791  1.00  0.00    -0.550 OA
ATOM     10  O   UNL     1       7.777   2.726   3.455  1.00  0.00    -0.550 OA
ENDBRANCH   7   8
ENDBRANCH   6   7
ENDBRANCH   5   6
ENDBRANCH   4   5
ENDBRANCH   3   4
ENDBRANCH   2   3
ENDBRANCH   1   2
BRANCH   1  11
ATOM     11  C   UNL     1       8.746  -3.244  -1.155  1.00  0.00     0.000 C 
BRANCH  11  12
ATOM     12  C   UNL     1       9.401  -2.284  -0.145  1.00  0.00    -0.000 C 
BRANCH  12  13
ATOM     13  C   UNL     1       8.633  -2.091   1.177  1.00  0.00    -0.000 C 
BRANCH  13  14
ATOM     14  C   UNL     1       9.023  -3.120   2.253  1.00  0.00    -0.000 C 
BRANCH  14  15
ATOM     15  C   UNL     1       8.105  -4.353   2.248  1.00  0.00    -0.000 C 
BRANCH  15  16
ATOM     16  C   UNL     1       8.875  -5.666   2.463  1.00  0.00    -0.000 C 
BRANCH  16  17
ATOM     17  C   UNL     1       8.465  -6.718   1.424  1.00  0.00    -0.003 C 
ATOM     18  C   UNL     1       9.282  -6.576   0.144  1.00  0.00     0.004 C 
ENDBRANCH  16  17
ENDBRANCH  15  16
ENDBRANCH  14  15
ENDBRANCH  13  14
ENDBRANCH  12  13
ENDBRANCH  11  12
ENDBRANCH   1  11
TORSDOF 14
ENDMDL
MODEL 3
REMARK VINA RESULT:    -2.972      4.474      6.857
REMARK INTER + INTRA:          -7.085
REMARK INTER:                  -5.769
REMARK INTRA:                  -1.315
REMARK UNBOUND:                -1.681
REMARK SMILES CCCCCCCCCCCCCCCC(=O)[O-]
REMARK SMILES IDX 9 1 10 2 11 3 12 4 13 5 14 6 15 7 16 8 17 9 18 10 8 11 7 12
REMARK SMILES IDX 6 13 5 14 4 15 3 16 2 17 1 18
REMARK H PARENT
REMARK Flexibility Score: inf
ROOT
ATOM      1  C   UNL     1       8.717   0.270  -1.458  1.00  0.00     0.000 C 
ENDROOT
BRANCH   1   2
ATOM      2  C   UNL     1       8.293   1.553  -0.716  1.00  0.00     0.000 C 
BRANCH   2   3
ATOM      3  C   UNL     1       8.942   1.768   0.664  1.00  0.00     0.000 C 
BRANCH   3   4
ATOM      4  C   UNL     1       9.063   0.472   1.481  1.00  0.00     0.000 C 
BRANCH   4   5
ATOM      5  C   UNL     1       8.709   0.669   2.965  1.00  0.00     0.000 C 
BRANCH   5   6
ATOM      6  C   UNL     1       7.413   1.476   3.192  1.00  0.00     0.006 C 
BRANCH   6   7
ATOM      7  C   UNL     1       7.520   2.413   4.403  1.00  0.00     0.053 C 
BRANCH   7   8
ATOM      8  C   UNL     1       7.523   3.842   3.963  1.00  0.00     0.041 C 
ATOM      9  O   UNL     1       6.585   4.611   4.304  1.00  0.00    -0.550 OA
ATOM     10  O   UNL     1       8.534   4.313   3.136  1.00  0.00    -0.550 OA
ENDBRANCH   7   8
ENDBRANCH   6   7
ENDBRANCH   5   6
ENDBRANCH   4   5
ENDBRANCH   3   4
ENDBRANCH   2   3
ENDBRANCH   1   2
BRANCH   1  11
ATOM     11  C   UNL     1       7.597  -0.317  -2.333  1.00  0.00     0.000 C 
BRANCH  11  12
ATOM     12  C   UNL     1       7.691  -1.847  -2.483  1.00  0.00    -0.000 C 
BRANCH  12  13
ATOM     13  C   UNL     1       8.990  -2.484  -1.954  1.00  0.00    -0.000 C 
BRANCH  13  14
ATOM     14  C   UNL     1       8.745  -3.493  -0.818  1.00  0.00    -0.000 C 
BRANCH  14  15
ATOM     15  C   UNL     1       9.513  -3.134   0.464  1.00  0.00    -0.000 C 
BRANCH  15  16
ATOM     16  C   UNL     1       8.618  -3.140   1.713  1.00  0.00    -0.000 C 
BRANCH  16  17
ATOM     17  C   UNL     1       8.236  -4.573   2.107  1.00  0.00    -0.003 C 
ATOM     18  C   UNL     1       8.945  -5.000   3.388  1.00  0.00     0.004 C 
ENDBRANCH  16  17
ENDBRANCH  15  16
ENDBRANCH  14  15
ENDBRANCH  13  14
ENDBRANCH  12  13
ENDBRANCH  11  12
ENDBRANCH   1  11
TORSDOF 14
ENDMDL
MODEL 4
REMARK VINA RESULT:    -2.935      1.802      3.919
REMARK INTER + INTRA:          -7.018
REMARK INTER:                  -5.607
REMARK INTRA:                  -1.411
REMARK UNBOUND:                -1.681
REMARK SMILES CCCCCCCCCCCCCCCC(=O)[O-]
REMARK SMILES IDX 9 1 10 2 11 3 12 4 13 5 14 6 15 7 16 8 17 9 18 10 8 11 7 12
REMARK SMILES IDX 6 13 5 14 4 15 3 16 2 17 1 18
REMARK H PARENT
REMARK Flexibility Score: inf
ROOT
ATOM      1  C   UNL     1       9.642   1.049  -1.203  1.00  0.00     0.000 C 
ENDROOT
BRANCH   1   2
ATOM      2  C   UNL     1      10.172   0.312   0.042  1.00  0.00     0.000 C 
BRANCH   2   3
ATOM      3  C   UNL     1       9.125   0.007   1.129  1.00  0.00     0.000 C 
BRANCH   3   4
ATOM      4  C   UNL     1       8.815  -1.492   1.263  1.00  0.00     0.000 C 
BRANCH   4   5
ATOM      5  C   UNL     1       9.699  -2.366   0.358  1.00  0.00     0.000 C 
BRANCH   5   6
ATOM      6  C   UNL     1       9.048  -3.710  -0.034  1.00  0.00     0.006 C 
BRANCH   6   7
ATOM      7  C   UNL     1       9.600  -4.881   0.789  1.00  0.00     0.053 C 
BRANCH   7   8
ATOM      8  C   UNL     1       8.525  -5.477   1.641  1.00  0.00     0.041 C 
ATOM      9  O   UNL     1       7.812  -4.737   2.371  1.00  0.00    -0.550 OA
ATOM     10  O   UNL     1       8.341  -6.853   1.668  1.00  0.00    -0.550 OA
ENDBRANCH   7   8
ENDBRANCH   6   7
ENDBRANCH   5   6
ENDBRANCH   4   5
ENDBRANCH   3   4
ENDBRANCH   2   3
ENDBRANCH   1   2
BRANCH   1  11
ATOM     11  C   UNL     1       8.107   1.124  -1.251  1.00  0.00     0.000 C 
BRANCH  11  12
ATOM     12  C   UNL     1       7.548   1.097  -2.686  1.00  0.00    -0.000 C 
BRANCH  12  13
ATOM     13  C   UNL     1       6.924  -0.241  -3.127  1.00  0.00    -0.000 C 
BRANCH  13  14
ATOM     14  C   UNL     1       7.589  -1.461  -2.466  1.00  0.00    -0.000 C 
BRANCH  14  15
ATOM     15  C   UNL     1       7.441  -2.740  -3.306  1.00  0.00    -0.000 C 
BRANCH  15  16
ATOM     16  C   UNL     1       6.501  -2.554  -4.507  1.00  0.00    -0.000 C 
BRANCH  16  17
ATOM     17  C   UNL     1       6.043  -3.909  -5.059  1.00  0.00    -0.003 C 
ATOM     18  C   UNL     1       4.531  -3.940  -5.262  1.00  0.00     0.004 C 
ENDBRANCH  16  17
ENDBRANCH  15  16
ENDBRANCH  14  15
ENDBRANCH  13  14
ENDBRANCH  12  13
ENDBRANCH  11  12
ENDBRANCH   1  11
TORSDOF 14
ENDMDL
MODEL 5
REMARK VINA RESULT:    -2.919      4.082      5.238
REMARK INTER + INTRA:          -6.988
REMARK INTER:                  -5.605
REMARK INTRA:                  -1.384
REMARK UNBOUND:                -1.681
REMARK SMILES CCCCCCCCCCCCCCCC(=O)[O-]
REMARK SMILES IDX 9 1 10 2 11 3 12 4 13 5 14 6 15 7 16 8 17 9 18 10 8 11 7 12
REMARK SMILES IDX 6 13 5 14 4 15 3 16 2 17 1 18
REMARK H PARENT
REMARK Flexibility Score: inf
ROOT
ATOM      1  C   UNL     1       8.779  -3.310  -1.365  1.00  0.00     0.000 C 
ENDROOT
BRANCH   1   2
ATOM      2  C   UNL     1       9.387  -2.982   0.013  1.00  0.00     0.000 C 
BRANCH   2   3
ATOM      3  C   UNL     1       8.708  -1.834   0.782  1.00  0.00     0.000 C 
BRANCH   3   4
ATOM      4  C   UNL     1       9.604  -0.594   0.928  1.00  0.00     0.000 C 
BRANCH   4   5
ATOM      5  C   UNL     1       8.829   0.650   1.396  1.00  0.00     0.000 C 
BRANCH   5   6
ATOM      6  C   UNL     1       8.605   0.703   2.922  1.00  0.00     0.006 C 
BRANCH   6   7
ATOM      7  C   UNL     1       7.389   1.561   3.298  1.00  0.00     0.053 C 
BRANCH   7   8
ATOM      8  C   UNL     1       7.594   2.978   2.868  1.00  0.00     0.041 C 
ATOM      9  O   UNL     1       6.739   3.548   2.139  1.00  0.00    -0.550 OA
ATOM     10  O   UNL     1       8.751   3.655   3.229  1.00  0.00    -0.550 OA
ENDBRANCH   7   8
ENDBRANCH   6   7
ENDBRANCH   5   6
ENDBRANCH   4   5
ENDBRANCH   3   4
ENDBRANCH   2   3
ENDBRANCH   1   2
BRANCH   1  11
ATOM     11  C   UNL     1       8.760  -2.103  -2.317  1.00  0.00     0.000 C 
BRANCH  11  12
ATOM     12  C   UNL     1       7.354  -1.787  -2.860  1.00  0.00    -0.000 C 
BRANCH  12  13
ATOM     13  C   UNL     1       7.039  -0.291  -3.048  1.00  0.00    -0.000 C 
BRANCH  13  14
ATOM     14  C   UNL     1       7.830   0.615  -2.088  1.00  0.00    -0.000 C 
BRANCH  14  15
ATOM     15  C   UNL     1       7.824   2.088  -2.529  1.00  0.00    -0.000 C 
BRANCH  15  16
ATOM     16  C   UNL     1       7.227   3.023  -1.466  1.00  0.00    -0.000 C 
BRANCH  16  17
ATOM     17  C   UNL     1       6.141   3.919  -2.073  1.00  0.00    -0.003 C 
ATOM     18  C   UNL     1       5.453   4.757  -1.000  1.00  0.00     0.004 C 
ENDBRANCH  16  17
ENDBRANCH  15  16
ENDBRANCH  14  15
ENDBRANCH  13  14
ENDBRANCH  12  13
ENDBRANCH  11  12
ENDBRANCH   1  11
TORSDOF 14
ENDMDL
MODEL 6
REMARK VINA RESULT:    -2.917      3.509      6.554
REMARK INTER + INTRA:          -6.985
REMARK INTER:                  -5.277
REMARK INTRA:                  -1.708
REMARK UNBOUND:                -1.681
REMARK SMILES CCCCCCCCCCCCCCCC(=O)[O-]
REMARK SMILES IDX 9 1 10 2 11 3 12 4 13 5 14 6 15 7 16 8 17 9 18 10 8 11 7 12
REMARK SMILES IDX 6 13 5 14 4 15 3 16 2 17 1 18
REMARK H PARENT
REMARK Flexibility Score: inf
ROOT
ATOM      1  C   UNL     1       8.334  -4.050  -2.163  1.00  0.00     0.000 C 
ENDROOT
BRANCH   1   2
ATOM      2  C   UNL     1       8.335  -2.514  -2.040  1.00  0.00     0.000 C 
BRANCH   2   3
ATOM      3  C   UNL     1       7.361  -1.773  -2.975  1.00  0.00     0.000 C 
BRANCH   3   4
ATOM      4  C   UNL     1       7.380  -0.249  -2.778  1.00  0.00     0.000 C 
BRANCH   4   5
ATOM      5  C   UNL     1       8.166   0.181  -1.527  1.00  0.00     0.000 C 
BRANCH   5   6
ATOM      6  C   UNL     1       7.981   1.668  -1.158  1.00  0.00     0.006 C 
BRANCH   6   7
ATOM      7  C   UNL     1       9.065   2.163  -0.192  1.00  0.00     0.053 C 
BRANCH   7   8
ATOM      8  C   UNL     1       8.459   2.569   1.113  1.00  0.00     0.041 C 
ATOM      9  O   UNL     1       8.288   3.788   1.381  1.00  0.00    -0.550 OA
ATOM     10  O   UNL     1       8.128   1.605   2.056  1.00  0.00    -0.550 OA
ENDBRANCH   7   8
ENDBRANCH   6   7
ENDBRANCH   5   6
ENDBRANCH   4   5
ENDBRANCH   3   4
ENDBRANCH   2   3
ENDBRANCH   1   2
BRANCH   1  11
ATOM     11  C   UNL     1       9.556  -4.708  -1.501  1.00  0.00     0.000 C 
BRANCH  11  12
ATOM     12  C   UNL     1       9.177  -5.832  -0.519  1.00  0.00    -0.000 C 
BRANCH  12  13
ATOM     13  C   UNL     1       9.763  -5.696   0.899  1.00  0.00    -0.000 C 
BRANCH  13  14
ATOM     14  C   UNL     1       8.683  -5.669   1.995  1.00  0.00    -0.000 C 
BRANCH  14  15
ATOM     15  C   UNL     1       8.054  -4.277   2.168  1.00  0.00    -0.000 C 
BRANCH  15  16
ATOM     16  C   UNL     1       9.101  -3.180   2.414  1.00  0.00    -0.000 C 
BRANCH  16  17
ATOM     17  C   UNL     1       8.875  -1.986   1.478  1.00  0.00    -0.003 C 
ATOM     18  C   UNL     1      10.168  -1.208   1.255  1.00  0.00     0.004 C 
ENDBRANCH  16  17
ENDBRANCH  15  16
ENDBRANCH  14  15
ENDBRANCH  13  14
ENDBRANCH  12  13
ENDBRANCH  11  12
ENDBRANCH   1  11
TORSDOF 14
ENDMDL
MODEL 7
REMARK VINA RESULT:    -2.909      4.297      6.887
REMARK INTER + INTRA:          -6.972
REMARK INTER:                  -5.546
REMARK INTRA:                  -1.425
REMARK UNBOUND:                -1.681
REMARK SMILES CCCCCCCCCCCCCCCC(=O)[O-]
REMARK SMILES IDX 9 1 10 2 11 3 12 4 13 5 14 6 15 7 16 8 17 9 18 10 8 11 7 12
REMARK SMILES IDX 6 13 5 14 4 15 3 16 2 17 1 18
REMARK H PARENT
REMARK Flexibility Score: inf
ROOT
ATOM      1  C   UNL     1       7.919  -1.124  -2.008  1.00  0.00     0.000 C 
ENDROOT
BRANCH   1   2
ATOM      2  C   UNL     1       7.173   0.082  -2.611  1.00  0.00     0.000 C 
BRANCH   2   3
ATOM      3  C   UNL     1       7.679   1.467  -2.167  1.00  0.00     0.000 C 
BRANCH   3   4
ATOM      4  C   UNL     1       8.500   1.419  -0.868  1.00  0.00     0.000 C 
BRANCH   4   5
ATOM      5  C   UNL     1       8.147   2.561   0.101  1.00  0.00     0.000 C 
BRANCH   5   6
ATOM      6  C   UNL     1       8.389   2.212   1.585  1.00  0.00     0.006 C 
BRANCH   6   7
ATOM      7  C   UNL     1       9.007   3.382   2.361  1.00  0.00     0.053 C 
BRANCH   7   8
ATOM      8  C   UNL     1       7.948   4.348   2.787  1.00  0.00     0.041 C 
ATOM      9  O   UNL     1       6.847   3.925   3.229  1.00  0.00    -0.550 OA
ATOM     10  O   UNL     1       8.155   5.714   2.649  1.00  0.00    -0.550 OA
ENDBRANCH   7   8
ENDBRANCH   6   7
ENDBRANCH   5   6
ENDBRANCH   4   5
ENDBRANCH   3   4
ENDBRANCH   2   3
ENDBRANCH   1   2
BRANCH   1  11
ATOM     11  C   UNL     1       7.644  -2.438  -2.757  1.00  0.00     0.000 C 
BRANCH  11  12
ATOM     12  C   UNL     1       8.420  -3.635  -2.177  1.00  0.00    -0.000 C 
BRANCH  12  13
ATOM     13  C   UNL     1       9.859  -3.330  -1.720  1.00  0.00    -0.000 C 
BRANCH  13  14
ATOM     14  C   UNL     1      10.127  -3.746  -0.262  1.00  0.00    -0.000 C 
BRANCH  14  15
ATOM     15  C   UNL     1       8.834  -4.065   0.506  1.00  0.00    -0.000 C 
BRANCH  15  16
ATOM     16  C   UNL     1       8.716  -3.278   1.820  1.00  0.00    -0.000 C 
BRANCH  16  17
ATOM     17  C   UNL     1       8.758  -1.767   1.560  1.00  0.00    -0.003 C 
ATOM     18  C   UNL     1       9.255  -1.010   2.788  1.00  0.00     0.004 C 
ENDBRANCH  16  17
ENDBRANCH  15  16
ENDBRANCH  14  15
ENDBRANCH  13  14
ENDBRANCH  12  13
ENDBRANCH  11  12
ENDBRANCH   1  11
TORSDOF 14
ENDMDL
MODEL 8
REMARK VINA RESULT:    -2.896      4.555      6.146
REMARK INTER + INTRA:          -6.948
REMARK INTER:                  -6.123
REMARK INTRA:                  -0.825
REMARK UNBOUND:                -1.681
REMARK SMILES CCCCCCCCCCCCCCCC(=O)[O-]
REMARK SMILES IDX 9 1 10 2 11 3 12 4 13 5 14 6 15 7 16 8 17 9 18 10 8 11 7 12
REMARK SMILES IDX 6 13 5 14 4 15 3 16 2 17 1 18
REMARK H PARENT
REMARK Flexibility Score: inf
ROOT
ATOM      1  C   UNL     1       8.403  -2.450  -1.437  1.00  0.00     0.000 C 
ENDROOT
BRANCH   1   2
ATOM      2  C   UNL     1       8.784  -1.247  -0.553  1.00  0.00     0.000 C 
BRANCH   2   3
ATOM      3  C   UNL     1       9.599  -1.583   0.711  1.00  0.00     0.000 C 
BRANCH   3   4
ATOM      4  C   UNL     1       8.802  -1.389   2.011  1.00  0.00     0.000 C 
BRANCH   4   5
ATOM      5  C   UNL     1       9.197  -0.107   2.765  1.00  0.00     0.000 C 
BRANCH   5   6
ATOM      6  C   UNL     1       8.041   0.904   2.916  1.00  0.00     0.006 C 
BRANCH   6   7
ATOM      7  C   UNL     1       8.203   2.112   1.984  1.00  0.00     0.053 C 
BRANCH   7   8
ATOM      8  C   UNL     1       7.302   3.227   2.407  1.00  0.00     0.041 C 
ATOM      9  O   UNL     1       6.894   4.068   1.562  1.00  0.00    -0.550 OA
ATOM     10  O   UNL     1       6.951   3.369   3.744  1.00  0.00    -0.550 OA
ENDBRANCH   7   8
ENDBRANCH   6   7
ENDBRANCH   5   6
ENDBRANCH   4   5
ENDBRANCH   3   4
ENDBRANCH   2   3
ENDBRANCH   1   2
BRANCH   1  11
ATOM     11  C   UNL     1       7.756  -2.036  -2.769  1.00  0.00     0.000 C 
BRANCH  11  12
ATOM     12  C   UNL     1       7.286  -0.570  -2.780  1.00  0.00    -0.000 C 
BRANCH  12  13
ATOM     13  C   UNL     1       6.385  -0.173  -3.965  1.00  0.00    -0.000 C 
BRANCH  13  14
ATOM     14  C   UNL     1       6.006  -1.369  -4.858  1.00  0.00    -0.000 C 
BRANCH  14  15
ATOM     15  C   UNL     1       4.540  -1.318  -5.319  1.00  0.00    -0.000 C 
BRANCH  15  16
ATOM     16  C   UNL     1       3.876   0.038  -5.034  1.00  0.00    -0.000 C 
BRANCH  16  17
ATOM     17  C   UNL     1       2.382  -0.001  -5.378  1.00  0.00    -0.003 C 
ATOM     18  C   UNL     1       1.691  -1.184  -4.706  1.00  0.00     0.004 C 
ENDBRANCH  16  17
ENDBRANCH  15  16
ENDBRANCH  14  15
ENDBRANCH  13  14
ENDBRANCH  12  13
ENDBRANCH  11  12
ENDBRANCH   1  11
TORSDOF 14
ENDMDL
MODEL 9
REMARK VINA RESULT:    -2.878      2.095      4.655
REMARK INTER + INTRA:          -6.915
REMARK INTER:                  -4.929
REMARK INTRA:                  -1.985
REMARK UNBOUND:                -1.681
REMARK SMILES CCCCCCCCCCCCCCCC(=O)[O-]
REMARK SMILES IDX 9 1 10 2 11 3 12 4 13 5 14 6 15 7 16 8 17 9 18 10 8 11 7 12
REMARK SMILES IDX 6 13 5 14 4 15 3 16 2 17 1 18
REMARK H PARENT
REMARK Flexibility Score: inf
ROOT
ATOM      1  C   UNL     1       7.352   0.085  -2.469  1.00  0.00     0.000 C 
ENDROOT
BRANCH   1   2
ATOM      2  C   UNL     1       8.661  -0.440  -1.847  1.00  0.00     0.000 C 
BRANCH   2   3
ATOM      3  C   UNL     1       8.777  -0.288  -0.318  1.00  0.00     0.000 C 
BRANCH   3   4
ATOM      4  C   UNL     1       9.038  -1.620   0.402  1.00  0.00     0.000 C 
BRANCH   4   5
ATOM      5  C   UNL     1       9.553  -2.718  -0.545  1.00  0.00     0.000 C 
BRANCH   5   6
ATOM      6  C   UNL     1       8.807  -4.061  -0.400  1.00  0.00     0.006 C 
BRANCH   6   7
ATOM      7  C   UNL     1       9.444  -4.965   0.664  1.00  0.00     0.053 C 
BRANCH   7   8
ATOM      8  C   UNL     1       8.448  -5.312   1.724  1.00  0.00     0.041 C 
ATOM      9  O   UNL     1       8.250  -6.516   2.037  1.00  0.00    -0.550 OA
ATOM     10  O   UNL     1       7.702  -4.311   2.331  1.00  0.00    -0.550 OA
ENDBRANCH   7   8
ENDBRANCH   6   7
ENDBRANCH   5   6
ENDBRANCH   4   5
ENDBRANCH   3   4
ENDBRANCH   2   3
ENDBRANCH   1   2
BRANCH   1  11
ATOM     11  C   UNL     1       6.793  -0.840  -3.563  1.00  0.00     0.000 C 
BRANCH  11  12
ATOM     12  C   UNL     1       7.523  -2.193  -3.638  1.00  0.00    -0.000 C 
BRANCH  12  13
ATOM     13  C   UNL     1       6.702  -3.355  -4.229  1.00  0.00    -0.000 C 
BRANCH  13  14
ATOM     14  C   UNL     1       7.043  -4.715  -3.593  1.00  0.00    -0.000 C 
BRANCH  14  15
ATOM     15  C   UNL     1       8.245  -5.396  -4.268  1.00  0.00    -0.000 C 
BRANCH  15  16
ATOM     16  C   UNL     1       9.117  -6.180  -3.275  1.00  0.00    -0.000 C 
BRANCH  16  17
ATOM     17  C   UNL     1      10.598  -5.818  -3.441  1.00  0.00    -0.003 C 
ATOM     18  C   UNL     1      10.778  -4.319  -3.655  1.00  0.00     0.004 C 
ENDBRANCH  16  17
ENDBRANCH  15  16
ENDBRANCH  14  15
ENDBRANCH  13  14
ENDBRANCH  12  13
ENDBRANCH  11  12
ENDBRANCH   1  11
TORSDOF 14
ENDMDL
