MODEL 1
REMARK VINA RESULT:    -3.603      0.000      0.000
REMARK INTER + INTRA:          -4.266
REMARK INTER:                  -4.235
REMARK INTRA:                  -0.031
REMARK UNBOUND:                -0.031
REMARK SMILES O=C([O-])CCC(=O)[O-]
REMARK SMILES IDX 4 1 2 2 1 3 3 4 5 5 6 6 7 7 8 8
REMARK H PARENT
REMARK Flexibility Score: inf
ROOT
ATOM      1  C   UNL     1     -15.828  12.327  -5.598  1.00  0.00     0.059 C 
ENDROOT
BRANCH   1   2
ATOM      2  C   UNL     1     -16.164  12.257  -7.053  1.00  0.00     0.042 C 
ATOM      3  O   UNL     1     -15.248  12.191  -7.914  1.00  0.00    -0.550 OA
ATOM      4  O   UNL     1     -17.492  12.218  -7.458  1.00  0.00    -0.550 OA
ENDBRANCH   1   2
BRANCH   1   5
ATOM      5  C   UNL     1     -14.539  11.554  -5.310  1.00  0.00     0.059 C 
BRANCH   5   6
ATOM      6  C   UNL     1     -14.291  11.479  -3.836  1.00  0.00     0.042 C 
ATOM      7  O   UNL     1     -14.441  10.390  -3.222  1.00  0.00    -0.550 OA
ATOM      8  O   UNL     1     -13.847  12.601  -3.148  1.00  0.00    -0.550 OA
ENDBRANCH   5   6
ENDBRANCH   1   5
TORSDOF 3
ENDMDL
MODEL 2
REMARK VINA RESULT:    -3.602     12.029     12.553
REMARK INTER + INTRA:          -4.264
REMARK INTER:                  -4.166
REMARK INTRA:                  -0.098
REMARK UNBOUND:                -0.031
REMARK SMILES O=C([O-])CCC(=O)[O-]
REMARK SMILES IDX 4 1 2 2 1 3 3 4 5 5 6 6 7 7 8 8
REMARK H PARENT
REMARK Flexibility Score: inf
ROOT
ATOM      1  C   UNL     1     -16.545  -0.824  -8.970  1.00  0.00     0.059 C 
ENDROOT
BRANCH   1   2
ATOM      2  C   UNL     1     -15.259  -0.065  -8.900  1.00  0.00     0.042 C 
ATOM      3  O   UNL     1     -14.694   0.326  -9.955  1.00  0.00    -0.550 OA
ATOM      4  O   UNL     1     -14.706   0.253  -7.666  1.00  0.00    -0.550 OA
ENDBRANCH   1   2
BRANCH   1   5
ATOM      5  C   UNL     1     -17.735   0.128  -8.833  1.00  0.00     0.059 C 
BRANCH   5   6
ATOM      6  C   UNL     1     -18.188   0.199  -7.408  1.00  0.00     0.042 C 
ATOM      7  O   UNL     1     -17.766  -0.638  -6.567  1.00  0.00    -0.550 OA
ATOM      8  O   UNL     1     -19.038   1.218  -6.998  1.00  0.00    -0.550 OA
ENDBRANCH   5   6
ENDBRANCH   1   5
TORSDOF 3
ENDMDL
MODEL 3
REMARK VINA RESULT:    -3.598      0.200      4.294
REMARK INTER + INTRA:          -4.260
REMARK INTER:                  -4.227
REMARK INTRA:                  -0.033
REMARK UNBOUND:                -0.031
REMARK SMILES O=C([O-])CCC(=O)[O-]
REMARK SMILES IDX 4 1 2 2 1 3 3 4 5 5 6 6 7 7 8 8
REMARK H PARENT
REMARK Flexibility Score: inf
ROOT
ATOM      1  C   UNL     1     -14.622  11.528  -5.477  1.00  0.00     0.059 C 
ENDROOT
BRANCH   1   2
ATOM      2  C   UNL     1     -14.294  11.561  -4.019  1.00  0.00     0.042 C 
ATOM      3  O   UNL     1     -13.936  12.637  -3.473  1.00  0.00    -0.550 OA
ATOM      4  O   UNL     1     -14.429  10.411  -3.250  1.00  0.00    -0.550 OA
ENDBRANCH   1   2
BRANCH   1   5
ATOM      5  C   UNL     1     -15.911  12.306  -5.752  1.00  0.00     0.059 C 
BRANCH   5   6
ATOM      6  C   UNL     1     -16.237  12.280  -7.212  1.00  0.00     0.042 C 
ATOM      7  O   UNL     1     -15.313  12.260  -8.068  1.00  0.00    -0.550 OA
ATOM      8  O   UNL     1     -17.562  12.229  -7.628  1.00  0.00    -0.550 OA
ENDBRANCH   5   6
ENDBRANCH   1   5
TORSDOF 3
ENDMDL
MODEL 4
REMARK VINA RESULT:    -3.523     11.940     12.506
REMARK INTER + INTRA:          -4.171
REMARK INTER:                  -4.054
REMARK INTRA:                  -0.117
REMARK UNBOUND:                -0.031
REMARK SMILES O=C([O-])CCC(=O)[O-]
REMARK SMILES IDX 4 1 2 2 1 3 3 4 5 5 6 6 7 7 8 8
REMARK H PARENT
REMARK Flexibility Score: inf
ROOT
ATOM      1  C   UNL     1     -18.071   0.292  -8.434  1.00  0.00     0.059 C 
ENDROOT
BRANCH   1   2
ATOM      2  C   UNL     1     -18.671   0.688  -7.123  1.00  0.00     0.042 C 
ATOM      3  O   UNL     1     -19.863   1.091  -7.067  1.00  0.00    -0.550 OA
ATOM      4  O   UNL     1     -17.931   0.566  -5.954  1.00  0.00    -0.550 OA
ENDBRANCH   1   2
BRANCH   1   5
ATOM      5  C   UNL     1     -17.083  -0.861  -8.243  1.00  0.00     0.059 C 
BRANCH   5   6
ATOM      6  C   UNL     1     -15.684  -0.404  -8.520  1.00  0.00     0.042 C 
ATOM      7  O   UNL     1     -15.193  -0.530  -9.672  1.00  0.00    -0.550 OA
ATOM      8  O   UNL     1     -14.942   0.207  -7.518  1.00  0.00    -0.550 OA
ENDBRANCH   5   6
ENDBRANCH   1   5
TORSDOF 3
ENDMDL
MODEL 5
REMARK VINA RESULT:    -3.515      1.677      4.128
REMARK INTER + INTRA:          -4.162
REMARK INTER:                  -4.042
REMARK INTRA:                  -0.120
REMARK UNBOUND:                -0.031
REMARK SMILES O=C([O-])CCC(=O)[O-]
REMARK SMILES IDX 4 1 2 2 1 3 3 4 5 5 6 6 7 7 8 8
REMARK H PARENT
REMARK Flexibility Score: inf
ROOT
ATOM      1  C   UNL     1     -14.245  12.103  -3.933  1.00  0.00     0.059 C 
ENDROOT
BRANCH   1   2
ATOM      2  C   UNL     1     -13.688  13.438  -3.555  1.00  0.00     0.042 C 
ATOM      3  O   UNL     1     -13.697  13.811  -2.352  1.00  0.00    -0.550 OA
ATOM      4  O   UNL     1     -13.114  14.252  -4.523  1.00  0.00    -0.550 OA
ENDBRANCH   1   2
BRANCH   1   5
ATOM      5  C   UNL     1     -15.511  12.272  -4.776  1.00  0.00     0.059 C 
BRANCH   5   6
ATOM      6  C   UNL     1     -15.241  11.916  -6.204  1.00  0.00     0.042 C 
ATOM      7  O   UNL     1     -14.085  11.568  -6.562  1.00  0.00    -0.550 OA
ATOM      8  O   UNL     1     -16.276  11.921  -7.130  1.00  0.00    -0.550 OA
ENDBRANCH   5   6
ENDBRANCH   1   5
TORSDOF 3
ENDMDL
MODEL 6
REMARK VINA RESULT:    -3.484      1.422      1.832
REMARK INTER + INTRA:          -4.126
REMARK INTER:                  -4.022
REMARK INTRA:                  -0.104
REMARK UNBOUND:                -0.031
REMARK SMILES O=C([O-])CCC(=O)[O-]
REMARK SMILES IDX 4 1 2 2 1 3 3 4 5 5 6 6 7 7 8 8
REMARK H PARENT
REMARK Flexibility Score: inf
ROOT
ATOM      1  C   UNL     1     -15.795  12.430  -4.817  1.00  0.00     0.059 C 
ENDROOT
BRANCH   1   2
ATOM      2  C   UNL     1     -16.006  12.312  -6.292  1.00  0.00     0.042 C 
ATOM      3  O   UNL     1     -15.055  11.969  -7.043  1.00  0.00    -0.550 OA
ATOM      4  O   UNL     1     -17.265  12.535  -6.835  1.00  0.00    -0.550 OA
ENDBRANCH   1   2
BRANCH   1   5
ATOM      5  C   UNL     1     -14.341  12.115  -4.457  1.00  0.00     0.059 C 
BRANCH   5   6
ATOM      6  C   UNL     1     -13.677  13.317  -3.863  1.00  0.00     0.042 C 
ATOM      7  O   UNL     1     -13.270  14.249  -4.606  1.00  0.00    -0.550 OA
ATOM      8  O   UNL     1     -13.551  13.431  -2.484  1.00  0.00    -0.550 OA
ENDBRANCH   5   6
ENDBRANCH   1   5
TORSDOF 3
ENDMDL
MODEL 7
REMARK VINA RESULT:    -3.462     11.166     13.302
REMARK INTER + INTRA:          -4.100
REMARK INTER:                  -4.033
REMARK INTRA:                  -0.067
REMARK UNBOUND:                -0.031
REMARK SMILES O=C([O-])CCC(=O)[O-]
REMARK SMILES IDX 4 1 2 2 1 3 3 4 5 5 6 6 7 7 8 8
REMARK H PARENT
REMARK Flexibility Score: inf
ROOT
ATOM      1  C   UNL     1     -13.614   2.351   4.162  1.00  0.00     0.059 C 
ENDROOT
BRANCH   1   2
ATOM      2  C   UNL     1     -13.675   3.271   5.340  1.00  0.00     0.042 C 
ATOM      3  O   UNL     1     -14.463   4.252   5.338  1.00  0.00    -0.550 OA
ATOM      4  O   UNL     1     -12.895   3.017   6.461  1.00  0.00    -0.550 OA
ENDBRANCH   1   2
BRANCH   1   5
ATOM      5  C   UNL     1     -13.275   3.133   2.891  1.00  0.00     0.059 C 
BRANCH   5   6
ATOM      6  C   UNL     1     -14.330   2.924   1.851  1.00  0.00     0.042 C 
ATOM      7  O   UNL     1     -14.810   1.776   1.656  1.00  0.00    -0.550 OA
ATOM      8  O   UNL     1     -14.820   4.006   1.130  1.00  0.00    -0.550 OA
ENDBRANCH   5   6
ENDBRANCH   1   5
TORSDOF 3
ENDMDL
MODEL 8
REMARK VINA RESULT:    -3.411     12.921     13.494
REMARK INTER + INTRA:          -4.040
REMARK INTER:                  -3.939
REMARK INTRA:                  -0.102
REMARK UNBOUND:                -0.031
REMARK SMILES O=C([O-])CCC(=O)[O-]
REMARK SMILES IDX 4 1 2 2 1 3 3 4 5 5 6 6 7 7 8 8
REMARK H PARENT
REMARK Flexibility Score: inf
ROOT
ATOM      1  C   UNL     1     -17.792   0.091  -8.779  1.00  0.00     0.059 C 
ENDROOT
BRANCH   1   2
ATOM      2  C   UNL     1     -18.219   0.303  -7.362  1.00  0.00     0.042 C 
ATOM      3  O   UNL     1     -17.513  -0.131  -6.414  1.00  0.00    -0.550 OA
ATOM      4  O   UNL     1     -19.376   1.021  -7.084  1.00  0.00    -0.550 OA
ENDBRANCH   1   2
BRANCH   1   5
ATOM      5  C   UNL     1     -16.364  -0.457  -8.830  1.00  0.00     0.059 C 
BRANCH   5   6
ATOM      6  C   UNL     1     -16.375  -1.918  -9.155  1.00  0.00     0.042 C 
ATOM      7  O   UNL     1     -16.616  -2.766  -8.256  1.00  0.00    -0.550 OA
ATOM      8  O   UNL     1     -16.169  -2.341 -10.462  1.00  0.00    -0.550 OA
ENDBRANCH   5   6
ENDBRANCH   1   5
TORSDOF 3
ENDMDL
MODEL 9
REMARK VINA RESULT:    -3.277     12.739     13.281
REMARK INTER + INTRA:          -3.883
REMARK INTER:                  -3.775
REMARK INTRA:                  -0.108
REMARK UNBOUND:                -0.031
REMARK SMILES O=C([O-])CCC(=O)[O-]
REMARK SMILES IDX 4 1 2 2 1 3 3 4 5 5 6 6 7 7 8 8
REMARK H PARENT
REMARK Flexibility Score: inf
ROOT
ATOM      1  C   UNL     1     -16.390  -0.176  -8.867  1.00  0.00     0.059 C 
ENDROOT
BRANCH   1   2
ATOM      2  C   UNL     1     -16.094  -1.622  -9.106  1.00  0.00     0.042 C 
ATOM      3  O   UNL     1     -15.721  -2.359  -8.156  1.00  0.00    -0.550 OA
ATOM      4  O   UNL     1     -16.276  -2.169 -10.370  1.00  0.00    -0.550 OA
ENDBRANCH   1   2
BRANCH   1   5
ATOM      5  C   UNL     1     -17.899   0.048  -8.750  1.00  0.00     0.059 C 
BRANCH   5   6
ATOM      6  C   UNL     1     -18.274   0.365  -7.336  1.00  0.00     0.042 C 
ATOM      7  O   UNL     1     -19.343   0.982  -7.086  1.00  0.00    -0.550 OA
ATOM      8  O   UNL     1     -17.466  -0.065  -6.290  1.00  0.00    -0.550 OA
ENDBRANCH   5   6
ENDBRANCH   1   5
TORSDOF 3
ENDMDL
