MODEL 1
REMARK VINA RESULT:    -3.481      0.000      0.000
REMARK INTER + INTRA:          -3.525
REMARK INTER:                  -4.294
REMARK INTRA:                   0.769
REMARK UNBOUND:                 0.769
REMARK SMILES CC1=CC=CC(C)(C)CC1=O
REMARK SMILES IDX 1 1 2 2 3 3 10 4 11 5 9 6 4 8 5 9 6 10 7 11 8 12
REMARK H PARENT
REMARK Flexibility Score: 80.00
ROOT
ATOM      1  C   UNL     1      -7.504  -6.951  13.926  1.00  0.00     0.048 C 
ATOM      2  C   UNL     1      -6.220  -6.170  13.778  1.00  0.00    -0.008 C 
ATOM      3  C   UNL     1      -6.067  -5.067  14.543  1.00  0.00     0.007 C 
ENDROOT
BRANCH   2   4
ATOM      4  C   UNL     1      -5.261  -6.635  12.746  1.00  0.00     0.159 C 
ATOM      5  O   UNL     1      -5.635  -7.510  11.918  1.00  0.00    -0.295 OA
BRANCH   4   6
ATOM      6  C   UNL     1      -3.855  -6.129  12.637  1.00  0.00     0.091 CG0
ATOM      7  G   UNL     1      -3.772  -4.604  12.410  1.00  0.00     0.000 G0
ENDBRANCH   4   6
ENDBRANCH   2   4
BRANCH   3   8
ATOM      8  C   UNL     1      -4.948  -4.098  14.602  1.00  0.00    -0.003 C 
ATOM      9  C   UNL     1      -3.975  -3.876  13.710  1.00  0.00    -0.020 C 
BRANCH   9  10
ATOM     10  C   UNL     1      -3.772  -4.608  12.404  1.00  0.00    -0.010 CG0
ATOM     11  C   UNL     1      -2.357  -4.277  11.877  1.00  0.00     0.016 C 
ATOM     12  C   UNL     1      -4.798  -4.115  11.356  1.00  0.00     0.016 C 
ATOM     13  G   UNL     1      -3.851  -6.132  12.643  1.00  0.00     0.000 G0
ENDBRANCH   9  10
ENDBRANCH   3   8
TORSDOF 0
ENDMDL
MODEL 2
REMARK VINA RESULT:    -3.410      9.401     10.682
REMARK INTER + INTRA:          -3.439
REMARK INTER:                  -4.186
REMARK INTRA:                   0.748
REMARK UNBOUND:                 0.769
REMARK SMILES CC1=CC=CC(C)(C)CC1=O
REMARK SMILES IDX 1 1 2 2 3 3 10 4 11 5 9 6 4 8 5 9 6 10 7 11 8 12
REMARK H PARENT
REMARK Flexibility Score: 80.00
ROOT
ATOM      1  C   UNL     1      -1.525  -7.020   3.695  1.00  0.00     0.048 C 
ATOM      2  C   UNL     1      -2.724  -6.405   3.014  1.00  0.00    -0.008 C 
ATOM      3  C   UNL     1      -2.515  -5.319   2.240  1.00  0.00     0.007 C 
ENDROOT
BRANCH   2   4
ATOM      4  C   UNL     1      -4.050  -7.001   3.314  1.00  0.00     0.159 C 
ATOM      5  O   UNL     1      -4.138  -7.860   4.233  1.00  0.00    -0.295 OA
BRANCH   4   6
ATOM      6  C   UNL     1      -5.301  -6.647   2.570  1.00  0.00     0.091 CG0
ATOM      7  G   UNL     1      -5.651  -5.144   2.646  1.00  0.00     0.000 G0
ENDBRANCH   4   6
ENDBRANCH   2   4
BRANCH   3   8
ATOM      8  C   UNL     1      -3.482  -4.495   1.477  1.00  0.00    -0.003 C 
ATOM      9  C   UNL     1      -4.808  -4.394   1.626  1.00  0.00    -0.020 C 
BRANCH   9  10
ATOM     10  C   UNL     1      -5.659  -5.146   2.623  1.00  0.00    -0.010 CG0
ATOM     11  C   UNL     1      -7.139  -5.004   2.202  1.00  0.00     0.016 C 
ATOM     12  C   UNL     1      -5.500  -4.523   4.029  1.00  0.00     0.016 C 
ATOM     13  G   UNL     1      -5.293  -6.647   2.592  1.00  0.00     0.000 G0
ENDBRANCH   9  10
ENDBRANCH   3   8
TORSDOF 0
ENDMDL
MODEL 3
REMARK VINA RESULT:    -3.286     13.165     14.701
REMARK INTER + INTRA:          -3.285
REMARK INTER:                  -4.035
REMARK INTRA:                   0.750
REMARK UNBOUND:                 0.769
REMARK SMILES CC1=CC=CC(C)(C)CC1=O
REMARK SMILES IDX 1 1 2 2 3 3 10 4 11 5 9 6 4 8 5 9 6 10 7 11 8 12
REMARK H PARENT
REMARK Flexibility Score: 80.00
ROOT
ATOM      1  C   UNL     1       3.052   6.504  18.128  1.00  0.00     0.048 C 
ATOM      2  C   UNL     1       1.935   6.195  19.097  1.00  0.00    -0.008 C 
ATOM      3  C   UNL     1       2.056   5.087  19.858  1.00  0.00     0.007 C 
ENDROOT
BRANCH   2   4
ATOM      4  C   UNL     1       0.757   7.097  19.078  1.00  0.00     0.159 C 
ATOM      5  O   UNL     1       0.642   7.931  18.138  1.00  0.00    -0.295 OA
BRANCH   4   6
ATOM      6  C   UNL     1      -0.309   7.084  20.130  1.00  0.00     0.091 CG0
ATOM      7  G   UNL     1      -1.042   5.729  20.240  1.00  0.00     0.000 G0
ENDBRANCH   4   6
ENDBRANCH   2   4
BRANCH   3   8
ATOM      8  C   UNL     1       1.128   4.518  20.864  1.00  0.00    -0.003 C 
ATOM      9  C   UNL     1      -0.176   4.762  21.043  1.00  0.00    -0.020 C 
BRANCH   9  10
ATOM     10  C   UNL     1      -1.025   5.728  20.251  1.00  0.00    -0.010 CG0
ATOM     11  C   UNL     1      -2.343   5.961  21.023  1.00  0.00     0.016 C 
ATOM     12  C   UNL     1      -1.380   5.115  18.876  1.00  0.00     0.016 C 
ATOM     13  G   UNL     1      -0.294   7.083  20.127  1.00  0.00     0.000 G0
ENDBRANCH   9  10
ENDBRANCH   3   8
TORSDOF 0
ENDMDL
MODEL 4
REMARK VINA RESULT:    -3.240      1.807      3.060
REMARK INTER + INTRA:          -3.228
REMARK INTER:                  -3.973
REMARK INTRA:                   0.746
REMARK UNBOUND:                 0.769
REMARK SMILES CC1=CC=CC(C)(C)CC1=O
REMARK SMILES IDX 1 1 2 2 3 3 10 4 11 5 9 6 4 8 5 9 6 10 7 11 8 12
REMARK H PARENT
REMARK Flexibility Score: 80.00
ROOT
ATOM      1  C   UNL     1      -5.877  -7.748  12.483  1.00  0.00     0.048 C 
ATOM      2  C   UNL     1      -5.484  -6.369  12.957  1.00  0.00    -0.008 C 
ATOM      3  C   UNL     1      -4.252  -5.923  12.631  1.00  0.00     0.007 C 
ENDROOT
BRANCH   2   4
ATOM      4  C   UNL     1      -6.458  -5.644  13.810  1.00  0.00     0.159 C 
ATOM      5  O   UNL     1      -7.473  -6.262  14.235  1.00  0.00    -0.295 OA
BRANCH   4   6
ATOM      6  C   UNL     1      -6.313  -4.202  14.188  1.00  0.00     0.091 CG0
ATOM      7  G   UNL     1      -4.995  -3.898  14.934  1.00  0.00     0.000 G0
ENDBRANCH   4   6
ENDBRANCH   2   4
BRANCH   3   8
ATOM      8  C   UNL     1      -3.582  -4.645  12.968  1.00  0.00    -0.003 C 
ATOM      9  C   UNL     1      -3.873  -3.770  13.938  1.00  0.00    -0.020 C 
BRANCH   9  10
ATOM     10  C   UNL     1      -5.008  -3.875  14.930  1.00  0.00    -0.010 CG0
ATOM     11  C   UNL     1      -5.189  -2.497  15.607  1.00  0.00     0.016 C 
ATOM     12  C   UNL     1      -4.655  -4.904  16.030  1.00  0.00     0.016 C 
ATOM     13  G   UNL     1      -6.317  -4.222  14.189  1.00  0.00     0.000 G0
ENDBRANCH   9  10
ENDBRANCH   3   8
TORSDOF 0
ENDMDL
MODEL 5
REMARK VINA RESULT:    -3.089      9.728     10.760
REMARK INTER + INTRA:          -3.042
REMARK INTER:                  -3.798
REMARK INTRA:                   0.756
REMARK UNBOUND:                 0.769
REMARK SMILES CC1=CC=CC(C)(C)CC1=O
REMARK SMILES IDX 1 1 2 2 3 3 10 4 11 5 9 6 4 8 5 9 6 10 7 11 8 12
REMARK H PARENT
REMARK Flexibility Score: 80.00
ROOT
ATOM      1  C   UNL     1      -4.286  -7.866   4.128  1.00  0.00     0.048 C 
ATOM      2  C   UNL     1      -4.008  -6.681   3.235  1.00  0.00    -0.008 C 
ATOM      3  C   UNL     1      -2.717  -6.367   2.995  1.00  0.00     0.007 C 
ENDROOT
BRANCH   2   4
ATOM      4  C   UNL     1      -5.181  -5.908   2.753  1.00  0.00     0.159 C 
ATOM      5  O   UNL     1      -6.312  -6.140   3.260  1.00  0.00    -0.295 OA
BRANCH   4   6
ATOM      6  C   UNL     1      -5.099  -4.869   1.678  1.00  0.00     0.091 CG0
ATOM      7  G   UNL     1      -4.156  -3.698   2.032  1.00  0.00     0.000 G0
ENDBRANCH   4   6
ENDBRANCH   2   4
BRANCH   3   8
ATOM      8  C   UNL     1      -2.139  -5.262   2.193  1.00  0.00    -0.003 C 
ATOM      9  C   UNL     1      -2.715  -4.125   1.784  1.00  0.00    -0.020 C 
BRANCH   9  10
ATOM     10  C   UNL     1      -4.145  -3.704   2.031  1.00  0.00    -0.010 CG0
ATOM     11  C   UNL     1      -4.472  -2.523   1.089  1.00  0.00     0.016 C 
ATOM     12  C   UNL     1      -4.307  -3.212   3.488  1.00  0.00     0.016 C 
ATOM     13  G   UNL     1      -5.098  -4.871   1.688  1.00  0.00     0.000 G0
ENDBRANCH   9  10
ENDBRANCH   3   8
TORSDOF 0
ENDMDL
MODEL 6
REMARK VINA RESULT:    -3.028      9.815     10.739
REMARK INTER + INTRA:          -2.967
REMARK INTER:                  -4.000
REMARK INTRA:                   1.033
REMARK UNBOUND:                 0.769
REMARK SMILES CC1=CC=CC(C)(C)CC1=O
REMARK SMILES IDX 1 1 2 2 3 3 10 4 11 5 9 6 4 8 5 9 6 10 7 11 8 12
REMARK H PARENT
REMARK Flexibility Score: 80.00
ROOT
ATOM      1  C   UNL     1      -1.421  -6.760   3.872  1.00  0.00     0.048 C 
ATOM      2  C   UNL     1      -2.774  -6.352   3.337  1.00  0.00    -0.008 C 
ATOM      3  C   UNL     1      -3.820  -7.165   3.598  1.00  0.00     0.007 C 
ENDROOT
BRANCH   2   4
ATOM      4  C   UNL     1      -2.829  -5.127   2.501  1.00  0.00     0.159 C 
ATOM      5  O   UNL     1      -1.844  -4.340   2.510  1.00  0.00    -0.295 OA
BRANCH   4   6
ATOM      6  C   UNL     1      -4.005  -4.761   1.650  1.00  0.00     0.091 CG0
ATOM      7  G   UNL     1      -5.321  -4.632   2.449  1.00  0.00     0.000 G0
ENDBRANCH   4   6
ENDBRANCH   2   4
BRANCH   3   8
ATOM      8  C   UNL     1      -5.241  -7.047   3.192  1.00  0.00    -0.003 C 
ATOM      9  C   UNL     1      -5.890  -5.990   2.690  1.00  0.00    -0.020 C 
BRANCH   9  10
ATOM     10  C   UNL     1      -5.311  -4.617   2.440  1.00  0.00    -0.010 CG0
ATOM     11  C   UNL     1      -4.998  -3.966   3.807  1.00  0.00     0.016 C 
ATOM     12  C   UNL     1      -6.350  -3.729   1.717  1.00  0.00     0.016 C 
ATOM     13  G   UNL     1      -3.988  -4.745   1.654  1.00  0.00     0.000 G0
ENDBRANCH   9  10
ENDBRANCH   3   8
TORSDOF 0
ENDMDL
MODEL 7
REMARK VINA RESULT:    -3.022     12.744     14.305
REMARK INTER + INTRA:          -2.960
REMARK INTER:                  -3.705
REMARK INTRA:                   0.746
REMARK UNBOUND:                 0.769
REMARK SMILES CC1=CC=CC(C)(C)CC1=O
REMARK SMILES IDX 1 1 2 2 3 3 10 4 11 5 9 6 4 8 5 9 6 10 7 11 8 12
REMARK H PARENT
REMARK Flexibility Score: 80.00
ROOT
ATOM      1  C   UNL     1       0.826   8.439  18.107  1.00  0.00     0.048 C 
ATOM      2  C   UNL     1       0.886   7.144  18.881  1.00  0.00    -0.008 C 
ATOM      3  C   UNL     1       1.966   6.355  18.697  1.00  0.00     0.007 C 
ENDROOT
BRANCH   2   4
ATOM      4  C   UNL     1      -0.287   6.807  19.726  1.00  0.00     0.159 C 
ATOM      5  O   UNL     1      -1.335   7.499  19.616  1.00  0.00    -0.295 OA
BRANCH   4   6
ATOM      6  C   UNL     1      -0.293   5.688  20.721  1.00  0.00     0.091 CG0
ATOM      7  G   UNL     1      -0.002   4.308  20.090  1.00  0.00     0.000 G0
ENDBRANCH   4   6
ENDBRANCH   2   4
BRANCH   3   8
ATOM      8  C   UNL     1       2.291   5.035  19.286  1.00  0.00    -0.003 C 
ATOM      9  C   UNL     1       1.477   4.146  19.869  1.00  0.00    -0.020 C 
BRANCH   9  10
ATOM     10  C   UNL     1      -0.009   4.303  20.092  1.00  0.00    -0.010 CG0
ATOM     11  C   UNL     1      -0.463   3.231  21.108  1.00  0.00     0.016 C 
ATOM     12  C   UNL     1      -0.771   4.059  18.769  1.00  0.00     0.016 C 
ATOM     13  G   UNL     1      -0.300   5.694  20.699  1.00  0.00     0.000 G0
ENDBRANCH   9  10
ENDBRANCH   3   8
TORSDOF 0
ENDMDL
MODEL 8
REMARK VINA RESULT:    -2.985      1.684      2.980
REMARK INTER + INTRA:          -2.914
REMARK INTER:                  -3.953
REMARK INTRA:                   1.038
REMARK UNBOUND:                 0.769
REMARK SMILES CC1=CC=CC(C)(C)CC1=O
REMARK SMILES IDX 1 1 2 2 3 3 10 4 11 5 9 6 4 8 5 9 6 10 7 11 8 12
REMARK H PARENT
REMARK Flexibility Score: 80.00
ROOT
ATOM      1  C   UNL     1      -4.363  -3.057  15.567  1.00  0.00     0.048 C 
ATOM      2  C   UNL     1      -4.868  -4.188  14.702  1.00  0.00    -0.008 C 
ATOM      3  C   UNL     1      -6.069  -4.722  15.009  1.00  0.00     0.007 C 
ENDROOT
BRANCH   2   4
ATOM      4  C   UNL     1      -3.965  -4.672  13.628  1.00  0.00     0.159 C 
ATOM      5  O   UNL     1      -2.983  -3.956  13.289  1.00  0.00    -0.295 OA
BRANCH   4   6
ATOM      6  C   UNL     1      -4.163  -5.968  12.905  1.00  0.00     0.091 CG0
ATOM      7  G   UNL     1      -5.526  -6.064  12.185  1.00  0.00     0.000 G0
ENDBRANCH   4   6
ENDBRANCH   2   4
BRANCH   3   8
ATOM      8  C   UNL     1      -6.804  -5.840  14.372  1.00  0.00    -0.003 C 
ATOM      9  C   UNL     1      -6.585  -6.430  13.190  1.00  0.00    -0.020 C 
BRANCH   9  10
ATOM     10  C   UNL     1      -5.518  -6.059  12.187  1.00  0.00    -0.010 CG0
ATOM     11  C   UNL     1      -5.865  -4.673  11.598  1.00  0.00     0.016 C 
ATOM     12  C   UNL     1      -5.506  -7.081  11.026  1.00  0.00     0.016 C 
ATOM     13  G   UNL     1      -4.150  -5.951  12.898  1.00  0.00     0.000 G0
ENDBRANCH   9  10
ENDBRANCH   3   8
TORSDOF 0
ENDMDL
MODEL 9
REMARK VINA RESULT:    -2.916     14.026     15.169
REMARK INTER + INTRA:          -2.829
REMARK INTER:                  -3.586
REMARK INTRA:                   0.757
REMARK UNBOUND:                 0.769
REMARK SMILES CC1=CC=CC(C)(C)CC1=O
REMARK SMILES IDX 1 1 2 2 3 3 10 4 11 5 9 6 4 8 5 9 6 10 7 11 8 12
REMARK H PARENT
REMARK Flexibility Score: 80.00
ROOT
ATOM      1  C   UNL     1      -0.637   6.947   3.200  1.00  0.00     0.048 C 
ATOM      2  C   UNL     1      -1.112   5.615   2.672  1.00  0.00    -0.008 C 
ATOM      3  C   UNL     1      -2.254   5.109   3.186  1.00  0.00     0.007 C 
ENDROOT
BRANCH   2   4
ATOM      4  C   UNL     1      -0.243   4.931   1.682  1.00  0.00     0.159 C 
ATOM      5  O   UNL     1       0.917   5.383   1.476  1.00  0.00    -0.295 OA
BRANCH   4   6
ATOM      6  C   UNL     1      -0.672   3.732   0.895  1.00  0.00     0.091 CG0
ATOM      7  G   UNL     1      -1.063   2.529   1.781  1.00  0.00     0.000 G0
ENDBRANCH   4   6
ENDBRANCH   2   4
BRANCH   3   8
ATOM      8  C   UNL     1      -2.946   3.832   2.891  1.00  0.00    -0.003 C 
ATOM      9  C   UNL     1      -2.467   2.727   2.307  1.00  0.00    -0.020 C 
BRANCH   9  10
ATOM     10  C   UNL     1      -1.069   2.531   1.770  1.00  0.00    -0.010 CG0
ATOM     11  C   UNL     1      -1.066   1.270   0.875  1.00  0.00     0.016 C 
ATOM     12  C   UNL     1      -0.083   2.290   2.936  1.00  0.00     0.016 C 
ATOM     13  G   UNL     1      -0.673   3.741   0.895  1.00  0.00     0.000 G0
ENDBRANCH   9  10
ENDBRANCH   3   8
TORSDOF 0
ENDMDL
