MODEL 1
REMARK VINA RESULT:     1.227      0.000      0.000
REMARK INTER + INTRA:           2.120
REMARK INTER:                   2.088
REMARK INTRA:                   0.032
REMARK UNBOUND:                 0.032
REMARK SMILES CCCCCCCCCCCCCC(=O)[O-]
REMARK SMILES IDX 8 1 9 2 10 3 11 4 12 5 13 6 14 7 15 8 16 9 7 10 6 11 5 12
REMARK SMILES IDX 4 13 3 14 2 15 1 16
REMARK H PARENT
REMARK Flexibility Score: inf
ROOT
ATOM      1  C   UNL     1     -28.837   7.552  -0.705  1.00  0.00     0.000 C 
ENDROOT
BRANCH   1   2
ATOM      2  C   UNL     1     -27.650   8.376  -1.238  1.00  0.00     0.000 C 
BRANCH   2   3
ATOM      3  C   UNL     1     -27.300   8.047  -2.696  1.00  0.00     0.000 C 
BRANCH   3   4
ATOM      4  C   UNL     1     -28.506   8.276  -3.614  1.00  0.00     0.000 C 
BRANCH   4   5
ATOM      5  C   UNL     1     -28.056   8.571  -5.052  1.00  0.00     0.006 C 
BRANCH   5   6
ATOM      6  C   UNL     1     -26.630   8.076  -5.328  1.00  0.00     0.053 C 
BRANCH   6   7
ATOM      7  C   UNL     1     -26.053   8.702  -6.562  1.00  0.00     0.041 C 
ATOM      8  O   UNL     1     -26.648   9.659  -7.124  1.00  0.00    -0.550 OA
ATOM      9  O   UNL     1     -24.877   8.205  -7.109  1.00  0.00    -0.550 OA
ENDBRANCH   6   7
ENDBRANCH   5   6
ENDBRANCH   4   5
ENDBRANCH   3   4
ENDBRANCH   2   3
ENDBRANCH   1   2
BRANCH   1  10
ATOM     10  C   UNL     1     -28.881   7.383   0.827  1.00  0.00     0.000 C 
BRANCH  10  11
ATOM     11  C   UNL     1     -30.286   7.169   1.418  1.00  0.00    -0.000 C 
BRANCH  11  12
ATOM     12  C   UNL     1     -31.290   6.628   0.386  1.00  0.00    -0.000 C 
BRANCH  12  13
ATOM     13  C   UNL     1     -31.945   7.742  -0.448  1.00  0.00    -0.000 C 
BRANCH  13  14
ATOM     14  C   UNL     1     -33.133   8.453   0.231  1.00  0.00    -0.000 C 
BRANCH  14  15
ATOM     15  C   UNL     1     -32.861   8.948   1.662  1.00  0.00    -0.003 C 
ATOM     16  C   UNL     1     -34.140   9.232   2.448  1.00  0.00     0.004 C 
ENDBRANCH  14  15
ENDBRANCH  13  14
ENDBRANCH  12  13
ENDBRANCH  11  12
ENDBRANCH  10  11
ENDBRANCH   1  10
TORSDOF 12
ENDMDL
MODEL 2
REMARK VINA RESULT:     1.850      1.131      2.334
REMARK INTER + INTRA:           3.181
REMARK INTER:                   2.125
REMARK INTRA:                   1.056
REMARK UNBOUND:                 0.032
REMARK SMILES CCCCCCCCCCCCCC(=O)[O-]
REMARK SMILES IDX 8 1 9 2 10 3 11 4 12 5 13 6 14 7 15 8 16 9 7 10 6 11 5 12
REMARK SMILES IDX 4 13 3 14 2 15 1 16
REMARK H PARENT
REMARK Flexibility Score: inf
ROOT
ATOM      1  C   UNL     1     -28.569   7.785  -0.512  1.00  0.00     0.000 C 
ENDROOT
BRANCH   1   2
ATOM      2  C   UNL     1     -27.357   8.401  -1.234  1.00  0.00     0.000 C 
BRANCH   2   3
ATOM      3  C   UNL     1     -27.174   7.864  -2.661  1.00  0.00     0.000 C 
BRANCH   3   4
ATOM      4  C   UNL     1     -28.343   8.285  -3.558  1.00  0.00     0.000 C 
BRANCH   4   5
ATOM      5  C   UNL     1     -27.841   8.775  -4.925  1.00  0.00     0.006 C 
BRANCH   5   6
ATOM      6  C   UNL     1     -26.638   7.965  -5.426  1.00  0.00     0.053 C 
BRANCH   6   7
ATOM      7  C   UNL     1     -25.967   8.629  -6.590  1.00  0.00     0.041 C 
ATOM      8  O   UNL     1     -24.912   8.142  -7.074  1.00  0.00    -0.550 OA
ATOM      9  O   UNL     1     -26.490   9.802  -7.117  1.00  0.00    -0.550 OA
ENDBRANCH   6   7
ENDBRANCH   5   6
ENDBRANCH   4   5
ENDBRANCH   3   4
ENDBRANCH   2   3
ENDBRANCH   1   2
BRANCH   1  10
ATOM     10  C   UNL     1     -28.332   7.413   0.966  1.00  0.00     0.000 C 
BRANCH  10  11
ATOM     11  C   UNL     1     -29.543   7.622   1.892  1.00  0.00    -0.000 C 
BRANCH  11  12
ATOM     12  C   UNL     1     -30.761   6.778   1.478  1.00  0.00    -0.000 C 
BRANCH  12  13
ATOM     13  C   UNL     1     -31.817   7.593   0.711  1.00  0.00    -0.000 C 
BRANCH  13  14
ATOM     14  C   UNL     1     -31.866   7.331  -0.808  1.00  0.00    -0.000 C 
BRANCH  14  15
ATOM     15  C   UNL     1     -30.764   6.401  -1.342  1.00  0.00    -0.003 C 
ATOM     16  C   UNL     1     -30.506   6.579  -2.838  1.00  0.00     0.004 C 
ENDBRANCH  14  15
ENDBRANCH  13  14
ENDBRANCH  12  13
ENDBRANCH  11  12
ENDBRANCH  10  11
ENDBRANCH   1  10
TORSDOF 12
ENDMDL
MODEL 3
REMARK VINA RESULT:     2.315      1.020      2.260
REMARK INTER + INTRA:           3.971
REMARK INTER:                   3.345
REMARK INTRA:                   0.626
REMARK UNBOUND:                 0.032
REMARK SMILES CCCCCCCCCCCCCC(=O)[O-]
REMARK SMILES IDX 8 1 9 2 10 3 11 4 12 5 13 6 14 7 15 8 16 9 7 10 6 11 5 12
REMARK SMILES IDX 4 13 3 14 2 15 1 16
REMARK H PARENT
REMARK Flexibility Score: inf
ROOT
ATOM      1  C   UNL     1     -28.844   7.298  -0.863  1.00  0.00     0.000 C 
ENDROOT
BRANCH   1   2
ATOM      2  C   UNL     1     -27.821   8.234  -1.533  1.00  0.00     0.000 C 
BRANCH   2   3
ATOM      3  C   UNL     1     -27.589   7.904  -3.014  1.00  0.00     0.000 C 
BRANCH   3   4
ATOM      4  C   UNL     1     -28.491   8.756  -3.913  1.00  0.00     0.000 C 
BRANCH   4   5
ATOM      5  C   UNL     1     -28.112   8.589  -5.392  1.00  0.00     0.006 C 
BRANCH   5   6
ATOM      6  C   UNL     1     -26.694   8.031  -5.569  1.00  0.00     0.053 C 
BRANCH   6   7
ATOM      7  C   UNL     1     -25.940   8.758  -6.641  1.00  0.00     0.041 C 
ATOM      8  O   UNL     1     -24.888   8.262  -7.122  1.00  0.00    -0.550 OA
ATOM      9  O   UNL     1     -26.384   9.997  -7.084  1.00  0.00    -0.550 OA
ENDBRANCH   6   7
ENDBRANCH   5   6
ENDBRANCH   4   5
ENDBRANCH   3   4
ENDBRANCH   2   3
ENDBRANCH   1   2
BRANCH   1  10
ATOM     10  C   UNL     1     -29.941   6.751  -1.798  1.00  0.00     0.000 C 
BRANCH  10  11
ATOM     11  C   UNL     1     -31.300   6.488  -1.124  1.00  0.00    -0.000 C 
BRANCH  11  12
ATOM     12  C   UNL     1     -32.005   7.782  -0.682  1.00  0.00    -0.000 C 
BRANCH  12  13
ATOM     13  C   UNL     1     -32.229   7.848   0.839  1.00  0.00    -0.000 C 
BRANCH  13  14
ATOM     14  C   UNL     1     -31.386   6.856   1.667  1.00  0.00    -0.000 C 
BRANCH  14  15
ATOM     15  C   UNL     1     -30.197   7.482   2.415  1.00  0.00    -0.003 C 
ATOM     16  C   UNL     1     -28.886   7.390   1.634  1.00  0.00     0.004 C 
ENDBRANCH  14  15
ENDBRANCH  13  14
ENDBRANCH  12  13
ENDBRANCH  11  12
ENDBRANCH  10  11
ENDBRANCH   1  10
TORSDOF 12
ENDMDL
MODEL 4
REMARK VINA RESULT:     2.663      1.142      1.959
REMARK INTER + INTRA:           4.564
REMARK INTER:                   4.690
REMARK INTRA:                  -0.126
REMARK UNBOUND:                 0.032
REMARK SMILES CCCCCCCCCCCCCC(=O)[O-]
REMARK SMILES IDX 8 1 9 2 10 3 11 4 12 5 13 6 14 7 15 8 16 9 7 10 6 11 5 12
REMARK SMILES IDX 4 13 3 14 2 15 1 16
REMARK H PARENT
REMARK Flexibility Score: inf
ROOT
ATOM      1  C   UNL     1     -29.972   6.607  -2.515  1.00  0.00     0.000 C 
ENDROOT
BRANCH   1   2
ATOM      2  C   UNL     1     -29.232   7.882  -2.959  1.00  0.00     0.000 C 
BRANCH   2   3
ATOM      3  C   UNL     1     -27.715   7.801  -2.733  1.00  0.00     0.000 C 
BRANCH   3   4
ATOM      4  C   UNL     1     -26.958   7.886  -4.063  1.00  0.00     0.000 C 
BRANCH   4   5
ATOM      5  C   UNL     1     -27.730   8.737  -5.083  1.00  0.00     0.006 C 
BRANCH   5   6
ATOM      6  C   UNL     1     -27.264   8.483  -6.523  1.00  0.00     0.053 C 
BRANCH   6   7
ATOM      7  C   UNL     1     -25.778   8.626  -6.660  1.00  0.00     0.041 C 
ATOM      8  O   UNL     1     -25.091   7.678  -7.121  1.00  0.00    -0.550 OA
ATOM      9  O   UNL     1     -25.152   9.795  -6.246  1.00  0.00    -0.550 OA
ENDBRANCH   6   7
ENDBRANCH   5   6
ENDBRANCH   4   5
ENDBRANCH   3   4
ENDBRANCH   2   3
ENDBRANCH   1   2
BRANCH   1  10
ATOM     10  C   UNL     1     -30.266   6.514  -1.004  1.00  0.00     0.000 C 
BRANCH  10  11
ATOM     11  C   UNL     1     -29.242   7.219  -0.096  1.00  0.00    -0.000 C 
BRANCH  11  12
ATOM     12  C   UNL     1     -29.715   7.325   1.364  1.00  0.00    -0.000 C 
BRANCH  12  13
ATOM     13  C   UNL     1     -31.216   7.031   1.526  1.00  0.00    -0.000 C 
BRANCH  13  14
ATOM     14  C   UNL     1     -32.092   8.261   1.842  1.00  0.00    -0.000 C 
BRANCH  14  15
ATOM     15  C   UNL     1     -33.181   8.567   0.800  1.00  0.00    -0.003 C 
ATOM     16  C   UNL     1     -32.771   8.185  -0.621  1.00  0.00     0.004 C 
ENDBRANCH  14  15
ENDBRANCH  13  14
ENDBRANCH  12  13
ENDBRANCH  11  12
ENDBRANCH  10  11
ENDBRANCH   1  10
TORSDOF 12
ENDMDL
MODEL 5
REMARK VINA RESULT:     3.590      3.588      7.634
REMARK INTER + INTRA:           6.141
REMARK INTER:                   3.500
REMARK INTRA:                   2.641
REMARK UNBOUND:                 0.032
REMARK SMILES CCCCCCCCCCCCCC(=O)[O-]
REMARK SMILES IDX 8 1 9 2 10 3 11 4 12 5 13 6 14 7 15 8 16 9 7 10 6 11 5 12
REMARK SMILES IDX 4 13 3 14 2 15 1 16
REMARK H PARENT
REMARK Flexibility Score: inf
ROOT
ATOM      1  C   UNL     1     -30.100   6.317  -1.940  1.00  0.00     0.000 C 
ENDROOT
BRANCH   1   2
ATOM      2  C   UNL     1     -31.147   6.589  -0.844  1.00  0.00     0.000 C 
BRANCH   2   3
ATOM      3  C   UNL     1     -31.967   7.861  -1.103  1.00  0.00     0.000 C 
BRANCH   3   4
ATOM      4  C   UNL     1     -32.762   8.263   0.144  1.00  0.00     0.000 C 
BRANCH   4   5
ATOM      5  C   UNL     1     -32.045   7.810   1.424  1.00  0.00     0.006 C 
BRANCH   5   6
ATOM      6  C   UNL     1     -30.862   6.878   1.129  1.00  0.00     0.053 C 
BRANCH   6   7
ATOM      7  C   UNL     1     -29.580   7.411   1.693  1.00  0.00     0.041 C 
ATOM      8  O   UNL     1     -28.562   7.518   0.960  1.00  0.00    -0.550 OA
ATOM      9  O   UNL     1     -29.502   7.758   3.036  1.00  0.00    -0.550 OA
ENDBRANCH   6   7
ENDBRANCH   5   6
ENDBRANCH   4   5
ENDBRANCH   3   4
ENDBRANCH   2   3
ENDBRANCH   1   2
BRANCH   1  10
ATOM     10  C   UNL     1     -29.496   7.576  -2.595  1.00  0.00     0.000 C 
BRANCH  10  11
ATOM     11  C   UNL     1     -28.044   7.886  -2.192  1.00  0.00    -0.000 C 
BRANCH  11  12
ATOM     12  C   UNL     1     -27.116   8.072  -3.405  1.00  0.00    -0.000 C 
BRANCH  12  13
ATOM     13  C   UNL     1     -27.880   8.095  -4.741  1.00  0.00    -0.000 C 
BRANCH  13  14
ATOM     14  C   UNL     1     -27.256   8.987  -5.834  1.00  0.00    -0.000 C 
BRANCH  14  15
ATOM     15  C   UNL     1     -26.356   8.248  -6.839  1.00  0.00    -0.003 C 
ATOM     16  C   UNL     1     -24.875   8.584  -6.672  1.00  0.00     0.004 C 
ENDBRANCH  14  15
ENDBRANCH  13  14
ENDBRANCH  12  13
ENDBRANCH  11  12
ENDBRANCH  10  11
ENDBRANCH   1  10
TORSDOF 12
ENDMDL
MODEL 6
REMARK VINA RESULT:     3.694      2.769      7.033
REMARK INTER + INTRA:           6.319
REMARK INTER:                   4.506
REMARK INTRA:                   1.812
REMARK UNBOUND:                 0.032
REMARK SMILES CCCCCCCCCCCCCC(=O)[O-]
REMARK SMILES IDX 8 1 9 2 10 3 11 4 12 5 13 6 14 7 15 8 16 9 7 10 6 11 5 12
REMARK SMILES IDX 4 13 3 14 2 15 1 16
REMARK H PARENT
REMARK Flexibility Score: inf
ROOT
ATOM      1  C   UNL     1     -27.925   7.933   0.409  1.00  0.00     0.000 C 
ENDROOT
BRANCH   1   2
ATOM      2  C   UNL     1     -28.720   7.034   1.374  1.00  0.00     0.000 C 
BRANCH   2   3
ATOM      3  C   UNL     1     -30.111   7.594   1.706  1.00  0.00     0.000 C 
BRANCH   3   4
ATOM      4  C   UNL     1     -31.196   6.881   0.892  1.00  0.00     0.000 C 
BRANCH   4   5
ATOM      5  C   UNL     1     -32.061   7.890   0.123  1.00  0.00     0.006 C 
BRANCH   5   6
ATOM      6  C   UNL     1     -32.129   7.572  -1.377  1.00  0.00     0.053 C 
BRANCH   6   7
ATOM      7  C   UNL     1     -31.008   6.677  -1.807  1.00  0.00     0.041 C 
ATOM      8  O   UNL     1     -30.405   6.893  -2.891  1.00  0.00    -0.550 OA
ATOM      9  O   UNL     1     -30.651   5.585  -1.026  1.00  0.00    -0.550 OA
ENDBRANCH   6   7
ENDBRANCH   5   6
ENDBRANCH   4   5
ENDBRANCH   3   4
ENDBRANCH   2   3
ENDBRANCH   1   2
BRANCH   1  10
ATOM     10  C   UNL     1     -28.469   7.986  -1.033  1.00  0.00     0.000 C 
BRANCH  10  11
ATOM     11  C   UNL     1     -27.396   7.930  -2.135  1.00  0.00    -0.000 C 
BRANCH  11  12
ATOM     12  C   UNL     1     -27.866   8.563  -3.456  1.00  0.00    -0.000 C 
BRANCH  12  13
ATOM     13  C   UNL     1     -27.238   7.897  -4.692  1.00  0.00    -0.000 C 
BRANCH  13  14
ATOM     14  C   UNL     1     -27.209   8.773  -5.961  1.00  0.00    -0.000 C 
BRANCH  14  15
ATOM     15  C   UNL     1     -26.378   8.203  -7.124  1.00  0.00    -0.003 C 
ATOM     16  C   UNL     1     -24.889   8.526  -7.007  1.00  0.00     0.004 C 
ENDBRANCH  14  15
ENDBRANCH  13  14
ENDBRANCH  12  13
ENDBRANCH  11  12
ENDBRANCH  10  11
ENDBRANCH   1  10
TORSDOF 12
ENDMDL
