MODEL 1
REMARK VINA RESULT:    -6.501      0.000      0.000
REMARK INTER + INTRA:         -10.916
REMARK INTER:                  -9.351
REMARK INTRA:                  -1.565
REMARK UNBOUND:                -1.565
REMARK SMILES O=c1c(O[C@@H]2O[C@H](CO)[C@H](O)[C@H](O)[C@H]2O)c(-c2ccc(O)cc2)oc2cc(O)cc(O)c12
REMARK SMILES IDX 4 1 3 2 16 3 24 4 2 5 25 6 1 7 32 8 26 9 30 10 27 11 29 12
REMARK SMILES IDX 17 13 18 14 19 15 20 16 23 17 22 18 21 19 31 21 28 23 5 25
REMARK SMILES IDX 14 26 6 27 12 28 7 29 10 30 15 31 13 33 8 35 9 36 11 38
REMARK H PARENT 21 20 31 22 28 24 15 32 13 34 9 37 11 39
REMARK Flexibility Score: inf
ROOT
ATOM      1  O   UNL     1      16.959  -3.850 -15.414  1.00  0.00    -0.454 OA
ENDROOT
BRANCH   1   2
ATOM      2  C   UNL     1      16.779  -2.507 -14.989  1.00  0.00     0.214 A 
ATOM      3  C   UNL     1      17.395  -1.360 -15.577  1.00  0.00     0.180 A 
ATOM      4  O   UNL     1      16.959  -0.143 -15.281  1.00  0.00    -0.452 OA
ATOM      5  C   UNL     1      15.836  -2.244 -13.958  1.00  0.00     0.239 A 
ATOM      6  C   UNL     1      16.008   0.093 -14.416  1.00  0.00     0.146 A 
ATOM      7  O   UNL     1      15.337  -3.215 -13.299  1.00  0.00    -0.285 OA
ATOM      8  C   UNL     1      15.408  -0.928 -13.681  1.00  0.00     0.111 A 
ATOM      9  C   UNL     1      15.614   1.426 -14.283  1.00  0.00     0.094 A 
ATOM     10  C   UNL     1      14.381  -0.579 -12.747  1.00  0.00     0.134 A 
ATOM     11  C   UNL     1      14.569   1.778 -13.403  1.00  0.00     0.123 A 
ATOM     12  C   UNL     1      13.982   0.778 -12.621  1.00  0.00     0.093 A 
BRANCH   3  13
ATOM     13  C   UNL     1      18.474  -1.341 -16.574  1.00  0.00     0.021 A 
ATOM     14  C   UNL     1      19.503  -0.397 -16.525  1.00  0.00     0.016 A 
ATOM     15  C   UNL     1      20.555  -0.449 -17.430  1.00  0.00     0.047 A 
ATOM     16  C   UNL     1      20.426  -1.228 -18.609  1.00  0.00     0.115 A 
ATOM     17  C   UNL     1      18.330  -2.091 -17.762  1.00  0.00     0.016 A 
ATOM     18  C   UNL     1      19.283  -2.014 -18.782  1.00  0.00     0.047 A 
BRANCH  16  19
ATOM     19  O   UNL     1      21.446  -1.240 -19.577  1.00  0.00    -0.508 OA
ATOM     20  H   UNL     1      22.169  -1.958 -19.545  1.00  0.00     0.293 HD
ENDBRANCH  16  19
ENDBRANCH   3  13
BRANCH  10  21
ATOM     21  O   UNL     1      13.787  -1.541 -11.947  1.00  0.00    -0.507 OA
ATOM     22  H   UNL     1      13.420  -1.341 -11.029  1.00  0.00     0.293 HD
ENDBRANCH  10  21
BRANCH  11  23
ATOM     23  O   UNL     1      14.153   3.095 -13.276  1.00  0.00    -0.508 OA
ATOM     24  H   UNL     1      14.866   3.800 -13.084  1.00  0.00     0.293 HD
ENDBRANCH  11  23
ENDBRANCH   1   2
BRANCH   1  25
ATOM     25  C   UNL     1      18.078  -4.718 -15.183  1.00  0.00     0.339 C 
ATOM     26  C   UNL     1      17.939  -5.479 -13.812  1.00  0.00     0.214 C 
ATOM     27  O   UNL     1      18.278  -5.576 -16.293  1.00  0.00    -0.332 OA
ATOM     28  C   UNL     1      16.917  -6.619 -13.915  1.00  0.00     0.180 C 
ATOM     29  C   UNL     1      17.372  -6.662 -16.409  1.00  0.00     0.179 C 
ATOM     30  C   UNL     1      17.289  -7.513 -15.108  1.00  0.00     0.177 C 
BRANCH  26  31
ATOM     31  O   UNL     1      19.212  -5.955 -13.401  1.00  0.00    -0.384 OA
ATOM     32  H   UNL     1      19.260  -6.955 -13.478  1.00  0.00     0.211 HD
ENDBRANCH  26  31
BRANCH  28  33
ATOM     33  O   UNL     1      15.652  -6.044 -14.154  1.00  0.00    -0.387 OA
ATOM     34  H   UNL     1      15.009  -6.556 -13.588  1.00  0.00     0.211 HD
ENDBRANCH  28  33
BRANCH  29  35
ATOM     35  C   UNL     1      16.078  -6.302 -17.151  1.00  0.00     0.191 C 
BRANCH  35  36
ATOM     36  O   UNL     1      15.671  -7.372 -17.974  1.00  0.00    -0.394 OA
ATOM     37  H   UNL     1      15.199  -8.006 -17.376  1.00  0.00     0.210 HD
ENDBRANCH  35  36
ENDBRANCH  29  35
BRANCH  30  38
ATOM     38  O   UNL     1      16.324  -8.548 -15.261  1.00  0.00    -0.387 OA
ATOM     39  H   UNL     1      16.672  -9.161 -15.978  1.00  0.00     0.211 HD
ENDBRANCH  30  38
ENDBRANCH   1  25
TORSDOF 11
ENDMDL
MODEL 2
REMARK VINA RESULT:    -6.475      2.114      6.683
REMARK INTER + INTRA:         -10.879
REMARK INTER:                  -9.219
REMARK INTRA:                  -1.661
REMARK UNBOUND:                -1.565
REMARK SMILES O=c1c(O[C@@H]2O[C@H](CO)[C@H](O)[C@H](O)[C@H]2O)c(-c2ccc(O)cc2)oc2cc(O)cc(O)c12
REMARK SMILES IDX 4 1 3 2 16 3 24 4 2 5 25 6 1 7 32 8 26 9 30 10 27 11 29 12
REMARK SMILES IDX 17 13 18 14 19 15 20 16 23 17 22 18 21 19 31 21 28 23 5 25
REMARK SMILES IDX 14 26 6 27 12 28 7 29 10 30 15 31 13 33 8 35 9 36 11 38
REMARK H PARENT 21 20 31 22 28 24 15 32 13 34 9 37 11 39
REMARK Flexibility Score: inf
ROOT
ATOM      1  O   UNL     1      16.814  -2.890 -14.146  1.00  0.00    -0.454 OA
ENDROOT
BRANCH   1   2
ATOM      2  C   UNL     1      17.601  -3.032 -15.319  1.00  0.00     0.214 A 
ATOM      3  C   UNL     1      17.578  -4.153 -16.205  1.00  0.00     0.180 A 
ATOM      4  O   UNL     1      18.147  -4.073 -17.399  1.00  0.00    -0.452 OA
ATOM      5  C   UNL     1      18.417  -1.941 -15.724  1.00  0.00     0.239 A 
ATOM      6  C   UNL     1      18.800  -3.021 -17.819  1.00  0.00     0.146 A 
ATOM      7  O   UNL     1      18.590  -0.957 -14.931  1.00  0.00    -0.285 OA
ATOM      8  C   UNL     1      19.003  -1.906 -17.007  1.00  0.00     0.111 A 
ATOM      9  C   UNL     1      19.268  -3.070 -19.133  1.00  0.00     0.094 A 
ATOM     10  C   UNL     1      19.739  -0.802 -17.544  1.00  0.00     0.134 A 
ATOM     11  C   UNL     1      19.951  -1.970 -19.691  1.00  0.00     0.123 A 
ATOM     12  C   UNL     1      20.207  -0.857 -18.883  1.00  0.00     0.093 A 
BRANCH   3  13
ATOM     13  C   UNL     1      16.916  -5.447 -15.986  1.00  0.00     0.021 A 
ATOM     14  C   UNL     1      15.665  -5.736 -16.536  1.00  0.00     0.016 A 
ATOM     15  C   UNL     1      15.097  -6.993 -16.382  1.00  0.00     0.047 A 
ATOM     16  C   UNL     1      15.604  -7.875 -15.394  1.00  0.00     0.115 A 
ATOM     17  C   UNL     1      17.403  -6.309 -14.978  1.00  0.00     0.016 A 
ATOM     18  C   UNL     1      16.737  -7.499 -14.665  1.00  0.00     0.047 A 
BRANCH  16  19
ATOM     19  O   UNL     1      15.001  -9.125 -15.168  1.00  0.00    -0.508 OA
ATOM     20  H   UNL     1      15.448  -9.975 -15.511  1.00  0.00     0.293 HD
ENDBRANCH  16  19
ENDBRANCH   3  13
BRANCH  10  21
ATOM     21  O   UNL     1      20.023   0.310 -16.768  1.00  0.00    -0.507 OA
ATOM     22  H   UNL     1      20.830   0.896 -16.922  1.00  0.00     0.293 HD
ENDBRANCH  10  21
BRANCH  11  23
ATOM     23  O   UNL     1      20.403  -1.997 -21.002  1.00  0.00    -0.508 OA
ATOM     24  H   UNL     1      19.705  -2.082 -21.742  1.00  0.00     0.293 HD
ENDBRANCH  11  23
ENDBRANCH   1   2
BRANCH   1  25
ATOM     25  C   UNL     1      17.006  -3.499 -12.861  1.00  0.00     0.339 C 
ATOM     26  C   UNL     1      18.005  -2.665 -11.976  1.00  0.00     0.214 C 
ATOM     27  O   UNL     1      15.757  -3.743 -12.236  1.00  0.00    -0.332 OA
ATOM     28  C   UNL     1      17.328  -1.407 -11.416  1.00  0.00     0.180 C 
ATOM     29  C   UNL     1      15.111  -2.609 -11.678  1.00  0.00     0.179 C 
ATOM     30  C   UNL     1      16.030  -1.816 -10.703  1.00  0.00     0.177 C 
BRANCH  26  31
ATOM     31  O   UNL     1      18.519  -3.486 -10.938  1.00  0.00    -0.384 OA
ATOM     32  H   UNL     1      19.399  -3.133 -10.606  1.00  0.00     0.211 HD
ENDBRANCH  26  31
BRANCH  28  33
ATOM     33  O   UNL     1      17.006  -0.571 -12.504  1.00  0.00    -0.387 OA
ATOM     34  H   UNL     1      17.878  -0.265 -12.880  1.00  0.00     0.211 HD
ENDBRANCH  28  33
BRANCH  29  35
ATOM     35  C   UNL     1      14.251  -1.838 -12.687  1.00  0.00     0.191 C 
BRANCH  35  36
ATOM     36  O   UNL     1      13.121  -1.287 -12.048  1.00  0.00    -0.394 OA
ATOM     37  H   UNL     1      13.176  -0.309 -12.202  1.00  0.00     0.210 HD
ENDBRANCH  35  36
ENDBRANCH  29  35
BRANCH  30  38
ATOM     38  O   UNL     1      15.353  -0.661 -10.223  1.00  0.00    -0.387 OA
ATOM     39  H   UNL     1      14.610  -0.989  -9.631  1.00  0.00     0.211 HD
ENDBRANCH  30  38
ENDBRANCH   1  25
TORSDOF 11
ENDMDL
MODEL 3
REMARK VINA RESULT:    -6.413      2.778      6.343
REMARK INTER + INTRA:         -10.789
REMARK INTER:                  -9.269
REMARK INTRA:                  -1.521
REMARK UNBOUND:                -1.565
REMARK SMILES O=c1c(O[C@@H]2O[C@H](CO)[C@H](O)[C@H](O)[C@H]2O)c(-c2ccc(O)cc2)oc2cc(O)cc(O)c12
REMARK SMILES IDX 4 1 3 2 16 3 24 4 2 5 25 6 1 7 32 8 26 9 30 10 27 11 29 12
REMARK SMILES IDX 17 13 18 14 19 15 20 16 23 17 22 18 21 19 31 21 28 23 5 25
REMARK SMILES IDX 14 26 6 27 12 28 7 29 10 30 15 31 13 33 8 35 9 36 11 38
REMARK H PARENT 21 20 31 22 28 24 15 32 13 34 9 37 11 39
REMARK Flexibility Score: inf
ROOT
ATOM      1  O   UNL     1      17.608  -2.517 -13.254  1.00  0.00    -0.454 OA
ENDROOT
BRANCH   1   2
ATOM      2  C   UNL     1      17.908  -2.108 -14.580  1.00  0.00     0.214 A 
ATOM      3  C   UNL     1      18.296  -0.790 -14.976  1.00  0.00     0.180 A 
ATOM      4  O   UNL     1      18.805  -0.578 -16.181  1.00  0.00    -0.452 OA
ATOM      5  C   UNL     1      17.926  -3.092 -15.605  1.00  0.00     0.239 A 
ATOM      6  C   UNL     1      18.931  -1.512 -17.087  1.00  0.00     0.146 A 
ATOM      7  O   UNL     1      17.475  -4.261 -15.364  1.00  0.00    -0.285 OA
ATOM      8  C   UNL     1      18.478  -2.813 -16.874  1.00  0.00     0.111 A 
ATOM      9  C   UNL     1      19.562  -1.138 -18.275  1.00  0.00     0.094 A 
ATOM     10  C   UNL     1      18.646  -3.771 -17.925  1.00  0.00     0.134 A 
ATOM     11  C   UNL     1      19.780  -2.083 -19.298  1.00  0.00     0.123 A 
ATOM     12  C   UNL     1      19.294  -3.383 -19.127  1.00  0.00     0.093 A 
BRANCH   3  13
ATOM     13  C   UNL     1      18.263   0.430 -14.159  1.00  0.00     0.021 A 
ATOM     14  C   UNL     1      19.221   0.683 -13.174  1.00  0.00     0.016 A 
ATOM     15  C   UNL     1      19.215   1.880 -12.471  1.00  0.00     0.047 A 
ATOM     16  C   UNL     1      18.058   2.700 -12.495  1.00  0.00     0.115 A 
ATOM     17  C   UNL     1      17.097   1.229 -14.158  1.00  0.00     0.016 A 
ATOM     18  C   UNL     1      16.984   2.337 -13.313  1.00  0.00     0.047 A 
BRANCH  16  19
ATOM     19  O   UNL     1      17.999   3.882 -11.733  1.00  0.00    -0.508 OA
ATOM     20  H   UNL     1      18.049   4.789 -12.196  1.00  0.00     0.293 HD
ENDBRANCH  16  19
ENDBRANCH   3  13
BRANCH  10  21
ATOM     21  O   UNL     1      18.166  -5.063 -17.795  1.00  0.00    -0.507 OA
ATOM     22  H   UNL     1      17.696  -5.393 -16.965  1.00  0.00     0.293 HD
ENDBRANCH  10  21
BRANCH  11  23
ATOM     23  O   UNL     1      20.424  -1.730 -20.475  1.00  0.00    -0.508 OA
ATOM     24  H   UNL     1      21.346  -1.297 -20.398  1.00  0.00     0.293 HD
ENDBRANCH  11  23
ENDBRANCH   1   2
BRANCH   1  25
ATOM     25  C   UNL     1      16.503  -2.127 -12.426  1.00  0.00     0.339 C 
ATOM     26  C   UNL     1      15.604  -3.364 -12.051  1.00  0.00     0.214 C 
ATOM     27  O   UNL     1      16.960  -1.393 -11.303  1.00  0.00    -0.332 OA
ATOM     28  C   UNL     1      16.272  -4.224 -10.970  1.00  0.00     0.180 C 
ATOM     29  C   UNL     1      17.558  -2.156 -10.265  1.00  0.00     0.179 C 
ATOM     30  C   UNL     1      16.650  -3.325  -9.783  1.00  0.00     0.177 C 
BRANCH  26  31
ATOM     31  O   UNL     1      14.323  -2.912 -11.641  1.00  0.00    -0.384 OA
ATOM     32  H   UNL     1      14.002  -3.428 -10.841  1.00  0.00     0.211 HD
ENDBRANCH  26  31
BRANCH  28  33
ATOM     33  O   UNL     1      17.449  -4.771 -11.520  1.00  0.00    -0.387 OA
ATOM     34  H   UNL     1      18.048  -3.995 -11.710  1.00  0.00     0.211 HD
ENDBRANCH  28  33
BRANCH  29  35
ATOM     35  C   UNL     1      19.055  -2.412 -10.479  1.00  0.00     0.191 C 
BRANCH  35  36
ATOM     36  O   UNL     1      19.660  -2.818  -9.272  1.00  0.00    -0.394 OA
ATOM     37  H   UNL     1      20.636  -2.814  -9.446  1.00  0.00     0.210 HD
ENDBRANCH  35  36
ENDBRANCH  29  35
BRANCH  30  38
ATOM     38  O   UNL     1      17.322  -4.089  -8.789  1.00  0.00    -0.387 OA
ATOM     39  H   UNL     1      16.770  -4.019  -7.951  1.00  0.00     0.211 HD
ENDBRANCH  30  38
ENDBRANCH   1  25
TORSDOF 11
ENDMDL
MODEL 4
REMARK VINA RESULT:    -6.362     10.723     14.240
REMARK INTER + INTRA:         -10.716
REMARK INTER:                  -9.143
REMARK INTRA:                  -1.573
REMARK UNBOUND:                -1.565
REMARK SMILES O=c1c(O[C@@H]2O[C@H](CO)[C@H](O)[C@H](O)[C@H]2O)c(-c2ccc(O)cc2)oc2cc(O)cc(O)c12
REMARK SMILES IDX 4 1 3 2 16 3 24 4 2 5 25 6 1 7 32 8 26 9 30 10 27 11 29 12
REMARK SMILES IDX 17 13 18 14 19 15 20 16 23 17 22 18 21 19 31 21 28 23 5 25
REMARK SMILES IDX 14 26 6 27 12 28 7 29 10 30 15 31 13 33 8 35 9 36 11 38
REMARK H PARENT 21 20 31 22 28 24 15 32 13 34 9 37 11 39
REMARK Flexibility Score: inf
ROOT
ATOM      1  O   UNL     1       6.944   5.370 -15.851  1.00  0.00    -0.454 OA
ENDROOT
BRANCH   1   2
ATOM      2  C   UNL     1       7.838   4.686 -16.716  1.00  0.00     0.214 A 
ATOM      3  C   UNL     1       7.844   3.278 -16.960  1.00  0.00     0.180 A 
ATOM      4  O   UNL     1       8.537   2.779 -17.974  1.00  0.00    -0.452 OA
ATOM      5  C   UNL     1       8.750   5.452 -17.491  1.00  0.00     0.239 A 
ATOM      6  C   UNL     1       9.286   3.503 -18.763  1.00  0.00     0.146 A 
ATOM      7  O   UNL     1       8.895   6.695 -17.246  1.00  0.00    -0.285 OA
ATOM      8  C   UNL     1       9.466   4.870 -18.560  1.00  0.00     0.111 A 
ATOM      9  C   UNL     1       9.883   2.833 -19.832  1.00  0.00     0.094 A 
ATOM     10  C   UNL     1      10.314   5.585 -19.465  1.00  0.00     0.134 A 
ATOM     11  C   UNL     1      10.680   3.533 -20.761  1.00  0.00     0.123 A 
ATOM     12  C   UNL     1      10.912   4.897 -20.553  1.00  0.00     0.093 A 
BRANCH   3  13
ATOM     13  C   UNL     1       7.093   2.245 -16.233  1.00  0.00     0.021 A 
ATOM     14  C   UNL     1       7.352   1.954 -14.891  1.00  0.00     0.016 A 
ATOM     15  C   UNL     1       6.577   1.031 -14.203  1.00  0.00     0.047 A 
ATOM     16  C   UNL     1       5.752   0.133 -14.927  1.00  0.00     0.115 A 
ATOM     17  C   UNL     1       6.298   1.330 -16.958  1.00  0.00     0.016 A 
ATOM     18  C   UNL     1       5.656   0.266 -16.316  1.00  0.00     0.047 A 
BRANCH  16  19
ATOM     19  O   UNL     1       5.012  -0.860 -14.260  1.00  0.00    -0.508 OA
ATOM     20  H   UNL     1       4.274  -0.593 -13.609  1.00  0.00     0.293 HD
ENDBRANCH  16  19
ENDBRANCH   3  13
BRANCH  10  21
ATOM     21  O   UNL     1      10.577   6.932 -19.283  1.00  0.00    -0.507 OA
ATOM     22  H   UNL     1       9.903   7.575 -18.893  1.00  0.00     0.293 HD
ENDBRANCH  10  21
BRANCH  11  23
ATOM     23  O   UNL     1      11.262   2.885 -21.840  1.00  0.00    -0.508 OA
ATOM     24  H   UNL     1      10.708   2.174 -22.319  1.00  0.00     0.293 HD
ENDBRANCH  11  23
ENDBRANCH   1   2
BRANCH   1  25
ATOM     25  C   UNL     1       5.535   5.163 -15.677  1.00  0.00     0.339 C 
ATOM     26  C   UNL     1       5.157   5.047 -14.153  1.00  0.00     0.214 C 
ATOM     27  O   UNL     1       4.798   6.155 -16.372  1.00  0.00    -0.332 OA
ATOM     28  C   UNL     1       5.165   6.423 -13.476  1.00  0.00     0.180 C 
ATOM     29  C   UNL     1       4.755   7.436 -15.764  1.00  0.00     0.179 C 
ATOM     30  C   UNL     1       4.275   7.380 -14.284  1.00  0.00     0.177 C 
BRANCH  26  31
ATOM     31  O   UNL     1       3.896   4.409 -14.024  1.00  0.00    -0.384 OA
ATOM     32  H   UNL     1       3.153   5.085 -14.018  1.00  0.00     0.211 HD
ENDBRANCH  26  31
BRANCH  28  33
ATOM     33  O   UNL     1       6.489   6.907 -13.497  1.00  0.00    -0.387 OA
ATOM     34  H   UNL     1       6.850   6.751 -12.580  1.00  0.00     0.211 HD
ENDBRANCH  28  33
BRANCH  29  35
ATOM     35  C   UNL     1       5.950   8.327 -16.128  1.00  0.00     0.191 C 
BRANCH  35  36
ATOM     36  O   UNL     1       6.379   8.056 -17.443  1.00  0.00    -0.394 OA
ATOM     37  H   UNL     1       6.361   7.069 -17.535  1.00  0.00     0.210 HD
ENDBRANCH  35  36
ENDBRANCH  29  35
BRANCH  30  38
ATOM     38  O   UNL     1       4.309   8.680 -13.708  1.00  0.00    -0.387 OA
ATOM     39  H   UNL     1       5.036   8.667 -13.014  1.00  0.00     0.211 HD
ENDBRANCH  30  38
ENDBRANCH   1  25
TORSDOF 11
ENDMDL
MODEL 5
REMARK VINA RESULT:    -6.349      1.140      1.814
REMARK INTER + INTRA:         -10.698
REMARK INTER:                  -9.648
REMARK INTRA:                  -1.050
REMARK UNBOUND:                -1.565
REMARK SMILES O=c1c(O[C@@H]2O[C@H](CO)[C@H](O)[C@H](O)[C@H]2O)c(-c2ccc(O)cc2)oc2cc(O)cc(O)c12
REMARK SMILES IDX 4 1 3 2 16 3 24 4 2 5 25 6 1 7 32 8 26 9 30 10 27 11 29 12
REMARK SMILES IDX 17 13 18 14 19 15 20 16 23 17 22 18 21 19 31 21 28 23 5 25
REMARK SMILES IDX 14 26 6 27 12 28 7 29 10 30 15 31 13 33 8 35 9 36 11 38
REMARK H PARENT 21 20 31 22 28 24 15 32 13 34 9 37 11 39
REMARK Flexibility Score: inf
ROOT
ATOM      1  O   UNL     1      17.646  -4.087 -14.869  1.00  0.00    -0.454 OA
ENDROOT
BRANCH   1   2
ATOM      2  C   UNL     1      17.091  -2.786 -14.745  1.00  0.00     0.214 A 
ATOM      3  C   UNL     1      17.372  -1.678 -15.602  1.00  0.00     0.180 A 
ATOM      4  O   UNL     1      16.609  -0.594 -15.563  1.00  0.00    -0.452 OA
ATOM      5  C   UNL     1      16.096  -2.565 -13.754  1.00  0.00     0.239 A 
ATOM      6  C   UNL     1      15.616  -0.439 -14.728  1.00  0.00     0.146 A 
ATOM      7  O   UNL     1      15.878  -3.460 -12.872  1.00  0.00    -0.285 OA
ATOM      8  C   UNL     1      15.313  -1.391 -13.756  1.00  0.00     0.111 A 
ATOM      9  C   UNL     1      14.863   0.728 -14.875  1.00  0.00     0.094 A 
ATOM     10  C   UNL     1      14.215  -1.135 -12.874  1.00  0.00     0.134 A 
ATOM     11  C   UNL     1      13.748   0.969 -14.046  1.00  0.00     0.123 A 
ATOM     12  C   UNL     1      13.451   0.051 -13.034  1.00  0.00     0.093 A 
BRANCH   3  13
ATOM     13  C   UNL     1      18.418  -1.589 -16.629  1.00  0.00     0.021 A 
ATOM     14  C   UNL     1      19.357  -0.554 -16.636  1.00  0.00     0.016 A 
ATOM     15  C   UNL     1      20.385  -0.536 -17.569  1.00  0.00     0.047 A 
ATOM     16  C   UNL     1      20.299  -1.358 -18.721  1.00  0.00     0.115 A 
ATOM     17  C   UNL     1      18.314  -2.385 -17.792  1.00  0.00     0.016 A 
ATOM     18  C   UNL     1      19.229  -2.250 -18.841  1.00  0.00     0.047 A 
BRANCH  16  19
ATOM     19  O   UNL     1      21.290  -1.305 -19.718  1.00  0.00    -0.508 OA
ATOM     20  H   UNL     1      21.244  -0.591 -20.444  1.00  0.00     0.293 HD
ENDBRANCH  16  19
ENDBRANCH   3  13
BRANCH  10  21
ATOM     21  O   UNL     1      13.901  -2.016 -11.853  1.00  0.00    -0.507 OA
ATOM     22  H   UNL     1      14.465  -2.823 -11.631  1.00  0.00     0.293 HD
ENDBRANCH  10  21
BRANCH  11  23
ATOM     23  O   UNL     1      12.979   2.114 -14.195  1.00  0.00    -0.508 OA
ATOM     24  H   UNL     1      12.425   2.419 -13.394  1.00  0.00     0.293 HD
ENDBRANCH  11  23
ENDBRANCH   1   2
BRANCH   1  25
ATOM     25  C   UNL     1      17.513  -5.016 -15.953  1.00  0.00     0.339 C 
ATOM     26  C   UNL     1      18.846  -5.822 -16.185  1.00  0.00     0.214 C 
ATOM     27  O   UNL     1      16.375  -5.840 -15.763  1.00  0.00    -0.332 OA
ATOM     28  C   UNL     1      19.028  -6.906 -15.115  1.00  0.00     0.180 C 
ATOM     29  C   UNL     1      16.512  -6.876 -14.802  1.00  0.00     0.179 C 
ATOM     30  C   UNL     1      17.759  -7.771 -15.062  1.00  0.00     0.177 C 
BRANCH  26  31
ATOM     31  O   UNL     1      18.845  -6.374 -17.493  1.00  0.00    -0.384 OA
ATOM     32  H   UNL     1      18.269  -7.196 -17.532  1.00  0.00     0.211 HD
ENDBRANCH  26  31
BRANCH  28  33
ATOM     33  O   UNL     1      19.192  -6.262 -13.872  1.00  0.00    -0.387 OA
ATOM     34  H   UNL     1      18.304  -6.311 -13.419  1.00  0.00     0.211 HD
ENDBRANCH  28  33
BRANCH  29  35
ATOM     35  C   UNL     1      16.201  -6.425 -13.369  1.00  0.00     0.191 C 
BRANCH  35  36
ATOM     36  O   UNL     1      14.849  -6.041 -13.260  1.00  0.00    -0.394 OA
ATOM     37  H   UNL     1      14.773  -5.182 -13.749  1.00  0.00     0.210 HD
ENDBRANCH  35  36
ENDBRANCH  29  35
BRANCH  30  38
ATOM     38  O   UNL     1      17.880  -8.750 -14.037  1.00  0.00    -0.387 OA
ATOM     39  H   UNL     1      17.540  -9.614 -14.425  1.00  0.00     0.211 HD
ENDBRANCH  30  38
ENDBRANCH   1  25
TORSDOF 11
ENDMDL
MODEL 6
REMARK VINA RESULT:    -6.276      2.526      5.837
REMARK INTER + INTRA:         -10.593
REMARK INTER:                  -8.910
REMARK INTRA:                  -1.683
REMARK UNBOUND:                -1.565
REMARK SMILES O=c1c(O[C@@H]2O[C@H](CO)[C@H](O)[C@H](O)[C@H]2O)c(-c2ccc(O)cc2)oc2cc(O)cc(O)c12
REMARK SMILES IDX 4 1 3 2 16 3 24 4 2 5 25 6 1 7 32 8 26 9 30 10 27 11 29 12
REMARK SMILES IDX 17 13 18 14 19 15 20 16 23 17 22 18 21 19 31 21 28 23 5 25
REMARK SMILES IDX 14 26 6 27 12 28 7 29 10 30 15 31 13 33 8 35 9 36 11 38
REMARK H PARENT 21 20 31 22 28 24 15 32 13 34 9 37 11 39
REMARK Flexibility Score: inf
ROOT
ATOM      1  O   UNL     1      17.451  -2.483 -13.643  1.00  0.00    -0.454 OA
ENDROOT
BRANCH   1   2
ATOM      2  C   UNL     1      17.914  -1.961 -14.880  1.00  0.00     0.214 A 
ATOM      3  C   UNL     1      18.428  -0.643 -15.087  1.00  0.00     0.180 A 
ATOM      4  O   UNL     1      19.073  -0.346 -16.206  1.00  0.00    -0.452 OA
ATOM      5  C   UNL     1      17.975  -2.832 -16.002  1.00  0.00     0.239 A 
ATOM      6  C   UNL     1      19.231  -1.188 -17.194  1.00  0.00     0.146 A 
ATOM      7  O   UNL     1      17.425  -3.981 -15.937  1.00  0.00    -0.285 OA
ATOM      8  C   UNL     1      18.674  -2.465 -17.172  1.00  0.00     0.111 A 
ATOM      9  C   UNL     1      20.007  -0.740 -18.265  1.00  0.00     0.094 A 
ATOM     10  C   UNL     1      18.888  -3.318 -18.302  1.00  0.00     0.134 A 
ATOM     11  C   UNL     1      20.267  -1.587 -19.362  1.00  0.00     0.123 A 
ATOM     12  C   UNL     1      19.682  -2.858 -19.385  1.00  0.00     0.093 A 
BRANCH   3  13
ATOM     13  C   UNL     1      18.389   0.484 -14.146  1.00  0.00     0.021 A 
ATOM     14  C   UNL     1      19.360   0.649 -13.155  1.00  0.00     0.016 A 
ATOM     15  C   UNL     1      19.348   1.765 -12.329  1.00  0.00     0.047 A 
ATOM     16  C   UNL     1      18.179   2.564 -12.250  1.00  0.00     0.115 A 
ATOM     17  C   UNL     1      17.212   1.259 -14.043  1.00  0.00     0.016 A 
ATOM     18  C   UNL     1      17.097   2.270 -13.085  1.00  0.00     0.047 A 
BRANCH  16  19
ATOM     19  O   UNL     1      18.115   3.658 -11.367  1.00  0.00    -0.508 OA
ATOM     20  H   UNL     1      17.787   3.521 -10.411  1.00  0.00     0.293 HD
ENDBRANCH  16  19
ENDBRANCH   3  13
BRANCH  10  21
ATOM     21  O   UNL     1      18.313  -4.576 -18.364  1.00  0.00    -0.507 OA
ATOM     22  H   UNL     1      17.719  -4.945 -17.636  1.00  0.00     0.293 HD
ENDBRANCH  10  21
BRANCH  11  23
ATOM     23  O   UNL     1      21.053  -1.164 -20.424  1.00  0.00    -0.508 OA
ATOM     24  H   UNL     1      22.056  -1.064 -20.260  1.00  0.00     0.293 HD
ENDBRANCH  11  23
ENDBRANCH   1   2
BRANCH   1  25
ATOM     25  C   UNL     1      18.170  -3.263 -12.678  1.00  0.00     0.339 C 
ATOM     26  C   UNL     1      18.203  -2.550 -11.275  1.00  0.00     0.214 C 
ATOM     27  O   UNL     1      17.662  -4.586 -12.633  1.00  0.00    -0.332 OA
ATOM     28  C   UNL     1      16.852  -2.679 -10.558  1.00  0.00     0.180 C 
ATOM     29  C   UNL     1      16.428  -4.754 -11.952  1.00  0.00     0.179 C 
ATOM     30  C   UNL     1      16.453  -4.162 -10.512  1.00  0.00     0.177 C 
BRANCH  26  31
ATOM     31  O   UNL     1      19.261  -3.086 -10.494  1.00  0.00    -0.384 OA
ATOM     32  H   UNL     1      20.085  -3.218 -11.053  1.00  0.00     0.211 HD
ENDBRANCH  26  31
BRANCH  28  33
ATOM     33  O   UNL     1      15.894  -1.973 -11.314  1.00  0.00    -0.387 OA
ATOM     34  H   UNL     1      16.331  -1.116 -11.576  1.00  0.00     0.211 HD
ENDBRANCH  28  33
BRANCH  29  35
ATOM     35  C   UNL     1      15.202  -4.507 -12.840  1.00  0.00     0.191 C 
BRANCH  35  36
ATOM     36  O   UNL     1      15.459  -4.933 -14.159  1.00  0.00    -0.394 OA
ATOM     37  H   UNL     1      14.585  -5.233 -14.520  1.00  0.00     0.210 HD
ENDBRANCH  35  36
ENDBRANCH  29  35
BRANCH  30  38
ATOM     38  O   UNL     1      15.176  -4.305  -9.902  1.00  0.00    -0.387 OA
ATOM     39  H   UNL     1      14.844  -3.374  -9.713  1.00  0.00     0.211 HD
ENDBRANCH  30  38
ENDBRANCH   1  25
TORSDOF 11
ENDMDL
MODEL 7
REMARK VINA RESULT:    -6.212      9.679     12.826
REMARK INTER + INTRA:         -10.500
REMARK INTER:                  -9.044
REMARK INTRA:                  -1.456
REMARK UNBOUND:                -1.565
REMARK SMILES O=c1c(O[C@@H]2O[C@H](CO)[C@H](O)[C@H](O)[C@H]2O)c(-c2ccc(O)cc2)oc2cc(O)cc(O)c12
REMARK SMILES IDX 4 1 3 2 16 3 24 4 2 5 25 6 1 7 32 8 26 9 30 10 27 11 29 12
REMARK SMILES IDX 17 13 18 14 19 15 20 16 23 17 22 18 21 19 31 21 28 23 5 25
REMARK SMILES IDX 14 26 6 27 12 28 7 29 10 30 15 31 13 33 8 35 9 36 11 38
REMARK H PARENT 21 20 31 22 28 24 15 32 13 34 9 37 11 39
REMARK Flexibility Score: inf
ROOT
ATOM      1  O   UNL     1       6.351   3.240 -15.451  1.00  0.00    -0.454 OA
ENDROOT
BRANCH   1   2
ATOM      2  C   UNL     1       6.564   4.608 -15.764  1.00  0.00     0.214 A 
ATOM      3  C   UNL     1       7.519   5.108 -16.703  1.00  0.00     0.180 A 
ATOM      4  O   UNL     1       7.456   6.367 -17.114  1.00  0.00    -0.452 OA
ATOM      5  C   UNL     1       5.701   5.578 -15.184  1.00  0.00     0.239 A 
ATOM      6  C   UNL     1       6.584   7.231 -16.664  1.00  0.00     0.146 A 
ATOM      7  O   UNL     1       4.907   5.233 -14.247  1.00  0.00    -0.285 OA
ATOM      8  C   UNL     1       5.675   6.907 -15.658  1.00  0.00     0.111 A 
ATOM      9  C   UNL     1       6.602   8.492 -17.263  1.00  0.00     0.094 A 
ATOM     10  C   UNL     1       4.763   7.918 -15.217  1.00  0.00     0.134 A 
ATOM     11  C   UNL     1       5.676   9.481 -16.874  1.00  0.00     0.123 A 
ATOM     12  C   UNL     1       4.784   9.196 -15.835  1.00  0.00     0.093 A 
BRANCH   3  13
ATOM     13  C   UNL     1       8.595   4.356 -17.363  1.00  0.00     0.021 A 
ATOM     14  C   UNL     1       9.896   4.334 -16.855  1.00  0.00     0.016 A 
ATOM     15  C   UNL     1      10.876   3.553 -17.452  1.00  0.00     0.047 A 
ATOM     16  C   UNL     1      10.668   3.048 -18.761  1.00  0.00     0.115 A 
ATOM     17  C   UNL     1       8.399   3.883 -18.680  1.00  0.00     0.016 A 
ATOM     18  C   UNL     1       9.434   3.260 -19.383  1.00  0.00     0.047 A 
BRANCH  16  19
ATOM     19  O   UNL     1      11.674   2.315 -19.417  1.00  0.00    -0.508 OA
ATOM     20  H   UNL     1      12.070   2.663 -20.290  1.00  0.00     0.293 HD
ENDBRANCH  16  19
ENDBRANCH   3  13
BRANCH  10  21
ATOM     21  O   UNL     1       3.875   7.675 -14.182  1.00  0.00    -0.507 OA
ATOM     22  H   UNL     1       3.436   6.779 -14.035  1.00  0.00     0.293 HD
ENDBRANCH  10  21
BRANCH  11  23
ATOM     23  O   UNL     1       5.668  10.732 -17.474  1.00  0.00    -0.508 OA
ATOM     24  H   UNL     1       4.838  10.996 -18.006  1.00  0.00     0.293 HD
ENDBRANCH  11  23
ENDBRANCH   1   2
BRANCH   1  25
ATOM     25  C   UNL     1       5.455   2.309 -16.075  1.00  0.00     0.339 C 
ATOM     26  C   UNL     1       6.210   1.002 -16.524  1.00  0.00     0.214 C 
ATOM     27  O   UNL     1       4.336   2.063 -15.241  1.00  0.00    -0.332 OA
ATOM     28  C   UNL     1       6.510   0.098 -15.322  1.00  0.00     0.180 C 
ATOM     29  C   UNL     1       4.564   1.206 -14.132  1.00  0.00     0.179 C 
ATOM     30  C   UNL     1       5.206  -0.150 -14.547  1.00  0.00     0.177 C 
BRANCH  26  31
ATOM     31  O   UNL     1       5.441   0.324 -17.507  1.00  0.00    -0.384 OA
ATOM     32  H   UNL     1       6.037  -0.167 -18.149  1.00  0.00     0.211 HD
ENDBRANCH  26  31
BRANCH  28  33
ATOM     33  O   UNL     1       7.415   0.781 -14.483  1.00  0.00    -0.387 OA
ATOM     34  H   UNL     1       8.273   0.828 -14.990  1.00  0.00     0.211 HD
ENDBRANCH  28  33
BRANCH  29  35
ATOM     35  C   UNL     1       5.098   1.938 -12.894  1.00  0.00     0.191 C 
BRANCH  35  36
ATOM     36  O   UNL     1       4.707   1.263 -11.720  1.00  0.00    -0.394 OA
ATOM     37  H   UNL     1       3.929   0.705 -11.977  1.00  0.00     0.210 HD
ENDBRANCH  35  36
ENDBRANCH  29  35
BRANCH  30  38
ATOM     38  O   UNL     1       5.468  -0.941 -13.394  1.00  0.00    -0.387 OA
ATOM     39  H   UNL     1       4.994  -0.496 -12.627  1.00  0.00     0.211 HD
ENDBRANCH  30  38
ENDBRANCH   1  25
TORSDOF 11
ENDMDL
MODEL 8
REMARK VINA RESULT:    -6.137      4.516      7.818
REMARK INTER + INTRA:         -10.393
REMARK INTER:                  -8.743
REMARK INTRA:                  -1.650
REMARK UNBOUND:                -1.565
REMARK SMILES O=c1c(O[C@@H]2O[C@H](CO)[C@H](O)[C@H](O)[C@H]2O)c(-c2ccc(O)cc2)oc2cc(O)cc(O)c12
REMARK SMILES IDX 4 1 3 2 16 3 24 4 2 5 25 6 1 7 32 8 26 9 30 10 27 11 29 12
REMARK SMILES IDX 17 13 18 14 19 15 20 16 23 17 22 18 21 19 31 21 28 23 5 25
REMARK SMILES IDX 14 26 6 27 12 28 7 29 10 30 15 31 13 33 8 35 9 36 11 38
REMARK H PARENT 21 20 31 22 28 24 15 32 13 34 9 37 11 39
REMARK Flexibility Score: inf
ROOT
ATOM      1  O   UNL     1      17.221  -1.158 -12.278  1.00  0.00    -0.454 OA
ENDROOT
BRANCH   1   2
ATOM      2  C   UNL     1      17.544  -1.543 -10.949  1.00  0.00     0.214 A 
ATOM      3  C   UNL     1      17.266  -2.815 -10.361  1.00  0.00     0.180 A 
ATOM      4  O   UNL     1      17.838  -3.161  -9.216  1.00  0.00    -0.452 OA
ATOM      5  C   UNL     1      18.295  -0.641 -10.147  1.00  0.00     0.239 A 
ATOM      6  C   UNL     1      18.626  -2.371  -8.534  1.00  0.00     0.146 A 
ATOM      7  O   UNL     1      18.478   0.556 -10.548  1.00  0.00    -0.285 OA
ATOM      8  C   UNL     1      18.882  -1.060  -8.934  1.00  0.00     0.111 A 
ATOM      9  C   UNL     1      19.210  -2.921  -7.392  1.00  0.00     0.094 A 
ATOM     10  C   UNL     1      19.748  -0.261  -8.121  1.00  0.00     0.134 A 
ATOM     11  C   UNL     1      20.104  -2.161  -6.610  1.00  0.00     0.123 A 
ATOM     12  C   UNL     1      20.343  -0.829  -6.964  1.00  0.00     0.093 A 
BRANCH   3  13
ATOM     13  C   UNL     1      16.425  -3.886 -10.913  1.00  0.00     0.021 A 
ATOM     14  C   UNL     1      16.744  -4.528 -12.113  1.00  0.00     0.016 A 
ATOM     15  C   UNL     1      15.980  -5.591 -12.573  1.00  0.00     0.047 A 
ATOM     16  C   UNL     1      14.690  -5.813 -12.026  1.00  0.00     0.115 A 
ATOM     17  C   UNL     1      15.128  -4.085 -10.390  1.00  0.00     0.016 A 
ATOM     18  C   UNL     1      14.258  -5.019 -10.959  1.00  0.00     0.047 A 
BRANCH  16  19
ATOM     19  O   UNL     1      13.865  -6.838 -12.525  1.00  0.00    -0.508 OA
ATOM     20  H   UNL     1      14.267  -7.745 -12.759  1.00  0.00     0.293 HD
ENDBRANCH  16  19
ENDBRANCH   3  13
BRANCH  10  21
ATOM     21  O   UNL     1      19.995   1.065  -8.434  1.00  0.00    -0.507 OA
ATOM     22  H   UNL     1      20.680   1.625  -7.948  1.00  0.00     0.293 HD
ENDBRANCH  10  21
BRANCH  11  23
ATOM     23  O   UNL     1      20.709  -2.701  -5.485  1.00  0.00    -0.508 OA
ATOM     24  H   UNL     1      21.712  -2.549  -5.368  1.00  0.00     0.293 HD
ENDBRANCH  11  23
ENDBRANCH   1   2
BRANCH   1  25
ATOM     25  C   UNL     1      15.927  -0.938 -12.854  1.00  0.00     0.339 C 
ATOM     26  C   UNL     1      15.344   0.463 -12.433  1.00  0.00     0.214 C 
ATOM     27  O   UNL     1      15.967  -1.139 -14.257  1.00  0.00    -0.332 OA
ATOM     28  C   UNL     1      16.021   1.599 -13.210  1.00  0.00     0.180 C 
ATOM     29  C   UNL     1      16.559  -0.097 -15.017  1.00  0.00     0.179 C 
ATOM     30  C   UNL     1      15.932   1.295 -14.714  1.00  0.00     0.177 C 
BRANCH  26  31
ATOM     31  O   UNL     1      13.937   0.468 -12.622  1.00  0.00    -0.384 OA
ATOM     32  H   UNL     1      13.708   0.547 -13.597  1.00  0.00     0.211 HD
ENDBRANCH  26  31
BRANCH  28  33
ATOM     33  O   UNL     1      17.379   1.631 -12.832  1.00  0.00    -0.387 OA
ATOM     34  H   UNL     1      17.455   2.356 -12.151  1.00  0.00     0.211 HD
ENDBRANCH  28  33
BRANCH  29  35
ATOM     35  C   UNL     1      18.084  -0.219 -15.137  1.00  0.00     0.191 C 
BRANCH  35  36
ATOM     36  O   UNL     1      18.528   0.364 -16.342  1.00  0.00    -0.394 OA
ATOM     37  H   UNL     1      19.200   1.044 -16.080  1.00  0.00     0.210 HD
ENDBRANCH  35  36
ENDBRANCH  29  35
BRANCH  30  38
ATOM     38  O   UNL     1      16.602   2.307 -15.456  1.00  0.00    -0.387 OA
ATOM     39  H   UNL     1      17.051   1.846 -16.229  1.00  0.00     0.211 HD
ENDBRANCH  30  38
ENDBRANCH   1  25
TORSDOF 11
ENDMDL
MODEL 9
REMARK VINA RESULT:    -5.116     10.532     13.712
REMARK INTER + INTRA:          -8.924
REMARK INTER:                  -7.570
REMARK INTRA:                  -1.355
REMARK UNBOUND:                -1.565
REMARK SMILES O=c1c(O[C@@H]2O[C@H](CO)[C@H](O)[C@H](O)[C@H]2O)c(-c2ccc(O)cc2)oc2cc(O)cc(O)c12
REMARK SMILES IDX 4 1 3 2 16 3 24 4 2 5 25 6 1 7 32 8 26 9 30 10 27 11 29 12
REMARK SMILES IDX 17 13 18 14 19 15 20 16 23 17 22 18 21 19 31 21 28 23 5 25
REMARK SMILES IDX 14 26 6 27 12 28 7 29 10 30 15 31 13 33 8 35 9 36 11 38
REMARK H PARENT 21 20 31 22 28 24 15 32 13 34 9 37 11 39
REMARK Flexibility Score: inf
ROOT
ATOM      1  O   UNL     1       7.532   5.197 -15.382  1.00  0.00    -0.454 OA
ENDROOT
BRANCH   1   2
ATOM      2  C   UNL     1       8.303   4.600 -16.414  1.00  0.00     0.214 A 
ATOM      3  C   UNL     1       8.233   3.231 -16.817  1.00  0.00     0.180 A 
ATOM      4  O   UNL     1       8.795   2.840 -17.953  1.00  0.00    -0.452 OA
ATOM      5  C   UNL     1       9.152   5.432 -17.193  1.00  0.00     0.239 A 
ATOM      6  C   UNL     1       9.479   3.636 -18.732  1.00  0.00     0.146 A 
ATOM      7  O   UNL     1       9.366   6.634 -16.824  1.00  0.00    -0.285 OA
ATOM      8  C   UNL     1       9.727   4.965 -18.395  1.00  0.00     0.111 A 
ATOM      9  C   UNL     1       9.933   3.083 -19.931  1.00  0.00     0.094 A 
ATOM     10  C   UNL     1      10.496   5.763 -19.301  1.00  0.00     0.134 A 
ATOM     11  C   UNL     1      10.648   3.871 -20.856  1.00  0.00     0.123 A 
ATOM     12  C   UNL     1      10.949   5.195 -20.521  1.00  0.00     0.093 A 
BRANCH   3  13
ATOM     13  C   UNL     1       7.531   2.136 -16.135  1.00  0.00     0.021 A 
ATOM     14  C   UNL     1       8.011   1.582 -14.945  1.00  0.00     0.016 A 
ATOM     15  C   UNL     1       7.288   0.604 -14.277  1.00  0.00     0.047 A 
ATOM     16  C   UNL     1       6.247  -0.082 -14.953  1.00  0.00     0.115 A 
ATOM     17  C   UNL     1       6.517   1.432 -16.822  1.00  0.00     0.016 A 
ATOM     18  C   UNL     1       5.900   0.315 -16.248  1.00  0.00     0.047 A 
BRANCH  16  19
ATOM     19  O   UNL     1       5.547  -1.127 -14.323  1.00  0.00    -0.508 OA
ATOM     20  H   UNL     1       5.628  -1.259 -13.316  1.00  0.00     0.293 HD
ENDBRANCH  16  19
ENDBRANCH   3  13
BRANCH  10  21
ATOM     21  O   UNL     1      10.824   7.073 -18.995  1.00  0.00    -0.507 OA
ATOM     22  H   UNL     1      11.698   7.334 -18.562  1.00  0.00     0.293 HD
ENDBRANCH  10  21
BRANCH  11  23
ATOM     23  O   UNL     1      11.087   3.342 -22.061  1.00  0.00    -0.508 OA
ATOM     24  H   UNL     1      10.416   3.294 -22.829  1.00  0.00     0.293 HD
ENDBRANCH  11  23
ENDBRANCH   1   2
BRANCH   1  25
ATOM     25  C   UNL     1       6.453   6.134 -15.501  1.00  0.00     0.339 C 
ATOM     26  C   UNL     1       5.109   5.413 -15.894  1.00  0.00     0.214 C 
ATOM     27  O   UNL     1       6.352   6.927 -14.330  1.00  0.00    -0.332 OA
ATOM     28  C   UNL     1       4.505   4.680 -14.690  1.00  0.00     0.180 C 
ATOM     29  C   UNL     1       5.770   6.295 -13.201  1.00  0.00     0.179 C 
ATOM     30  C   UNL     1       4.382   5.665 -13.517  1.00  0.00     0.177 C 
BRANCH  26  31
ATOM     31  O   UNL     1       4.203   6.361 -16.437  1.00  0.00    -0.384 OA
ATOM     32  H   UNL     1       3.803   6.022 -17.294  1.00  0.00     0.211 HD
ENDBRANCH  26  31
BRANCH  28  33
ATOM     33  O   UNL     1       5.391   3.646 -14.325  1.00  0.00    -0.387 OA
ATOM     34  H   UNL     1       5.444   3.671 -13.329  1.00  0.00     0.211 HD
ENDBRANCH  28  33
BRANCH  29  35
ATOM     35  C   UNL     1       6.777   5.501 -12.358  1.00  0.00     0.191 C 
BRANCH  35  36
ATOM     36  O   UNL     1       6.365   5.463 -11.011  1.00  0.00    -0.394 OA
ATOM     37  H   UNL     1       6.004   6.365 -10.814  1.00  0.00     0.210 HD
ENDBRANCH  35  36
ENDBRANCH  29  35
BRANCH  30  38
ATOM     38  O   UNL     1       3.875   4.995 -12.369  1.00  0.00    -0.387 OA
ATOM     39  H   UNL     1       2.899   5.231 -12.307  1.00  0.00     0.211 HD
ENDBRANCH  30  38
ENDBRANCH   1  25
TORSDOF 11
ENDMDL
