MODEL 1
REMARK VINA RESULT:    -5.473      0.000      0.000
REMARK INTER + INTRA:          -6.305
REMARK INTER:                  -6.113
REMARK INTRA:                  -0.192
REMARK UNBOUND:                -0.192
REMARK SMILES CC(C)c1ccc(C=O)cc1
REMARK SMILES IDX 4 1 5 2 6 3 7 4 10 5 11 6 2 7 1 8 3 9 8 10 9 11
REMARK H PARENT
REMARK Flexibility Score: inf
ROOT
ATOM      1  C   UNL     1     -13.279   2.171  -9.454  1.00  0.00    -0.045 A 
ATOM      2  C   UNL     1     -14.655   1.941  -9.625  1.00  0.00     0.005 A 
ATOM      3  C   UNL     1     -15.125   0.674  -9.981  1.00  0.00     0.012 A 
ATOM      4  C   UNL     1     -14.229  -0.388 -10.172  1.00  0.00     0.014 A 
ATOM      5  C   UNL     1     -12.853  -0.164 -10.002  1.00  0.00     0.012 A 
ATOM      6  C   UNL     1     -12.382   1.103  -9.646  1.00  0.00     0.005 A 
ENDROOT
BRANCH   1   7
ATOM      7  C   UNL     1     -12.782   3.552  -9.067  1.00  0.00     0.013 C 
ATOM      8  C   UNL     1     -11.373   3.484  -8.466  1.00  0.00     0.012 C 
ATOM      9  C   UNL     1     -13.759   4.241  -8.108  1.00  0.00     0.012 C 
ENDBRANCH   1   7
BRANCH   4  10
ATOM     10  C   UNL     1     -14.744  -1.717 -10.548  1.00  0.00     0.260 C 
ATOM     11  O   UNL     1     -14.296  -2.765 -10.011  1.00  0.00    -0.298 OA
ENDBRANCH   4  10
TORSDOF 2
ENDMDL
MODEL 2
REMARK VINA RESULT:    -5.058      6.418      8.054
REMARK INTER + INTRA:          -5.842
REMARK INTER:                  -5.662
REMARK INTRA:                  -0.180
REMARK UNBOUND:                -0.192
REMARK SMILES CC(C)c1ccc(C=O)cc1
REMARK SMILES IDX 4 1 5 2 6 3 7 4 10 5 11 6 2 7 1 8 3 9 8 10 9 11
REMARK H PARENT
REMARK Flexibility Score: inf
ROOT
ATOM      1  C   UNL     1     -11.392  -5.531  -6.897  1.00  0.00    -0.045 A 
ATOM      2  C   UNL     1     -10.275  -4.711  -6.659  1.00  0.00     0.005 A 
ATOM      3  C   UNL     1      -9.688  -3.990  -7.702  1.00  0.00     0.012 A 
ATOM      4  C   UNL     1     -10.206  -4.074  -9.003  1.00  0.00     0.014 A 
ATOM      5  C   UNL     1     -11.321  -4.891  -9.246  1.00  0.00     0.012 A 
ATOM      6  C   UNL     1     -11.909  -5.613  -8.204  1.00  0.00     0.005 A 
ENDROOT
BRANCH   1   7
ATOM      7  C   UNL     1     -12.020  -6.309  -5.755  1.00  0.00     0.013 C 
ATOM      8  C   UNL     1     -11.242  -7.601  -5.473  1.00  0.00     0.012 C 
ATOM      9  C   UNL     1     -13.497  -6.605  -6.035  1.00  0.00     0.012 C 
ENDBRANCH   1   7
BRANCH   4  10
ATOM     10  C   UNL     1      -9.572  -3.305 -10.090  1.00  0.00     0.260 C 
ATOM     11  O   UNL     1      -9.949  -2.136 -10.366  1.00  0.00    -0.298 OA
ENDBRANCH   4  10
TORSDOF 2
ENDMDL
MODEL 3
REMARK VINA RESULT:    -4.860      6.522      7.787
REMARK INTER + INTRA:          -5.621
REMARK INTER:                  -5.432
REMARK INTRA:                  -0.188
REMARK UNBOUND:                -0.192
REMARK SMILES CC(C)c1ccc(C=O)cc1
REMARK SMILES IDX 4 1 5 2 6 3 7 4 10 5 11 6 2 7 1 8 3 9 8 10 9 11
REMARK H PARENT
REMARK Flexibility Score: inf
ROOT
ATOM      1  C   UNL     1     -10.771  -5.065  -7.462  1.00  0.00    -0.045 A 
ATOM      2  C   UNL     1     -10.760  -5.324  -6.081  1.00  0.00     0.005 A 
ATOM      3  C   UNL     1     -11.752  -6.117  -5.498  1.00  0.00     0.012 A 
ATOM      4  C   UNL     1     -12.773  -6.668  -6.285  1.00  0.00     0.014 A 
ATOM      5  C   UNL     1     -12.789  -6.413  -7.666  1.00  0.00     0.012 A 
ATOM      6  C   UNL     1     -11.797  -5.619  -8.249  1.00  0.00     0.005 A 
ENDROOT
BRANCH   1   7
ATOM      7  C   UNL     1      -9.687  -4.201  -8.082  1.00  0.00     0.013 C 
ATOM      8  C   UNL     1      -9.546  -2.871  -7.333  1.00  0.00     0.012 C 
ATOM      9  C   UNL     1      -9.952  -3.970  -9.573  1.00  0.00     0.012 C 
ENDBRANCH   1   7
BRANCH   4  10
ATOM     10  C   UNL     1     -13.811  -7.503  -5.653  1.00  0.00     0.260 C 
ATOM     11  O   UNL     1     -14.980  -7.067  -5.477  1.00  0.00    -0.298 OA
ENDBRANCH   4  10
TORSDOF 2
ENDMDL
MODEL 4
REMARK VINA RESULT:    -4.512     14.515     16.257
REMARK INTER + INTRA:          -5.232
REMARK INTER:                  -5.038
REMARK INTRA:                  -0.195
REMARK UNBOUND:                -0.192
REMARK SMILES CC(C)c1ccc(C=O)cc1
REMARK SMILES IDX 4 1 5 2 6 3 7 4 10 5 11 6 2 7 1 8 3 9 8 10 9 11
REMARK H PARENT
REMARK Flexibility Score: inf
ROOT
ATOM      1  C   UNL     1     -13.113   4.686   6.676  1.00  0.00    -0.045 A 
ATOM      2  C   UNL     1     -13.860   5.866   6.836  1.00  0.00     0.005 A 
ATOM      3  C   UNL     1     -14.302   6.584   5.721  1.00  0.00     0.012 A 
ATOM      4  C   UNL     1     -14.007   6.136   4.425  1.00  0.00     0.014 A 
ATOM      5  C   UNL     1     -13.261   4.958   4.260  1.00  0.00     0.012 A 
ATOM      6  C   UNL     1     -12.818   4.239   5.375  1.00  0.00     0.005 A 
ENDROOT
BRANCH   1   7
ATOM      7  C   UNL     1     -12.640   3.916   7.895  1.00  0.00     0.013 C 
ATOM      8  C   UNL     1     -12.448   4.849   9.097  1.00  0.00     0.012 C 
ATOM      9  C   UNL     1     -11.356   3.136   7.591  1.00  0.00     0.012 C 
ENDBRANCH   1   7
BRANCH   4  10
ATOM     10  C   UNL     1     -14.481   6.907   3.262  1.00  0.00     0.260 C 
ATOM     11  O   UNL     1     -14.271   6.507   2.086  1.00  0.00    -0.298 OA
ENDBRANCH   4  10
TORSDOF 2
ENDMDL
MODEL 5
REMARK VINA RESULT:    -4.508     14.518     16.306
REMARK INTER + INTRA:          -5.227
REMARK INTER:                  -5.031
REMARK INTRA:                  -0.196
REMARK UNBOUND:                -0.192
REMARK SMILES CC(C)c1ccc(C=O)cc1
REMARK SMILES IDX 4 1 5 2 6 3 7 4 10 5 11 6 2 7 1 8 3 9 8 10 9 11
REMARK H PARENT
REMARK Flexibility Score: inf
ROOT
ATOM      1  C   UNL     1     -13.139   4.688   6.679  1.00  0.00    -0.045 A 
ATOM      2  C   UNL     1     -12.825   4.274   5.373  1.00  0.00     0.005 A 
ATOM      3  C   UNL     1     -13.270   5.007   4.269  1.00  0.00     0.012 A 
ATOM      4  C   UNL     1     -14.036   6.168   4.450  1.00  0.00     0.014 A 
ATOM      5  C   UNL     1     -14.352   6.585   5.753  1.00  0.00     0.012 A 
ATOM      6  C   UNL     1     -13.908   5.853   6.857  1.00  0.00     0.005 A 
ENDROOT
BRANCH   1   7
ATOM      7  C   UNL     1     -12.649   3.882   7.869  1.00  0.00     0.013 C 
ATOM      8  C   UNL     1     -12.479   4.773   9.106  1.00  0.00     0.012 C 
ATOM      9  C   UNL     1     -11.349   3.143   7.537  1.00  0.00     0.012 C 
ENDBRANCH   1   7
BRANCH   4  10
ATOM     10  C   UNL     1     -14.496   6.928   3.273  1.00  0.00     0.260 C 
ATOM     11  O   UNL     1     -14.284   6.509   2.104  1.00  0.00    -0.298 OA
ENDBRANCH   4  10
TORSDOF 2
ENDMDL
MODEL 6
REMARK VINA RESULT:    -4.440     14.218     16.007
REMARK INTER + INTRA:          -5.152
REMARK INTER:                  -4.959
REMARK INTRA:                  -0.193
REMARK UNBOUND:                -0.192
REMARK SMILES CC(C)c1ccc(C=O)cc1
REMARK SMILES IDX 4 1 5 2 6 3 7 4 10 5 11 6 2 7 1 8 3 9 8 10 9 11
REMARK H PARENT
REMARK Flexibility Score: inf
ROOT
ATOM      1  C   UNL     1     -14.131   6.100   4.887  1.00  0.00    -0.045 A 
ATOM      2  C   UNL     1     -13.294   5.045   4.483  1.00  0.00     0.005 A 
ATOM      3  C   UNL     1     -12.675   4.226   5.432  1.00  0.00     0.012 A 
ATOM      4  C   UNL     1     -12.882   4.444   6.802  1.00  0.00     0.014 A 
ATOM      5  C   UNL     1     -13.718   5.496   7.210  1.00  0.00     0.012 A 
ATOM      6  C   UNL     1     -14.336   6.316   6.262  1.00  0.00     0.005 A 
ENDROOT
BRANCH   1   7
ATOM      7  C   UNL     1     -14.796   6.982   3.846  1.00  0.00     0.013 C 
ATOM      8  C   UNL     1     -14.390   6.565   2.428  1.00  0.00     0.012 C 
ATOM      9  C   UNL     1     -14.485   8.461   4.097  1.00  0.00     0.012 C 
ENDBRANCH   1   7
BRANCH   4  10
ATOM     10  C   UNL     1     -12.221   3.569   7.787  1.00  0.00     0.260 C 
ATOM     11  O   UNL     1     -11.248   2.839   7.460  1.00  0.00    -0.298 OA
ENDBRANCH   4  10
TORSDOF 2
ENDMDL
MODEL 7
REMARK VINA RESULT:    -4.413      7.071      9.104
REMARK INTER + INTRA:          -5.121
REMARK INTER:                  -4.940
REMARK INTRA:                  -0.181
REMARK UNBOUND:                -0.192
REMARK SMILES CC(C)c1ccc(C=O)cc1
REMARK SMILES IDX 4 1 5 2 6 3 7 4 10 5 11 6 2 7 1 8 3 9 8 10 9 11
REMARK H PARENT
REMARK Flexibility Score: inf
ROOT
ATOM      1  C   UNL     1     -11.512  -6.960  -6.651  1.00  0.00    -0.045 A 
ATOM      2  C   UNL     1     -11.201  -5.746  -6.014  1.00  0.00     0.005 A 
ATOM      3  C   UNL     1     -10.475  -4.758  -6.685  1.00  0.00     0.012 A 
ATOM      4  C   UNL     1     -10.047  -4.963  -8.005  1.00  0.00     0.014 A 
ATOM      5  C   UNL     1     -10.355  -6.174  -8.645  1.00  0.00     0.012 A 
ATOM      6  C   UNL     1     -11.080  -7.163  -7.975  1.00  0.00     0.005 A 
ENDROOT
BRANCH   1   7
ATOM      7  C   UNL     1     -12.300  -8.025  -5.911  1.00  0.00     0.013 C 
ATOM      8  C   UNL     1     -13.809  -7.766  -6.013  1.00  0.00     0.012 C 
ATOM      9  C   UNL     1     -11.855  -8.125  -4.448  1.00  0.00     0.012 C 
ENDBRANCH   1   7
BRANCH   4  10
ATOM     10  C   UNL     1      -9.282  -3.909  -8.695  1.00  0.00     0.260 C 
ATOM     11  O   UNL     1      -9.812  -3.202  -9.593  1.00  0.00    -0.298 OA
ENDBRANCH   4  10
TORSDOF 2
ENDMDL
MODEL 8
REMARK VINA RESULT:    -4.323      6.796      8.215
REMARK INTER + INTRA:          -5.020
REMARK INTER:                  -4.827
REMARK INTRA:                  -0.193
REMARK UNBOUND:                -0.192
REMARK SMILES CC(C)c1ccc(C=O)cc1
REMARK SMILES IDX 4 1 5 2 6 3 7 4 10 5 11 6 2 7 1 8 3 9 8 10 9 11
REMARK H PARENT
REMARK Flexibility Score: inf
ROOT
ATOM      1  C   UNL     1     -12.649  -6.104  -7.661  1.00  0.00    -0.045 A 
ATOM      2  C   UNL     1     -12.499  -5.537  -8.939  1.00  0.00     0.005 A 
ATOM      3  C   UNL     1     -11.373  -4.768  -9.247  1.00  0.00     0.012 A 
ATOM      4  C   UNL     1     -10.376  -4.552  -8.286  1.00  0.00     0.014 A 
ATOM      5  C   UNL     1     -10.520  -5.116  -7.008  1.00  0.00     0.012 A 
ATOM      6  C   UNL     1     -11.646  -5.885  -6.699  1.00  0.00     0.005 A 
ENDROOT
BRANCH   1   7
ATOM      7  C   UNL     1     -13.876  -6.937  -7.339  1.00  0.00     0.013 C 
ATOM      8  C   UNL     1     -14.927  -6.825  -8.451  1.00  0.00     0.012 C 
ATOM      9  C   UNL     1     -14.467  -6.546  -5.980  1.00  0.00     0.012 C 
ENDBRANCH   1   7
BRANCH   4  10
ATOM     10  C   UNL     1      -9.196  -3.738  -8.630  1.00  0.00     0.260 C 
ATOM     11  O   UNL     1      -8.478  -3.219  -7.734  1.00  0.00    -0.298 OA
ENDBRANCH   4  10
TORSDOF 2
ENDMDL
MODEL 9
REMARK VINA RESULT:    -4.299      5.364      6.765
REMARK INTER + INTRA:          -4.995
REMARK INTER:                  -4.816
REMARK INTRA:                  -0.179
REMARK UNBOUND:                -0.192
REMARK SMILES CC(C)c1ccc(C=O)cc1
REMARK SMILES IDX 4 1 5 2 6 3 7 4 10 5 11 6 2 7 1 8 3 9 8 10 9 11
REMARK H PARENT
REMARK Flexibility Score: inf
ROOT
ATOM      1  C   UNL     1     -10.552  -3.561  -9.044  1.00  0.00    -0.045 A 
ATOM      2  C   UNL     1     -11.390  -4.682  -9.173  1.00  0.00     0.005 A 
ATOM      3  C   UNL     1     -11.532  -5.589  -8.120  1.00  0.00     0.012 A 
ATOM      4  C   UNL     1     -10.840  -5.394  -6.916  1.00  0.00     0.014 A 
ATOM      5  C   UNL     1     -10.001  -4.276  -6.781  1.00  0.00     0.012 A 
ATOM      6  C   UNL     1      -9.858  -3.368  -7.835  1.00  0.00     0.005 A 
ENDROOT
BRANCH   1   7
ATOM      7  C   UNL     1     -10.406  -2.584 -10.196  1.00  0.00     0.013 C 
ATOM      8  C   UNL     1      -9.000  -2.653 -10.804  1.00  0.00     0.012 C 
ATOM      9  C   UNL     1     -10.749  -1.157  -9.755  1.00  0.00     0.012 C 
ENDBRANCH   1   7
BRANCH   4  10
ATOM     10  C   UNL     1     -11.002  -6.361  -5.816  1.00  0.00     0.260 C 
ATOM     11  O   UNL     1     -11.272  -5.979  -4.646  1.00  0.00    -0.298 OA
ENDBRANCH   4  10
TORSDOF 2
ENDMDL
