MODEL 1
REMARK VINA RESULT:    -5.122      0.000      0.000
REMARK INTER + INTRA:          -5.668
REMARK INTER:                  -5.421
REMARK INTRA:                  -0.246
REMARK UNBOUND:                -0.246
REMARK SMILES CC1=CC[C@@]23[C@@H]([C@H](C(C)C)CC[C@@H]2C)[C@H]13
REMARK SMILES IDX 14 1 13 2 12 3 11 4 7 5 6 6 5 7 15 8 2 9 3 10 4 11 1 12 8 13
REMARK SMILES IDX 9 14 10 15
REMARK H PARENT
REMARK Flexibility Score: inf
ROOT
ATOM      1  C   UNL     1      14.146   7.855  16.141  1.00  0.00     0.008 C 
ATOM      2  C   UNL     1      13.755   6.377  15.990  1.00  0.00    -0.007 C 
ATOM      3  C   UNL     1      15.008   5.488  16.085  1.00  0.00     0.004 C 
ATOM      4  C   UNL     1      14.617   4.016  16.154  1.00  0.00     0.004 C 
ATOM      5  C   UNL     1      13.900   3.673  17.479  1.00  0.00    -0.004 C 
ATOM      6  C   UNL     1      12.700   4.626  17.740  1.00  0.00     0.007 C 
ATOM      7  C   UNL     1      12.632   5.966  16.983  1.00  0.00    -0.013 C 
ATOM      8  C   UNL     1      13.002   5.950  18.463  1.00  0.00     0.025 C 
ATOM      9  C   UNL     1      11.842   6.614  19.124  1.00  0.00    -0.073 C 
ATOM     10  C   UNL     1      10.898   6.985  18.266  1.00  0.00    -0.027 C 
ATOM     11  C   UNL     1      11.238   6.604  16.868  1.00  0.00     0.035 C 
ATOM     12  C   UNL     1      11.748   6.834  20.601  1.00  0.00     0.039 C 
ENDROOT
BRANCH   5  13
ATOM     13  C   UNL     1      14.848   3.513  18.718  1.00  0.00    -0.014 C 
ATOM     14  C   UNL     1      14.056   3.077  19.966  1.00  0.00     0.007 C 
ATOM     15  C   UNL     1      15.971   2.489  18.467  1.00  0.00     0.007 C 
ENDBRANCH   5  13
TORSDOF 1
ENDMDL
MODEL 2
REMARK VINA RESULT:    -4.808      1.493      4.875
REMARK INTER + INTRA:          -5.335
REMARK INTER:                  -5.315
REMARK INTRA:                  -0.020
REMARK UNBOUND:                -0.246
REMARK SMILES CC1=CC[C@@]23[C@@H]([C@H](C(C)C)CC[C@@H]2C)[C@H]13
REMARK SMILES IDX 14 1 13 2 12 3 11 4 7 5 6 6 5 7 15 8 2 9 3 10 4 11 1 12 8 13
REMARK SMILES IDX 9 14 10 15
REMARK H PARENT
REMARK Flexibility Score: inf
ROOT
ATOM      1  C   UNL     1      13.622   3.653  18.997  1.00  0.00     0.008 C 
ATOM      2  C   UNL     1      12.784   4.141  17.805  1.00  0.00    -0.007 C 
ATOM      3  C   UNL     1      11.596   4.983  18.305  1.00  0.00     0.004 C 
ATOM      4  C   UNL     1      10.883   5.651  17.135  1.00  0.00     0.004 C 
ATOM      5  C   UNL     1      11.761   6.733  16.467  1.00  0.00    -0.004 C 
ATOM      6  C   UNL     1      13.158   6.170  16.077  1.00  0.00     0.007 C 
ATOM      7  C   UNL     1      13.651   4.871  16.742  1.00  0.00    -0.013 C 
ATOM      8  C   UNL     1      14.254   6.210  17.156  1.00  0.00     0.025 C 
ATOM      9  C   UNL     1      15.659   6.132  16.663  1.00  0.00    -0.073 C 
ATOM     10  C   UNL     1      15.930   4.988  16.045  1.00  0.00    -0.027 C 
ATOM     11  C   UNL     1      14.740   4.097  15.979  1.00  0.00     0.035 C 
ATOM     12  C   UNL     1      16.659   7.232  16.839  1.00  0.00     0.039 C 
ENDROOT
BRANCH   5  13
ATOM     13  C   UNL     1      11.833   8.093  17.242  1.00  0.00    -0.014 C 
ATOM     14  C   UNL     1      11.451   9.272  16.326  1.00  0.00     0.007 C 
ATOM     15  C   UNL     1      10.912   8.113  18.477  1.00  0.00     0.007 C 
ENDBRANCH   5  13
TORSDOF 1
ENDMDL
MODEL 3
REMARK VINA RESULT:    -4.731      1.449      2.579
REMARK INTER + INTRA:          -5.254
REMARK INTER:                  -4.924
REMARK INTRA:                  -0.330
REMARK UNBOUND:                -0.246
REMARK SMILES CC1=CC[C@@]23[C@@H]([C@H](C(C)C)CC[C@@H]2C)[C@H]13
REMARK SMILES IDX 14 1 13 2 12 3 11 4 7 5 6 6 5 7 15 8 2 9 3 10 4 11 1 12 8 13
REMARK SMILES IDX 9 14 10 15
REMARK H PARENT
REMARK Flexibility Score: inf
ROOT
ATOM      1  C   UNL     1      14.484   6.033  15.878  1.00  0.00     0.008 C 
ATOM      2  C   UNL     1      13.570   5.107  16.695  1.00  0.00    -0.007 C 
ATOM      3  C   UNL     1      14.341   4.530  17.895  1.00  0.00     0.004 C 
ATOM      4  C   UNL     1      13.397   3.786  18.833  1.00  0.00     0.004 C 
ATOM      5  C   UNL     1      12.412   4.745  19.538  1.00  0.00    -0.004 C 
ATOM      6  C   UNL     1      11.660   5.642  18.514  1.00  0.00     0.007 C 
ATOM      7  C   UNL     1      12.240   5.804  17.097  1.00  0.00    -0.013 C 
ATOM      8  C   UNL     1      12.347   6.953  18.095  1.00  0.00     0.025 C 
ATOM      9  C   UNL     1      11.457   8.003  17.521  1.00  0.00    -0.073 C 
ATOM     10  C   UNL     1      10.875   7.629  16.387  1.00  0.00    -0.027 C 
ATOM     11  C   UNL     1      11.244   6.238  16.007  1.00  0.00     0.035 C 
ATOM     12  C   UNL     1      11.235   9.338  18.161  1.00  0.00     0.039 C 
ENDROOT
BRANCH   5  13
ATOM     13  C   UNL     1      13.022   5.549  20.738  1.00  0.00    -0.014 C 
ATOM     14  C   UNL     1      11.912   6.104  21.652  1.00  0.00     0.007 C 
ATOM     15  C   UNL     1      13.978   4.693  21.590  1.00  0.00     0.007 C 
ENDBRANCH   5  13
TORSDOF 1
ENDMDL
MODEL 4
REMARK VINA RESULT:    -4.631      1.367      4.963
REMARK INTER + INTRA:          -5.148
REMARK INTER:                  -4.819
REMARK INTRA:                  -0.329
REMARK UNBOUND:                -0.246
REMARK SMILES CC1=CC[C@@]23[C@@H]([C@H](C(C)C)CC[C@@H]2C)[C@H]13
REMARK SMILES IDX 14 1 13 2 12 3 11 4 7 5 6 6 5 7 15 8 2 9 3 10 4 11 1 12 8 13
REMARK SMILES IDX 9 14 10 15
REMARK H PARENT
REMARK Flexibility Score: inf
ROOT
ATOM      1  C   UNL     1      15.097   6.016  20.695  1.00  0.00     0.008 C 
ATOM      2  C   UNL     1      13.591   5.796  20.486  1.00  0.00    -0.007 C 
ATOM      3  C   UNL     1      12.873   7.151  20.351  1.00  0.00     0.004 C 
ATOM      4  C   UNL     1      11.422   6.950  19.930  1.00  0.00     0.004 C 
ATOM      5  C   UNL     1      11.311   6.403  18.489  1.00  0.00    -0.004 C 
ATOM      6  C   UNL     1      12.175   5.123  18.299  1.00  0.00     0.007 C 
ATOM      7  C   UNL     1      13.300   4.826  19.307  1.00  0.00    -0.013 C 
ATOM      8  C   UNL     1      13.650   5.327  17.909  1.00  0.00     0.025 C 
ATOM      9  C   UNL     1      14.325   4.159  17.274  1.00  0.00    -0.073 C 
ATOM     10  C   UNL     1      14.401   3.103  18.077  1.00  0.00    -0.027 C 
ATOM     11  C   UNL     1      13.756   3.359  19.393  1.00  0.00     0.035 C 
ATOM     12  C   UNL     1      14.857   4.172  15.875  1.00  0.00     0.039 C 
ENDROOT
BRANCH   5  13
ATOM     13  C   UNL     1      11.524   7.471  17.361  1.00  0.00    -0.014 C 
ATOM     14  C   UNL     1      10.950   6.978  16.019  1.00  0.00     0.007 C 
ATOM     15  C   UNL     1      10.875   8.824  17.707  1.00  0.00     0.007 C 
ENDBRANCH   5  13
TORSDOF 1
ENDMDL
MODEL 5
REMARK VINA RESULT:    -4.494      1.764      3.661
REMARK INTER + INTRA:          -5.003
REMARK INTER:                  -4.673
REMARK INTRA:                  -0.330
REMARK UNBOUND:                -0.246
REMARK SMILES CC1=CC[C@@]23[C@@H]([C@H](C(C)C)CC[C@@H]2C)[C@H]13
REMARK SMILES IDX 14 1 13 2 12 3 11 4 7 5 6 6 5 7 15 8 2 9 3 10 4 11 1 12 8 13
REMARK SMILES IDX 9 14 10 15
REMARK H PARENT
REMARK Flexibility Score: inf
ROOT
ATOM      1  C   UNL     1      11.114   8.623  18.638  1.00  0.00     0.008 C 
ATOM      2  C   UNL     1      11.791   8.380  17.280  1.00  0.00    -0.007 C 
ATOM      3  C   UNL     1      13.054   9.252  17.156  1.00  0.00     0.004 C 
ATOM      4  C   UNL     1      13.852   8.867  15.916  1.00  0.00     0.004 C 
ATOM      5  C   UNL     1      14.469   7.455  16.043  1.00  0.00    -0.004 C 
ATOM      6  C   UNL     1      13.393   6.396  16.418  1.00  0.00     0.007 C 
ATOM      7  C   UNL     1      12.058   6.870  17.023  1.00  0.00    -0.013 C 
ATOM      8  C   UNL     1      13.098   6.199  17.915  1.00  0.00     0.025 C 
ATOM      9  C   UNL     1      12.459   4.906  18.291  1.00  0.00    -0.073 C 
ATOM     10  C   UNL     1      11.254   4.746  17.755  1.00  0.00    -0.027 C 
ATOM     11  C   UNL     1      10.875   5.896  16.889  1.00  0.00     0.035 C 
ATOM     12  C   UNL     1      13.110   3.888  19.175  1.00  0.00     0.039 C 
ENDROOT
BRANCH   5  13
ATOM     13  C   UNL     1      15.756   7.378  16.935  1.00  0.00    -0.014 C 
ATOM     14  C   UNL     1      16.550   6.089  16.646  1.00  0.00     0.007 C 
ATOM     15  C   UNL     1      16.687   8.587  16.725  1.00  0.00     0.007 C 
ENDBRANCH   5  13
TORSDOF 1
ENDMDL
MODEL 6
REMARK VINA RESULT:    -4.440      1.580      2.394
REMARK INTER + INTRA:          -4.946
REMARK INTER:                  -4.636
REMARK INTRA:                  -0.310
REMARK UNBOUND:                -0.246
REMARK SMILES CC1=CC[C@@]23[C@@H]([C@H](C(C)C)CC[C@@H]2C)[C@H]13
REMARK SMILES IDX 14 1 13 2 12 3 11 4 7 5 6 6 5 7 15 8 2 9 3 10 4 11 1 12 8 13
REMARK SMILES IDX 9 14 10 15
REMARK H PARENT
REMARK Flexibility Score: inf
ROOT
ATOM      1  C   UNL     1      15.885   9.100  17.208  1.00  0.00     0.008 C 
ATOM      2  C   UNL     1      15.235   8.043  16.300  1.00  0.00    -0.007 C 
ATOM      3  C   UNL     1      15.819   6.653  16.608  1.00  0.00     0.004 C 
ATOM      4  C   UNL     1      15.037   5.569  15.875  1.00  0.00     0.004 C 
ATOM      5  C   UNL     1      13.601   5.423  16.425  1.00  0.00    -0.004 C 
ATOM      6  C   UNL     1      12.858   6.790  16.445  1.00  0.00     0.007 C 
ATOM      7  C   UNL     1      13.683   8.088  16.371  1.00  0.00    -0.013 C 
ATOM      8  C   UNL     1      13.048   7.670  17.693  1.00  0.00     0.025 C 
ATOM      9  C   UNL     1      12.002   8.707  17.926  1.00  0.00    -0.073 C 
ATOM     10  C   UNL     1      11.948   9.616  16.960  1.00  0.00    -0.027 C 
ATOM     11  C   UNL     1      12.930   9.336  15.877  1.00  0.00     0.035 C 
ATOM     12  C   UNL     1      11.101   8.718  19.121  1.00  0.00     0.039 C 
ENDROOT
BRANCH   5  13
ATOM     13  C   UNL     1      13.490   4.635  17.775  1.00  0.00    -0.014 C 
ATOM     14  C   UNL     1      12.024   4.276  18.087  1.00  0.00     0.007 C 
ATOM     15  C   UNL     1      14.321   3.338  17.766  1.00  0.00     0.007 C 
ENDBRANCH   5  13
TORSDOF 1
ENDMDL
MODEL 7
REMARK VINA RESULT:    -4.370      1.231      4.761
REMARK INTER + INTRA:          -4.872
REMARK INTER:                  -4.658
REMARK INTRA:                  -0.214
REMARK UNBOUND:                -0.246
REMARK SMILES CC1=CC[C@@]23[C@@H]([C@H](C(C)C)CC[C@@H]2C)[C@H]13
REMARK SMILES IDX 14 1 13 2 12 3 11 4 7 5 6 6 5 7 15 8 2 9 3 10 4 11 1 12 8 13
REMARK SMILES IDX 9 14 10 15
REMARK H PARENT
REMARK Flexibility Score: inf
ROOT
ATOM      1  C   UNL     1      13.443   6.085  21.870  1.00  0.00     0.008 C 
ATOM      2  C   UNL     1      12.503   5.466  20.823  1.00  0.00    -0.007 C 
ATOM      3  C   UNL     1      12.008   6.552  19.851  1.00  0.00     0.004 C 
ATOM      4  C   UNL     1      11.253   5.925  18.685  1.00  0.00     0.004 C 
ATOM      5  C   UNL     1      12.188   5.102  17.770  1.00  0.00    -0.004 C 
ATOM      6  C   UNL     1      13.008   4.061  18.584  1.00  0.00     0.007 C 
ATOM      7  C   UNL     1      13.148   4.247  20.107  1.00  0.00    -0.013 C 
ATOM      8  C   UNL     1      14.336   4.541  19.196  1.00  0.00     0.025 C 
ATOM      9  C   UNL     1      15.320   3.476  19.542  1.00  0.00    -0.073 C 
ATOM     10  C   UNL     1      14.876   2.644  20.478  1.00  0.00    -0.027 C 
ATOM     11  C   UNL     1      13.492   2.981  20.910  1.00  0.00     0.035 C 
ATOM     12  C   UNL     1      16.664   3.350  18.897  1.00  0.00     0.039 C 
ENDROOT
BRANCH   5  13
ATOM     13  C   UNL     1      13.063   5.953  16.787  1.00  0.00    -0.014 C 
ATOM     14  C   UNL     1      13.938   5.046  15.900  1.00  0.00     0.007 C 
ATOM     15  C   UNL     1      12.210   6.856  15.876  1.00  0.00     0.007 C 
ENDBRANCH   5  13
TORSDOF 1
ENDMDL
MODEL 8
REMARK VINA RESULT:    -4.301      1.636      4.351
REMARK INTER + INTRA:          -4.799
REMARK INTER:                  -4.470
REMARK INTRA:                  -0.329
REMARK UNBOUND:                -0.246
REMARK SMILES CC1=CC[C@@]23[C@@H]([C@H](C(C)C)CC[C@@H]2C)[C@H]13
REMARK SMILES IDX 14 1 13 2 12 3 11 4 7 5 6 6 5 7 15 8 2 9 3 10 4 11 1 12 8 13
REMARK SMILES IDX 9 14 10 15
REMARK H PARENT
REMARK Flexibility Score: inf
ROOT
ATOM      1  C   UNL     1      13.840   3.882  18.038  1.00  0.00     0.008 C 
ATOM      2  C   UNL     1      12.793   4.354  19.059  1.00  0.00    -0.007 C 
ATOM      3  C   UNL     1      13.490   4.842  20.342  1.00  0.00     0.004 C 
ATOM      4  C   UNL     1      12.488   5.512  21.275  1.00  0.00     0.004 C 
ATOM      5  C   UNL     1      11.959   6.842  20.693  1.00  0.00    -0.004 C 
ATOM      6  C   UNL     1      11.404   6.651  19.253  1.00  0.00     0.007 C 
ATOM      7  C   UNL     1      11.818   5.402  18.453  1.00  0.00    -0.013 C 
ATOM      8  C   UNL     1      12.412   6.761  18.095  1.00  0.00     0.025 C 
ATOM      9  C   UNL     1      11.836   7.056  16.752  1.00  0.00    -0.073 C 
ATOM     10  C   UNL     1      11.024   6.100  16.314  1.00  0.00    -0.027 C 
ATOM     11  C   UNL     1      10.879   4.998  17.303  1.00  0.00     0.035 C 
ATOM     12  C   UNL     1      12.134   8.303  15.980  1.00  0.00     0.039 C 
ENDROOT
BRANCH   5  13
ATOM     13  C   UNL     1      12.942   8.056  20.826  1.00  0.00    -0.014 C 
ATOM     14  C   UNL     1      12.196   9.392  20.654  1.00  0.00     0.007 C 
ATOM     15  C   UNL     1      13.673   8.071  22.181  1.00  0.00     0.007 C 
ENDBRANCH   5  13
TORSDOF 1
ENDMDL
MODEL 9
REMARK VINA RESULT:    -4.115      1.441      3.941
REMARK INTER + INTRA:          -4.602
REMARK INTER:                  -4.275
REMARK INTRA:                  -0.327
REMARK UNBOUND:                -0.246
REMARK SMILES CC1=CC[C@@]23[C@@H]([C@H](C(C)C)CC[C@@H]2C)[C@H]13
REMARK SMILES IDX 14 1 13 2 12 3 11 4 7 5 6 6 5 7 15 8 2 9 3 10 4 11 1 12 8 13
REMARK SMILES IDX 9 14 10 15
REMARK H PARENT
REMARK Flexibility Score: inf
ROOT
ATOM      1  C   UNL     1      16.941   3.635  18.131  1.00  0.00     0.008 C 
ATOM      2  C   UNL     1      15.541   3.162  18.551  1.00  0.00    -0.007 C 
ATOM      3  C   UNL     1      15.427   3.149  20.086  1.00  0.00     0.004 C 
ATOM      4  C   UNL     1      13.987   2.892  20.514  1.00  0.00     0.004 C 
ATOM      5  C   UNL     1      13.058   4.072  20.150  1.00  0.00    -0.004 C 
ATOM      6  C   UNL     1      13.180   4.448  18.646  1.00  0.00     0.007 C 
ATOM      7  C   UNL     1      14.416   3.979  17.857  1.00  0.00    -0.013 C 
ATOM      8  C   UNL     1      14.288   5.444  18.261  1.00  0.00     0.025 C 
ATOM      9  C   UNL     1      14.107   6.155  16.963  1.00  0.00    -0.073 C 
ATOM     10  C   UNL     1      14.105   5.335  15.918  1.00  0.00    -0.027 C 
ATOM     11  C   UNL     1      14.253   3.912  16.329  1.00  0.00     0.035 C 
ATOM     12  C   UNL     1      13.936   7.637  16.849  1.00  0.00     0.039 C 
ENDROOT
BRANCH   5  13
ATOM     13  C   UNL     1      13.157   5.308  21.110  1.00  0.00    -0.014 C 
ATOM     14  C   UNL     1      11.944   6.242  20.935  1.00  0.00     0.007 C 
ATOM     15  C   UNL     1      13.247   4.892  22.591  1.00  0.00     0.007 C 
ENDBRANCH   5  13
TORSDOF 1
ENDMDL
