MODEL 1
REMARK VINA RESULT:    -6.286      0.000      0.000
REMARK INTER + INTRA:         -12.477
REMARK INTER:                 -11.430
REMARK INTRA:                  -1.047
REMARK UNBOUND:                -1.047
REMARK SMILES CCCCCCCCCCCCCC[C@H](C)C(=O)[O-]
REMARK SMILES IDX 9 1 10 2 11 3 12 4 13 5 14 6 15 7 16 8 17 9 18 10 19 11 8 12
REMARK SMILES IDX 7 13 6 14 5 15 4 16 3 17 2 18 1 19
REMARK H PARENT
REMARK Flexibility Score: inf
ROOT
ATOM      1  C   UNL     1     -24.431 -31.795  24.898  1.00  0.00     0.000 C 
ENDROOT
BRANCH   1   2
ATOM      2  C   UNL     1     -24.450 -32.987  25.874  1.00  0.00     0.000 C 
BRANCH   2   3
ATOM      3  C   UNL     1     -25.814 -33.178  26.561  1.00  0.00     0.000 C 
BRANCH   3   4
ATOM      4  C   UNL     1     -26.931 -32.362  25.890  1.00  0.00     0.000 C 
BRANCH   4   5
ATOM      5  C   UNL     1     -27.893 -33.237  25.071  1.00  0.00     0.001 C 
BRANCH   5   6
ATOM      6  C   UNL     1     -27.747 -32.956  23.568  1.00  0.00     0.009 C 
BRANCH   6   7
ATOM      7  C   UNL     1     -28.345 -31.590  23.170  1.00  0.00     0.032 C 
ATOM      8  C   UNL     1     -29.426 -31.764  22.099  1.00  0.00     0.014 C 
BRANCH   7   9
ATOM      9  C   UNL     1     -27.281 -30.646  22.677  1.00  0.00     0.044 C 
ATOM     10  O   UNL     1     -27.133 -29.513  23.206  1.00  0.00    -0.550 OA
ATOM     11  O   UNL     1     -26.453 -31.024  21.627  1.00  0.00    -0.550 OA
ENDBRANCH   7   9
ENDBRANCH   6   7
ENDBRANCH   5   6
ENDBRANCH   4   5
ENDBRANCH   3   4
ENDBRANCH   2   3
ENDBRANCH   1   2
BRANCH   1  12
ATOM     12  C   UNL     1     -23.039 -31.205  24.603  1.00  0.00     0.000 C 
BRANCH  12  13
ATOM     13  C   UNL     1     -22.318 -31.915  23.444  1.00  0.00    -0.000 C 
BRANCH  13  14
ATOM     14  C   UNL     1     -20.811 -31.603  23.392  1.00  0.00    -0.000 C 
BRANCH  14  15
ATOM     15  C   UNL     1     -20.376 -30.322  24.129  1.00  0.00    -0.000 C 
BRANCH  15  16
ATOM     16  C   UNL     1     -18.855 -30.241  24.352  1.00  0.00    -0.000 C 
BRANCH  16  17
ATOM     17  C   UNL     1     -18.086 -31.294  23.527  1.00  0.00    -0.000 C 
BRANCH  17  18
ATOM     18  C   UNL     1     -16.613 -30.929  23.277  1.00  0.00    -0.003 C 
ATOM     19  C   UNL     1     -16.441 -29.724  22.356  1.00  0.00     0.004 C 
ENDBRANCH  17  18
ENDBRANCH  16  17
ENDBRANCH  15  16
ENDBRANCH  14  15
ENDBRANCH  13  14
ENDBRANCH  12  13
ENDBRANCH   1  12
TORSDOF 14
ENDMDL
MODEL 2
REMARK VINA RESULT:    -6.120      1.365      1.861
REMARK INTER + INTRA:         -12.175
REMARK INTER:                 -11.078
REMARK INTRA:                  -1.097
REMARK UNBOUND:                -1.047
REMARK SMILES CCCCCCCCCCCCCC[C@H](C)C(=O)[O-]
REMARK SMILES IDX 9 1 10 2 11 3 12 4 13 5 14 6 15 7 16 8 17 9 18 10 19 11 8 12
REMARK SMILES IDX 7 13 6 14 5 15 4 16 3 17 2 18 1 19
REMARK H PARENT
REMARK Flexibility Score: inf
ROOT
ATOM      1  C   UNL     1     -24.825 -32.335  24.998  1.00  0.00     0.000 C 
ENDROOT
BRANCH   1   2
ATOM      2  C   UNL     1     -25.144 -33.049  26.325  1.00  0.00     0.000 C 
BRANCH   2   3
ATOM      3  C   UNL     1     -26.629 -32.954  26.716  1.00  0.00     0.000 C 
BRANCH   3   4
ATOM      4  C   UNL     1     -27.523 -32.541  25.536  1.00  0.00     0.000 C 
BRANCH   4   5
ATOM      5  C   UNL     1     -28.070 -31.112  25.679  1.00  0.00     0.001 C 
BRANCH   5   6
ATOM      6  C   UNL     1     -28.283 -30.465  24.301  1.00  0.00     0.009 C 
BRANCH   6   7
ATOM      7  C   UNL     1     -27.659 -31.299  23.163  1.00  0.00     0.032 C 
ATOM      8  C   UNL     1     -26.695 -30.446  22.333  1.00  0.00     0.014 C 
BRANCH   7   9
ATOM      9  C   UNL     1     -28.716 -31.892  22.271  1.00  0.00     0.044 C 
ATOM     10  O   UNL     1     -28.469 -32.911  21.573  1.00  0.00    -0.550 OA
ATOM     11  O   UNL     1     -29.978 -31.314  22.214  1.00  0.00    -0.550 OA
ENDBRANCH   7   9
ENDBRANCH   6   7
ENDBRANCH   5   6
ENDBRANCH   4   5
ENDBRANCH   3   4
ENDBRANCH   2   3
ENDBRANCH   1   2
BRANCH   1  12
ATOM     12  C   UNL     1     -23.462 -31.620  24.943  1.00  0.00     0.000 C 
BRANCH  12  13
ATOM     13  C   UNL     1     -22.777 -31.736  23.571  1.00  0.00    -0.000 C 
BRANCH  13  14
ATOM     14  C   UNL     1     -21.433 -30.985  23.504  1.00  0.00    -0.000 C 
BRANCH  14  15
ATOM     15  C   UNL     1     -21.197 -29.956  24.626  1.00  0.00    -0.000 C 
BRANCH  15  16
ATOM     16  C   UNL     1     -19.705 -29.674  24.880  1.00  0.00    -0.000 C 
BRANCH  16  17
ATOM     17  C   UNL     1     -18.787 -30.658  24.125  1.00  0.00    -0.000 C 
BRANCH  17  18
ATOM     18  C   UNL     1     -17.639 -29.972  23.364  1.00  0.00    -0.003 C 
ATOM     19  C   UNL     1     -16.453 -30.899  23.104  1.00  0.00     0.004 C 
ENDBRANCH  17  18
ENDBRANCH  16  17
ENDBRANCH  15  16
ENDBRANCH  14  15
ENDBRANCH  13  14
ENDBRANCH  12  13
ENDBRANCH   1  12
TORSDOF 14
ENDMDL
MODEL 3
REMARK VINA RESULT:    -6.052      3.154      8.658
REMARK INTER + INTRA:         -12.051
REMARK INTER:                 -10.802
REMARK INTRA:                  -1.249
REMARK UNBOUND:                -1.047
REMARK SMILES CCCCCCCCCCCCCC[C@H](C)C(=O)[O-]
REMARK SMILES IDX 9 1 10 2 11 3 12 4 13 5 14 6 15 7 16 8 17 9 18 10 19 11 8 12
REMARK SMILES IDX 7 13 6 14 5 15 4 16 3 17 2 18 1 19
REMARK H PARENT
REMARK Flexibility Score: inf
ROOT
ATOM      1  C   UNL     1     -24.103 -31.262  23.913  1.00  0.00     0.000 C 
ENDROOT
BRANCH   1   2
ATOM      2  C   UNL     1     -22.860 -31.095  23.018  1.00  0.00     0.000 C 
BRANCH   2   3
ATOM      3  C   UNL     1     -21.859 -32.255  23.157  1.00  0.00     0.000 C 
BRANCH   3   4
ATOM      4  C   UNL     1     -20.406 -31.768  23.282  1.00  0.00     0.000 C 
BRANCH   4   5
ATOM      5  C   UNL     1     -20.274 -30.518  24.167  1.00  0.00     0.001 C 
BRANCH   5   6
ATOM      6  C   UNL     1     -18.799 -30.214  24.471  1.00  0.00     0.009 C 
BRANCH   6   7
ATOM      7  C   UNL     1     -17.909 -30.336  23.217  1.00  0.00     0.032 C 
ATOM      8  C   UNL     1     -16.609 -31.078  23.547  1.00  0.00     0.014 C 
BRANCH   7   9
ATOM      9  C   UNL     1     -17.594 -28.987  22.631  1.00  0.00     0.044 C 
ATOM     10  O   UNL     1     -16.795 -28.878  21.663  1.00  0.00    -0.550 OA
ATOM     11  O   UNL     1     -18.188 -27.847  23.158  1.00  0.00    -0.550 OA
ENDBRANCH   7   9
ENDBRANCH   6   7
ENDBRANCH   5   6
ENDBRANCH   4   5
ENDBRANCH   3   4
ENDBRANCH   2   3
ENDBRANCH   1   2
BRANCH   1  12
ATOM     12  C   UNL     1     -23.854 -31.959  25.263  1.00  0.00     0.000 C 
BRANCH  12  13
ATOM     13  C   UNL     1     -25.020 -32.866  25.695  1.00  0.00    -0.000 C 
BRANCH  13  14
ATOM     14  C   UNL     1     -26.401 -32.231  25.443  1.00  0.00    -0.000 C 
BRANCH  14  15
ATOM     15  C   UNL     1     -27.378 -33.086  24.615  1.00  0.00    -0.000 C 
BRANCH  15  16
ATOM     16  C   UNL     1     -27.262 -32.837  23.100  1.00  0.00    -0.000 C 
BRANCH  16  17
ATOM     17  C   UNL     1     -27.466 -31.352  22.734  1.00  0.00    -0.000 C 
BRANCH  17  18
ATOM     18  C   UNL     1     -28.885 -30.833  23.021  1.00  0.00    -0.003 C 
ATOM     19  C   UNL     1     -29.953 -31.498  22.155  1.00  0.00     0.004 C 
ENDBRANCH  17  18
ENDBRANCH  16  17
ENDBRANCH  15  16
ENDBRANCH  14  15
ENDBRANCH  13  14
ENDBRANCH  12  13
ENDBRANCH   1  12
TORSDOF 14
ENDMDL
MODEL 4
REMARK VINA RESULT:    -5.978      1.389      1.801
REMARK INTER + INTRA:         -11.918
REMARK INTER:                 -11.031
REMARK INTRA:                  -0.887
REMARK UNBOUND:                -1.047
REMARK SMILES CCCCCCCCCCCCCC[C@H](C)C(=O)[O-]
REMARK SMILES IDX 9 1 10 2 11 3 12 4 13 5 14 6 15 7 16 8 17 9 18 10 19 11 8 12
REMARK SMILES IDX 7 13 6 14 5 15 4 16 3 17 2 18 1 19
REMARK H PARENT
REMARK Flexibility Score: inf
ROOT
ATOM      1  C   UNL     1     -24.168 -31.229  23.592  1.00  0.00     0.000 C 
ENDROOT
BRANCH   1   2
ATOM      2  C   UNL     1     -24.319 -31.415  25.114  1.00  0.00     0.000 C 
BRANCH   2   3
ATOM      3  C   UNL     1     -24.664 -32.862  25.510  1.00  0.00     0.000 C 
BRANCH   3   4
ATOM      4  C   UNL     1     -25.945 -32.952  26.356  1.00  0.00     0.000 C 
BRANCH   4   5
ATOM      5  C   UNL     1     -27.021 -31.949  25.908  1.00  0.00     0.001 C 
BRANCH   5   6
ATOM      6  C   UNL     1     -27.866 -32.526  24.762  1.00  0.00     0.009 C 
BRANCH   6   7
ATOM      7  C   UNL     1     -28.293 -31.442  23.750  1.00  0.00     0.032 C 
ATOM      8  C   UNL     1     -29.340 -30.510  24.367  1.00  0.00     0.014 C 
BRANCH   7   9
ATOM      9  C   UNL     1     -28.831 -32.052  22.484  1.00  0.00     0.044 C 
ATOM     10  O   UNL     1     -29.772 -31.499  21.855  1.00  0.00    -0.550 OA
ATOM     11  O   UNL     1     -28.288 -33.236  22.000  1.00  0.00    -0.550 OA
ENDBRANCH   7   9
ENDBRANCH   6   7
ENDBRANCH   5   6
ENDBRANCH   4   5
ENDBRANCH   3   4
ENDBRANCH   2   3
ENDBRANCH   1   2
BRANCH   1  12
ATOM     12  C   UNL     1     -22.730 -31.350  23.052  1.00  0.00     0.000 C 
BRANCH  12  13
ATOM     13  C   UNL     1     -21.882 -30.095  23.317  1.00  0.00    -0.000 C 
BRANCH  13  14
ATOM     14  C   UNL     1     -20.785 -30.322  24.375  1.00  0.00    -0.000 C 
BRANCH  14  15
ATOM     15  C   UNL     1     -19.563 -31.126  23.895  1.00  0.00    -0.000 C 
BRANCH  15  16
ATOM     16  C   UNL     1     -18.231 -30.384  24.109  1.00  0.00    -0.000 C 
BRANCH  16  17
ATOM     17  C   UNL     1     -17.025 -31.180  23.567  1.00  0.00    -0.000 C 
BRANCH  17  18
ATOM     18  C   UNL     1     -16.113 -30.362  22.636  1.00  0.00    -0.003 C 
ATOM     19  C   UNL     1     -16.294 -30.712  21.161  1.00  0.00     0.004 C 
ENDBRANCH  17  18
ENDBRANCH  16  17
ENDBRANCH  15  16
ENDBRANCH  14  15
ENDBRANCH  13  14
ENDBRANCH  12  13
ENDBRANCH   1  12
TORSDOF 14
ENDMDL
MODEL 5
REMARK VINA RESULT:    -5.975      3.365      8.813
REMARK INTER + INTRA:         -11.912
REMARK INTER:                 -10.918
REMARK INTRA:                  -0.994
REMARK UNBOUND:                -1.047
REMARK SMILES CCCCCCCCCCCCCC[C@H](C)C(=O)[O-]
REMARK SMILES IDX 9 1 10 2 11 3 12 4 13 5 14 6 15 7 16 8 17 9 18 10 19 11 8 12
REMARK SMILES IDX 7 13 6 14 5 15 4 16 3 17 2 18 1 19
REMARK H PARENT
REMARK Flexibility Score: inf
ROOT
ATOM      1  C   UNL     1     -25.240 -31.637  25.430  1.00  0.00     0.000 C 
ENDROOT
BRANCH   1   2
ATOM      2  C   UNL     1     -23.771 -31.807  24.998  1.00  0.00     0.000 C 
BRANCH   2   3
ATOM      3  C   UNL     1     -23.550 -31.534  23.500  1.00  0.00     0.000 C 
BRANCH   3   4
ATOM      4  C   UNL     1     -22.122 -31.873  23.043  1.00  0.00     0.000 C 
BRANCH   4   5
ATOM      5  C   UNL     1     -21.092 -30.826  23.495  1.00  0.00     0.001 C 
BRANCH   5   6
ATOM      6  C   UNL     1     -19.685 -31.441  23.579  1.00  0.00     0.009 C 
BRANCH   6   7
ATOM      7  C   UNL     1     -18.680 -30.502  24.278  1.00  0.00     0.032 C 
ATOM      8  C   UNL     1     -19.372 -29.212  24.732  1.00  0.00     0.014 C 
BRANCH   7   9
ATOM      9  C   UNL     1     -17.519 -30.172  23.380  1.00  0.00     0.044 C 
ATOM     10  O   UNL     1     -16.528 -30.946  23.302  1.00  0.00    -0.550 OA
ATOM     11  O   UNL     1     -17.534 -29.004  22.627  1.00  0.00    -0.550 OA
ENDBRANCH   7   9
ENDBRANCH   6   7
ENDBRANCH   5   6
ENDBRANCH   4   5
ENDBRANCH   3   4
ENDBRANCH   2   3
ENDBRANCH   1   2
BRANCH   1  12
ATOM     12  C   UNL     1     -26.081 -32.928  25.432  1.00  0.00     0.000 C 
BRANCH  12  13
ATOM     13  C   UNL     1     -27.479 -32.734  24.822  1.00  0.00    -0.000 C 
BRANCH  13  14
ATOM     14  C   UNL     1     -27.652 -33.458  23.473  1.00  0.00    -0.000 C 
BRANCH  14  15
ATOM     15  C   UNL     1     -28.018 -32.553  22.282  1.00  0.00    -0.000 C 
BRANCH  15  16
ATOM     16  C   UNL     1     -28.550 -31.175  22.713  1.00  0.00    -0.000 C 
BRANCH  16  17
ATOM     17  C   UNL     1     -30.093 -31.114  22.704  1.00  0.00    -0.000 C 
BRANCH  17  18
ATOM     18  C   UNL     1     -30.680 -30.151  23.750  1.00  0.00    -0.003 C 
ATOM     19  C   UNL     1     -30.130 -30.384  25.156  1.00  0.00     0.004 C 
ENDBRANCH  17  18
ENDBRANCH  16  17
ENDBRANCH  15  16
ENDBRANCH  14  15
ENDBRANCH  13  14
ENDBRANCH  12  13
ENDBRANCH   1  12
TORSDOF 14
ENDMDL
MODEL 6
REMARK VINA RESULT:    -5.938      1.655      3.383
REMARK INTER + INTRA:         -11.845
REMARK INTER:                  -9.889
REMARK INTRA:                  -1.956
REMARK UNBOUND:                -1.047
REMARK SMILES CCCCCCCCCCCCCC[C@H](C)C(=O)[O-]
REMARK SMILES IDX 9 1 10 2 11 3 12 4 13 5 14 6 15 7 16 8 17 9 18 10 19 11 8 12
REMARK SMILES IDX 7 13 6 14 5 15 4 16 3 17 2 18 1 19
REMARK H PARENT
REMARK Flexibility Score: inf
ROOT
ATOM      1  C   UNL     1     -26.666 -32.034  25.806  1.00  0.00     0.000 C 
ENDROOT
BRANCH   1   2
ATOM      2  C   UNL     1     -27.891 -32.457  24.972  1.00  0.00     0.000 C 
BRANCH   2   3
ATOM      3  C   UNL     1     -27.518 -33.321  23.755  1.00  0.00     0.000 C 
BRANCH   3   4
ATOM      4  C   UNL     1     -27.555 -32.529  22.437  1.00  0.00     0.000 C 
BRANCH   4   5
ATOM      5  C   UNL     1     -26.237 -31.793  22.152  1.00  0.00     0.001 C 
BRANCH   5   6
ATOM      6  C   UNL     1     -26.489 -30.301  21.883  1.00  0.00     0.009 C 
BRANCH   6   7
ATOM      7  C   UNL     1     -25.712 -29.394  22.859  1.00  0.00     0.032 C 
ATOM      8  C   UNL     1     -26.627 -28.905  23.987  1.00  0.00     0.014 C 
BRANCH   7   9
ATOM      9  C   UNL     1     -25.100 -28.217  22.149  1.00  0.00     0.044 C 
ATOM     10  O   UNL     1     -24.377 -28.386  21.132  1.00  0.00    -0.550 OA
ATOM     11  O   UNL     1     -25.331 -26.929  22.616  1.00  0.00    -0.550 OA
ENDBRANCH   7   9
ENDBRANCH   6   7
ENDBRANCH   5   6
ENDBRANCH   4   5
ENDBRANCH   3   4
ENDBRANCH   2   3
ENDBRANCH   1   2
BRANCH   1  12
ATOM     12  C   UNL     1     -25.761 -33.187  26.281  1.00  0.00     0.000 C 
BRANCH  12  13
ATOM     13  C   UNL     1     -24.307 -33.046  25.801  1.00  0.00    -0.000 C 
BRANCH  13  14
ATOM     14  C   UNL     1     -24.019 -31.680  25.149  1.00  0.00    -0.000 C 
BRANCH  14  15
ATOM     15  C   UNL     1     -23.028 -31.709  23.970  1.00  0.00    -0.000 C 
BRANCH  15  16
ATOM     16  C   UNL     1     -21.867 -30.713  24.134  1.00  0.00    -0.000 C 
BRANCH  16  17
ATOM     17  C   UNL     1     -20.519 -31.305  23.670  1.00  0.00    -0.000 C 
BRANCH  17  18
ATOM     18  C   UNL     1     -19.303 -30.438  24.040  1.00  0.00    -0.003 C 
ATOM     19  C   UNL     1     -17.977 -31.029  23.563  1.00  0.00     0.004 C 
ENDBRANCH  17  18
ENDBRANCH  16  17
ENDBRANCH  15  16
ENDBRANCH  14  15
ENDBRANCH  13  14
ENDBRANCH  12  13
ENDBRANCH   1  12
TORSDOF 14
ENDMDL
MODEL 7
REMARK VINA RESULT:    -5.899      1.766      3.135
REMARK INTER + INTRA:         -11.773
REMARK INTER:                 -10.107
REMARK INTRA:                  -1.666
REMARK UNBOUND:                -1.047
REMARK SMILES CCCCCCCCCCCCCC[C@H](C)C(=O)[O-]
REMARK SMILES IDX 9 1 10 2 11 3 12 4 13 5 14 6 15 7 16 8 17 9 18 10 19 11 8 12
REMARK SMILES IDX 7 13 6 14 5 15 4 16 3 17 2 18 1 19
REMARK H PARENT
REMARK Flexibility Score: inf
ROOT
ATOM      1  C   UNL     1     -22.824 -31.617  23.182  1.00  0.00     0.000 C 
ENDROOT
BRANCH   1   2
ATOM      2  C   UNL     1     -23.212 -30.578  22.113  1.00  0.00     0.000 C 
BRANCH   2   3
ATOM      3  C   UNL     1     -24.732 -30.482  21.894  1.00  0.00     0.000 C 
BRANCH   3   4
ATOM      4  C   UNL     1     -25.427 -31.850  21.975  1.00  0.00     0.000 C 
BRANCH   4   5
ATOM      5  C   UNL     1     -26.779 -31.786  22.705  1.00  0.00     0.001 C 
BRANCH   5   6
ATOM      6  C   UNL     1     -26.785 -32.712  23.932  1.00  0.00     0.009 C 
BRANCH   6   7
ATOM      7  C   UNL     1     -26.401 -31.965  25.226  1.00  0.00     0.032 C 
ATOM      8  C   UNL     1     -26.205 -32.952  26.382  1.00  0.00     0.014 C 
BRANCH   7   9
ATOM      9  C   UNL     1     -27.437 -30.939  25.598  1.00  0.00     0.044 C 
ATOM     10  O   UNL     1     -27.102 -29.754  25.861  1.00  0.00    -0.550 OA
ATOM     11  O   UNL     1     -28.779 -31.298  25.653  1.00  0.00    -0.550 OA
ENDBRANCH   7   9
ENDBRANCH   6   7
ENDBRANCH   5   6
ENDBRANCH   4   5
ENDBRANCH   3   4
ENDBRANCH   2   3
ENDBRANCH   1   2
BRANCH   1  12
ATOM     12  C   UNL     1     -22.881 -31.118  24.638  1.00  0.00     0.000 C 
BRANCH  12  13
ATOM     13  C   UNL     1     -22.509 -29.633  24.780  1.00  0.00    -0.000 C 
BRANCH  13  14
ATOM     14  C   UNL     1     -21.198 -29.413  25.560  1.00  0.00    -0.000 C 
BRANCH  14  15
ATOM     15  C   UNL     1     -20.019 -28.873  24.728  1.00  0.00    -0.000 C 
BRANCH  15  16
ATOM     16  C   UNL     1     -18.845 -29.864  24.633  1.00  0.00    -0.000 C 
BRANCH  16  17
ATOM     17  C   UNL     1     -19.159 -31.054  23.701  1.00  0.00    -0.000 C 
BRANCH  17  18
ATOM     18  C   UNL     1     -17.907 -31.717  23.101  1.00  0.00    -0.003 C 
ATOM     19  C   UNL     1     -16.614 -30.983  23.449  1.00  0.00     0.004 C 
ENDBRANCH  17  18
ENDBRANCH  16  17
ENDBRANCH  15  16
ENDBRANCH  14  15
ENDBRANCH  13  14
ENDBRANCH  12  13
ENDBRANCH   1  12
TORSDOF 14
ENDMDL
MODEL 8
REMARK VINA RESULT:    -5.882      1.849      2.509
REMARK INTER + INTRA:         -11.743
REMARK INTER:                 -10.283
REMARK INTRA:                  -1.460
REMARK UNBOUND:                -1.047
REMARK SMILES CCCCCCCCCCCCCC[C@H](C)C(=O)[O-]
REMARK SMILES IDX 9 1 10 2 11 3 12 4 13 5 14 6 15 7 16 8 17 9 18 10 19 11 8 12
REMARK SMILES IDX 7 13 6 14 5 15 4 16 3 17 2 18 1 19
REMARK H PARENT
REMARK Flexibility Score: inf
ROOT
ATOM      1  C   UNL     1     -23.284 -31.151  24.136  1.00  0.00     0.000 C 
ENDROOT
BRANCH   1   2
ATOM      2  C   UNL     1     -23.660 -29.772  24.709  1.00  0.00     0.000 C 
BRANCH   2   3
ATOM      3  C   UNL     1     -25.036 -29.763  25.398  1.00  0.00     0.000 C 
BRANCH   3   4
ATOM      4  C   UNL     1     -26.066 -28.904  24.646  1.00  0.00     0.000 C 
BRANCH   4   5
ATOM      5  C   UNL     1     -26.963 -29.736  23.715  1.00  0.00     0.001 C 
BRANCH   5   6
ATOM      6  C   UNL     1     -27.102 -31.177  24.231  1.00  0.00     0.009 C 
BRANCH   6   7
ATOM      7  C   UNL     1     -26.772 -32.219  23.142  1.00  0.00     0.032 C 
ATOM      8  C   UNL     1     -26.074 -31.554  21.951  1.00  0.00     0.014 C 
BRANCH   7   9
ATOM      9  C   UNL     1     -28.009 -32.937  22.674  1.00  0.00     0.044 C 
ATOM     10  O   UNL     1     -28.279 -34.093  23.098  1.00  0.00    -0.550 OA
ATOM     11  O   UNL     1     -28.864 -32.325  21.766  1.00  0.00    -0.550 OA
ENDBRANCH   7   9
ENDBRANCH   6   7
ENDBRANCH   5   6
ENDBRANCH   4   5
ENDBRANCH   3   4
ENDBRANCH   2   3
ENDBRANCH   1   2
BRANCH   1  12
ATOM     12  C   UNL     1     -22.322 -31.127  22.933  1.00  0.00     0.000 C 
BRANCH  12  13
ATOM     13  C   UNL     1     -21.368 -32.333  22.902  1.00  0.00    -0.000 C 
BRANCH  13  14
ATOM     14  C   UNL     1     -19.908 -31.953  23.213  1.00  0.00    -0.000 C 
BRANCH  14  15
ATOM     15  C   UNL     1     -19.723 -30.669  24.043  1.00  0.00    -0.000 C 
BRANCH  15  16
ATOM     16  C   UNL     1     -18.259 -30.199  24.109  1.00  0.00    -0.000 C 
BRANCH  16  17
ATOM     17  C   UNL     1     -17.280 -31.254  23.551  1.00  0.00    -0.000 C 
BRANCH  17  18
ATOM     18  C   UNL     1     -16.292 -30.694  22.514  1.00  0.00    -0.003 C 
ATOM     19  C   UNL     1     -16.677 -29.306  22.006  1.00  0.00     0.004 C 
ENDBRANCH  17  18
ENDBRANCH  16  17
ENDBRANCH  15  16
ENDBRANCH  14  15
ENDBRANCH  13  14
ENDBRANCH  12  13
ENDBRANCH   1  12
TORSDOF 14
ENDMDL
MODEL 9
REMARK VINA RESULT:    -5.878      3.364      7.905
REMARK INTER + INTRA:         -11.735
REMARK INTER:                  -9.775
REMARK INTRA:                  -1.960
REMARK UNBOUND:                -1.047
REMARK SMILES CCCCCCCCCCCCCC[C@H](C)C(=O)[O-]
REMARK SMILES IDX 9 1 10 2 11 3 12 4 13 5 14 6 15 7 16 8 17 9 18 10 19 11 8 12
REMARK SMILES IDX 7 13 6 14 5 15 4 16 3 17 2 18 1 19
REMARK H PARENT
REMARK Flexibility Score: inf
ROOT
ATOM      1  C   UNL     1     -25.021 -29.459  25.040  1.00  0.00     0.000 C 
ENDROOT
BRANCH   1   2
ATOM      2  C   UNL     1     -23.544 -29.851  24.844  1.00  0.00     0.000 C 
BRANCH   2   3
ATOM      3  C   UNL     1     -23.336 -31.372  24.736  1.00  0.00     0.000 C 
BRANCH   3   4
ATOM      4  C   UNL     1     -22.351 -31.754  23.620  1.00  0.00     0.000 C 
BRANCH   4   5
ATOM      5  C   UNL     1     -21.224 -30.723  23.446  1.00  0.00     0.001 C 
BRANCH   5   6
ATOM      6  C   UNL     1     -19.846 -31.382  23.614  1.00  0.00     0.009 C 
BRANCH   6   7
ATOM      7  C   UNL     1     -18.855 -30.474  24.372  1.00  0.00     0.032 C 
ATOM      8  C   UNL     1     -19.543 -29.181  24.822  1.00  0.00     0.014 C 
BRANCH   7   9
ATOM      9  C   UNL     1     -17.651 -30.149  23.530  1.00  0.00     0.044 C 
ATOM     10  O   UNL     1     -17.653 -29.145  22.769  1.00  0.00    -0.550 OA
ATOM     11  O   UNL     1     -16.525 -30.960  23.589  1.00  0.00    -0.550 OA
ENDBRANCH   7   9
ENDBRANCH   6   7
ENDBRANCH   5   6
ENDBRANCH   4   5
ENDBRANCH   3   4
ENDBRANCH   2   3
ENDBRANCH   1   2
BRANCH   1  12
ATOM     12  C   UNL     1     -25.634 -28.606  23.913  1.00  0.00     0.000 C 
BRANCH  12  13
ATOM     13  C   UNL     1     -26.702 -29.359  23.102  1.00  0.00    -0.000 C 
BRANCH  13  14
ATOM     14  C   UNL     1     -26.106 -30.434  22.173  1.00  0.00    -0.000 C 
BRANCH  14  15
ATOM     15  C   UNL     1     -26.791 -31.812  22.235  1.00  0.00    -0.000 C 
BRANCH  15  16
ATOM     16  C   UNL     1     -26.481 -32.582  23.532  1.00  0.00    -0.000 C 
BRANCH  16  17
ATOM     17  C   UNL     1     -27.695 -32.639  24.483  1.00  0.00    -0.000 C 
BRANCH  17  18
ATOM     18  C   UNL     1     -27.338 -32.388  25.958  1.00  0.00    -0.003 C 
ATOM     19  C   UNL     1     -26.054 -33.092  26.392  1.00  0.00     0.004 C 
ENDBRANCH  17  18
ENDBRANCH  16  17
ENDBRANCH  15  16
ENDBRANCH  14  15
ENDBRANCH  13  14
ENDBRANCH  12  13
ENDBRANCH   1  12
TORSDOF 14
ENDMDL
