MODEL 1
REMARK VINA RESULT:    -4.494      0.000      0.000
REMARK INTER + INTRA:          -6.838
REMARK INTER:                  -6.858
REMARK INTRA:                   0.020
REMARK UNBOUND:                 0.020
REMARK SMILES CC1=CCC[C@@H](C)C(=O)C[C@@H](C(C)C)C(=O)C1
REMARK SMILES IDX 8 1 9 2 6 3 7 4 5 5 4 6 3 7 2 8 1 9 10 11 11 12 15 13 16 14
REMARK SMILES IDX 17 15 12 17 13 18 14 19
REMARK H PARENT
REMARK Flexibility Score: 70.00
ROOT
ATOM      1  C   UNL     1      31.249  18.739  27.488  1.00  0.00     0.136 C 
ATOM      2  O   UNL     1      30.631  19.396  28.313  1.00  0.00    -0.299 OA
ENDROOT
BRANCH   1   3
ATOM      3  C   UNL     1      30.781  17.317  27.166  1.00  0.00     0.053 C 
ATOM      4  C   UNL     1      31.837  16.263  27.546  1.00  0.00     0.016 C 
BRANCH   3   5
ATOM      5  C   UNL     1      30.384  17.147  25.672  1.00  0.00     0.015 C 
BRANCH   5   6
ATOM      6  C   UNL     1      31.490  16.629  24.728  1.00  0.00     0.028 C 
BRANCH   6   7
ATOM      7  C   UNL     1      31.512  17.130  23.298  1.00  0.00    -0.028 C 
ATOM      8  C   UNL     1      32.181  18.202  22.805  1.00  0.00    -0.070 CG0
ATOM      9  C   UNL     1      32.188  18.390  21.308  1.00  0.00     0.039 C 
ATOM     10  G   UNL     1      32.830  19.281  23.658  1.00  0.00     0.000 G0
ENDBRANCH   6   7
ENDBRANCH   5   6
ENDBRANCH   3   5
ENDBRANCH   1   3
BRANCH   1  11
ATOM     11  C   UNL     1      32.398  19.427  26.759  1.00  0.00     0.087 C 
BRANCH  11  12
ATOM     12  C   UNL     1      31.975  20.595  25.831  1.00  0.00     0.066 C 
BRANCH  12  13
ATOM     13  C   UNL     1      31.815  20.156  24.384  1.00  0.00     0.140 C 
ATOM     14  O   UNL     1      30.862  20.594  23.754  1.00  0.00    -0.299 OA
BRANCH  13  15
ATOM     15  C   UNL     1      32.842  19.292  23.671  1.00  0.00     0.106 CG0
ATOM     16  G   UNL     1      32.171  18.217  22.831  1.00  0.00     0.000 G0
ENDBRANCH  13  15
ENDBRANCH  12  13
BRANCH  12  17
ATOM     17  C   UNL     1      32.950  21.814  25.923  1.00  0.00    -0.006 C 
ATOM     18  C   UNL     1      32.204  23.145  25.707  1.00  0.00     0.008 C 
ATOM     19  C   UNL     1      33.690  21.876  27.271  1.00  0.00     0.008 C 
ENDBRANCH  12  17
ENDBRANCH  11  12
ENDBRANCH   1  11
TORSDOF 1
ENDMDL
MODEL 2
REMARK VINA RESULT:    -4.486      2.019      4.960
REMARK INTER + INTRA:          -6.827
REMARK INTER:                  -7.018
REMARK INTRA:                   0.191
REMARK UNBOUND:                 0.020
REMARK SMILES CC1=CCC[C@@H](C)C(=O)C[C@@H](C(C)C)C(=O)C1
REMARK SMILES IDX 8 1 9 2 6 3 7 4 5 5 4 6 3 7 2 8 1 9 10 11 11 12 15 13 16 14
REMARK SMILES IDX 17 15 12 17 13 18 14 19
REMARK H PARENT
REMARK Flexibility Score: 70.00
ROOT
ATOM      1  C   UNL     1      30.885  17.500  24.881  1.00  0.00     0.136 C 
ATOM      2  O   UNL     1      29.689  17.320  25.065  1.00  0.00    -0.299 OA
ENDROOT
BRANCH   1   3
ATOM      3  C   UNL     1      31.352  18.089  23.547  1.00  0.00     0.053 C 
ATOM      4  C   UNL     1      32.100  17.053  22.689  1.00  0.00     0.016 C 
BRANCH   3   5
ATOM      5  C   UNL     1      32.240  19.353  23.735  1.00  0.00     0.015 C 
BRANCH   5   6
ATOM      6  C   UNL     1      31.638  20.485  24.594  1.00  0.00     0.028 C 
BRANCH   6   7
ATOM      7  C   UNL     1      32.543  21.209  25.571  1.00  0.00    -0.028 C 
ATOM      8  C   UNL     1      32.616  21.039  26.915  1.00  0.00    -0.070 CG0
ATOM      9  C   UNL     1      33.727  21.752  27.647  1.00  0.00     0.039 C 
ATOM     10  G   UNL     1      31.599  20.272  27.744  1.00  0.00     0.000 G0
ENDBRANCH   6   7
ENDBRANCH   5   6
ENDBRANCH   3   5
ENDBRANCH   1   3
BRANCH   1  11
ATOM     11  C   UNL     1      31.828  17.211  26.044  1.00  0.00     0.087 C 
BRANCH  11  12
ATOM     12  C   UNL     1      31.295  17.636  27.437  1.00  0.00     0.066 C 
BRANCH  12  13
ATOM     13  C   UNL     1      32.042  18.835  28.001  1.00  0.00     0.140 C 
ATOM     14  O   UNL     1      33.087  18.627  28.602  1.00  0.00    -0.299 OA
BRANCH  13  15
ATOM     15  C   UNL     1      31.599  20.267  27.754  1.00  0.00     0.106 CG0
ATOM     16  G   UNL     1      32.619  21.025  26.920  1.00  0.00     0.000 G0
ENDBRANCH  13  15
ENDBRANCH  12  13
BRANCH  12  17
ATOM     17  C   UNL     1      31.303  16.459  28.465  1.00  0.00    -0.006 C 
ATOM     18  C   UNL     1      30.124  15.498  28.224  1.00  0.00     0.008 C 
ATOM     19  C   UNL     1      32.614  15.652  28.426  1.00  0.00     0.008 C 
ENDBRANCH  12  17
ENDBRANCH  11  12
ENDBRANCH   1  11
TORSDOF 1
ENDMDL
MODEL 3
REMARK VINA RESULT:    -4.478      2.034      4.514
REMARK INTER + INTRA:          -6.814
REMARK INTER:                  -6.701
REMARK INTRA:                  -0.113
REMARK UNBOUND:                 0.020
REMARK SMILES CC1=CCC[C@@H](C)C(=O)C[C@@H](C(C)C)C(=O)C1
REMARK SMILES IDX 8 1 9 2 6 3 7 4 5 5 4 6 3 7 2 8 1 9 10 11 11 12 15 13 16 14
REMARK SMILES IDX 17 15 12 17 13 18 14 19
REMARK H PARENT
REMARK Flexibility Score: 70.00
ROOT
ATOM      1  C   UNL     1      32.227  20.997  25.611  1.00  0.00     0.136 C 
ATOM      2  O   UNL     1      31.978  21.896  24.820  1.00  0.00    -0.299 OA
ENDROOT
BRANCH   1   3
ATOM      3  C   UNL     1      32.184  21.294  27.113  1.00  0.00     0.053 C 
ATOM      4  C   UNL     1      33.582  21.224  27.754  1.00  0.00     0.016 C 
BRANCH   3   5
ATOM      5  C   UNL     1      31.209  20.352  27.876  1.00  0.00     0.015 C 
BRANCH   5   6
ATOM      6  C   UNL     1      31.840  19.104  28.528  1.00  0.00     0.028 C 
BRANCH   6   7
ATOM      7  C   UNL     1      31.064  17.801  28.493  1.00  0.00    -0.028 C 
ATOM      8  C   UNL     1      31.117  16.831  27.547  1.00  0.00    -0.070 CG0
ATOM      9  C   UNL     1      30.382  15.543  27.830  1.00  0.00     0.039 C 
ATOM     10  G   UNL     1      31.771  16.988  26.184  1.00  0.00     0.000 G0
ENDBRANCH   6   7
ENDBRANCH   5   6
ENDBRANCH   3   5
ENDBRANCH   1   3
BRANCH   1  11
ATOM     11  C   UNL     1      32.469  19.604  25.040  1.00  0.00     0.087 C 
BRANCH  11  12
ATOM     12  C   UNL     1      31.213  18.918  24.442  1.00  0.00     0.066 C 
BRANCH  12  13
ATOM     13  C   UNL     1      30.842  17.643  25.184  1.00  0.00     0.140 C 
ATOM     14  O   UNL     1      29.789  17.095  24.890  1.00  0.00    -0.299 OA
BRANCH  13  15
ATOM     15  C   UNL     1      31.772  16.978  26.185  1.00  0.00     0.106 CG0
ATOM     16  G   UNL     1      31.110  16.843  27.547  1.00  0.00     0.000 G0
ENDBRANCH  13  15
ENDBRANCH  12  13
BRANCH  12  17
ATOM     17  C   UNL     1      31.361  18.630  22.912  1.00  0.00    -0.006 C 
ATOM     18  C   UNL     1      31.638  19.925  22.124  1.00  0.00     0.008 C 
ATOM     19  C   UNL     1      32.480  17.618  22.608  1.00  0.00     0.008 C 
ENDBRANCH  12  17
ENDBRANCH  11  12
ENDBRANCH   1  11
TORSDOF 1
ENDMDL
MODEL 4
REMARK VINA RESULT:    -4.458      1.740      4.163
REMARK INTER + INTRA:          -6.783
REMARK INTER:                  -6.509
REMARK INTRA:                  -0.274
REMARK UNBOUND:                 0.020
REMARK SMILES CC1=CCC[C@@H](C)C(=O)C[C@@H](C(C)C)C(=O)C1
REMARK SMILES IDX 8 1 9 2 6 3 7 4 5 5 4 6 3 7 2 8 1 9 10 11 11 12 15 13 16 14
REMARK SMILES IDX 17 15 12 17 13 18 14 19
REMARK H PARENT
REMARK Flexibility Score: 70.00
ROOT
ATOM      1  C   UNL     1      30.486  17.124  25.882  1.00  0.00     0.136 C 
ATOM      2  O   UNL     1      29.489  16.423  25.988  1.00  0.00    -0.299 OA
ENDROOT
BRANCH   1   3
ATOM      3  C   UNL     1      31.563  17.055  26.969  1.00  0.00     0.053 C 
ATOM      4  C   UNL     1      31.747  15.625  27.508  1.00  0.00     0.016 C 
BRANCH   3   5
ATOM      5  C   UNL     1      31.279  18.028  28.149  1.00  0.00     0.015 C 
BRANCH   5   6
ATOM      6  C   UNL     1      30.668  19.394  27.772  1.00  0.00     0.028 C 
BRANCH   6   7
ATOM      7  C   UNL     1      31.601  20.573  27.576  1.00  0.00    -0.028 C 
ATOM      8  C   UNL     1      31.881  21.225  26.421  1.00  0.00    -0.070 CG0
ATOM      9  C   UNL     1      32.706  22.485  26.516  1.00  0.00     0.039 C 
ATOM     10  G   UNL     1      31.516  20.720  25.034  1.00  0.00     0.000 G0
ENDBRANCH   6   7
ENDBRANCH   5   6
ENDBRANCH   3   5
ENDBRANCH   1   3
BRANCH   1  11
ATOM     11  C   UNL     1      30.632  17.954  24.611  1.00  0.00     0.087 C 
BRANCH  11  12
ATOM     12  C   UNL     1      32.095  18.256  24.195  1.00  0.00     0.066 C 
BRANCH  12  13
ATOM     13  C   UNL     1      32.510  19.679  24.531  1.00  0.00     0.140 C 
ATOM     14  O   UNL     1      33.668  20.006  24.310  1.00  0.00    -0.299 OA
BRANCH  13  15
ATOM     15  C   UNL     1      31.524  20.726  25.022  1.00  0.00     0.106 CG0
ATOM     16  G   UNL     1      31.885  21.213  26.417  1.00  0.00     0.000 G0
ENDBRANCH  13  15
ENDBRANCH  12  13
BRANCH  12  17
ATOM     17  C   UNL     1      32.360  17.956  22.683  1.00  0.00    -0.006 C 
ATOM     18  C   UNL     1      31.916  16.529  22.310  1.00  0.00     0.008 C 
ATOM     19  C   UNL     1      31.648  18.955  21.752  1.00  0.00     0.008 C 
ENDBRANCH  12  17
ENDBRANCH  11  12
ENDBRANCH   1  11
TORSDOF 1
ENDMDL
MODEL 5
REMARK VINA RESULT:    -4.292     15.297     16.384
REMARK INTER + INTRA:          -6.530
REMARK INTER:                  -6.015
REMARK INTRA:                  -0.515
REMARK UNBOUND:                 0.020
REMARK SMILES CC1=CCC[C@@H](C)C(=O)C[C@@H](C(C)C)C(=O)C1
REMARK SMILES IDX 8 1 9 2 6 3 7 4 5 5 4 6 3 7 2 8 1 9 10 11 11 12 15 13 16 14
REMARK SMILES IDX 17 15 12 17 13 18 14 19
REMARK H PARENT
REMARK Flexibility Score: 70.00
ROOT
ATOM      1  C   UNL     1      17.464  24.573  26.803  1.00  0.00     0.136 C 
ATOM      2  O   UNL     1      17.108  24.629  25.634  1.00  0.00    -0.299 OA
ENDROOT
BRANCH   1   3
ATOM      3  C   UNL     1      17.873  23.220  27.394  1.00  0.00     0.053 C 
ATOM      4  C   UNL     1      19.096  22.624  26.675  1.00  0.00     0.016 C 
BRANCH   3   5
ATOM      5  C   UNL     1      16.705  22.192  27.385  1.00  0.00     0.015 C 
BRANCH   5   6
ATOM      6  C   UNL     1      15.717  22.275  28.566  1.00  0.00     0.028 C 
BRANCH   6   7
ATOM      7  C   UNL     1      16.275  22.466  29.963  1.00  0.00    -0.028 C 
ATOM      8  C   UNL     1      16.290  23.604  30.700  1.00  0.00    -0.070 CG0
ATOM      9  C   UNL     1      16.741  23.496  32.137  1.00  0.00     0.039 C 
ATOM     10  G   UNL     1      15.989  24.991  30.154  1.00  0.00     0.000 G0
ENDBRANCH   6   7
ENDBRANCH   5   6
ENDBRANCH   3   5
ENDBRANCH   1   3
BRANCH   1  11
ATOM     11  C   UNL     1      17.569  25.887  27.570  1.00  0.00     0.087 C 
BRANCH  11  12
ATOM     12  C   UNL     1      18.255  25.778  28.957  1.00  0.00     0.066 C 
BRANCH  12  13
ATOM     13  C   UNL     1      17.259  25.864  30.103  1.00  0.00     0.140 C 
ATOM     14  O   UNL     1      17.438  26.724  30.955  1.00  0.00    -0.299 OA
BRANCH  13  15
ATOM     15  C   UNL     1      16.009  25.002  30.169  1.00  0.00     0.106 CG0
ATOM     16  G   UNL     1      16.322  23.613  30.701  1.00  0.00     0.000 G0
ENDBRANCH  13  15
ENDBRANCH  12  13
BRANCH  12  17
ATOM     17  C   UNL     1      19.391  26.835  29.147  1.00  0.00    -0.006 C 
ATOM     18  C   UNL     1      20.777  26.224  28.867  1.00  0.00     0.008 C 
ATOM     19  C   UNL     1      19.204  28.069  28.245  1.00  0.00     0.008 C 
ENDBRANCH  12  17
ENDBRANCH  11  12
ENDBRANCH   1  11
TORSDOF 1
ENDMDL
MODEL 6
REMARK VINA RESULT:    -3.844     14.409     15.455
REMARK INTER + INTRA:          -5.846
REMARK INTER:                  -5.658
REMARK INTRA:                  -0.189
REMARK UNBOUND:                 0.020
REMARK SMILES CC1=CCC[C@@H](C)C(=O)C[C@@H](C(C)C)C(=O)C1
REMARK SMILES IDX 8 1 9 2 6 3 7 4 5 5 4 6 3 7 2 8 1 9 10 11 11 12 15 13 16 14
REMARK SMILES IDX 17 15 12 17 13 18 14 19
REMARK H PARENT
REMARK Flexibility Score: 70.00
ROOT
ATOM      1  C   UNL     1      19.978  24.363  27.278  1.00  0.00     0.136 C 
ATOM      2  O   UNL     1      21.175  24.321  27.526  1.00  0.00    -0.299 OA
ENDROOT
BRANCH   1   3
ATOM      3  C   UNL     1      19.280  23.102  26.760  1.00  0.00     0.053 C 
ATOM      4  C   UNL     1      20.097  22.403  25.658  1.00  0.00     0.016 C 
BRANCH   3   5
ATOM      5  C   UNL     1      17.841  23.390  26.244  1.00  0.00     0.015 C 
BRANCH   5   6
ATOM      6  C   UNL     1      16.694  22.688  27.000  1.00  0.00     0.028 C 
BRANCH   6   7
ATOM      7  C   UNL     1      16.755  22.634  28.514  1.00  0.00    -0.028 C 
ATOM      8  C   UNL     1      16.648  23.668  29.385  1.00  0.00    -0.070 CG0
ATOM      9  C   UNL     1      16.560  23.334  30.855  1.00  0.00     0.039 C 
ATOM     10  G   UNL     1      16.721  25.136  28.996  1.00  0.00     0.000 G0
ENDBRANCH   6   7
ENDBRANCH   5   6
ENDBRANCH   3   5
ENDBRANCH   1   3
BRANCH   1  11
ATOM     11  C   UNL     1      19.237  25.657  27.598  1.00  0.00     0.087 C 
BRANCH  11  12
ATOM     12  C   UNL     1      19.217  26.041  29.100  1.00  0.00     0.066 C 
BRANCH  12  13
ATOM     13  C   UNL     1      17.843  25.856  29.726  1.00  0.00     0.140 C 
ATOM     14  O   UNL     1      17.631  26.382  30.810  1.00  0.00    -0.299 OA
BRANCH  13  15
ATOM     15  C   UNL     1      16.707  25.143  29.012  1.00  0.00     0.106 CG0
ATOM     16  G   UNL     1      16.655  23.671  29.390  1.00  0.00     0.000 G0
ENDBRANCH  13  15
ENDBRANCH  12  13
BRANCH  12  17
ATOM     17  C   UNL     1      19.736  27.495  29.353  1.00  0.00    -0.006 C 
ATOM     18  C   UNL     1      21.274  27.535  29.421  1.00  0.00     0.008 C 
ATOM     19  C   UNL     1      19.263  28.484  28.272  1.00  0.00     0.008 C 
ENDBRANCH  12  17
ENDBRANCH  11  12
ENDBRANCH   1  11
TORSDOF 1
ENDMDL
MODEL 7
REMARK VINA RESULT:    -3.801     14.922     15.937
REMARK INTER + INTRA:          -5.781
REMARK INTER:                  -5.763
REMARK INTRA:                  -0.019
REMARK UNBOUND:                 0.020
REMARK SMILES CC1=CCC[C@@H](C)C(=O)C[C@@H](C(C)C)C(=O)C1
REMARK SMILES IDX 8 1 9 2 6 3 7 4 5 5 4 6 3 7 2 8 1 9 10 11 11 12 15 13 16 14
REMARK SMILES IDX 17 15 12 17 13 18 14 19
REMARK H PARENT
REMARK Flexibility Score: 70.00
ROOT
ATOM      1  C   UNL     1      19.679  25.123  27.723  1.00  0.00     0.136 C 
ATOM      2  O   UNL     1      20.778  25.543  28.057  1.00  0.00    -0.299 OA
ENDROOT
BRANCH   1   3
ATOM      3  C   UNL     1      19.581  23.761  27.030  1.00  0.00     0.053 C 
ATOM      4  C   UNL     1      20.910  23.355  26.367  1.00  0.00     0.016 C 
BRANCH   3   5
ATOM      5  C   UNL     1      18.434  23.710  25.980  1.00  0.00     0.015 C 
BRANCH   5   6
ATOM      6  C   UNL     1      17.076  23.175  26.482  1.00  0.00     0.028 C 
BRANCH   6   7
ATOM      7  C   UNL     1      17.025  22.491  27.834  1.00  0.00    -0.028 C 
ATOM      8  C   UNL     1      16.522  22.985  28.993  1.00  0.00    -0.070 CG0
ATOM      9  C   UNL     1      16.423  22.040  30.166  1.00  0.00     0.039 C 
ATOM     10  G   UNL     1      16.156  24.442  29.224  1.00  0.00     0.000 G0
ENDBRANCH   6   7
ENDBRANCH   5   6
ENDBRANCH   3   5
ENDBRANCH   1   3
BRANCH   1  11
ATOM     11  C   UNL     1      18.460  25.953  28.112  1.00  0.00     0.087 C 
BRANCH  11  12
ATOM     12  C   UNL     1      18.224  26.088  29.639  1.00  0.00     0.066 C 
BRANCH  12  13
ATOM     13  C   UNL     1      17.138  25.150  30.142  1.00  0.00     0.140 C 
ATOM     14  O   UNL     1      17.004  25.024  31.351  1.00  0.00    -0.299 OA
BRANCH  13  15
ATOM     15  C   UNL     1      16.156  24.458  29.210  1.00  0.00     0.106 CG0
ATOM     16  G   UNL     1      16.524  22.996  29.008  1.00  0.00     0.000 G0
ENDBRANCH  13  15
ENDBRANCH  12  13
BRANCH  12  17
ATOM     17  C   UNL     1      17.911  27.559  30.067  1.00  0.00    -0.006 C 
ATOM     18  C   UNL     1      18.787  28.564  29.296  1.00  0.00     0.008 C 
ATOM     19  C   UNL     1      16.432  27.930  29.859  1.00  0.00     0.008 C 
ENDBRANCH  12  17
ENDBRANCH  11  12
ENDBRANCH   1  11
TORSDOF 1
ENDMDL
MODEL 8
REMARK VINA RESULT:    -3.614     14.270     15.937
REMARK INTER + INTRA:          -5.496
REMARK INTER:                  -5.079
REMARK INTRA:                  -0.417
REMARK UNBOUND:                 0.020
REMARK SMILES CC1=CCC[C@@H](C)C(=O)C[C@@H](C(C)C)C(=O)C1
REMARK SMILES IDX 8 1 9 2 6 3 7 4 5 5 4 6 3 7 2 8 1 9 10 11 11 12 15 13 16 14
REMARK SMILES IDX 17 15 12 17 13 18 14 19
REMARK H PARENT
REMARK Flexibility Score: 70.00
ROOT
ATOM      1  C   UNL     1      20.111  25.751  28.256  1.00  0.00     0.136 C 
ATOM      2  O   UNL     1      19.662  24.983  27.417  1.00  0.00    -0.299 OA
ENDROOT
BRANCH   1   3
ATOM      3  C   UNL     1      21.543  26.271  28.099  1.00  0.00     0.053 C 
ATOM      4  C   UNL     1      22.333  25.475  27.045  1.00  0.00     0.016 C 
BRANCH   3   5
ATOM      5  C   UNL     1      22.322  26.277  29.445  1.00  0.00     0.015 C 
BRANCH   5   6
ATOM      6  C   UNL     1      22.701  27.663  30.006  1.00  0.00     0.028 C 
BRANCH   6   7
ATOM      7  C   UNL     1      22.082  28.893  29.371  1.00  0.00    -0.028 C 
ATOM      8  C   UNL     1      20.903  29.484  29.687  1.00  0.00    -0.070 CG0
ATOM      9  C   UNL     1      20.590  30.807  29.030  1.00  0.00     0.039 C 
ATOM     10  G   UNL     1      19.833  28.859  30.568  1.00  0.00     0.000 G0
ENDBRANCH   6   7
ENDBRANCH   5   6
ENDBRANCH   3   5
ENDBRANCH   1   3
BRANCH   1  11
ATOM     11  C   UNL     1      19.167  26.218  29.359  1.00  0.00     0.087 C 
BRANCH  11  12
ATOM     12  C   UNL     1      18.262  27.418  28.978  1.00  0.00     0.066 C 
BRANCH  12  13
ATOM     13  C   UNL     1      18.521  28.637  29.849  1.00  0.00     0.140 C 
ATOM     14  O   UNL     1      17.599  29.422  30.026  1.00  0.00    -0.299 OA
BRANCH  13  15
ATOM     15  C   UNL     1      19.833  28.855  30.585  1.00  0.00     0.106 CG0
ATOM     16  G   UNL     1      20.882  29.472  29.673  1.00  0.00     0.000 G0
ENDBRANCH  13  15
ENDBRANCH  12  13
BRANCH  12  17
ATOM     17  C   UNL     1      16.742  27.051  28.998  1.00  0.00    -0.006 C 
ATOM     18  C   UNL     1      16.279  26.512  27.631  1.00  0.00     0.008 C 
ATOM     19  C   UNL     1      16.403  26.010  30.080  1.00  0.00     0.008 C 
ENDBRANCH  12  17
ENDBRANCH  11  12
ENDBRANCH   1  11
TORSDOF 1
ENDMDL
MODEL 9
REMARK VINA RESULT:    -3.595     10.994     13.288
REMARK INTER + INTRA:          -5.466
REMARK INTER:                  -4.980
REMARK INTRA:                  -0.486
REMARK UNBOUND:                 0.020
REMARK SMILES CC1=CCC[C@@H](C)C(=O)C[C@@H](C(C)C)C(=O)C1
REMARK SMILES IDX 8 1 9 2 6 3 7 4 5 5 4 6 3 7 2 8 1 9 10 11 11 12 15 13 16 14
REMARK SMILES IDX 17 15 12 17 13 18 14 19
REMARK H PARENT
REMARK Flexibility Score: 70.00
ROOT
ATOM      1  C   UNL     1      27.116  28.563  29.053  1.00  0.00     0.136 C 
ATOM      2  O   UNL     1      26.932  27.380  29.305  1.00  0.00    -0.299 OA
ENDROOT
BRANCH   1   3
ATOM      3  C   UNL     1      27.249  29.002  27.592  1.00  0.00     0.053 C 
ATOM      4  C   UNL     1      26.156  28.384  26.703  1.00  0.00     0.016 C 
BRANCH   3   5
ATOM      5  C   UNL     1      28.651  28.678  27.001  1.00  0.00     0.015 C 
BRANCH   5   6
ATOM      6  C   UNL     1      29.850  29.388  27.666  1.00  0.00     0.028 C 
BRANCH   6   7
ATOM      7  C   UNL     1      29.975  30.891  27.513  1.00  0.00    -0.028 C 
ATOM      8  C   UNL     1      29.834  31.836  28.475  1.00  0.00    -0.070 CG0
ATOM      9  C   UNL     1      30.185  33.258  28.110  1.00  0.00     0.039 C 
ATOM     10  G   UNL     1      29.249  31.583  29.855  1.00  0.00     0.000 G0
ENDBRANCH   6   7
ENDBRANCH   5   6
ENDBRANCH   3   5
ENDBRANCH   1   3
BRANCH   1  11
ATOM     11  C   UNL     1      27.101  29.542  30.223  1.00  0.00     0.087 C 
BRANCH  11  12
ATOM     12  C   UNL     1      26.642  30.979  29.863  1.00  0.00     0.066 C 
BRANCH  12  13
ATOM     13  C   UNL     1      27.778  31.987  29.944  1.00  0.00     0.140 C 
ATOM     14  O   UNL     1      27.492  33.156  30.165  1.00  0.00    -0.299 OA
BRANCH  13  15
ATOM     15  C   UNL     1      29.240  31.581  29.871  1.00  0.00     0.106 CG0
ATOM     16  G   UNL     1      29.816  31.837  28.487  1.00  0.00     0.000 G0
ENDBRANCH  13  15
ENDBRANCH  12  13
BRANCH  12  17
ATOM     17  C   UNL     1      25.432  31.454  30.733  1.00  0.00    -0.006 C 
ATOM     18  C   UNL     1      24.131  31.491  29.909  1.00  0.00     0.008 C 
ATOM     19  C   UNL     1      25.210  30.564  31.969  1.00  0.00     0.008 C 
ENDBRANCH  12  17
ENDBRANCH  11  12
ENDBRANCH   1  11
TORSDOF 1
ENDMDL
