MODEL 1
REMARK VINA RESULT:    -4.107      0.000      0.000
REMARK INTER + INTRA:          -5.912
REMARK INTER:                  -5.548
REMARK INTRA:                  -0.364
REMARK UNBOUND:                -0.364
REMARK SMILES CCCCCCC=CC(=O)[O-]
REMARK SMILES IDX 5 1 6 2 7 3 8 4 9 5 10 6 11 7 4 8 3 9 2 10 1 11
REMARK H PARENT
REMARK Flexibility Score: inf
ROOT
ATOM      1  C   UNL     1      46.579  42.906  34.261  1.00  0.00     0.004 C 
ENDROOT
BRANCH   1   2
ATOM      2  C   UNL     1      46.374  44.300  33.647  1.00  0.00     0.027 C 
BRANCH   2   3
ATOM      3  C   UNL     1      47.594  44.785  32.906  1.00  0.00    -0.025 C 
ATOM      4  C   UNL     1      47.868  44.567  31.610  1.00  0.00     0.020 C 
BRANCH   4   5
ATOM      5  C   UNL     1      47.017  43.852  30.635  1.00  0.00     0.064 C 
ATOM      6  O   UNL     1      46.124  44.437  29.970  1.00  0.00    -0.545 OA
ATOM      7  O   UNL     1      47.230  42.495  30.428  1.00  0.00    -0.545 OA
ENDBRANCH   4   5
ENDBRANCH   2   3
ENDBRANCH   1   2
BRANCH   1   8
ATOM      8  C   UNL     1      47.592  42.930  35.419  1.00  0.00     0.000 C 
BRANCH   8   9
ATOM      9  C   UNL     1      46.924  42.840  36.802  1.00  0.00    -0.000 C 
BRANCH   9  10
ATOM     10  C   UNL     1      47.812  42.252  37.914  1.00  0.00    -0.003 C 
ATOM     11  C   UNL     1      48.681  41.092  37.433  1.00  0.00     0.004 C 
ENDBRANCH   9  10
ENDBRANCH   8   9
ENDBRANCH   1   8
TORSDOF 6
ENDMDL
MODEL 2
REMARK VINA RESULT:    -3.997      3.060      5.408
REMARK INTER + INTRA:          -5.763
REMARK INTER:                  -5.019
REMARK INTRA:                  -0.744
REMARK UNBOUND:                -0.364
REMARK SMILES CCCCCCC=CC(=O)[O-]
REMARK SMILES IDX 5 1 6 2 7 3 8 4 9 5 10 6 11 7 4 8 3 9 2 10 1 11
REMARK H PARENT
REMARK Flexibility Score: inf
ROOT
ATOM      1  C   UNL     1      47.869  44.797  31.859  1.00  0.00     0.004 C 
ENDROOT
BRANCH   1   2
ATOM      2  C   UNL     1      47.369  44.619  33.302  1.00  0.00     0.027 C 
BRANCH   2   3
ATOM      3  C   UNL     1      46.822  43.238  33.554  1.00  0.00    -0.025 C 
ATOM      4  C   UNL     1      45.658  42.949  34.159  1.00  0.00     0.020 C 
BRANCH   4   5
ATOM      5  C   UNL     1      44.658  43.916  34.659  1.00  0.00     0.064 C 
ATOM      6  O   UNL     1      44.335  43.976  35.873  1.00  0.00    -0.545 OA
ATOM      7  O   UNL     1      44.078  44.804  33.763  1.00  0.00    -0.545 OA
ENDBRANCH   4   5
ENDBRANCH   2   3
ENDBRANCH   1   2
BRANCH   1   8
ATOM      8  C   UNL     1      47.608  43.546  31.001  1.00  0.00     0.000 C 
BRANCH   8   9
ATOM      9  C   UNL     1      46.588  43.796  29.875  1.00  0.00    -0.000 C 
BRANCH   9  10
ATOM     10  C   UNL     1      45.182  44.202  30.353  1.00  0.00    -0.003 C 
ATOM     11  C   UNL     1      44.286  43.003  30.660  1.00  0.00     0.004 C 
ENDBRANCH   9  10
ENDBRANCH   8   9
ENDBRANCH   1   8
TORSDOF 6
ENDMDL
MODEL 3
REMARK VINA RESULT:    -3.942      2.990      4.788
REMARK INTER + INTRA:          -5.688
REMARK INTER:                  -4.942
REMARK INTRA:                  -0.746
REMARK UNBOUND:                -0.364
REMARK SMILES CCCCCCC=CC(=O)[O-]
REMARK SMILES IDX 5 1 6 2 7 3 8 4 9 5 10 6 11 7 4 8 3 9 2 10 1 11
REMARK H PARENT
REMARK Flexibility Score: inf
ROOT
ATOM      1  C   UNL     1      45.982  44.404  30.240  1.00  0.00     0.004 C 
ENDROOT
BRANCH   1   2
ATOM      2  C   UNL     1      47.360  43.891  30.688  1.00  0.00     0.027 C 
BRANCH   2   3
ATOM      3  C   UNL     1      48.017  44.810  31.685  1.00  0.00    -0.025 C 
ATOM      4  C   UNL     1      47.699  44.920  32.985  1.00  0.00     0.020 C 
BRANCH   4   5
ATOM      5  C   UNL     1      46.678  44.138  33.714  1.00  0.00     0.064 C 
ATOM      6  O   UNL     1      45.555  44.620  34.013  1.00  0.00    -0.545 OA
ATOM      7  O   UNL     1      46.958  42.822  34.055  1.00  0.00    -0.545 OA
ENDBRANCH   4   5
ENDBRANCH   2   3
ENDBRANCH   1   2
BRANCH   1   8
ATOM      8  C   UNL     1      44.978  43.256  30.036  1.00  0.00     0.000 C 
BRANCH   8   9
ATOM      9  C   UNL     1      45.464  41.923  30.634  1.00  0.00    -0.000 C 
BRANCH   9  10
ATOM     10  C   UNL     1      44.611  41.386  31.798  1.00  0.00    -0.003 C 
ATOM     11  C   UNL     1      43.544  42.374  32.263  1.00  0.00     0.004 C 
ENDBRANCH   9  10
ENDBRANCH   8   9
ENDBRANCH   1   8
TORSDOF 6
ENDMDL
MODEL 4
REMARK VINA RESULT:    -3.905      3.475      5.930
REMARK INTER + INTRA:          -5.638
REMARK INTER:                  -5.306
REMARK INTRA:                  -0.332
REMARK UNBOUND:                -0.364
REMARK SMILES CCCCCCC=CC(=O)[O-]
REMARK SMILES IDX 5 1 6 2 7 3 8 4 9 5 10 6 11 7 4 8 3 9 2 10 1 11
REMARK H PARENT
REMARK Flexibility Score: inf
ROOT
ATOM      1  C   UNL     1      46.296  43.172  33.444  1.00  0.00     0.004 C 
ENDROOT
BRANCH   1   2
ATOM      2  C   UNL     1      46.534  42.241  34.643  1.00  0.00     0.027 C 
BRANCH   2   3
ATOM      3  C   UNL     1      47.477  42.838  35.656  1.00  0.00    -0.025 C 
ATOM      4  C   UNL     1      48.012  42.198  36.709  1.00  0.00     0.020 C 
BRANCH   4   5
ATOM      5  C   UNL     1      47.825  40.776  37.066  1.00  0.00     0.064 C 
ATOM      6  O   UNL     1      48.776  39.952  37.050  1.00  0.00    -0.545 OA
ATOM      7  O   UNL     1      46.565  40.342  37.457  1.00  0.00    -0.545 OA
ENDBRANCH   4   5
ENDBRANCH   2   3
ENDBRANCH   1   2
BRANCH   1   8
ATOM      8  C   UNL     1      47.254  44.377  33.452  1.00  0.00     0.000 C 
BRANCH   8   9
ATOM      9  C   UNL     1      47.707  44.791  32.041  1.00  0.00    -0.000 C 
BRANCH   9  10
ATOM     10  C   UNL     1      46.655  44.582  30.935  1.00  0.00    -0.003 C 
ATOM     11  C   UNL     1      47.095  43.574  29.875  1.00  0.00     0.004 C 
ENDBRANCH   9  10
ENDBRANCH   8   9
ENDBRANCH   1   8
TORSDOF 6
ENDMDL
MODEL 5
REMARK VINA RESULT:    -3.840      3.868      6.221
REMARK INTER + INTRA:          -5.550
REMARK INTER:                  -5.191
REMARK INTRA:                  -0.359
REMARK UNBOUND:                -0.364
REMARK SMILES CCCCCCC=CC(=O)[O-]
REMARK SMILES IDX 5 1 6 2 7 3 8 4 9 5 10 6 11 7 4 8 3 9 2 10 1 11
REMARK H PARENT
REMARK Flexibility Score: inf
ROOT
ATOM      1  C   UNL     1      46.546  42.447  34.827  1.00  0.00     0.004 C 
ENDROOT
BRANCH   1   2
ATOM      2  C   UNL     1      47.664  42.954  35.753  1.00  0.00     0.027 C 
BRANCH   2   3
ATOM      3  C   UNL     1      48.119  41.903  36.732  1.00  0.00    -0.025 C 
ATOM      4  C   UNL     1      47.906  41.916  38.059  1.00  0.00     0.020 C 
BRANCH   4   5
ATOM      5  C   UNL     1      47.150  42.931  38.822  1.00  0.00     0.064 C 
ATOM      6  O   UNL     1      45.892  42.950  38.846  1.00  0.00    -0.545 OA
ATOM      7  O   UNL     1      47.852  43.876  39.559  1.00  0.00    -0.545 OA
ENDBRANCH   4   5
ENDBRANCH   2   3
ENDBRANCH   1   2
BRANCH   1   8
ATOM      8  C   UNL     1      46.603  43.109  33.440  1.00  0.00     0.000 C 
BRANCH   8   9
ATOM      9  C   UNL     1      47.263  44.500  33.467  1.00  0.00    -0.000 C 
BRANCH   9  10
ATOM     10  C   UNL     1      47.941  44.921  32.150  1.00  0.00    -0.003 C 
ATOM     11  C   UNL     1      47.568  44.023  30.972  1.00  0.00     0.004 C 
ENDBRANCH   9  10
ENDBRANCH   8   9
ENDBRANCH   1   8
TORSDOF 6
ENDMDL
MODEL 6
REMARK VINA RESULT:    -3.810      4.370      6.741
REMARK INTER + INTRA:          -5.510
REMARK INTER:                  -5.180
REMARK INTRA:                  -0.330
REMARK UNBOUND:                -0.364
REMARK SMILES CCCCCCC=CC(=O)[O-]
REMARK SMILES IDX 5 1 6 2 7 3 8 4 9 5 10 6 11 7 4 8 3 9 2 10 1 11
REMARK H PARENT
REMARK Flexibility Score: inf
ROOT
ATOM      1  C   UNL     1      47.563  43.239  35.705  1.00  0.00     0.004 C 
ENDROOT
BRANCH   1   2
ATOM      2  C   UNL     1      47.654  42.529  37.066  1.00  0.00     0.027 C 
BRANCH   2   3
ATOM      3  C   UNL     1      48.507  41.289  37.011  1.00  0.00    -0.025 C 
ATOM      4  C   UNL     1      48.730  40.439  38.027  1.00  0.00     0.020 C 
BRANCH   4   5
ATOM      5  C   UNL     1      48.154  40.516  39.386  1.00  0.00     0.064 C 
ATOM      6  O   UNL     1      48.784  41.021  40.351  1.00  0.00    -0.545 OA
ATOM      7  O   UNL     1      46.867  40.041  39.597  1.00  0.00    -0.545 OA
ENDBRANCH   4   5
ENDBRANCH   2   3
ENDBRANCH   1   2
BRANCH   1   8
ATOM      8  C   UNL     1      46.846  42.376  34.652  1.00  0.00     0.000 C 
BRANCH   8   9
ATOM      9  C   UNL     1      46.668  43.101  33.306  1.00  0.00    -0.000 C 
BRANCH   9  10
ATOM     10  C   UNL     1      47.306  44.500  33.234  1.00  0.00    -0.003 C 
ATOM     11  C   UNL     1      47.993  44.775  31.898  1.00  0.00     0.004 C 
ENDBRANCH   9  10
ENDBRANCH   8   9
ENDBRANCH   1   8
TORSDOF 6
ENDMDL
MODEL 7
REMARK VINA RESULT:    -3.801      3.763      6.212
REMARK INTER + INTRA:          -5.498
REMARK INTER:                  -5.228
REMARK INTRA:                  -0.270
REMARK UNBOUND:                -0.364
REMARK SMILES CCCCCCC=CC(=O)[O-]
REMARK SMILES IDX 5 1 6 2 7 3 8 4 9 5 10 6 11 7 4 8 3 9 2 10 1 11
REMARK H PARENT
REMARK Flexibility Score: inf
ROOT
ATOM      1  C   UNL     1      46.883  43.299  33.648  1.00  0.00     0.004 C 
ENDROOT
BRANCH   1   2
ATOM      2  C   UNL     1      47.253  42.982  35.106  1.00  0.00     0.027 C 
BRANCH   2   3
ATOM      3  C   UNL     1      46.073  43.097  36.036  1.00  0.00    -0.025 C 
ATOM      4  C   UNL     1      46.106  42.967  37.372  1.00  0.00     0.020 C 
BRANCH   4   5
ATOM      5  C   UNL     1      47.303  42.730  38.207  1.00  0.00     0.064 C 
ATOM      6  O   UNL     1      47.919  43.669  38.775  1.00  0.00    -0.545 OA
ATOM      7  O   UNL     1      47.745  41.427  38.392  1.00  0.00    -0.545 OA
ENDBRANCH   4   5
ENDBRANCH   2   3
ENDBRANCH   1   2
BRANCH   1   8
ATOM      8  C   UNL     1      47.383  44.689  33.216  1.00  0.00     0.000 C 
BRANCH   8   9
ATOM      9  C   UNL     1      47.935  44.707  31.780  1.00  0.00    -0.000 C 
BRANCH   9  10
ATOM     10  C   UNL     1      46.874  44.546  30.676  1.00  0.00    -0.003 C 
ATOM     11  C   UNL     1      47.022  43.245  29.890  1.00  0.00     0.004 C 
ENDBRANCH   9  10
ENDBRANCH   8   9
ENDBRANCH   1   8
TORSDOF 6
ENDMDL
MODEL 8
REMARK VINA RESULT:    -3.749      2.165      3.339
REMARK INTER + INTRA:          -5.428
REMARK INTER:                  -4.918
REMARK INTRA:                  -0.510
REMARK UNBOUND:                -0.364
REMARK SMILES CCCCCCC=CC(=O)[O-]
REMARK SMILES IDX 5 1 6 2 7 3 8 4 9 5 10 6 11 7 4 8 3 9 2 10 1 11
REMARK H PARENT
REMARK Flexibility Score: inf
ROOT
ATOM      1  C   UNL     1      46.767  42.981  37.610  1.00  0.00     0.004 C 
ENDROOT
BRANCH   1   2
ATOM      2  C   UNL     1      47.707  42.887  36.397  1.00  0.00     0.027 C 
BRANCH   2   3
ATOM      3  C   UNL     1      47.101  42.105  35.260  1.00  0.00    -0.025 C 
ATOM      4  C   UNL     1      46.562  42.625  34.145  1.00  0.00     0.020 C 
BRANCH   4   5
ATOM      5  C   UNL     1      46.491  44.056  33.782  1.00  0.00     0.064 C 
ATOM      6  O   UNL     1      47.459  44.659  33.249  1.00  0.00    -0.545 OA
ATOM      7  O   UNL     1      45.310  44.749  34.011  1.00  0.00    -0.545 OA
ENDBRANCH   4   5
ENDBRANCH   2   3
ENDBRANCH   1   2
BRANCH   1   8
ATOM      8  C   UNL     1      47.543  43.072  38.935  1.00  0.00     0.000 C 
BRANCH   8   9
ATOM      9  C   UNL     1      47.516  41.758  39.735  1.00  0.00    -0.000 C 
BRANCH   9  10
ATOM     10  C   UNL     1      48.653  40.773  39.404  1.00  0.00    -0.003 C 
ATOM     11  C   UNL     1      48.235  39.691  38.410  1.00  0.00     0.004 C 
ENDBRANCH   9  10
ENDBRANCH   8   9
ENDBRANCH   1   8
TORSDOF 6
ENDMDL
MODEL 9
REMARK VINA RESULT:    -3.687      1.319      1.703
REMARK INTER + INTRA:          -5.344
REMARK INTER:                  -5.050
REMARK INTRA:                  -0.294
REMARK UNBOUND:                -0.364
REMARK SMILES CCCCCCC=CC(=O)[O-]
REMARK SMILES IDX 5 1 6 2 7 3 8 4 9 5 10 6 11 7 4 8 3 9 2 10 1 11
REMARK H PARENT
REMARK Flexibility Score: inf
ROOT
ATOM      1  C   UNL     1      46.903  42.005  35.366  1.00  0.00     0.004 C 
ENDROOT
BRANCH   1   2
ATOM      2  C   UNL     1      47.250  43.378  34.767  1.00  0.00     0.027 C 
BRANCH   2   3
ATOM      3  C   UNL     1      46.117  43.953  33.957  1.00  0.00    -0.025 C 
ATOM      4  C   UNL     1      46.168  44.289  32.657  1.00  0.00     0.020 C 
BRANCH   4   5
ATOM      5  C   UNL     1      47.321  44.124  31.747  1.00  0.00     0.064 C 
ATOM      6  O   UNL     1      48.247  44.973  31.678  1.00  0.00    -0.545 OA
ATOM      7  O   UNL     1      47.397  42.981  30.962  1.00  0.00    -0.545 OA
ENDBRANCH   4   5
ENDBRANCH   2   3
ENDBRANCH   1   2
BRANCH   1   8
ATOM      8  C   UNL     1      47.781  41.671  36.585  1.00  0.00     0.000 C 
BRANCH   8   9
ATOM      9  C   UNL     1      47.724  42.753  37.678  1.00  0.00    -0.000 C 
BRANCH   9  10
ATOM     10  C   UNL     1      47.774  42.219  39.122  1.00  0.00    -0.003 C 
ATOM     11  C   UNL     1      48.538  40.902  39.245  1.00  0.00     0.004 C 
ENDBRANCH   9  10
ENDBRANCH   8   9
ENDBRANCH   1   8
TORSDOF 6
ENDMDL
