MODEL 1
REMARK VINA RESULT:    -3.856      0.000      0.000
REMARK INTER + INTRA:         -12.051
REMARK INTER:                  -8.364
REMARK INTRA:                  -3.686
REMARK UNBOUND:                -3.686
REMARK SMILES CCCCCCCCCCCCCCCCCCCCCC(=O)[O-]
REMARK SMILES IDX 12 1 11 2 10 3 9 4 8 5 7 6 6 7 5 8 4 9 3 10 2 11 1 12 13 13
REMARK SMILES IDX 14 14 15 15 16 16 17 17 18 18 19 19 20 20 21 21 22 22 23 23
REMARK SMILES IDX 24 24
REMARK H PARENT
REMARK Flexibility Score: inf
ROOT
ATOM      1  C   UNL     1      -2.894  39.064  23.289  1.00  0.00     0.000 C 
ENDROOT
BRANCH   1   2
ATOM      2  C   UNL     1      -3.754  39.533  24.477  1.00  0.00     0.000 C 
BRANCH   2   3
ATOM      3  C   UNL     1      -5.250  39.626  24.128  1.00  0.00     0.000 C 
BRANCH   3   4
ATOM      4  C   UNL     1      -5.625  40.815  23.225  1.00  0.00    -0.000 C 
BRANCH   4   5
ATOM      5  C   UNL     1      -5.955  40.389  21.786  1.00  0.00    -0.000 C 
BRANCH   5   6
ATOM      6  C   UNL     1      -7.287  39.628  21.728  1.00  0.00    -0.000 C 
BRANCH   6   7
ATOM      7  C   UNL     1      -7.463  38.832  20.423  1.00  0.00    -0.000 C 
BRANCH   7   8
ATOM      8  C   UNL     1      -6.242  38.843  19.485  1.00  0.00    -0.000 C 
BRANCH   8   9
ATOM      9  C   UNL     1      -5.466  37.513  19.405  1.00  0.00    -0.000 C 
BRANCH   9  10
ATOM     10  C   UNL     1      -4.152  37.475  20.207  1.00  0.00    -0.000 C 
BRANCH  10  11
ATOM     11  C   UNL     1      -4.125  36.348  21.248  1.00  0.00    -0.003 C 
ATOM     12  C   UNL     1      -5.265  36.501  22.250  1.00  0.00     0.004 C 
ENDBRANCH  10  11
ENDBRANCH   9  10
ENDBRANCH   8   9
ENDBRANCH   7   8
ENDBRANCH   6   7
ENDBRANCH   5   6
ENDBRANCH   4   5
ENDBRANCH   3   4
ENDBRANCH   2   3
ENDBRANCH   1   2
BRANCH   1  13
ATOM     13  C   UNL     1      -1.841  40.107  22.864  1.00  0.00     0.000 C 
BRANCH  13  14
ATOM     14  C   UNL     1      -2.251  40.965  21.652  1.00  0.00     0.000 C 
BRANCH  14  15
ATOM     15  C   UNL     1      -2.083  40.294  20.278  1.00  0.00     0.000 C 
BRANCH  15  16
ATOM     16  C   UNL     1      -2.928  40.899  19.138  1.00  0.00     0.000 C 
BRANCH  16  17
ATOM     17  C   UNL     1      -3.001  40.050  17.858  1.00  0.00     0.000 C 
BRANCH  17  18
ATOM     18  C   UNL     1      -1.824  39.071  17.725  1.00  0.00     0.000 C 
BRANCH  18  19
ATOM     19  C   UNL     1      -1.882  38.228  16.437  1.00  0.00     0.000 C 
BRANCH  19  20
ATOM     20  C   UNL     1      -2.528  36.839  16.587  1.00  0.00     0.006 C 
BRANCH  20  21
ATOM     21  C   UNL     1      -1.895  36.001  17.706  1.00  0.00     0.053 C 
BRANCH  21  22
ATOM     22  C   UNL     1      -1.104  34.870  17.130  1.00  0.00     0.041 C 
ATOM     23  O   UNL     1      -0.080  35.103  16.433  1.00  0.00    -0.550 OA
ATOM     24  O   UNL     1      -1.490  33.555  17.375  1.00  0.00    -0.550 OA
ENDBRANCH  21  22
ENDBRANCH  20  21
ENDBRANCH  19  20
ENDBRANCH  18  19
ENDBRANCH  17  18
ENDBRANCH  16  17
ENDBRANCH  15  16
ENDBRANCH  14  15
ENDBRANCH  13  14
ENDBRANCH   1  13
TORSDOF 20
ENDMDL
MODEL 2
REMARK VINA RESULT:    -3.832      2.568      6.338
REMARK INTER + INTRA:         -12.000
REMARK INTER:                  -8.695
REMARK INTRA:                  -3.305
REMARK UNBOUND:                -3.686
REMARK SMILES CCCCCCCCCCCCCCCCCCCCCC(=O)[O-]
REMARK SMILES IDX 12 1 11 2 10 3 9 4 8 5 7 6 6 7 5 8 4 9 3 10 2 11 1 12 13 13
REMARK SMILES IDX 14 14 15 15 16 16 17 17 18 18 19 19 20 20 21 21 22 22 23 23
REMARK SMILES IDX 24 24
REMARK H PARENT
REMARK Flexibility Score: inf
ROOT
ATOM      1  C   UNL     1      -1.618  38.567  19.927  1.00  0.00     0.000 C 
ENDROOT
BRANCH   1   2
ATOM      2  C   UNL     1      -1.974  40.034  20.227  1.00  0.00     0.000 C 
BRANCH   2   3
ATOM      3  C   UNL     1      -0.982  41.027  19.595  1.00  0.00     0.000 C 
BRANCH   3   4
ATOM      4  C   UNL     1      -1.007  41.065  18.056  1.00  0.00    -0.000 C 
BRANCH   4   5
ATOM      5  C   UNL     1       0.397  41.006  17.436  1.00  0.00    -0.000 C 
BRANCH   5   6
ATOM      6  C   UNL     1       0.403  40.143  16.166  1.00  0.00    -0.000 C 
BRANCH   6   7
ATOM      7  C   UNL     1      -0.672  39.042  16.187  1.00  0.00    -0.000 C 
BRANCH   7   8
ATOM      8  C   UNL     1      -0.187  37.669  16.685  1.00  0.00    -0.000 C 
BRANCH   8   9
ATOM      9  C   UNL     1      -1.118  36.485  16.353  1.00  0.00    -0.000 C 
BRANCH   9  10
ATOM     10  C   UNL     1      -0.501  35.091  16.566  1.00  0.00    -0.000 C 
BRANCH  10  11
ATOM     11  C   UNL     1      -1.463  34.116  17.258  1.00  0.00    -0.003 C 
ATOM     12  C   UNL     1      -0.838  32.732  17.393  1.00  0.00     0.004 C 
ENDBRANCH  10  11
ENDBRANCH   9  10
ENDBRANCH   8   9
ENDBRANCH   7   8
ENDBRANCH   6   7
ENDBRANCH   5   6
ENDBRANCH   4   5
ENDBRANCH   3   4
ENDBRANCH   2   3
ENDBRANCH   1   2
BRANCH   1  13
ATOM     13  C   UNL     1      -2.821  37.755  19.403  1.00  0.00     0.000 C 
BRANCH  13  14
ATOM     14  C   UNL     1      -3.672  38.491  18.351  1.00  0.00     0.000 C 
BRANCH  14  15
ATOM     15  C   UNL     1      -4.981  37.787  17.949  1.00  0.00     0.000 C 
BRANCH  15  16
ATOM     16  C   UNL     1      -5.972  37.525  19.101  1.00  0.00     0.000 C 
BRANCH  16  17
ATOM     17  C   UNL     1      -7.063  38.593  19.280  1.00  0.00     0.000 C 
BRANCH  17  18
ATOM     18  C   UNL     1      -7.044  39.235  20.677  1.00  0.00     0.000 C 
BRANCH  18  19
ATOM     19  C   UNL     1      -5.862  40.201  20.881  1.00  0.00     0.000 C 
BRANCH  19  20
ATOM     20  C   UNL     1      -5.104  40.043  22.211  1.00  0.00     0.006 C 
BRANCH  20  21
ATOM     21  C   UNL     1      -5.408  38.717  22.920  1.00  0.00     0.053 C 
BRANCH  21  22
ATOM     22  C   UNL     1      -4.248  37.781  22.799  1.00  0.00     0.041 C 
ATOM     23  O   UNL     1      -4.413  36.625  22.323  1.00  0.00    -0.550 OA
ATOM     24  O   UNL     1      -2.978  38.189  23.200  1.00  0.00    -0.550 OA
ENDBRANCH  21  22
ENDBRANCH  20  21
ENDBRANCH  19  20
ENDBRANCH  18  19
ENDBRANCH  17  18
ENDBRANCH  16  17
ENDBRANCH  15  16
ENDBRANCH  14  15
ENDBRANCH  13  14
ENDBRANCH   1  13
TORSDOF 20
ENDMDL
MODEL 3
REMARK VINA RESULT:    -3.792      5.579      8.746
REMARK INTER + INTRA:         -11.913
REMARK INTER:                 -10.421
REMARK INTRA:                  -1.492
REMARK UNBOUND:                -3.686
REMARK SMILES CCCCCCCCCCCCCCCCCCCCCC(=O)[O-]
REMARK SMILES IDX 12 1 11 2 10 3 9 4 8 5 7 6 6 7 5 8 4 9 3 10 2 11 1 12 13 13
REMARK SMILES IDX 14 14 15 15 16 16 17 17 18 18 19 19 20 20 21 21 22 22 23 23
REMARK SMILES IDX 24 24
REMARK H PARENT
REMARK Flexibility Score: inf
ROOT
ATOM      1  C   UNL     1      -1.481  34.182  17.362  1.00  0.00     0.000 C 
ENDROOT
BRANCH   1   2
ATOM      2  C   UNL     1      -0.925  35.367  16.552  1.00  0.00     0.000 C 
BRANCH   2   3
ATOM      3  C   UNL     1      -1.604  36.701  16.907  1.00  0.00     0.000 C 
BRANCH   3   4
ATOM      4  C   UNL     1      -0.976  37.442  18.102  1.00  0.00    -0.000 C 
BRANCH   4   5
ATOM      5  C   UNL     1      -1.992  37.749  19.213  1.00  0.00    -0.000 C 
BRANCH   5   6
ATOM      6  C   UNL     1      -3.398  37.273  18.821  1.00  0.00    -0.000 C 
BRANCH   6   7
ATOM      7  C   UNL     1      -4.389  38.434  18.627  1.00  0.00    -0.000 C 
BRANCH   7   8
ATOM      8  C   UNL     1      -5.830  38.141  19.080  1.00  0.00    -0.000 C 
BRANCH   8   9
ATOM      9  C   UNL     1      -5.955  37.233  20.321  1.00  0.00    -0.000 C 
BRANCH   9  10
ATOM     10  C   UNL     1      -5.814  37.954  21.674  1.00  0.00    -0.000 C 
BRANCH  10  11
ATOM     11  C   UNL     1      -4.557  37.528  22.445  1.00  0.00    -0.003 C 
ATOM     12  C   UNL     1      -4.236  36.058  22.199  1.00  0.00     0.004 C 
ENDBRANCH  10  11
ENDBRANCH   9  10
ENDBRANCH   8   9
ENDBRANCH   7   8
ENDBRANCH   6   7
ENDBRANCH   5   6
ENDBRANCH   4   5
ENDBRANCH   3   4
ENDBRANCH   2   3
ENDBRANCH   1   2
BRANCH   1  13
ATOM     13  C   UNL     1      -0.415  33.109  17.662  1.00  0.00     0.000 C 
BRANCH  13  14
ATOM     14  C   UNL     1      -0.380  31.948  16.650  1.00  0.00     0.000 C 
BRANCH  14  15
ATOM     15  C   UNL     1       0.619  30.822  16.968  1.00  0.00     0.000 C 
BRANCH  15  16
ATOM     16  C   UNL     1      -0.010  29.458  17.318  1.00  0.00     0.000 C 
BRANCH  16  17
ATOM     17  C   UNL     1       0.507  28.268  16.492  1.00  0.00     0.000 C 
BRANCH  17  18
ATOM     18  C   UNL     1      -0.402  27.033  16.593  1.00  0.00     0.000 C 
BRANCH  18  19
ATOM     19  C   UNL     1       0.382  25.719  16.763  1.00  0.00     0.000 C 
BRANCH  19  20
ATOM     20  C   UNL     1       0.783  25.373  18.208  1.00  0.00     0.006 C 
BRANCH  20  21
ATOM     21  C   UNL     1      -0.281  25.775  19.238  1.00  0.00     0.053 C 
BRANCH  21  22
ATOM     22  C   UNL     1       0.122  25.329  20.608  1.00  0.00     0.041 C 
ATOM     23  O   UNL     1       1.336  25.119  20.874  1.00  0.00    -0.550 OA
ATOM     24  O   UNL     1      -0.843  25.160  21.597  1.00  0.00    -0.550 OA
ENDBRANCH  21  22
ENDBRANCH  20  21
ENDBRANCH  19  20
ENDBRANCH  18  19
ENDBRANCH  17  18
ENDBRANCH  16  17
ENDBRANCH  15  16
ENDBRANCH  14  15
ENDBRANCH  13  14
ENDBRANCH   1  13
TORSDOF 20
ENDMDL
MODEL 4
REMARK VINA RESULT:    -3.782      5.458      9.616
REMARK INTER + INTRA:         -11.891
REMARK INTER:                 -10.728
REMARK INTRA:                  -1.163
REMARK UNBOUND:                -3.686
REMARK SMILES CCCCCCCCCCCCCCCCCCCCCC(=O)[O-]
REMARK SMILES IDX 12 1 11 2 10 3 9 4 8 5 7 6 6 7 5 8 4 9 3 10 2 11 1 12 13 13
REMARK SMILES IDX 14 14 15 15 16 16 17 17 18 18 19 19 20 20 21 21 22 22 23 23
REMARK SMILES IDX 24 24
REMARK H PARENT
REMARK Flexibility Score: inf
ROOT
ATOM      1  C   UNL     1      -1.451  34.426  17.301  1.00  0.00     0.000 C 
ENDROOT
BRANCH   1   2
ATOM      2  C   UNL     1      -0.417  33.289  17.205  1.00  0.00     0.000 C 
BRANCH   2   3
ATOM      3  C   UNL     1      -0.746  32.108  18.135  1.00  0.00     0.000 C 
BRANCH   3   4
ATOM      4  C   UNL     1      -0.604  30.720  17.484  1.00  0.00    -0.000 C 
BRANCH   4   5
ATOM      5  C   UNL     1       0.789  30.485  16.881  1.00  0.00    -0.000 C 
BRANCH   5   6
ATOM      6  C   UNL     1       0.988  29.008  16.513  1.00  0.00    -0.000 C 
BRANCH   6   7
ATOM      7  C   UNL     1      -0.149  28.106  17.025  1.00  0.00    -0.000 C 
BRANCH   7   8
ATOM      8  C   UNL     1       0.282  26.688  17.439  1.00  0.00    -0.000 C 
BRANCH   8   9
ATOM      9  C   UNL     1      -0.406  26.138  18.705  1.00  0.00    -0.000 C 
BRANCH   9  10
ATOM     10  C   UNL     1       0.523  25.393  19.681  1.00  0.00    -0.000 C 
BRANCH  10  11
ATOM     11  C   UNL     1      -0.240  24.717  20.828  1.00  0.00    -0.003 C 
ATOM     12  C   UNL     1      -1.238  25.679  21.463  1.00  0.00     0.004 C 
ENDBRANCH  10  11
ENDBRANCH   9  10
ENDBRANCH   8   9
ENDBRANCH   7   8
ENDBRANCH   6   7
ENDBRANCH   5   6
ENDBRANCH   4   5
ENDBRANCH   3   4
ENDBRANCH   2   3
ENDBRANCH   1   2
BRANCH   1  13
ATOM     13  C   UNL     1      -1.371  35.409  16.115  1.00  0.00     0.000 C 
BRANCH  13  14
ATOM     14  C   UNL     1      -1.467  36.894  16.515  1.00  0.00     0.000 C 
BRANCH  14  15
ATOM     15  C   UNL     1      -1.325  37.185  18.019  1.00  0.00     0.000 C 
BRANCH  15  16
ATOM     16  C   UNL     1      -2.428  38.076  18.627  1.00  0.00     0.000 C 
BRANCH  16  17
ATOM     17  C   UNL     1      -3.702  37.333  19.063  1.00  0.00     0.000 C 
BRANCH  17  18
ATOM     18  C   UNL     1      -4.935  38.249  19.117  1.00  0.00     0.000 C 
BRANCH  18  19
ATOM     19  C   UNL     1      -6.165  37.569  19.746  1.00  0.00     0.000 C 
BRANCH  19  20
ATOM     20  C   UNL     1      -6.598  38.125  21.114  1.00  0.00     0.006 C 
BRANCH  20  21
ATOM     21  C   UNL     1      -6.337  37.148  22.268  1.00  0.00     0.053 C 
BRANCH  21  22
ATOM     22  C   UNL     1      -4.868  36.984  22.492  1.00  0.00     0.041 C 
ATOM     23  O   UNL     1      -4.313  35.875  22.263  1.00  0.00    -0.550 OA
ATOM     24  O   UNL     1      -4.107  38.060  22.941  1.00  0.00    -0.550 OA
ENDBRANCH  21  22
ENDBRANCH  20  21
ENDBRANCH  19  20
ENDBRANCH  18  19
ENDBRANCH  17  18
ENDBRANCH  16  17
ENDBRANCH  15  16
ENDBRANCH  14  15
ENDBRANCH  13  14
ENDBRANCH   1  13
TORSDOF 20
ENDMDL
MODEL 5
REMARK VINA RESULT:    -3.781      5.542      8.917
REMARK INTER + INTRA:         -11.888
REMARK INTER:                 -10.558
REMARK INTRA:                  -1.330
REMARK UNBOUND:                -3.686
REMARK SMILES CCCCCCCCCCCCCCCCCCCCCC(=O)[O-]
REMARK SMILES IDX 12 1 11 2 10 3 9 4 8 5 7 6 6 7 5 8 4 9 3 10 2 11 1 12 13 13
REMARK SMILES IDX 14 14 15 15 16 16 17 17 18 18 19 19 20 20 21 21 22 22 23 23
REMARK SMILES IDX 24 24
REMARK H PARENT
REMARK Flexibility Score: inf
ROOT
ATOM      1  C   UNL     1      -0.382  34.067  15.931  1.00  0.00     0.000 C 
ENDROOT
BRANCH   1   2
ATOM      2  C   UNL     1      -1.062  35.447  15.966  1.00  0.00     0.000 C 
BRANCH   2   3
ATOM      3  C   UNL     1      -0.822  36.195  17.290  1.00  0.00     0.000 C 
BRANCH   3   4
ATOM      4  C   UNL     1      -2.097  36.744  17.956  1.00  0.00    -0.000 C 
BRANCH   4   5
ATOM      5  C   UNL     1      -3.274  36.870  16.977  1.00  0.00    -0.000 C 
BRANCH   5   6
ATOM      6  C   UNL     1      -4.106  38.126  17.273  1.00  0.00    -0.000 C 
BRANCH   6   7
ATOM      7  C   UNL     1      -3.503  38.990  18.395  1.00  0.00    -0.000 C 
BRANCH   7   8
ATOM      8  C   UNL     1      -4.369  39.107  19.662  1.00  0.00    -0.000 C 
BRANCH   8   9
ATOM      9  C   UNL     1      -4.853  37.766  20.251  1.00  0.00    -0.000 C 
BRANCH   9  10
ATOM     10  C   UNL     1      -6.377  37.551  20.216  1.00  0.00    -0.000 C 
BRANCH  10  11
ATOM     11  C   UNL     1      -7.160  38.867  20.131  1.00  0.00    -0.003 C 
ATOM     12  C   UNL     1      -7.659  39.299  21.506  1.00  0.00     0.004 C 
ENDBRANCH  10  11
ENDBRANCH   9  10
ENDBRANCH   8   9
ENDBRANCH   7   8
ENDBRANCH   6   7
ENDBRANCH   5   6
ENDBRANCH   4   5
ENDBRANCH   3   4
ENDBRANCH   2   3
ENDBRANCH   1   2
BRANCH   1  13
ATOM     13  C   UNL     1      -0.192  33.458  17.336  1.00  0.00     0.000 C 
BRANCH  13  14
ATOM     14  C   UNL     1      -0.744  32.028  17.487  1.00  0.00     0.000 C 
BRANCH  14  15
ATOM     15  C   UNL     1       0.198  30.903  17.024  1.00  0.00     0.000 C 
BRANCH  15  16
ATOM     16  C   UNL     1      -0.265  29.471  17.361  1.00  0.00     0.000 C 
BRANCH  16  17
ATOM     17  C   UNL     1       0.474  28.351  16.610  1.00  0.00     0.000 C 
BRANCH  17  18
ATOM     18  C   UNL     1      -0.226  26.988  16.732  1.00  0.00     0.000 C 
BRANCH  18  19
ATOM     19  C   UNL     1       0.476  26.034  17.715  1.00  0.00     0.000 C 
BRANCH  19  20
ATOM     20  C   UNL     1      -0.435  25.391  18.775  1.00  0.00     0.006 C 
BRANCH  20  21
ATOM     21  C   UNL     1      -0.275  26.021  20.165  1.00  0.00     0.053 C 
BRANCH  21  22
ATOM     22  C   UNL     1      -1.162  25.336  21.156  1.00  0.00     0.041 C 
ATOM     23  O   UNL     1      -1.050  24.096  21.354  1.00  0.00    -0.550 OA
ATOM     24  O   UNL     1      -2.102  26.070  21.873  1.00  0.00    -0.550 OA
ENDBRANCH  21  22
ENDBRANCH  20  21
ENDBRANCH  19  20
ENDBRANCH  18  19
ENDBRANCH  17  18
ENDBRANCH  16  17
ENDBRANCH  15  16
ENDBRANCH  14  15
ENDBRANCH  13  14
ENDBRANCH   1  13
TORSDOF 20
ENDMDL
MODEL 6
REMARK VINA RESULT:    -3.749      3.111      6.752
REMARK INTER + INTRA:         -11.819
REMARK INTER:                  -9.000
REMARK INTRA:                  -2.820
REMARK UNBOUND:                -3.686
REMARK SMILES CCCCCCCCCCCCCCCCCCCCCC(=O)[O-]
REMARK SMILES IDX 12 1 11 2 10 3 9 4 8 5 7 6 6 7 5 8 4 9 3 10 2 11 1 12 13 13
REMARK SMILES IDX 14 14 15 15 16 16 17 17 18 18 19 19 20 20 21 21 22 22 23 23
REMARK SMILES IDX 24 24
REMARK H PARENT
REMARK Flexibility Score: inf
ROOT
ATOM      1  C   UNL     1      -2.805  38.103  20.672  1.00  0.00     0.000 C 
ENDROOT
BRANCH   1   2
ATOM      2  C   UNL     1      -2.161  39.011  19.609  1.00  0.00     0.000 C 
BRANCH   2   3
ATOM      3  C   UNL     1      -3.202  39.766  18.763  1.00  0.00     0.000 C 
BRANCH   3   4
ATOM      4  C   UNL     1      -3.018  39.622  17.241  1.00  0.00    -0.000 C 
BRANCH   4   5
ATOM      5  C   UNL     1      -2.382  38.282  16.842  1.00  0.00    -0.000 C 
BRANCH   5   6
ATOM      6  C   UNL     1      -3.458  37.252  16.466  1.00  0.00    -0.000 C 
BRANCH   6   7
ATOM      7  C   UNL     1      -2.876  35.853  16.197  1.00  0.00    -0.000 C 
BRANCH   7   8
ATOM      8  C   UNL     1      -1.968  35.302  17.311  1.00  0.00    -0.000 C 
BRANCH   8   9
ATOM      9  C   UNL     1      -0.593  34.786  16.840  1.00  0.00    -0.000 C 
BRANCH   9  10
ATOM     10  C   UNL     1      -0.507  33.264  16.623  1.00  0.00    -0.000 C 
BRANCH  10  11
ATOM     11  C   UNL     1      -0.541  32.475  17.939  1.00  0.00    -0.003 C 
ATOM     12  C   UNL     1      -0.735  30.985  17.679  1.00  0.00     0.004 C 
ENDBRANCH  10  11
ENDBRANCH   9  10
ENDBRANCH   8   9
ENDBRANCH   7   8
ENDBRANCH   6   7
ENDBRANCH   5   6
ENDBRANCH   4   5
ENDBRANCH   3   4
ENDBRANCH   2   3
ENDBRANCH   1   2
BRANCH   1  13
ATOM     13  C   UNL     1      -3.670  36.983  20.059  1.00  0.00     0.000 C 
BRANCH  13  14
ATOM     14  C   UNL     1      -5.170  37.081  20.397  1.00  0.00     0.000 C 
BRANCH  14  15
ATOM     15  C   UNL     1      -6.091  37.442  19.219  1.00  0.00     0.000 C 
BRANCH  15  16
ATOM     16  C   UNL     1      -7.120  38.557  19.500  1.00  0.00     0.000 C 
BRANCH  16  17
ATOM     17  C   UNL     1      -6.705  39.572  20.579  1.00  0.00     0.000 C 
BRANCH  17  18
ATOM     18  C   UNL     1      -7.386  39.314  21.932  1.00  0.00     0.000 C 
BRANCH  18  19
ATOM     19  C   UNL     1      -6.638  39.953  23.117  1.00  0.00     0.000 C 
BRANCH  19  20
ATOM     20  C   UNL     1      -5.123  40.137  22.917  1.00  0.00     0.006 C 
BRANCH  20  21
ATOM     21  C   UNL     1      -4.285  39.154  23.746  1.00  0.00     0.053 C 
BRANCH  21  22
ATOM     22  C   UNL     1      -3.049  39.823  24.258  1.00  0.00     0.041 C 
ATOM     23  O   UNL     1      -3.056  40.390  25.383  1.00  0.00    -0.550 OA
ATOM     24  O   UNL     1      -1.883  39.807  23.497  1.00  0.00    -0.550 OA
ENDBRANCH  21  22
ENDBRANCH  20  21
ENDBRANCH  19  20
ENDBRANCH  18  19
ENDBRANCH  17  18
ENDBRANCH  16  17
ENDBRANCH  15  16
ENDBRANCH  14  15
ENDBRANCH  13  14
ENDBRANCH   1  13
TORSDOF 20
ENDMDL
MODEL 7
REMARK VINA RESULT:    -3.734      3.969      7.088
REMARK INTER + INTRA:         -11.787
REMARK INTER:                  -8.529
REMARK INTRA:                  -3.258
REMARK UNBOUND:                -3.686
REMARK SMILES CCCCCCCCCCCCCCCCCCCCCC(=O)[O-]
REMARK SMILES IDX 12 1 11 2 10 3 9 4 8 5 7 6 6 7 5 8 4 9 3 10 2 11 1 12 13 13
REMARK SMILES IDX 14 14 15 15 16 16 17 17 18 18 19 19 20 20 21 21 22 22 23 23
REMARK SMILES IDX 24 24
REMARK H PARENT
REMARK Flexibility Score: inf
ROOT
ATOM      1  C   UNL     1      -5.841  37.061  22.262  1.00  0.00     0.000 C 
ENDROOT
BRANCH   1   2
ATOM      2  C   UNL     1      -5.270  37.156  20.836  1.00  0.00     0.000 C 
BRANCH   2   3
ATOM      3  C   UNL     1      -3.760  36.861  20.780  1.00  0.00     0.000 C 
BRANCH   3   4
ATOM      4  C   UNL     1      -3.006  37.589  19.652  1.00  0.00    -0.000 C 
BRANCH   4   5
ATOM      5  C   UNL     1      -3.936  38.071  18.528  1.00  0.00    -0.000 C 
BRANCH   5   6
ATOM      6  C   UNL     1      -3.346  39.294  17.812  1.00  0.00    -0.000 C 
BRANCH   6   7
ATOM      7  C   UNL     1      -2.220  39.970  18.613  1.00  0.00    -0.000 C 
BRANCH   7   8
ATOM      8  C   UNL     1      -0.828  39.903  17.960  1.00  0.00    -0.000 C 
BRANCH   8   9
ATOM      9  C   UNL     1      -0.811  39.399  16.503  1.00  0.00    -0.000 C 
BRANCH   9  10
ATOM     10  C   UNL     1       0.307  38.392  16.173  1.00  0.00    -0.000 C 
BRANCH  10  11
ATOM     11  C   UNL     1       0.547  37.382  17.303  1.00  0.00    -0.003 C 
ATOM     12  C   UNL     1       1.926  36.742  17.181  1.00  0.00     0.004 C 
ENDBRANCH  10  11
ENDBRANCH   9  10
ENDBRANCH   8   9
ENDBRANCH   7   8
ENDBRANCH   6   7
ENDBRANCH   5   6
ENDBRANCH   4   5
ENDBRANCH   3   4
ENDBRANCH   2   3
ENDBRANCH   1   2
BRANCH   1  13
ATOM     13  C   UNL     1      -6.733  38.265  22.630  1.00  0.00     0.000 C 
BRANCH  13  14
ATOM     14  C   UNL     1      -7.478  38.891  21.436  1.00  0.00     0.000 C 
BRANCH  14  15
ATOM     15  C   UNL     1      -7.110  40.352  21.120  1.00  0.00     0.000 C 
BRANCH  15  16
ATOM     16  C   UNL     1      -5.910  40.917  21.907  1.00  0.00     0.000 C 
BRANCH  16  17
ATOM     17  C   UNL     1      -4.561  40.863  21.170  1.00  0.00     0.000 C 
BRANCH  17  18
ATOM     18  C   UNL     1      -3.420  40.340  22.056  1.00  0.00     0.000 C 
BRANCH  18  19
ATOM     19  C   UNL     1      -3.540  40.789  23.524  1.00  0.00     0.000 C 
BRANCH  19  20
ATOM     20  C   UNL     1      -3.764  39.658  24.543  1.00  0.00     0.006 C 
BRANCH  20  21
ATOM     21  C   UNL     1      -4.909  39.952  25.521  1.00  0.00     0.053 C 
BRANCH  21  22
ATOM     22  C   UNL     1      -4.367  40.342  26.860  1.00  0.00     0.041 C 
ATOM     23  O   UNL     1      -3.122  40.362  27.058  1.00  0.00    -0.550 OA
ATOM     24  O   UNL     1      -5.237  40.698  27.886  1.00  0.00    -0.550 OA
ENDBRANCH  21  22
ENDBRANCH  20  21
ENDBRANCH  19  20
ENDBRANCH  18  19
ENDBRANCH  17  18
ENDBRANCH  16  17
ENDBRANCH  15  16
ENDBRANCH  14  15
ENDBRANCH  13  14
ENDBRANCH   1  13
TORSDOF 20
ENDMDL
MODEL 8
REMARK VINA RESULT:    -3.733      1.657      3.903
REMARK INTER + INTRA:         -11.783
REMARK INTER:                  -8.951
REMARK INTRA:                  -2.832
REMARK UNBOUND:                -3.686
REMARK SMILES CCCCCCCCCCCCCCCCCCCCCC(=O)[O-]
REMARK SMILES IDX 12 1 11 2 10 3 9 4 8 5 7 6 6 7 5 8 4 9 3 10 2 11 1 12 13 13
REMARK SMILES IDX 14 14 15 15 16 16 17 17 18 18 19 19 20 20 21 21 22 22 23 23
REMARK SMILES IDX 24 24
REMARK H PARENT
REMARK Flexibility Score: inf
ROOT
ATOM      1  C   UNL     1      -3.817  40.171  19.720  1.00  0.00     0.000 C 
ENDROOT
BRANCH   1   2
ATOM      2  C   UNL     1      -4.994  39.246  19.362  1.00  0.00     0.000 C 
BRANCH   2   3
ATOM      3  C   UNL     1      -4.586  37.764  19.297  1.00  0.00     0.000 C 
BRANCH   3   4
ATOM      4  C   UNL     1      -3.689  37.294  20.457  1.00  0.00    -0.000 C 
BRANCH   4   5
ATOM      5  C   UNL     1      -4.492  36.786  21.663  1.00  0.00    -0.000 C 
BRANCH   5   6
ATOM      6  C   UNL     1      -5.999  36.988  21.446  1.00  0.00    -0.000 C 
BRANCH   6   7
ATOM      7  C   UNL     1      -6.696  37.628  22.660  1.00  0.00    -0.000 C 
BRANCH   7   8
ATOM      8  C   UNL     1      -6.490  39.148  22.799  1.00  0.00    -0.000 C 
BRANCH   8   9
ATOM      9  C   UNL     1      -5.476  39.576  23.879  1.00  0.00    -0.000 C 
BRANCH   9  10
ATOM     10  C   UNL     1      -4.142  40.124  23.340  1.00  0.00    -0.000 C 
BRANCH  10  11
ATOM     11  C   UNL     1      -2.936  39.281  23.775  1.00  0.00    -0.003 C 
ATOM     12  C   UNL     1      -1.784  39.421  22.786  1.00  0.00     0.004 C 
ENDBRANCH  10  11
ENDBRANCH   9  10
ENDBRANCH   8   9
ENDBRANCH   7   8
ENDBRANCH   6   7
ENDBRANCH   5   6
ENDBRANCH   4   5
ENDBRANCH   3   4
ENDBRANCH   2   3
ENDBRANCH   1   2
BRANCH   1  13
ATOM     13  C   UNL     1      -2.827  40.360  18.552  1.00  0.00     0.000 C 
BRANCH  13  14
ATOM     14  C   UNL     1      -1.376  39.958  18.879  1.00  0.00     0.000 C 
BRANCH  14  15
ATOM     15  C   UNL     1      -0.581  39.344  17.713  1.00  0.00     0.000 C 
BRANCH  15  16
ATOM     16  C   UNL     1      -0.776  37.829  17.505  1.00  0.00     0.000 C 
BRANCH  16  17
ATOM     17  C   UNL     1      -2.012  37.436  16.677  1.00  0.00     0.000 C 
BRANCH  17  18
ATOM     18  C   UNL     1      -2.358  35.944  16.796  1.00  0.00     0.000 C 
BRANCH  18  19
ATOM     19  C   UNL     1      -1.165  35.081  17.246  1.00  0.00     0.000 C 
BRANCH  19  20
ATOM     20  C   UNL     1      -1.381  33.560  17.159  1.00  0.00     0.006 C 
BRANCH  20  21
ATOM     21  C   UNL     1      -0.299  32.757  17.894  1.00  0.00     0.053 C 
BRANCH  21  22
ATOM     22  C   UNL     1      -0.110  31.421  17.249  1.00  0.00     0.041 C 
ATOM     23  O   UNL     1       0.536  31.324  16.171  1.00  0.00    -0.550 OA
ATOM     24  O   UNL     1      -0.635  30.279  17.847  1.00  0.00    -0.550 OA
ENDBRANCH  21  22
ENDBRANCH  20  21
ENDBRANCH  19  20
ENDBRANCH  18  19
ENDBRANCH  17  18
ENDBRANCH  16  17
ENDBRANCH  15  16
ENDBRANCH  14  15
ENDBRANCH  13  14
ENDBRANCH   1  13
TORSDOF 20
ENDMDL
MODEL 9
REMARK VINA RESULT:    -3.691      3.109      6.658
REMARK INTER + INTRA:         -11.692
REMARK INTER:                  -8.334
REMARK INTRA:                  -3.358
REMARK UNBOUND:                -3.686
REMARK SMILES CCCCCCCCCCCCCCCCCCCCCC(=O)[O-]
REMARK SMILES IDX 12 1 11 2 10 3 9 4 8 5 7 6 6 7 5 8 4 9 3 10 2 11 1 12 13 13
REMARK SMILES IDX 14 14 15 15 16 16 17 17 18 18 19 19 20 20 21 21 22 22 23 23
REMARK SMILES IDX 24 24
REMARK H PARENT
REMARK Flexibility Score: inf
ROOT
ATOM      1  C   UNL     1      -4.190  36.997  20.049  1.00  0.00     0.000 C 
ENDROOT
BRANCH   1   2
ATOM      2  C   UNL     1      -2.933  37.831  19.741  1.00  0.00     0.000 C 
BRANCH   2   3
ATOM      3  C   UNL     1      -3.243  39.086  18.906  1.00  0.00     0.000 C 
BRANCH   3   4
ATOM      4  C   UNL     1      -2.186  40.201  19.010  1.00  0.00    -0.000 C 
BRANCH   4   5
ATOM      5  C   UNL     1      -1.942  40.916  17.673  1.00  0.00    -0.000 C 
BRANCH   5   6
ATOM      6  C   UNL     1      -1.913  39.914  16.509  1.00  0.00    -0.000 C 
BRANCH   6   7
ATOM      7  C   UNL     1      -0.517  39.776  15.875  1.00  0.00    -0.000 C 
BRANCH   7   8
ATOM      8  C   UNL     1       0.584  39.281  16.830  1.00  0.00    -0.000 C 
BRANCH   8   9
ATOM      9  C   UNL     1       0.780  37.752  16.867  1.00  0.00    -0.000 C 
BRANCH   9  10
ATOM     10  C   UNL     1      -0.237  36.985  17.732  1.00  0.00    -0.000 C 
BRANCH  10  11
ATOM     11  C   UNL     1      -0.864  35.795  16.995  1.00  0.00    -0.003 C 
ATOM     12  C   UNL     1      -2.252  36.145  16.469  1.00  0.00     0.004 C 
ENDBRANCH  10  11
ENDBRANCH   9  10
ENDBRANCH   8   9
ENDBRANCH   7   8
ENDBRANCH   6   7
ENDBRANCH   5   6
ENDBRANCH   4   5
ENDBRANCH   3   4
ENDBRANCH   2   3
ENDBRANCH   1   2
BRANCH   1  13
ATOM     13  C   UNL     1      -4.113  36.280  21.412  1.00  0.00     0.000 C 
BRANCH  13  14
ATOM     14  C   UNL     1      -4.911  36.968  22.536  1.00  0.00     0.000 C 
BRANCH  14  15
ATOM     15  C   UNL     1      -6.434  37.033  22.323  1.00  0.00     0.000 C 
BRANCH  15  16
ATOM     16  C   UNL     1      -7.129  38.287  22.891  1.00  0.00     0.000 C 
BRANCH  16  17
ATOM     17  C   UNL     1      -7.665  39.271  21.836  1.00  0.00     0.000 C 
BRANCH  17  18
ATOM     18  C   UNL     1      -6.603  39.667  20.798  1.00  0.00     0.000 C 
BRANCH  18  19
ATOM     19  C   UNL     1      -5.759  40.880  21.231  1.00  0.00     0.000 C 
BRANCH  19  20
ATOM     20  C   UNL     1      -4.410  40.542  21.890  1.00  0.00     0.006 C 
BRANCH  20  21
ATOM     21  C   UNL     1      -4.433  40.695  23.417  1.00  0.00     0.053 C 
BRANCH  21  22
ATOM     22  C   UNL     1      -3.139  40.237  24.009  1.00  0.00     0.041 C 
ATOM     23  O   UNL     1      -2.395  39.445  23.370  1.00  0.00    -0.550 OA
ATOM     24  O   UNL     1      -2.745  40.698  25.262  1.00  0.00    -0.550 OA
ENDBRANCH  21  22
ENDBRANCH  20  21
ENDBRANCH  19  20
ENDBRANCH  18  19
ENDBRANCH  17  18
ENDBRANCH  16  17
ENDBRANCH  15  16
ENDBRANCH  14  15
ENDBRANCH  13  14
ENDBRANCH   1  13
TORSDOF 20
ENDMDL
