MODEL 1
REMARK VINA RESULT:    -5.049      0.000      0.000
REMARK INTER + INTRA:          -7.552
REMARK INTER:                  -6.820
REMARK INTRA:                  -0.732
REMARK UNBOUND:                -0.732
REMARK SMILES CC(=O)CCC=C(C)CCC=C(C)C
REMARK SMILES IDX 7 1 6 2 8 3 9 4 10 5 11 6 13 7 12 8 14 9 5 10 4 11 2 12 3 13
REMARK SMILES IDX 1 14
REMARK H PARENT
REMARK Flexibility Score: inf
ROOT
ATOM      1  C   UNL     1     -12.527   3.031 -15.558  1.00  0.00    -0.077 C 
ATOM      2  C   UNL     1     -11.582   2.842 -14.606  1.00  0.00    -0.028 C 
ATOM      3  C   UNL     1     -13.912   2.502 -15.280  1.00  0.00     0.039 C 
ENDROOT
BRANCH   1   4
ATOM      4  C   UNL     1     -12.245   3.669 -16.911  1.00  0.00     0.034 C 
BRANCH   4   5
ATOM      5  C   UNL     1     -12.951   5.025 -17.089  1.00  0.00     0.032 C 
BRANCH   5   6
ATOM      6  C   UNL     1     -12.295   6.120 -16.281  1.00  0.00    -0.028 C 
ATOM      7  C   UNL     1     -12.149   8.294 -15.111  1.00  0.00     0.039 C 
ATOM      8  C   UNL     1     -12.924   7.236 -15.850  1.00  0.00    -0.080 C 
ATOM      9  C   UNL     1     -14.381   7.496 -16.142  1.00  0.00     0.039 C 
ENDBRANCH   5   6
ENDBRANCH   4   5
ENDBRANCH   1   4
BRANCH   2  10
ATOM     10  C   UNL     1     -10.115   3.181 -14.735  1.00  0.00     0.035 C 
BRANCH  10  11
ATOM     11  C   UNL     1      -9.187   2.084 -14.196  1.00  0.00     0.079 C 
BRANCH  11  12
ATOM     12  C   UNL     1      -9.120   2.085 -12.690  1.00  0.00     0.130 C 
ATOM     13  O   UNL     1      -9.284   1.040 -12.078  1.00  0.00    -0.300 OA
ATOM     14  C   UNL     1      -8.878   3.348 -11.920  1.00  0.00     0.087 C 
ENDBRANCH  11  12
ENDBRANCH  10  11
ENDBRANCH   2  10
TORSDOF 6
ENDMDL
MODEL 2
REMARK VINA RESULT:    -4.977      1.386      1.498
REMARK INTER + INTRA:          -7.455
REMARK INTER:                  -6.521
REMARK INTRA:                  -0.934
REMARK UNBOUND:                -0.732
REMARK SMILES CC(=O)CCC=C(C)CCC=C(C)C
REMARK SMILES IDX 7 1 6 2 8 3 9 4 10 5 11 6 13 7 12 8 14 9 5 10 4 11 2 12 3 13
REMARK SMILES IDX 1 14
REMARK H PARENT
REMARK Flexibility Score: inf
ROOT
ATOM      1  C   UNL     1     -12.439   2.888 -15.515  1.00  0.00    -0.077 C 
ATOM      2  C   UNL     1     -11.445   2.697 -14.614  1.00  0.00    -0.028 C 
ATOM      3  C   UNL     1     -13.779   2.262 -15.218  1.00  0.00     0.039 C 
ENDROOT
BRANCH   1   4
ATOM      4  C   UNL     1     -12.251   3.624 -16.834  1.00  0.00     0.034 C 
BRANCH   4   5
ATOM      5  C   UNL     1     -13.072   4.922 -16.915  1.00  0.00     0.032 C 
BRANCH   5   6
ATOM      6  C   UNL     1     -12.401   6.067 -16.193  1.00  0.00    -0.028 C 
ATOM      7  C   UNL     1     -12.226   8.322 -15.191  1.00  0.00     0.039 C 
ATOM      8  C   UNL     1     -13.016   7.220 -15.847  1.00  0.00    -0.080 C 
ATOM      9  C   UNL     1     -14.470   7.475 -16.156  1.00  0.00     0.039 C 
ENDBRANCH   5   6
ENDBRANCH   4   5
ENDBRANCH   1   4
BRANCH   2  10
ATOM     10  C   UNL     1     -10.006   3.130 -14.778  1.00  0.00     0.035 C 
BRANCH  10  11
ATOM     11  C   UNL     1      -9.268   3.304 -13.444  1.00  0.00     0.079 C 
BRANCH  11  12
ATOM     12  C   UNL     1      -9.672   4.569 -12.730  1.00  0.00     0.130 C 
ATOM     13  O   UNL     1      -9.870   4.546 -11.524  1.00  0.00    -0.300 OA
ATOM     14  C   UNL     1      -9.858   5.858 -13.473  1.00  0.00     0.087 C 
ENDBRANCH  11  12
ENDBRANCH  10  11
ENDBRANCH   2  10
TORSDOF 6
ENDMDL
MODEL 3
REMARK VINA RESULT:    -4.854      3.175      5.087
REMARK INTER + INTRA:          -7.289
REMARK INTER:                  -6.345
REMARK INTRA:                  -0.944
REMARK UNBOUND:                -0.732
REMARK SMILES CC(=O)CCC=C(C)CCC=C(C)C
REMARK SMILES IDX 7 1 6 2 8 3 9 4 10 5 11 6 13 7 12 8 14 9 5 10 4 11 2 12 3 13
REMARK SMILES IDX 1 14
REMARK H PARENT
REMARK Flexibility Score: inf
ROOT
ATOM      1  C   UNL     1     -12.741   2.664 -14.570  1.00  0.00    -0.077 C 
ATOM      2  C   UNL     1     -13.778   2.379 -13.747  1.00  0.00    -0.028 C 
ATOM      3  C   UNL     1     -11.448   3.111 -13.934  1.00  0.00     0.039 C 
ENDROOT
BRANCH   1   4
ATOM      4  C   UNL     1     -12.838   2.636 -16.089  1.00  0.00     0.034 C 
BRANCH   4   5
ATOM      5  C   UNL     1     -12.363   3.947 -16.741  1.00  0.00     0.032 C 
BRANCH   5   6
ATOM      6  C   UNL     1     -13.461   4.983 -16.803  1.00  0.00    -0.028 C 
ATOM      7  C   UNL     1     -14.541   7.166 -16.372  1.00  0.00     0.039 C 
ATOM      8  C   UNL     1     -13.355   6.240 -16.317  1.00  0.00    -0.080 C 
ATOM      9  C   UNL     1     -12.095   6.738 -15.654  1.00  0.00     0.039 C 
ENDBRANCH   5   6
ENDBRANCH   4   5
ENDBRANCH   1   4
BRANCH   2  10
ATOM     10  C   UNL     1     -15.185   2.037 -14.181  1.00  0.00     0.035 C 
BRANCH  10  11
ATOM     11  C   UNL     1     -16.262   2.559 -13.221  1.00  0.00     0.079 C 
BRANCH  11  12
ATOM     12  C   UNL     1     -17.483   3.057 -13.952  1.00  0.00     0.130 C 
ATOM     13  O   UNL     1     -18.561   2.511 -13.769  1.00  0.00    -0.300 OA
ATOM     14  C   UNL     1     -17.402   4.201 -14.918  1.00  0.00     0.087 C 
ENDBRANCH  11  12
ENDBRANCH  10  11
ENDBRANCH   2  10
TORSDOF 6
ENDMDL
MODEL 4
REMARK VINA RESULT:    -4.689      2.433      5.614
REMARK INTER + INTRA:          -7.066
REMARK INTER:                  -6.209
REMARK INTRA:                  -0.856
REMARK UNBOUND:                -0.732
REMARK SMILES CC(=O)CCC=C(C)CCC=C(C)C
REMARK SMILES IDX 7 1 6 2 8 3 9 4 10 5 11 6 13 7 12 8 14 9 5 10 4 11 2 12 3 13
REMARK SMILES IDX 1 14
REMARK H PARENT
REMARK Flexibility Score: inf
ROOT
ATOM      1  C   UNL     1     -13.284   3.948 -16.224  1.00  0.00    -0.077 C 
ATOM      2  C   UNL     1     -14.093   5.009 -16.454  1.00  0.00    -0.028 C 
ATOM      3  C   UNL     1     -13.901   2.724 -15.593  1.00  0.00     0.039 C 
ENDROOT
BRANCH   1   4
ATOM      4  C   UNL     1     -11.785   3.956 -16.492  1.00  0.00     0.034 C 
BRANCH   4   5
ATOM      5  C   UNL     1     -10.967   4.452 -15.287  1.00  0.00     0.032 C 
BRANCH   5   6
ATOM      6  C   UNL     1      -9.993   3.408 -14.790  1.00  0.00    -0.028 C 
ATOM      7  C   UNL     1      -9.117   1.675 -13.259  1.00  0.00     0.039 C 
ATOM      8  C   UNL     1     -10.191   2.634 -13.701  1.00  0.00    -0.080 C 
ATOM      9  C   UNL     1     -11.438   2.740 -12.858  1.00  0.00     0.039 C 
ENDBRANCH   5   6
ENDBRANCH   4   5
ENDBRANCH   1   4
BRANCH   2  10
ATOM     10  C   UNL     1     -13.653   6.364 -16.960  1.00  0.00     0.035 C 
BRANCH  10  11
ATOM     11  C   UNL     1     -14.142   7.527 -16.086  1.00  0.00     0.079 C 
BRANCH  11  12
ATOM     12  C   UNL     1     -13.011   8.196 -15.345  1.00  0.00     0.130 C 
ATOM     13  O   UNL     1     -11.859   7.853 -15.563  1.00  0.00    -0.300 OA
ATOM     14  C   UNL     1     -13.271   9.265 -14.326  1.00  0.00     0.087 C 
ENDBRANCH  11  12
ENDBRANCH  10  11
ENDBRANCH   2  10
TORSDOF 6
ENDMDL
MODEL 5
REMARK VINA RESULT:    -4.688      3.185      5.984
REMARK INTER + INTRA:          -7.065
REMARK INTER:                  -6.571
REMARK INTRA:                  -0.494
REMARK UNBOUND:                -0.732
REMARK SMILES CC(=O)CCC=C(C)CCC=C(C)C
REMARK SMILES IDX 7 1 6 2 8 3 9 4 10 5 11 6 13 7 12 8 14 9 5 10 4 11 2 12 3 13
REMARK SMILES IDX 1 14
REMARK H PARENT
REMARK Flexibility Score: inf
ROOT
ATOM      1  C   UNL     1     -13.936   7.114 -16.283  1.00  0.00    -0.077 C 
ATOM      2  C   UNL     1     -13.498   8.071 -15.431  1.00  0.00    -0.028 C 
ATOM      3  C   UNL     1     -15.426   6.909 -16.396  1.00  0.00     0.039 C 
ENDROOT
BRANCH   1   4
ATOM      4  C   UNL     1     -13.010   6.191 -17.063  1.00  0.00     0.034 C 
BRANCH   4   5
ATOM      5  C   UNL     1     -13.255   4.704 -16.757  1.00  0.00     0.032 C 
BRANCH   5   6
ATOM      6  C   UNL     1     -12.227   4.141 -15.803  1.00  0.00    -0.028 C 
ATOM      7  C   UNL     1     -11.190   2.441 -14.335  1.00  0.00     0.039 C 
ATOM      8  C   UNL     1     -12.227   2.871 -15.340  1.00  0.00    -0.080 C 
ATOM      9  C   UNL     1     -13.281   1.871 -15.745  1.00  0.00     0.039 C 
ENDBRANCH   5   6
ENDBRANCH   4   5
ENDBRANCH   1   4
BRANCH   2  10
ATOM     10  C   UNL     1     -12.055   8.351 -15.080  1.00  0.00     0.035 C 
BRANCH  10  11
ATOM     11  C   UNL     1     -11.875   9.582 -14.181  1.00  0.00     0.079 C 
BRANCH  11  12
ATOM     12  C   UNL     1     -10.574  10.296 -14.446  1.00  0.00     0.130 C 
ATOM     13  O   UNL     1     -10.437  10.938 -15.477  1.00  0.00    -0.300 OA
ATOM     14  C   UNL     1      -9.431  10.219 -13.480  1.00  0.00     0.087 C 
ENDBRANCH  11  12
ENDBRANCH  10  11
ENDBRANCH   2  10
TORSDOF 6
ENDMDL
MODEL 6
REMARK VINA RESULT:    -4.640      3.095      5.545
REMARK INTER + INTRA:          -7.000
REMARK INTER:                  -6.169
REMARK INTRA:                  -0.831
REMARK UNBOUND:                -0.732
REMARK SMILES CC(=O)CCC=C(C)CCC=C(C)C
REMARK SMILES IDX 7 1 6 2 8 3 9 4 10 5 11 6 13 7 12 8 14 9 5 10 4 11 2 12 3 13
REMARK SMILES IDX 1 14
REMARK H PARENT
REMARK Flexibility Score: inf
ROOT
ATOM      1  C   UNL     1     -12.609   3.421 -15.986  1.00  0.00    -0.077 C 
ATOM      2  C   UNL     1     -13.302   4.405 -16.606  1.00  0.00    -0.028 C 
ATOM      3  C   UNL     1     -13.282   2.078 -15.841  1.00  0.00     0.039 C 
ENDROOT
BRANCH   1   4
ATOM      4  C   UNL     1     -11.235   3.621 -15.362  1.00  0.00     0.034 C 
BRANCH   4   5
ATOM      5  C   UNL     1     -11.011   2.743 -14.118  1.00  0.00     0.032 C 
BRANCH   5   6
ATOM      6  C   UNL     1     -11.178   3.522 -12.834  1.00  0.00    -0.028 C 
ATOM      7  C   UNL     1     -12.294   4.230 -10.743  1.00  0.00     0.039 C 
ATOM      8  C   UNL     1     -12.192   3.346 -11.958  1.00  0.00    -0.080 C 
ATOM      9  C   UNL     1     -13.279   2.325 -12.187  1.00  0.00     0.039 C 
ENDBRANCH   5   6
ENDBRANCH   4   5
ENDBRANCH   1   4
BRANCH   2  10
ATOM     10  C   UNL     1     -12.863   5.845 -16.744  1.00  0.00     0.035 C 
BRANCH  10  11
ATOM     11  C   UNL     1     -13.983   6.853 -16.451  1.00  0.00     0.079 C 
BRANCH  11  12
ATOM     12  C   UNL     1     -13.532   7.951 -15.520  1.00  0.00     0.130 C 
ATOM     13  O   UNL     1     -14.355   8.729 -15.061  1.00  0.00    -0.300 OA
ATOM     14  C   UNL     1     -12.087   8.123 -15.161  1.00  0.00     0.087 C 
ENDBRANCH  11  12
ENDBRANCH  10  11
ENDBRANCH   2  10
TORSDOF 6
ENDMDL
MODEL 7
REMARK VINA RESULT:    -4.638      4.574      6.995
REMARK INTER + INTRA:          -6.997
REMARK INTER:                  -6.186
REMARK INTRA:                  -0.811
REMARK UNBOUND:                -0.732
REMARK SMILES CC(=O)CCC=C(C)CCC=C(C)C
REMARK SMILES IDX 7 1 6 2 8 3 9 4 10 5 11 6 13 7 12 8 14 9 5 10 4 11 2 12 3 13
REMARK SMILES IDX 1 14
REMARK H PARENT
REMARK Flexibility Score: inf
ROOT
ATOM      1  C   UNL     1     -14.900   1.669 -10.639  1.00  0.00    -0.077 C 
ATOM      2  C   UNL     1     -16.196   1.539 -11.008  1.00  0.00    -0.028 C 
ATOM      3  C   UNL     1     -14.327   0.619  -9.720  1.00  0.00     0.039 C 
ENDROOT
BRANCH   1   4
ATOM      4  C   UNL     1     -14.025   2.852 -11.033  1.00  0.00     0.034 C 
BRANCH   4   5
ATOM      5  C   UNL     1     -12.935   2.474 -12.051  1.00  0.00     0.032 C 
BRANCH   5   6
ATOM      6  C   UNL     1     -13.465   2.435 -13.466  1.00  0.00    -0.028 C 
ATOM      7  C   UNL     1     -13.347   2.569 -15.933  1.00  0.00     0.039 C 
ATOM      8  C   UNL     1     -12.699   2.552 -14.573  1.00  0.00    -0.080 C 
ATOM      9  C   UNL     1     -11.203   2.734 -14.497  1.00  0.00     0.039 C 
ENDBRANCH   5   6
ENDBRANCH   4   5
ENDBRANCH   1   4
BRANCH   2  10
ATOM     10  C   UNL     1     -16.992   2.538 -11.815  1.00  0.00     0.035 C 
BRANCH  10  11
ATOM     11  C   UNL     1     -17.180   2.124 -13.281  1.00  0.00     0.079 C 
BRANCH  11  12
ATOM     12  C   UNL     1     -18.077   3.077 -14.031  1.00  0.00     0.130 C 
ATOM     13  O   UNL     1     -19.288   3.005 -13.889  1.00  0.00    -0.300 OA
ATOM     14  C   UNL     1     -17.513   4.102 -14.969  1.00  0.00     0.087 C 
ENDBRANCH  11  12
ENDBRANCH  10  11
ENDBRANCH   2  10
TORSDOF 6
ENDMDL
MODEL 8
REMARK VINA RESULT:    -4.593     13.549     16.438
REMARK INTER + INTRA:          -6.936
REMARK INTER:                  -6.284
REMARK INTRA:                  -0.652
REMARK UNBOUND:                -0.732
REMARK SMILES CC(=O)CCC=C(C)CCC=C(C)C
REMARK SMILES IDX 7 1 6 2 8 3 9 4 10 5 11 6 13 7 12 8 14 9 5 10 4 11 2 12 3 13
REMARK SMILES IDX 1 14
REMARK H PARENT
REMARK Flexibility Score: inf
ROOT
ATOM      1  C   UNL     1     -26.569   6.909 -21.635  1.00  0.00    -0.077 C 
ATOM      2  C   UNL     1     -25.351   7.015 -22.218  1.00  0.00    -0.028 C 
ATOM      3  C   UNL     1     -27.772   6.832 -22.542  1.00  0.00     0.039 C 
ENDROOT
BRANCH   1   4
ATOM      4  C   UNL     1     -26.790   6.948 -20.129  1.00  0.00     0.034 C 
BRANCH   4   5
ATOM      5  C   UNL     1     -28.217   6.538 -19.725  1.00  0.00     0.032 C 
BRANCH   5   6
ATOM      6  C   UNL     1     -28.226   5.353 -18.788  1.00  0.00    -0.028 C 
ATOM      7  C   UNL     1     -28.406   2.970 -18.152  1.00  0.00     0.039 C 
ATOM      8  C   UNL     1     -28.338   4.066 -19.183  1.00  0.00    -0.080 C 
ATOM      9  C   UNL     1     -28.464   3.683 -20.637  1.00  0.00     0.039 C 
ENDBRANCH   5   6
ENDBRANCH   4   5
ENDBRANCH   1   4
BRANCH   2  10
ATOM     10  C   UNL     1     -24.040   7.228 -21.497  1.00  0.00     0.035 C 
BRANCH  10  11
ATOM     11  C   UNL     1     -22.912   7.715 -22.417  1.00  0.00     0.079 C 
BRANCH  11  12
ATOM     12  C   UNL     1     -22.263   8.976 -21.904  1.00  0.00     0.130 C 
ATOM     13  O   UNL     1     -22.827  10.050 -22.054  1.00  0.00    -0.300 OA
ATOM     14  C   UNL     1     -20.925   8.945 -21.229  1.00  0.00     0.087 C 
ENDBRANCH  11  12
ENDBRANCH  10  11
ENDBRANCH   2  10
TORSDOF 6
ENDMDL
MODEL 9
REMARK VINA RESULT:    -4.502      1.885      3.838
REMARK INTER + INTRA:          -6.813
REMARK INTER:                  -6.171
REMARK INTRA:                  -0.642
REMARK UNBOUND:                -0.732
REMARK SMILES CC(=O)CCC=C(C)CCC=C(C)C
REMARK SMILES IDX 7 1 6 2 8 3 9 4 10 5 11 6 13 7 12 8 14 9 5 10 4 11 2 12 3 13
REMARK SMILES IDX 1 14
REMARK H PARENT
REMARK Flexibility Score: inf
ROOT
ATOM      1  C   UNL     1     -13.478   6.485 -16.480  1.00  0.00    -0.077 C 
ATOM      2  C   UNL     1     -13.404   5.199 -16.898  1.00  0.00    -0.028 C 
ATOM      3  C   UNL     1     -14.737   7.252 -16.800  1.00  0.00     0.039 C 
ENDROOT
BRANCH   1   4
ATOM      4  C   UNL     1     -12.336   7.212 -15.783  1.00  0.00     0.034 C 
BRANCH   4   5
ATOM      5  C   UNL     1     -12.794   8.493 -15.065  1.00  0.00     0.032 C 
BRANCH   5   6
ATOM      6  C   UNL     1     -11.638   9.410 -14.741  1.00  0.00    -0.028 C 
ATOM      7  C   UNL     1     -10.410  11.149 -13.482  1.00  0.00     0.039 C 
ATOM      8  C   UNL     1     -11.585  10.226 -13.665  1.00  0.00    -0.080 C 
ATOM      9  C   UNL     1     -12.707  10.295 -12.658  1.00  0.00     0.039 C 
ENDBRANCH   5   6
ENDBRANCH   4   5
ENDBRANCH   1   4
BRANCH   2  10
ATOM     10  C   UNL     1     -12.194   4.301 -16.791  1.00  0.00     0.035 C 
BRANCH  10  11
ATOM     11  C   UNL     1     -12.370   3.162 -15.778  1.00  0.00     0.079 C 
BRANCH  11  12
ATOM     12  C   UNL     1     -11.601   3.408 -14.504  1.00  0.00     0.130 C 
ATOM     13  O   UNL     1     -11.985   2.903 -13.459  1.00  0.00    -0.300 OA
ATOM     14  C   UNL     1     -10.383   4.281 -14.485  1.00  0.00     0.087 C 
ENDBRANCH  11  12
ENDBRANCH  10  11
ENDBRANCH   2  10
TORSDOF 6
ENDMDL
