MODEL 1
REMARK VINA RESULT:    -3.785      0.000      0.000
REMARK INTER + INTRA:          -4.690
REMARK INTER:                  -4.560
REMARK INTRA:                  -0.130
REMARK UNBOUND:                -0.130
REMARK SMILES CC[C@@H](C)[C@H]([NH3+])C(=O)[O-]
REMARK SMILES IDX 3 1 4 2 5 3 6 4 7 8 8 9 9 10 2 11 1 12
REMARK H PARENT 6 5 6 6 6 7
REMARK Flexibility Score: inf
ROOT
ATOM      1  C   UNL     1      19.028  30.915  44.225  1.00  0.00     0.050 C 
ATOM      2  C   UNL     1      17.970  30.150  45.045  1.00  0.00     0.014 C 
ENDROOT
BRANCH   1   3
ATOM      3  C   UNL     1      19.317  30.203  42.863  1.00  0.00     0.230 C 
BRANCH   3   4
ATOM      4  N   UNL     1      18.214  29.316  42.458  1.00  0.00    -0.350 N 
ATOM      5  H   UNL     1      17.360  29.877  42.238  1.00  0.00     0.345 HD
ATOM      6  H   UNL     1      18.000  28.624  43.212  1.00  0.00     0.345 HD
ATOM      7  H   UNL     1      18.471  28.798  41.585  1.00  0.00     0.345 HD
ENDBRANCH   3   4
BRANCH   3   8
ATOM      8  C   UNL     1      20.592  29.400  42.936  1.00  0.00     0.099 C 
ATOM      9  O   UNL     1      21.627  29.798  42.340  1.00  0.00    -0.544 OA
ATOM     10  O   UNL     1      20.630  28.210  43.653  1.00  0.00    -0.544 OA
ENDBRANCH   3   8
ENDBRANCH   1   3
BRANCH   1  11
ATOM     11  C   UNL     1      18.570  32.380  43.991  1.00  0.00     0.006 C 
ATOM     12  C   UNL     1      18.900  32.900  42.589  1.00  0.00     0.004 C 
ENDBRANCH   1  11
TORSDOF 4
ENDMDL
MODEL 2
REMARK VINA RESULT:    -3.663      2.430      2.988
REMARK INTER + INTRA:          -4.543
REMARK INTER:                  -4.423
REMARK INTRA:                  -0.120
REMARK UNBOUND:                -0.130
REMARK SMILES CC[C@@H](C)[C@H]([NH3+])C(=O)[O-]
REMARK SMILES IDX 3 1 4 2 5 3 6 4 7 8 8 9 9 10 2 11 1 12
REMARK H PARENT 6 5 6 6 6 7
REMARK Flexibility Score: inf
ROOT
ATOM      1  C   UNL     1      19.240  31.100  43.537  1.00  0.00     0.050 C 
ATOM      2  C   UNL     1      20.188  30.172  44.323  1.00  0.00     0.014 C 
ENDROOT
BRANCH   1   3
ATOM      3  C   UNL     1      18.364  30.294  42.525  1.00  0.00     0.230 C 
BRANCH   3   4
ATOM      4  N   UNL     1      19.023  29.052  42.089  1.00  0.00    -0.350 N 
ATOM      5  H   UNL     1      19.877  29.272  41.528  1.00  0.00     0.345 HD
ATOM      6  H   UNL     1      18.368  28.465  41.522  1.00  0.00     0.345 HD
ATOM      7  H   UNL     1      19.338  28.500  42.920  1.00  0.00     0.345 HD
ENDBRANCH   3   4
BRANCH   3   8
ATOM      8  C   UNL     1      18.038  31.130  41.311  1.00  0.00     0.099 C 
ATOM      9  O   UNL     1      18.737  31.032  40.268  1.00  0.00    -0.544 OA
ATOM     10  O   UNL     1      16.970  32.019  41.339  1.00  0.00    -0.544 OA
ENDBRANCH   3   8
ENDBRANCH   1   3
BRANCH   1  11
ATOM     11  C   UNL     1      18.343  31.906  44.517  1.00  0.00     0.006 C 
ATOM     12  C   UNL     1      17.157  31.100  45.052  1.00  0.00     0.004 C 
ENDBRANCH   1  11
TORSDOF 4
ENDMDL
MODEL 3
REMARK VINA RESULT:    -3.586      1.719      2.491
REMARK INTER + INTRA:          -4.449
REMARK INTER:                  -4.325
REMARK INTRA:                  -0.125
REMARK UNBOUND:                -0.130
REMARK SMILES CC[C@@H](C)[C@H]([NH3+])C(=O)[O-]
REMARK SMILES IDX 3 1 4 2 5 3 6 4 7 8 8 9 9 10 2 11 1 12
REMARK H PARENT 6 5 6 6 6 7
REMARK Flexibility Score: inf
ROOT
ATOM      1  C   UNL     1      18.806  31.917  43.019  1.00  0.00     0.050 C 
ATOM      2  C   UNL     1      19.013  33.315  42.402  1.00  0.00     0.014 C 
ENDROOT
BRANCH   1   3
ATOM      3  C   UNL     1      20.112  31.061  42.938  1.00  0.00     0.230 C 
BRANCH   3   4
ATOM      4  N   UNL     1      21.027  31.545  41.892  1.00  0.00    -0.350 N 
ATOM      5  H   UNL     1      20.502  32.100  41.179  1.00  0.00     0.345 HD
ATOM      6  H   UNL     1      21.516  30.744  41.429  1.00  0.00     0.345 HD
ATOM      7  H   UNL     1      21.744  32.184  42.308  1.00  0.00     0.345 HD
ENDBRANCH   3   4
BRANCH   3   8
ATOM      8  C   UNL     1      19.788  29.610  42.674  1.00  0.00     0.099 C 
ATOM      9  O   UNL     1      18.857  29.302  41.885  1.00  0.00    -0.544 OA
ATOM     10  O   UNL     1      20.509  28.606  43.309  1.00  0.00    -0.544 OA
ENDBRANCH   3   8
ENDBRANCH   1   3
BRANCH   1  11
ATOM     11  C   UNL     1      18.326  32.045  44.491  1.00  0.00     0.006 C 
ATOM     12  C   UNL     1      17.106  31.177  44.806  1.00  0.00     0.004 C 
ENDBRANCH   1  11
TORSDOF 4
ENDMDL
MODEL 4
REMARK VINA RESULT:    -3.474      1.580      2.192
REMARK INTER + INTRA:          -4.315
REMARK INTER:                  -4.228
REMARK INTRA:                  -0.088
REMARK UNBOUND:                -0.130
REMARK SMILES CC[C@@H](C)[C@H]([NH3+])C(=O)[O-]
REMARK SMILES IDX 3 1 4 2 5 3 6 4 7 8 8 9 9 10 2 11 1 12
REMARK H PARENT 6 5 6 6 6 7
REMARK Flexibility Score: inf
ROOT
ATOM      1  C   UNL     1      19.804  30.791  43.783  1.00  0.00     0.050 C 
ATOM      2  C   UNL     1      20.006  29.469  44.550  1.00  0.00     0.014 C 
ENDROOT
BRANCH   1   3
ATOM      3  C   UNL     1      19.507  30.531  42.270  1.00  0.00     0.230 C 
BRANCH   3   4
ATOM      4  N   UNL     1      19.125  29.133  42.013  1.00  0.00    -0.350 N 
ATOM      5  H   UNL     1      19.915  28.492  42.250  1.00  0.00     0.345 HD
ATOM      6  H   UNL     1      18.851  29.003  41.012  1.00  0.00     0.345 HD
ATOM      7  H   UNL     1      18.319  28.861  42.622  1.00  0.00     0.345 HD
ENDBRANCH   3   4
BRANCH   3   8
ATOM      8  C   UNL     1      20.705  30.878  41.420  1.00  0.00     0.099 C 
ATOM      9  O   UNL     1      20.571  31.614  40.408  1.00  0.00    -0.544 OA
ATOM     10  O   UNL     1      21.961  30.379  41.744  1.00  0.00    -0.544 OA
ENDBRANCH   3   8
ENDBRANCH   1   3
BRANCH   1  11
ATOM     11  C   UNL     1      18.661  31.619  44.431  1.00  0.00     0.006 C 
ATOM     12  C   UNL     1      17.565  30.751  45.054  1.00  0.00     0.004 C 
ENDBRANCH   1  11
TORSDOF 4
ENDMDL
MODEL 5
REMARK VINA RESULT:    -3.456     22.507     23.444
REMARK INTER + INTRA:          -4.293
REMARK INTER:                  -4.165
REMARK INTRA:                  -0.128
REMARK UNBOUND:                -0.130
REMARK SMILES CC[C@@H](C)[C@H]([NH3+])C(=O)[O-]
REMARK SMILES IDX 3 1 4 2 5 3 6 4 7 8 8 9 9 10 2 11 1 12
REMARK H PARENT 6 5 6 6 6 7
REMARK Flexibility Score: inf
ROOT
ATOM      1  C   UNL     1      16.626  45.881  25.825  1.00  0.00     0.050 C 
ATOM      2  C   UNL     1      15.250  45.777  26.513  1.00  0.00     0.014 C 
ENDROOT
BRANCH   1   3
ATOM      3  C   UNL     1      17.771  46.081  26.870  1.00  0.00     0.230 C 
BRANCH   3   4
ATOM      4  N   UNL     1      17.270  46.625  28.143  1.00  0.00    -0.350 N 
ATOM      5  H   UNL     1      16.350  47.099  27.998  1.00  0.00     0.345 HD
ATOM      6  H   UNL     1      17.956  47.300  28.552  1.00  0.00     0.345 HD
ATOM      7  H   UNL     1      17.109  45.850  28.828  1.00  0.00     0.345 HD
ENDBRANCH   3   4
BRANCH   3   8
ATOM      8  C   UNL     1      18.839  47.000  26.329  1.00  0.00     0.099 C 
ATOM      9  O   UNL     1      20.022  46.914  26.750  1.00  0.00    -0.544 OA
ATOM     10  O   UNL     1      18.520  47.954  25.369  1.00  0.00    -0.544 OA
ENDBRANCH   3   8
ENDBRANCH   1   3
BRANCH   1  11
ATOM     11  C   UNL     1      16.890  44.620  24.958  1.00  0.00     0.006 C 
ATOM     12  C   UNL     1      17.500  43.460  25.748  1.00  0.00     0.004 C 
ENDBRANCH   1  11
TORSDOF 4
ENDMDL
MODEL 6
REMARK VINA RESULT:    -3.438     21.423     22.530
REMARK INTER + INTRA:          -4.272
REMARK INTER:                  -4.127
REMARK INTRA:                  -0.145
REMARK UNBOUND:                -0.130
REMARK SMILES CC[C@@H](C)[C@H]([NH3+])C(=O)[O-]
REMARK SMILES IDX 3 1 4 2 5 3 6 4 7 8 8 9 9 10 2 11 1 12
REMARK H PARENT 6 5 6 6 6 7
REMARK Flexibility Score: inf
ROOT
ATOM      1  C   UNL     1      17.757  44.680  26.004  1.00  0.00     0.050 C 
ATOM      2  C   UNL     1      18.695  45.518  25.113  1.00  0.00     0.014 C 
ENDROOT
BRANCH   1   3
ATOM      3  C   UNL     1      16.815  45.592  26.854  1.00  0.00     0.230 C 
BRANCH   3   4
ATOM      4  N   UNL     1      17.273  46.991  26.880  1.00  0.00    -0.350 N 
ATOM      5  H   UNL     1      16.468  47.639  26.720  1.00  0.00     0.345 HD
ATOM      6  H   UNL     1      18.009  47.152  26.154  1.00  0.00     0.345 HD
ATOM      7  H   UNL     1      17.668  47.224  27.820  1.00  0.00     0.345 HD
ENDBRANCH   3   4
BRANCH   3   8
ATOM      8  C   UNL     1      16.710  45.084  28.272  1.00  0.00     0.099 C 
ATOM      9  O   UNL     1      17.321  45.671  29.202  1.00  0.00    -0.544 OA
ATOM     10  O   UNL     1      15.945  43.959  28.557  1.00  0.00    -0.544 OA
ENDBRANCH   3   8
ENDBRANCH   1   3
BRANCH   1  11
ATOM     11  C   UNL     1      16.928  43.696  25.134  1.00  0.00     0.006 C 
ATOM     12  C   UNL     1      15.498  44.175  24.875  1.00  0.00     0.004 C 
ENDBRANCH   1  11
TORSDOF 4
ENDMDL
MODEL 7
REMARK VINA RESULT:    -3.430      1.842      2.779
REMARK INTER + INTRA:          -4.262
REMARK INTER:                  -4.146
REMARK INTRA:                  -0.116
REMARK UNBOUND:                -0.130
REMARK SMILES CC[C@@H](C)[C@H]([NH3+])C(=O)[O-]
REMARK SMILES IDX 3 1 4 2 5 3 6 4 7 8 8 9 9 10 2 11 1 12
REMARK H PARENT 6 5 6 6 6 7
REMARK Flexibility Score: inf
ROOT
ATOM      1  C   UNL     1      19.324  31.599  42.246  1.00  0.00     0.050 C 
ATOM      2  C   UNL     1      18.985  33.090  42.441  1.00  0.00     0.014 C 
ENDROOT
BRANCH   1   3
ATOM      3  C   UNL     1      19.077  30.783  43.557  1.00  0.00     0.230 C 
BRANCH   3   4
ATOM      4  N   UNL     1      19.006  31.650  44.744  1.00  0.00    -0.350 N 
ATOM      5  H   UNL     1      19.801  32.329  44.745  1.00  0.00     0.345 HD
ATOM      6  H   UNL     1      19.025  31.080  45.620  1.00  0.00     0.345 HD
ATOM      7  H   UNL     1      18.124  32.214  44.726  1.00  0.00     0.345 HD
ENDBRANCH   3   4
BRANCH   3   8
ATOM      8  C   UNL     1      20.163  29.755  43.763  1.00  0.00     0.099 C 
ATOM      9  O   UNL     1      20.139  29.002  44.771  1.00  0.00    -0.544 OA
ATOM     10  O   UNL     1      21.202  29.641  42.847  1.00  0.00    -0.544 OA
ENDBRANCH   3   8
ENDBRANCH   1   3
BRANCH   1  11
ATOM     11  C   UNL     1      18.499  31.009  41.070  1.00  0.00     0.006 C 
ATOM     12  C   UNL     1      19.369  30.453  39.940  1.00  0.00     0.004 C 
ENDBRANCH   1  11
TORSDOF 4
ENDMDL
MODEL 8
REMARK VINA RESULT:    -3.418      2.685      3.600
REMARK INTER + INTRA:          -4.247
REMARK INTER:                  -4.243
REMARK INTRA:                  -0.004
REMARK UNBOUND:                -0.130
REMARK SMILES CC[C@@H](C)[C@H]([NH3+])C(=O)[O-]
REMARK SMILES IDX 3 1 4 2 5 3 6 4 7 8 8 9 9 10 2 11 1 12
REMARK H PARENT 6 5 6 6 6 7
REMARK Flexibility Score: inf
ROOT
ATOM      1  C   UNL     1      19.938  31.237  43.488  1.00  0.00     0.050 C 
ATOM      2  C   UNL     1      20.160  30.919  41.995  1.00  0.00     0.014 C 
ENDROOT
BRANCH   1   3
ATOM      3  C   UNL     1      18.513  31.830  43.737  1.00  0.00     0.230 C 
BRANCH   3   4
ATOM      4  N   UNL     1      18.065  31.629  45.125  1.00  0.00    -0.350 N 
ATOM      5  H   UNL     1      17.273  32.273  45.347  1.00  0.00     0.345 HD
ATOM      6  H   UNL     1      18.852  31.790  45.795  1.00  0.00     0.345 HD
ATOM      7  H   UNL     1      17.708  30.653  45.251  1.00  0.00     0.345 HD
ENDBRANCH   3   4
BRANCH   3   8
ATOM      8  C   UNL     1      17.503  31.215  42.800  1.00  0.00     0.099 C 
ATOM      9  O   UNL     1      17.012  31.896  41.862  1.00  0.00    -0.544 OA
ATOM     10  O   UNL     1      17.100  29.896  42.974  1.00  0.00    -0.544 OA
ENDBRANCH   3   8
ENDBRANCH   1   3
BRANCH   1  11
ATOM     11  C   UNL     1      20.158  29.962  44.347  1.00  0.00     0.006 C 
ATOM     12  C   UNL     1      20.506  28.725  43.515  1.00  0.00     0.004 C 
ENDBRANCH   1  11
TORSDOF 4
ENDMDL
MODEL 9
REMARK VINA RESULT:    -3.401      2.164      2.684
REMARK INTER + INTRA:          -4.227
REMARK INTER:                  -4.083
REMARK INTRA:                  -0.144
REMARK UNBOUND:                -0.130
REMARK SMILES CC[C@@H](C)[C@H]([NH3+])C(=O)[O-]
REMARK SMILES IDX 3 1 4 2 5 3 6 4 7 8 8 9 9 10 2 11 1 12
REMARK H PARENT 6 5 6 6 6 7
REMARK Flexibility Score: inf
ROOT
ATOM      1  C   UNL     1      18.046  30.699  43.745  1.00  0.00     0.050 C 
ATOM      2  C   UNL     1      16.998  31.201  44.759  1.00  0.00     0.014 C 
ENDROOT
BRANCH   1   3
ATOM      3  C   UNL     1      18.027  31.553  42.437  1.00  0.00     0.230 C 
BRANCH   3   4
ATOM      4  N   UNL     1      16.692  31.589  41.818  1.00  0.00    -0.350 N 
ATOM      5  H   UNL     1      16.162  30.718  42.047  1.00  0.00     0.345 HD
ATOM      6  H   UNL     1      16.769  31.696  40.780  1.00  0.00     0.345 HD
ATOM      7  H   UNL     1      16.139  32.392  42.200  1.00  0.00     0.345 HD
ENDBRANCH   3   4
BRANCH   3   8
ATOM      8  C   UNL     1      19.021  31.021  41.433  1.00  0.00     0.099 C 
ATOM      9  O   UNL     1      19.923  31.770  40.976  1.00  0.00    -0.544 OA
ATOM     10  O   UNL     1      18.939  29.703  40.999  1.00  0.00    -0.544 OA
ENDBRANCH   3   8
ENDBRANCH   1   3
BRANCH   1  11
ATOM     11  C   UNL     1      19.460  30.709  44.387  1.00  0.00     0.006 C 
ATOM     12  C   UNL     1      20.066  29.311  44.537  1.00  0.00     0.004 C 
ENDBRANCH   1  11
TORSDOF 4
ENDMDL
