MODEL 1
REMARK VINA RESULT:    -3.327      0.000      0.000
REMARK INTER + INTRA:          -3.958
REMARK INTER:                  -3.911
REMARK INTRA:                  -0.047
REMARK UNBOUND:                -0.047
REMARK SMILES O=C([O-])CCC(=O)[O-]
REMARK SMILES IDX 4 1 2 2 1 3 3 4 5 5 6 6 7 7 8 8
REMARK H PARENT
REMARK Flexibility Score: inf
ROOT
ATOM      1  C   UNL     1      28.241  29.642 -17.506  1.00  0.00     0.059 C 
ENDROOT
BRANCH   1   2
ATOM      2  C   UNL     1      28.501  28.276 -16.954  1.00  0.00     0.042 C 
ATOM      3  O   UNL     1      27.587  27.410 -16.950  1.00  0.00    -0.550 OA
ATOM      4  O   UNL     1      29.767  27.944 -16.490  1.00  0.00    -0.550 OA
ENDBRANCH   1   2
BRANCH   1   5
ATOM      5  C   UNL     1      26.826  29.726 -18.083  1.00  0.00     0.059 C 
BRANCH   5   6
ATOM      6  C   UNL     1      26.758  30.770 -19.152  1.00  0.00     0.042 C 
ATOM      7  O   UNL     1      27.552  30.730 -20.128  1.00  0.00    -0.550 OA
ATOM      8  O   UNL     1      25.849  31.816 -19.046  1.00  0.00    -0.550 OA
ENDBRANCH   5   6
ENDBRANCH   1   5
TORSDOF 3
ENDMDL
MODEL 2
REMARK VINA RESULT:    -3.037      3.868      5.576
REMARK INTER + INTRA:          -3.617
REMARK INTER:                  -3.537
REMARK INTRA:                  -0.080
REMARK UNBOUND:                -0.047
REMARK SMILES O=C([O-])CCC(=O)[O-]
REMARK SMILES IDX 4 1 2 2 1 3 3 4 5 5 6 6 7 7 8 8
REMARK H PARENT
REMARK Flexibility Score: inf
ROOT
ATOM      1  C   UNL     1      27.299  24.130 -18.531  1.00  0.00     0.059 C 
ENDROOT
BRANCH   1   2
ATOM      2  C   UNL     1      26.704  24.341 -19.887  1.00  0.00     0.042 C 
ATOM      3  O   UNL     1      27.072  23.628 -20.858  1.00  0.00    -0.550 OA
ATOM      4  O   UNL     1      25.708  25.292 -20.069  1.00  0.00    -0.550 OA
ENDBRANCH   1   2
BRANCH   1   5
ATOM      5  C   UNL     1      26.776  25.180 -17.548  1.00  0.00     0.059 C 
BRANCH   5   6
ATOM      6  C   UNL     1      27.874  26.113 -17.146  1.00  0.00     0.042 C 
ATOM      7  O   UNL     1      27.604  27.283 -16.766  1.00  0.00    -0.550 OA
ATOM      8  O   UNL     1      29.200  25.707 -17.237  1.00  0.00    -0.550 OA
ENDBRANCH   5   6
ENDBRANCH   1   5
TORSDOF 3
ENDMDL
MODEL 3
REMARK VINA RESULT:    -3.021      3.777      5.445
REMARK INTER + INTRA:          -3.597
REMARK INTER:                  -3.529
REMARK INTRA:                  -0.068
REMARK UNBOUND:                -0.047
REMARK SMILES O=C([O-])CCC(=O)[O-]
REMARK SMILES IDX 4 1 2 2 1 3 3 4 5 5 6 6 7 7 8 8
REMARK H PARENT
REMARK Flexibility Score: inf
ROOT
ATOM      1  C   UNL     1      27.397  24.330 -18.526  1.00  0.00     0.059 C 
ENDROOT
BRANCH   1   2
ATOM      2  C   UNL     1      26.650  24.414 -19.819  1.00  0.00     0.042 C 
ATOM      3  O   UNL     1      25.720  25.252 -19.960  1.00  0.00    -0.550 OA
ATOM      4  O   UNL     1      27.013  23.602 -20.886  1.00  0.00    -0.550 OA
ENDBRANCH   1   2
BRANCH   1   5
ATOM      5  C   UNL     1      26.858  25.358 -17.528  1.00  0.00     0.059 C 
BRANCH   5   6
ATOM      6  C   UNL     1      27.946  26.292 -17.100  1.00  0.00     0.042 C 
ATOM      7  O   UNL     1      27.674  27.480 -16.788  1.00  0.00    -0.550 OA
ATOM      8  O   UNL     1      29.268  25.863 -17.093  1.00  0.00    -0.550 OA
ENDBRANCH   5   6
ENDBRANCH   1   5
TORSDOF 3
ENDMDL
MODEL 4
REMARK VINA RESULT:    -2.987      4.074      5.238
REMARK INTER + INTRA:          -3.558
REMARK INTER:                  -3.491
REMARK INTRA:                  -0.067
REMARK UNBOUND:                -0.047
REMARK SMILES O=C([O-])CCC(=O)[O-]
REMARK SMILES IDX 4 1 2 2 1 3 3 4 5 5 6 6 7 7 8 8
REMARK H PARENT
REMARK Flexibility Score: inf
ROOT
ATOM      1  C   UNL     1      28.100  24.823 -17.996  1.00  0.00     0.059 C 
ENDROOT
BRANCH   1   2
ATOM      2  C   UNL     1      27.296  25.681 -17.071  1.00  0.00     0.042 C 
ATOM      3  O   UNL     1      26.403  25.167 -16.346  1.00  0.00    -0.550 OA
ATOM      4  O   UNL     1      27.566  27.040 -16.972  1.00  0.00    -0.550 OA
ENDBRANCH   1   2
BRANCH   1   5
ATOM      5  C   UNL     1      27.217  23.745 -18.629  1.00  0.00     0.059 C 
BRANCH   5   6
ATOM      6  C   UNL     1      26.713  24.198 -19.963  1.00  0.00     0.042 C 
ATOM      7  O   UNL     1      27.152  23.671 -21.018  1.00  0.00    -0.550 OA
ATOM      8  O   UNL     1      25.794  25.237 -20.042  1.00  0.00    -0.550 OA
ENDBRANCH   5   6
ENDBRANCH   1   5
TORSDOF 3
ENDMDL
MODEL 5
REMARK VINA RESULT:    -2.935      4.570      5.775
REMARK INTER + INTRA:          -3.496
REMARK INTER:                  -3.375
REMARK INTRA:                  -0.121
REMARK UNBOUND:                -0.047
REMARK SMILES O=C([O-])CCC(=O)[O-]
REMARK SMILES IDX 4 1 2 2 1 3 3 4 5 5 6 6 7 7 8 8
REMARK H PARENT
REMARK Flexibility Score: inf
ROOT
ATOM      1  C   UNL     1      27.534  24.306 -18.031  1.00  0.00     0.059 C 
ENDROOT
BRANCH   1   2
ATOM      2  C   UNL     1      26.649  24.461 -19.227  1.00  0.00     0.042 C 
ATOM      3  O   UNL     1      25.608  25.168 -19.157  1.00  0.00    -0.550 OA
ATOM      4  O   UNL     1      26.999  23.867 -20.433  1.00  0.00    -0.550 OA
ENDBRANCH   1   2
BRANCH   1   5
ATOM      5  C   UNL     1      27.705  25.647 -17.314  1.00  0.00     0.059 C 
BRANCH   5   6
ATOM      6  C   UNL     1      27.100  25.590 -15.947  1.00  0.00     0.042 C 
ATOM      7  O   UNL     1      26.103  24.855 -15.726  1.00  0.00    -0.550 OA
ATOM      8  O   UNL     1      27.607  26.388 -14.928  1.00  0.00    -0.550 OA
ENDBRANCH   5   6
ENDBRANCH   1   5
TORSDOF 3
ENDMDL
MODEL 6
REMARK VINA RESULT:    -2.914      3.814      5.178
REMARK INTER + INTRA:          -3.472
REMARK INTER:                  -3.382
REMARK INTRA:                  -0.091
REMARK UNBOUND:                -0.047
REMARK SMILES O=C([O-])CCC(=O)[O-]
REMARK SMILES IDX 4 1 2 2 1 3 3 4 5 5 6 6 7 7 8 8
REMARK H PARENT
REMARK Flexibility Score: inf
ROOT
ATOM      1  C   UNL     1      27.233  24.931 -17.196  1.00  0.00     0.059 C 
ENDROOT
BRANCH   1   2
ATOM      2  C   UNL     1      28.151  26.101 -17.035  1.00  0.00     0.042 C 
ATOM      3  O   UNL     1      29.397  25.945 -17.127  1.00  0.00    -0.550 OA
ATOM      4  O   UNL     1      27.629  27.372 -16.831  1.00  0.00    -0.550 OA
ENDBRANCH   1   2
BRANCH   1   5
ATOM      5  C   UNL     1      27.623  24.110 -18.427  1.00  0.00     0.059 C 
BRANCH   5   6
ATOM      6  C   UNL     1      26.708  24.412 -19.571  1.00  0.00     0.042 C 
ATOM      7  O   UNL     1      25.745  25.207 -19.418  1.00  0.00    -0.550 OA
ATOM      8  O   UNL     1      26.891  23.779 -20.794  1.00  0.00    -0.550 OA
ENDBRANCH   5   6
ENDBRANCH   1   5
TORSDOF 3
ENDMDL
MODEL 7
REMARK VINA RESULT:    -2.774     11.087     12.336
REMARK INTER + INTRA:          -3.307
REMARK INTER:                  -3.227
REMARK INTRA:                  -0.080
REMARK UNBOUND:                -0.047
REMARK SMILES O=C([O-])CCC(=O)[O-]
REMARK SMILES IDX 4 1 2 2 1 3 3 4 5 5 6 6 7 7 8 8
REMARK H PARENT
REMARK Flexibility Score: inf
ROOT
ATOM      1  C   UNL     1      39.002  28.995 -18.035  1.00  0.00     0.059 C 
ENDROOT
BRANCH   1   2
ATOM      2  C   UNL     1      40.413  29.158 -18.504  1.00  0.00     0.042 C 
ATOM      3  O   UNL     1      41.094  28.150 -18.829  1.00  0.00    -0.550 OA
ATOM      4  O   UNL     1      40.960  30.429 -18.631  1.00  0.00    -0.550 OA
ENDBRANCH   1   2
BRANCH   1   5
ATOM      5  C   UNL     1      38.783  27.585 -17.480  1.00  0.00     0.059 C 
BRANCH   5   6
ATOM      6  C   UNL     1      38.376  27.646 -16.041  1.00  0.00     0.042 C 
ATOM      7  O   UNL     1      38.810  28.565 -15.299  1.00  0.00    -0.550 OA
ATOM      8  O   UNL     1      37.556  26.660 -15.508  1.00  0.00    -0.550 OA
ENDBRANCH   5   6
ENDBRANCH   1   5
TORSDOF 3
ENDMDL
MODEL 8
REMARK VINA RESULT:    -2.760     11.302     12.107
REMARK INTER + INTRA:          -3.290
REMARK INTER:                  -3.206
REMARK INTRA:                  -0.084
REMARK UNBOUND:                -0.047
REMARK SMILES O=C([O-])CCC(=O)[O-]
REMARK SMILES IDX 4 1 2 2 1 3 3 4 5 5 6 6 7 7 8 8
REMARK H PARENT
REMARK Flexibility Score: inf
ROOT
ATOM      1  C   UNL     1      38.646  27.573 -17.487  1.00  0.00     0.059 C 
ENDROOT
BRANCH   1   2
ATOM      2  C   UNL     1      38.419  27.542 -16.009  1.00  0.00     0.042 C 
ATOM      3  O   UNL     1      37.938  26.514 -15.464  1.00  0.00    -0.550 OA
ATOM      4  O   UNL     1      38.786  28.630 -15.226  1.00  0.00    -0.550 OA
ENDBRANCH   1   2
BRANCH   1   5
ATOM      5  C   UNL     1      38.973  28.995 -17.949  1.00  0.00     0.059 C 
BRANCH   5   6
ATOM      6  C   UNL     1      40.390  29.081 -18.419  1.00  0.00     0.042 C 
ATOM      7  O   UNL     1      40.958  30.200 -18.518  1.00  0.00    -0.550 OA
ATOM      8  O   UNL     1      41.069  27.928 -18.793  1.00  0.00    -0.550 OA
ENDBRANCH   5   6
ENDBRANCH   1   5
TORSDOF 3
ENDMDL
MODEL 9
REMARK VINA RESULT:    -2.733      3.003      4.528
REMARK INTER + INTRA:          -3.259
REMARK INTER:                  -3.180
REMARK INTRA:                  -0.080
REMARK UNBOUND:                -0.047
REMARK SMILES O=C([O-])CCC(=O)[O-]
REMARK SMILES IDX 4 1 2 2 1 3 3 4 5 5 6 6 7 7 8 8
REMARK H PARENT
REMARK Flexibility Score: inf
ROOT
ATOM      1  C   UNL     1      27.097  25.506 -16.917  1.00  0.00     0.059 C 
ENDROOT
BRANCH   1   2
ATOM      2  C   UNL     1      26.826  24.858 -18.238  1.00  0.00     0.042 C 
ATOM      3  O   UNL     1      27.650  24.038 -18.722  1.00  0.00    -0.550 OA
ATOM      4  O   UNL     1      25.640  25.122 -18.911  1.00  0.00    -0.550 OA
ENDBRANCH   1   2
BRANCH   1   5
ATOM      5  C   UNL     1      28.558  25.955 -16.830  1.00  0.00     0.059 C 
BRANCH   5   6
ATOM      6  C   UNL     1      28.646  27.448 -16.809  1.00  0.00     0.042 C 
ATOM      7  O   UNL     1      29.722  28.015 -16.485  1.00  0.00    -0.550 OA
ATOM      8  O   UNL     1      27.524  28.215 -17.100  1.00  0.00    -0.550 OA
ENDBRANCH   5   6
ENDBRANCH   1   5
TORSDOF 3
ENDMDL
