MODEL 1
REMARK VINA RESULT:    -5.296      0.000      0.000
REMARK INTER + INTRA:          -6.248
REMARK INTER:                  -6.070
REMARK INTRA:                  -0.177
REMARK UNBOUND:                -0.177
REMARK SMILES CC=Cc1ccc(O)c(OC)c1
REMARK SMILES IDX 4 1 12 2 9 3 7 4 6 5 5 6 3 7 1 8 2 9 10 10 11 11 8 12
REMARK H PARENT 8 13
REMARK Flexibility Score: inf
ROOT
ATOM      1  C   UNL     1     -10.166   5.428   6.091  1.00  0.00    -0.022 A 
ATOM      2  C   UNL     1     -10.534   4.661   7.215  1.00  0.00     0.058 A 
ATOM      3  C   UNL     1     -11.280   3.474   7.065  1.00  0.00     0.161 A 
ATOM      4  C   UNL     1     -11.650   3.053   5.775  1.00  0.00     0.157 A 
ATOM      5  C   UNL     1     -11.271   3.803   4.659  1.00  0.00     0.051 A 
ATOM      6  C   UNL     1     -10.531   4.976   4.814  1.00  0.00     0.012 A 
ENDROOT
BRANCH   1   7
ATOM      7  C   UNL     1      -9.374   6.677   6.201  1.00  0.00     0.003 C 
ATOM      8  C   UNL     1      -8.521   8.861   5.445  1.00  0.00     0.035 C 
ATOM      9  C   UNL     1      -9.359   7.636   5.268  1.00  0.00    -0.030 C 
ENDBRANCH   1   7
BRANCH   3  10
ATOM     10  O   UNL     1     -11.667   2.694   8.167  1.00  0.00    -0.493 OA
ATOM     11  C   UNL     1     -12.032   3.215   9.441  1.00  0.00     0.278 C 
ENDBRANCH   3  10
BRANCH   4  12
ATOM     12  O   UNL     1     -12.391   1.888   5.581  1.00  0.00    -0.504 OA
ATOM     13  H   UNL     1     -12.286   1.075   6.178  1.00  0.00     0.293 HD
ENDBRANCH   4  12
TORSDOF 3
ENDMDL
MODEL 2
REMARK VINA RESULT:    -5.201      1.184      2.636
REMARK INTER + INTRA:          -6.138
REMARK INTER:                  -5.976
REMARK INTRA:                  -0.162
REMARK UNBOUND:                -0.177
REMARK SMILES CC=Cc1ccc(O)c(OC)c1
REMARK SMILES IDX 4 1 12 2 9 3 7 4 6 5 5 6 3 7 1 8 2 9 10 10 11 11 8 12
REMARK H PARENT 8 13
REMARK Flexibility Score: inf
ROOT
ATOM      1  C   UNL     1     -10.269   5.619   6.260  1.00  0.00    -0.022 A 
ATOM      2  C   UNL     1     -11.036   5.236   5.141  1.00  0.00     0.058 A 
ATOM      3  C   UNL     1     -11.885   4.111   5.201  1.00  0.00     0.161 A 
ATOM      4  C   UNL     1     -11.968   3.375   6.396  1.00  0.00     0.157 A 
ATOM      5  C   UNL     1     -11.221   3.764   7.510  1.00  0.00     0.051 A 
ATOM      6  C   UNL     1     -10.384   4.879   7.446  1.00  0.00     0.012 A 
ENDROOT
BRANCH   1   7
ATOM      7  C   UNL     1      -9.371   6.800   6.246  1.00  0.00     0.003 C 
ATOM      8  C   UNL     1      -8.402   8.865   5.315  1.00  0.00     0.035 C 
ATOM      9  C   UNL     1      -9.348   7.709   5.264  1.00  0.00    -0.030 C 
ENDBRANCH   1   7
BRANCH   3  10
ATOM     10  O   UNL     1     -12.655   3.702   4.100  1.00  0.00    -0.493 OA
ATOM     11  C   UNL     1     -13.776   4.414   3.585  1.00  0.00     0.278 C 
ENDBRANCH   3  10
BRANCH   4  12
ATOM     12  O   UNL     1     -12.791   2.254   6.496  1.00  0.00    -0.504 OA
ATOM     13  H   UNL     1     -13.460   2.008   5.776  1.00  0.00     0.293 HD
ENDBRANCH   4  12
TORSDOF 3
ENDMDL
MODEL 3
REMARK VINA RESULT:    -4.716      2.833      3.371
REMARK INTER + INTRA:          -5.582
REMARK INTER:                  -5.416
REMARK INTRA:                  -0.166
REMARK UNBOUND:                -0.177
REMARK SMILES CC=Cc1ccc(O)c(OC)c1
REMARK SMILES IDX 4 1 12 2 9 3 7 4 6 5 5 6 3 7 1 8 2 9 10 10 11 11 8 12
REMARK H PARENT 8 13
REMARK Flexibility Score: inf
ROOT
ATOM      1  C   UNL     1     -13.258   5.242   5.505  1.00  0.00    -0.022 A 
ATOM      2  C   UNL     1     -12.707   4.653   6.661  1.00  0.00     0.058 A 
ATOM      3  C   UNL     1     -12.077   3.393   6.597  1.00  0.00     0.161 A 
ATOM      4  C   UNL     1     -11.995   2.727   5.361  1.00  0.00     0.157 A 
ATOM      5  C   UNL     1     -12.526   3.318   4.212  1.00  0.00     0.051 A 
ATOM      6  C   UNL     1     -13.147   4.566   4.281  1.00  0.00     0.012 A 
ENDROOT
BRANCH   1   7
ATOM      7  C   UNL     1     -13.920   6.569   5.523  1.00  0.00     0.003 C 
ATOM      8  C   UNL     1     -15.774   8.152   5.164  1.00  0.00     0.035 C 
ATOM      9  C   UNL     1     -15.182   6.780   5.130  1.00  0.00    -0.030 C 
ENDBRANCH   1   7
BRANCH   3  10
ATOM     10  O   UNL     1     -11.525   2.779   7.733  1.00  0.00    -0.493 OA
ATOM     11  C   UNL     1     -12.134   2.758   9.020  1.00  0.00     0.278 C 
ENDBRANCH   3  10
BRANCH   4  12
ATOM     12  O   UNL     1     -11.385   1.477   5.254  1.00  0.00    -0.504 OA
ATOM     13  H   UNL     1     -11.397   0.942   4.393  1.00  0.00     0.293 HD
ENDBRANCH   4  12
TORSDOF 3
ENDMDL
MODEL 4
REMARK VINA RESULT:    -4.683      2.050      2.712
REMARK INTER + INTRA:          -5.545
REMARK INTER:                  -5.399
REMARK INTRA:                  -0.146
REMARK UNBOUND:                -0.177
REMARK SMILES CC=Cc1ccc(O)c(OC)c1
REMARK SMILES IDX 4 1 12 2 9 3 7 4 6 5 5 6 3 7 1 8 2 9 10 10 11 11 8 12
REMARK H PARENT 8 13
REMARK Flexibility Score: inf
ROOT
ATOM      1  C   UNL     1     -10.516   5.874   6.069  1.00  0.00    -0.022 A 
ATOM      2  C   UNL     1     -11.806   6.088   5.544  1.00  0.00     0.058 A 
ATOM      3  C   UNL     1     -12.824   5.128   5.721  1.00  0.00     0.161 A 
ATOM      4  C   UNL     1     -12.543   3.951   6.438  1.00  0.00     0.157 A 
ATOM      5  C   UNL     1     -11.269   3.747   6.973  1.00  0.00     0.051 A 
ATOM      6  C   UNL     1     -10.266   4.700   6.796  1.00  0.00     0.012 A 
ENDROOT
BRANCH   1   7
ATOM      7  C   UNL     1      -9.417   6.859   5.917  1.00  0.00     0.003 C 
ATOM      8  C   UNL     1      -8.405   8.994   5.216  1.00  0.00     0.035 C 
ATOM      9  C   UNL     1      -9.566   8.061   5.347  1.00  0.00    -0.030 C 
ENDBRANCH   1   7
BRANCH   3  10
ATOM     10  O   UNL     1     -14.117   5.312   5.203  1.00  0.00    -0.493 OA
ATOM     11  C   UNL     1     -14.786   6.566   5.121  1.00  0.00     0.278 C 
ENDBRANCH   3  10
BRANCH   4  12
ATOM     12  O   UNL     1     -13.519   2.975   6.632  1.00  0.00    -0.504 OA
ATOM     13  H   UNL     1     -14.495   3.136   6.413  1.00  0.00     0.293 HD
ENDBRANCH   4  12
TORSDOF 3
ENDMDL
MODEL 5
REMARK VINA RESULT:    -4.630      4.637      7.095
REMARK INTER + INTRA:          -5.483
REMARK INTER:                  -5.310
REMARK INTRA:                  -0.173
REMARK UNBOUND:                -0.177
REMARK SMILES CC=Cc1ccc(O)c(OC)c1
REMARK SMILES IDX 4 1 12 2 9 3 7 4 6 5 5 6 3 7 1 8 2 9 10 10 11 11 8 12
REMARK H PARENT 8 13
REMARK Flexibility Score: inf
ROOT
ATOM      1  C   UNL     1      -9.237   8.537   5.327  1.00  0.00    -0.022 A 
ATOM      2  C   UNL     1      -8.011   9.044   5.802  1.00  0.00     0.058 A 
ATOM      3  C   UNL     1      -7.882  10.402   6.158  1.00  0.00     0.161 A 
ATOM      4  C   UNL     1      -8.996  11.252   6.043  1.00  0.00     0.157 A 
ATOM      5  C   UNL     1     -10.216  10.747   5.589  1.00  0.00     0.051 A 
ATOM      6  C   UNL     1     -10.339   9.402   5.239  1.00  0.00     0.012 A 
ENDROOT
BRANCH   1   7
ATOM      7  C   UNL     1      -9.422   7.115   4.950  1.00  0.00     0.003 C 
ATOM      8  C   UNL     1     -10.483   4.893   5.044  1.00  0.00     0.035 C 
ATOM      9  C   UNL     1     -10.371   6.323   5.464  1.00  0.00    -0.030 C 
ENDBRANCH   1   7
BRANCH   3  10
ATOM     10  O   UNL     1      -6.670  10.936   6.628  1.00  0.00    -0.493 OA
ATOM     11  C   UNL     1      -5.417  10.811   5.962  1.00  0.00     0.278 C 
ENDBRANCH   3  10
BRANCH   4  12
ATOM     12  O   UNL     1      -8.911  12.603   6.380  1.00  0.00    -0.504 OA
ATOM     13  H   UNL     1      -9.505  13.304   5.955  1.00  0.00     0.293 HD
ENDBRANCH   4  12
TORSDOF 3
ENDMDL
MODEL 6
REMARK VINA RESULT:    -4.520      4.739      7.372
REMARK INTER + INTRA:          -5.358
REMARK INTER:                  -5.196
REMARK INTRA:                  -0.162
REMARK UNBOUND:                -0.177
REMARK SMILES CC=Cc1ccc(O)c(OC)c1
REMARK SMILES IDX 4 1 12 2 9 3 7 4 6 5 5 6 3 7 1 8 2 9 10 10 11 11 8 12
REMARK H PARENT 8 13
REMARK Flexibility Score: inf
ROOT
ATOM      1  C   UNL     1      -9.133   8.834   5.437  1.00  0.00    -0.022 A 
ATOM      2  C   UNL     1      -9.951   9.931   5.099  1.00  0.00     0.058 A 
ATOM      3  C   UNL     1      -9.696  11.211   5.633  1.00  0.00     0.161 A 
ATOM      4  C   UNL     1      -8.607  11.388   6.505  1.00  0.00     0.157 A 
ATOM      5  C   UNL     1      -7.786  10.305   6.827  1.00  0.00     0.051 A 
ATOM      6  C   UNL     1      -8.043   9.041   6.295  1.00  0.00     0.012 A 
ENDROOT
BRANCH   1   7
ATOM      7  C   UNL     1      -9.358   7.473   4.892  1.00  0.00     0.003 C 
ATOM      8  C   UNL     1     -10.114   5.129   4.963  1.00  0.00     0.035 C 
ATOM      9  C   UNL     1      -9.937   6.480   5.577  1.00  0.00    -0.030 C 
ENDBRANCH   1   7
BRANCH   3  10
ATOM     10  O   UNL     1     -10.498  12.321   5.319  1.00  0.00    -0.493 OA
ATOM     11  C   UNL     1     -10.843  12.724   3.997  1.00  0.00     0.278 C 
ENDBRANCH   3  10
BRANCH   4  12
ATOM     12  O   UNL     1      -8.322  12.636   7.059  1.00  0.00    -0.504 OA
ATOM     13  H   UNL     1      -8.471  12.838   8.041  1.00  0.00     0.293 HD
ENDBRANCH   4  12
TORSDOF 3
ENDMDL
MODEL 7
REMARK VINA RESULT:    -4.399      3.032      5.070
REMARK INTER + INTRA:          -5.219
REMARK INTER:                  -5.065
REMARK INTRA:                  -0.154
REMARK UNBOUND:                -0.177
REMARK SMILES CC=Cc1ccc(O)c(OC)c1
REMARK SMILES IDX 4 1 12 2 9 3 7 4 6 5 5 6 3 7 1 8 2 9 10 10 11 11 8 12
REMARK H PARENT 8 13
REMARK Flexibility Score: inf
ROOT
ATOM      1  C   UNL     1     -11.594   4.510   7.034  1.00  0.00    -0.022 A 
ATOM      2  C   UNL     1     -12.458   5.563   6.674  1.00  0.00     0.058 A 
ATOM      3  C   UNL     1     -11.966   6.699   5.997  1.00  0.00     0.161 A 
ATOM      4  C   UNL     1     -10.599   6.768   5.673  1.00  0.00     0.157 A 
ATOM      5  C   UNL     1      -9.746   5.716   6.015  1.00  0.00     0.051 A 
ATOM      6  C   UNL     1     -10.238   4.595   6.683  1.00  0.00     0.012 A 
ENDROOT
BRANCH   1   7
ATOM      7  C   UNL     1     -12.069   3.293   7.737  1.00  0.00     0.003 C 
ATOM      8  C   UNL     1     -12.410   1.821   9.683  1.00  0.00     0.035 C 
ATOM      9  C   UNL     1     -11.917   3.082   9.050  1.00  0.00    -0.030 C 
ENDBRANCH   1   7
BRANCH   3  10
ATOM     10  O   UNL     1     -12.802   7.767   5.631  1.00  0.00    -0.493 OA
ATOM     11  C   UNL     1     -14.191   7.646   5.342  1.00  0.00     0.278 C 
ENDBRANCH   3  10
BRANCH   4  12
ATOM     12  O   UNL     1     -10.071   7.874   5.009  1.00  0.00    -0.504 OA
ATOM     13  H   UNL     1     -10.546   8.313   4.229  1.00  0.00     0.293 HD
ENDBRANCH   4  12
TORSDOF 3
ENDMDL
MODEL 8
REMARK VINA RESULT:    -4.300      2.391      3.711
REMARK INTER + INTRA:          -5.106
REMARK INTER:                  -4.943
REMARK INTRA:                  -0.163
REMARK UNBOUND:                -0.177
REMARK SMILES CC=Cc1ccc(O)c(OC)c1
REMARK SMILES IDX 4 1 12 2 9 3 7 4 6 5 5 6 3 7 1 8 2 9 10 10 11 11 8 12
REMARK H PARENT 8 13
REMARK Flexibility Score: inf
ROOT
ATOM      1  C   UNL     1      -9.407   8.521   5.363  1.00  0.00    -0.022 A 
ATOM      2  C   UNL     1      -9.500   7.121   5.494  1.00  0.00     0.058 A 
ATOM      3  C   UNL     1     -10.754   6.495   5.650  1.00  0.00     0.161 A 
ATOM      4  C   UNL     1     -11.919   7.282   5.664  1.00  0.00     0.157 A 
ATOM      5  C   UNL     1     -11.828   8.667   5.516  1.00  0.00     0.051 A 
ATOM      6  C   UNL     1     -10.585   9.282   5.361  1.00  0.00     0.012 A 
ENDROOT
BRANCH   1   7
ATOM      7  C   UNL     1      -8.111   9.222   5.187  1.00  0.00     0.003 C 
ATOM      8  C   UNL     1      -6.124  10.474   5.931  1.00  0.00     0.035 C 
ATOM      9  C   UNL     1      -7.416   9.770   6.191  1.00  0.00    -0.030 C 
ENDBRANCH   1   7
BRANCH   3  10
ATOM     10  O   UNL     1     -10.877   5.102   5.790  1.00  0.00    -0.493 OA
ATOM     11  C   UNL     1     -10.806   4.403   7.029  1.00  0.00     0.278 C 
ENDBRANCH   3  10
BRANCH   4  12
ATOM     12  O   UNL     1     -13.178   6.703   5.820  1.00  0.00    -0.504 OA
ATOM     13  H   UNL     1     -13.298   5.740   6.112  1.00  0.00     0.293 HD
ENDBRANCH   4  12
TORSDOF 3
ENDMDL
MODEL 9
REMARK VINA RESULT:    -4.240     16.375     18.335
REMARK INTER + INTRA:          -5.037
REMARK INTER:                  -4.874
REMARK INTRA:                  -0.163
REMARK UNBOUND:                -0.177
REMARK SMILES CC=Cc1ccc(O)c(OC)c1
REMARK SMILES IDX 4 1 12 2 9 3 7 4 6 5 5 6 3 7 1 8 2 9 10 10 11 11 8 12
REMARK H PARENT 8 13
REMARK Flexibility Score: inf
ROOT
ATOM      1  C   UNL     1     -12.292  -6.667  -7.933  1.00  0.00    -0.022 A 
ATOM      2  C   UNL     1     -11.128  -5.987  -8.344  1.00  0.00     0.058 A 
ATOM      3  C   UNL     1     -10.150  -5.601  -7.404  1.00  0.00     0.161 A 
ATOM      4  C   UNL     1     -10.342  -5.909  -6.046  1.00  0.00     0.157 A 
ATOM      5  C   UNL     1     -11.488  -6.597  -5.640  1.00  0.00     0.051 A 
ATOM      6  C   UNL     1     -12.452  -6.978  -6.575  1.00  0.00     0.012 A 
ENDROOT
BRANCH   1   7
ATOM      7  C   UNL     1     -13.342  -7.101  -8.887  1.00  0.00     0.003 C 
ATOM      8  C   UNL     1     -15.600  -7.125  -9.873  1.00  0.00     0.035 C 
ATOM      9  C   UNL     1     -14.594  -6.626  -8.888  1.00  0.00    -0.030 C 
ENDBRANCH   1   7
BRANCH   3  10
ATOM     10  O   UNL     1      -8.983  -4.917  -7.784  1.00  0.00    -0.493 OA
ATOM     11  C   UNL     1      -8.194  -5.233  -8.926  1.00  0.00     0.278 C 
ENDBRANCH   3  10
BRANCH   4  12
ATOM     12  O   UNL     1      -9.403  -5.541  -5.083  1.00  0.00    -0.504 OA
ATOM     13  H   UNL     1      -8.574  -5.006  -5.314  1.00  0.00     0.293 HD
ENDBRANCH   4  12
TORSDOF 3
ENDMDL
