MODEL 1
REMARK VINA RESULT:    -1.982      0.000      0.000
REMARK INTER + INTRA:          -3.171
REMARK INTER:                  -2.677
REMARK INTRA:                  -0.494
REMARK UNBOUND:                -0.494
REMARK SMILES CCCCCCCC=O
REMARK SMILES IDX 5 1 4 2 3 3 2 4 1 5 6 6 7 7 8 8 9 9
REMARK H PARENT
REMARK Flexibility Score: inf
ROOT
ATOM      1  C   UNL     1     132.003 145.788 139.058  1.00  0.00     0.000 C 
ENDROOT
BRANCH   1   2
ATOM      2  C   UNL     1     131.110 146.306 137.919  1.00  0.00     0.000 C 
BRANCH   2   3
ATOM      3  C   UNL     1     129.608 146.123 138.206  1.00  0.00    -0.000 C 
BRANCH   3   4
ATOM      4  C   UNL     1     129.283 145.186 139.383  1.00  0.00    -0.003 C 
ATOM      5  C   UNL     1     128.678 143.855 138.939  1.00  0.00     0.004 C 
ENDBRANCH   3   4
ENDBRANCH   2   3
ENDBRANCH   1   2
BRANCH   1   6
ATOM      6  C   UNL     1     132.966 146.880 139.539  1.00  0.00     0.008 C 
BRANCH   6   7
ATOM      7  C   UNL     1     132.198 148.099 140.062  1.00  0.00     0.072 C 
BRANCH   7   8
ATOM      8  C   UNL     1     131.444 147.763 141.313  1.00  0.00     0.224 C 
ATOM      9  O   UNL     1     130.252 148.010 141.402  1.00  0.00    -0.303 OA
ENDBRANCH   7   8
ENDBRANCH   6   7
ENDBRANCH   1   6
TORSDOF 6
ENDMDL
MODEL 2
REMARK VINA RESULT:    -1.954     12.384     13.739
REMARK INTER + INTRA:          -3.133
REMARK INTER:                  -2.493
REMARK INTRA:                  -0.639
REMARK UNBOUND:                -0.494
REMARK SMILES CCCCCCCC=O
REMARK SMILES IDX 5 1 4 2 3 3 2 4 1 5 6 6 7 7 8 8 9 9
REMARK H PARENT
REMARK Flexibility Score: inf
ROOT
ATOM      1  C   UNL     1     146.028 146.202 140.017  1.00  0.00     0.000 C 
ENDROOT
BRANCH   1   2
ATOM      2  C   UNL     1     145.118 145.013 139.672  1.00  0.00     0.000 C 
BRANCH   2   3
ATOM      3  C   UNL     1     143.793 145.442 139.017  1.00  0.00    -0.000 C 
BRANCH   3   4
ATOM      4  C   UNL     1     143.883 146.708 138.144  1.00  0.00    -0.003 C 
ATOM      5  C   UNL     1     142.921 147.810 138.588  1.00  0.00     0.004 C 
ENDBRANCH   3   4
ENDBRANCH   2   3
ENDBRANCH   1   2
BRANCH   1   6
ATOM      6  C   UNL     1     145.882 146.596 141.491  1.00  0.00     0.008 C 
BRANCH   6   7
ATOM      7  C   UNL     1     145.159 147.940 141.633  1.00  0.00     0.072 C 
BRANCH   7   8
ATOM      8  C   UNL     1     143.890 147.786 142.418  1.00  0.00     0.224 C 
ATOM      9  O   UNL     1     143.033 146.994 142.059  1.00  0.00    -0.303 OA
ENDBRANCH   7   8
ENDBRANCH   6   7
ENDBRANCH   1   6
TORSDOF 6
ENDMDL
MODEL 3
REMARK VINA RESULT:    -1.943      1.979      4.157
REMARK INTER + INTRA:          -3.118
REMARK INTER:                  -2.653
REMARK INTRA:                  -0.465
REMARK UNBOUND:                -0.494
REMARK SMILES CCCCCCCC=O
REMARK SMILES IDX 5 1 4 2 3 3 2 4 1 5 6 6 7 7 8 8 9 9
REMARK H PARENT
REMARK Flexibility Score: inf
ROOT
ATOM      1  C   UNL     1     131.139 146.286 137.788  1.00  0.00     0.000 C 
ENDROOT
BRANCH   1   2
ATOM      2  C   UNL     1     131.830 145.227 138.661  1.00  0.00     0.000 C 
BRANCH   2   3
ATOM      3  C   UNL     1     132.916 145.820 139.575  1.00  0.00    -0.000 C 
BRANCH   3   4
ATOM      4  C   UNL     1     132.893 147.354 139.697  1.00  0.00    -0.003 C 
ATOM      5  C   UNL     1     132.124 147.846 140.923  1.00  0.00     0.004 C 
ENDBRANCH   3   4
ENDBRANCH   2   3
ENDBRANCH   1   2
BRANCH   1   6
ATOM      6  C   UNL     1     129.613 146.180 137.900  1.00  0.00     0.008 C 
BRANCH   6   7
ATOM      7  C   UNL     1     129.201 145.600 139.258  1.00  0.00     0.072 C 
BRANCH   7   8
ATOM      8  C   UNL     1     128.191 144.505 139.089  1.00  0.00     0.224 C 
ATOM      9  O   UNL     1     128.517 143.430 138.610  1.00  0.00    -0.303 OA
ENDBRANCH   7   8
ENDBRANCH   6   7
ENDBRANCH   1   6
TORSDOF 6
ENDMDL
MODEL 4
REMARK VINA RESULT:    -1.924      1.679      2.873
REMARK INTER + INTRA:          -3.092
REMARK INTER:                  -2.756
REMARK INTRA:                  -0.336
REMARK UNBOUND:                -0.494
REMARK SMILES CCCCCCCC=O
REMARK SMILES IDX 5 1 4 2 3 3 2 4 1 5 6 6 7 7 8 8 9 9
REMARK H PARENT
REMARK Flexibility Score: inf
ROOT
ATOM      1  C   UNL     1     129.279 145.919 138.509  1.00  0.00     0.000 C 
ENDROOT
BRANCH   1   2
ATOM      2  C   UNL     1     129.477 144.568 139.214  1.00  0.00     0.000 C 
BRANCH   2   3
ATOM      3  C   UNL     1     128.361 143.557 138.896  1.00  0.00    -0.000 C 
BRANCH   3   4
ATOM      4  C   UNL     1     128.853 142.177 138.425  1.00  0.00    -0.003 C 
ATOM      5  C   UNL     1     130.377 142.051 138.432  1.00  0.00     0.004 C 
ENDBRANCH   3   4
ENDBRANCH   2   3
ENDBRANCH   1   2
BRANCH   1   6
ATOM      6  C   UNL     1     130.567 146.367 137.810  1.00  0.00     0.008 C 
BRANCH   6   7
ATOM      7  C   UNL     1     131.803 145.972 138.626  1.00  0.00     0.072 C 
BRANCH   7   8
ATOM      8  C   UNL     1     132.262 147.107 139.489  1.00  0.00     0.224 C 
ATOM      9  O   UNL     1     133.454 147.338 139.627  1.00  0.00    -0.303 OA
ENDBRANCH   7   8
ENDBRANCH   6   7
ENDBRANCH   1   6
TORSDOF 6
ENDMDL
MODEL 5
REMARK VINA RESULT:    -1.903      0.983      3.515
REMARK INTER + INTRA:          -3.064
REMARK INTER:                  -2.568
REMARK INTRA:                  -0.496
REMARK UNBOUND:                -0.494
REMARK SMILES CCCCCCCC=O
REMARK SMILES IDX 5 1 4 2 3 3 2 4 1 5 6 6 7 7 8 8 9 9
REMARK H PARENT
REMARK Flexibility Score: inf
ROOT
ATOM      1  C   UNL     1     129.525 146.191 138.142  1.00  0.00     0.000 C 
ENDROOT
BRANCH   1   2
ATOM      2  C   UNL     1     131.008 146.314 137.759  1.00  0.00     0.000 C 
BRANCH   2   3
ATOM      3  C   UNL     1     131.956 145.801 138.858  1.00  0.00    -0.000 C 
BRANCH   3   4
ATOM      4  C   UNL     1     132.886 146.869 139.461  1.00  0.00    -0.003 C 
ATOM      5  C   UNL     1     132.127 148.018 140.124  1.00  0.00     0.004 C 
ENDBRANCH   3   4
ENDBRANCH   2   3
ENDBRANCH   1   2
BRANCH   1   6
ATOM      6  C   UNL     1     129.289 144.969 139.037  1.00  0.00     0.008 C 
BRANCH   6   7
ATOM      7  C   UNL     1     128.536 145.359 140.314  1.00  0.00     0.072 C 
BRANCH   7   8
ATOM      8  C   UNL     1     128.412 146.848 140.430  1.00  0.00     0.224 C 
ATOM      9  O   UNL     1     128.838 147.430 141.416  1.00  0.00    -0.303 OA
ENDBRANCH   7   8
ENDBRANCH   6   7
ENDBRANCH   1   6
TORSDOF 6
ENDMDL
MODEL 6
REMARK VINA RESULT:    -1.899      1.958      2.868
REMARK INTER + INTRA:          -3.059
REMARK INTER:                  -2.531
REMARK INTRA:                  -0.528
REMARK UNBOUND:                -0.494
REMARK SMILES CCCCCCCC=O
REMARK SMILES IDX 5 1 4 2 3 3 2 4 1 5 6 6 7 7 8 8 9 9
REMARK H PARENT
REMARK Flexibility Score: inf
ROOT
ATOM      1  C   UNL     1     132.413 144.637 138.925  1.00  0.00     0.000 C 
ENDROOT
BRANCH   1   2
ATOM      2  C   UNL     1     132.262 143.868 137.603  1.00  0.00     0.000 C 
BRANCH   2   3
ATOM      3  C   UNL     1     131.551 142.514 137.775  1.00  0.00    -0.000 C 
BRANCH   3   4
ATOM      4  C   UNL     1     130.582 142.439 138.969  1.00  0.00    -0.003 C 
ATOM      5  C   UNL     1     129.113 142.423 138.547  1.00  0.00     0.004 C 
ENDBRANCH   3   4
ENDBRANCH   2   3
ENDBRANCH   1   2
BRANCH   1   6
ATOM      6  C   UNL     1     131.933 146.086 138.776  1.00  0.00     0.008 C 
BRANCH   6   7
ATOM      7  C   UNL     1     130.862 146.201 137.686  1.00  0.00     0.072 C 
BRANCH   7   8
ATOM      8  C   UNL     1     129.486 146.142 138.278  1.00  0.00     0.224 C 
ATOM      9  O   UNL     1     129.316 146.340 139.471  1.00  0.00    -0.303 OA
ENDBRANCH   7   8
ENDBRANCH   6   7
ENDBRANCH   1   6
TORSDOF 6
ENDMDL
MODEL 7
REMARK VINA RESULT:    -1.889      2.422      3.795
REMARK INTER + INTRA:          -3.046
REMARK INTER:                  -2.567
REMARK INTRA:                  -0.479
REMARK UNBOUND:                -0.494
REMARK SMILES CCCCCCCC=O
REMARK SMILES IDX 5 1 4 2 3 3 2 4 1 5 6 6 7 7 8 8 9 9
REMARK H PARENT
REMARK Flexibility Score: inf
ROOT
ATOM      1  C   UNL     1     133.328 146.737 139.812  1.00  0.00     0.000 C 
ENDROOT
BRANCH   1   2
ATOM      2  C   UNL     1     133.254 145.222 140.059  1.00  0.00     0.000 C 
BRANCH   2   3
ATOM      3  C   UNL     1     134.492 144.469 139.540  1.00  0.00    -0.000 C 
BRANCH   3   4
ATOM      4  C   UNL     1     134.193 143.367 138.509  1.00  0.00    -0.003 C 
ATOM      5  C   UNL     1     132.845 143.548 137.812  1.00  0.00     0.004 C 
ENDBRANCH   3   4
ENDBRANCH   2   3
ENDBRANCH   1   2
BRANCH   1   6
ATOM      6  C   UNL     1     131.929 147.327 139.598  1.00  0.00     0.008 C 
BRANCH   6   7
ATOM      7  C   UNL     1     130.865 146.224 139.564  1.00  0.00     0.072 C 
BRANCH   7   8
ATOM      8  C   UNL     1     130.184 146.177 138.230  1.00  0.00     0.224 C 
ATOM      9  O   UNL     1     130.799 146.446 137.210  1.00  0.00    -0.303 OA
ENDBRANCH   7   8
ENDBRANCH   6   7
ENDBRANCH   1   6
TORSDOF 6
ENDMDL
MODEL 8
REMARK VINA RESULT:    -1.874      2.445      3.720
REMARK INTER + INTRA:          -3.025
REMARK INTER:                  -2.438
REMARK INTRA:                  -0.588
REMARK UNBOUND:                -0.494
REMARK SMILES CCCCCCCC=O
REMARK SMILES IDX 5 1 4 2 3 3 2 4 1 5 6 6 7 7 8 8 9 9
REMARK H PARENT
REMARK Flexibility Score: inf
ROOT
ATOM      1  C   UNL     1     132.712 144.937 139.007  1.00  0.00     0.000 C 
ENDROOT
BRANCH   1   2
ATOM      2  C   UNL     1     131.908 146.240 138.879  1.00  0.00     0.000 C 
BRANCH   2   3
ATOM      3  C   UNL     1     130.896 146.209 137.719  1.00  0.00    -0.000 C 
BRANCH   3   4
ATOM      4  C   UNL     1     129.419 146.187 138.149  1.00  0.00    -0.003 C 
ATOM      5  C   UNL     1     129.236 146.257 139.665  1.00  0.00     0.004 C 
ENDBRANCH   3   4
ENDBRANCH   2   3
ENDBRANCH   1   2
BRANCH   1   6
ATOM      6  C   UNL     1     132.393 143.979 137.852  1.00  0.00     0.008 C 
BRANCH   6   7
ATOM      7  C   UNL     1     131.926 142.618 138.379  1.00  0.00     0.072 C 
BRANCH   7   8
ATOM      8  C   UNL     1     130.437 142.590 138.547  1.00  0.00     0.224 C 
ATOM      9  O   UNL     1     129.935 142.763 139.647  1.00  0.00    -0.303 OA
ENDBRANCH   7   8
ENDBRANCH   6   7
ENDBRANCH   1   6
TORSDOF 6
ENDMDL
