MODEL 1
REMARK VINA RESULT:    -2.811      0.000      0.000
REMARK INTER + INTRA:          -3.507
REMARK INTER:                  -3.222
REMARK INTRA:                  -0.285
REMARK UNBOUND:                -0.285
REMARK SMILES COC(=O)c1ccccc1O
REMARK SMILES IDX 5 1 6 2 7 3 8 4 9 5 10 6 3 7 4 8 2 9 1 10 11 11
REMARK H PARENT 11 12
REMARK Flexibility Score: inf
ROOT
ATOM      1  C   UNL     1     128.379 126.121 117.001  1.00  0.00     0.101 A 
ATOM      2  C   UNL     1     129.155 125.144 117.654  1.00  0.00     0.019 A 
ATOM      3  C   UNL     1     129.795 124.140 116.925  1.00  0.00     0.001 A 
ATOM      4  C   UNL     1     129.669 124.096 115.537  1.00  0.00     0.004 A 
ATOM      5  C   UNL     1     128.887 125.043 114.875  1.00  0.00     0.047 A 
ATOM      6  C   UNL     1     128.221 126.045 115.594  1.00  0.00     0.130 A 
ENDROOT
BRANCH   1   7
ATOM      7  C   UNL     1     127.789 127.212 117.806  1.00  0.00     0.341 C 
ATOM      8  O   UNL     1     128.461 127.736 118.737  1.00  0.00    -0.246 OA
BRANCH   7   9
ATOM      9  O   UNL     1     126.516 127.703 117.499  1.00  0.00    -0.465 OA
ATOM     10  C   UNL     1     125.828 128.628 118.334  1.00  0.00     0.282 C 
ENDBRANCH   7   9
ENDBRANCH   1   7
BRANCH   6  11
ATOM     11  O   UNL     1     127.392 126.915 114.883  1.00  0.00    -0.507 OA
ATOM     12  H   UNL     1     127.501 127.920 114.892  1.00  0.00     0.293 HD
ENDBRANCH   6  11
TORSDOF 3
ENDMDL
MODEL 2
REMARK VINA RESULT:    -2.773     14.606     15.764
REMARK INTER + INTRA:          -3.464
REMARK INTER:                  -3.180
REMARK INTRA:                  -0.284
REMARK UNBOUND:                -0.285
REMARK SMILES COC(=O)c1ccccc1O
REMARK SMILES IDX 5 1 6 2 7 3 8 4 9 5 10 6 3 7 4 8 2 9 1 10 11 11
REMARK H PARENT 11 12
REMARK Flexibility Score: inf
ROOT
ATOM      1  C   UNL     1     112.876 128.384 117.049  1.00  0.00     0.101 A 
ATOM      2  C   UNL     1     113.850 129.112 117.758  1.00  0.00     0.019 A 
ATOM      3  C   UNL     1     114.893 129.751 117.083  1.00  0.00     0.001 A 
ATOM      4  C   UNL     1     114.977 129.671 115.693  1.00  0.00     0.004 A 
ATOM      5  C   UNL     1     114.032 128.937 114.976  1.00  0.00     0.047 A 
ATOM      6  C   UNL     1     112.992 128.273 115.640  1.00  0.00     0.130 A 
ENDROOT
BRANCH   1   7
ATOM      7  C   UNL     1     111.746 127.796 117.800  1.00  0.00     0.341 C 
ATOM      8  O   UNL     1     111.156 128.480 118.680  1.00  0.00    -0.246 OA
BRANCH   7   9
ATOM      9  O   UNL     1     111.293 126.508 117.493  1.00  0.00    -0.465 OA
ATOM     10  C   UNL     1     110.596 125.696 118.431  1.00  0.00     0.282 C 
ENDBRANCH   7   9
ENDBRANCH   1   7
BRANCH   6  11
ATOM     11  O   UNL     1     112.125 127.491 114.875  1.00  0.00    -0.507 OA
ATOM     12  H   UNL     1     112.351 127.152 113.950  1.00  0.00     0.293 HD
ENDBRANCH   6  11
TORSDOF 3
ENDMDL
MODEL 3
REMARK VINA RESULT:    -2.755      9.287     10.239
REMARK INTER + INTRA:          -3.443
REMARK INTER:                  -3.133
REMARK INTRA:                  -0.310
REMARK UNBOUND:                -0.285
REMARK SMILES COC(=O)c1ccccc1O
REMARK SMILES IDX 5 1 6 2 7 3 8 4 9 5 10 6 3 7 4 8 2 9 1 10 11 11
REMARK H PARENT 11 12
REMARK Flexibility Score: inf
ROOT
ATOM      1  C   UNL     1     118.073 126.997 117.044  1.00  0.00     0.101 A 
ATOM      2  C   UNL     1     119.266 126.388 117.477  1.00  0.00     0.019 A 
ATOM      3  C   UNL     1     119.999 125.568 116.616  1.00  0.00     0.001 A 
ATOM      4  C   UNL     1     119.553 125.345 115.314  1.00  0.00     0.004 A 
ATOM      5  C   UNL     1     118.362 125.924 114.875  1.00  0.00     0.047 A 
ATOM      6  C   UNL     1     117.603 126.732 115.733  1.00  0.00     0.130 A 
ENDROOT
BRANCH   1   7
ATOM      7  C   UNL     1     117.376 127.923 117.963  1.00  0.00     0.341 C 
ATOM      8  O   UNL     1     117.255 127.620 119.182  1.00  0.00    -0.246 OA
BRANCH   7   9
ATOM      9  O   UNL     1     116.907 129.155 117.497  1.00  0.00    -0.465 OA
ATOM     10  C   UNL     1     117.755 130.115 116.879  1.00  0.00     0.282 C 
ENDBRANCH   7   9
ENDBRANCH   1   7
BRANCH   6  11
ATOM     11  O   UNL     1     116.383 127.219 115.260  1.00  0.00    -0.507 OA
ATOM     12  H   UNL     1     116.271 128.135 114.850  1.00  0.00     0.293 HD
ENDBRANCH   6  11
TORSDOF 3
ENDMDL
MODEL 4
REMARK VINA RESULT:    -2.747      2.993      4.169
REMARK INTER + INTRA:          -3.434
REMARK INTER:                  -3.085
REMARK INTRA:                  -0.349
REMARK UNBOUND:                -0.285
REMARK SMILES COC(=O)c1ccccc1O
REMARK SMILES IDX 5 1 6 2 7 3 8 4 9 5 10 6 3 7 4 8 2 9 1 10 11 11
REMARK H PARENT 11 12
REMARK Flexibility Score: inf
ROOT
ATOM      1  C   UNL     1     129.109 124.293 116.785  1.00  0.00     0.101 A 
ATOM      2  C   UNL     1     129.948 125.389 117.064  1.00  0.00     0.019 A 
ATOM      3  C   UNL     1     129.912 126.534 116.264  1.00  0.00     0.001 A 
ATOM      4  C   UNL     1     129.041 126.600 115.178  1.00  0.00     0.004 A 
ATOM      5  C   UNL     1     128.217 125.516 114.875  1.00  0.00     0.047 A 
ATOM      6  C   UNL     1     128.255 124.352 115.654  1.00  0.00     0.130 A 
ENDROOT
BRANCH   1   7
ATOM      7  C   UNL     1     129.122 123.138 117.708  1.00  0.00     0.341 C 
ATOM      8  O   UNL     1     129.169 123.333 118.954  1.00  0.00    -0.246 OA
BRANCH   7   9
ATOM      9  O   UNL     1     129.023 121.836 117.206  1.00  0.00    -0.465 OA
ATOM     10  C   UNL     1     130.122 121.160 116.606  1.00  0.00     0.282 C 
ENDBRANCH   7   9
ENDBRANCH   1   7
BRANCH   6  11
ATOM     11  O   UNL     1     127.465 123.273 115.254  1.00  0.00    -0.507 OA
ATOM     12  H   UNL     1     127.789 122.316 115.253  1.00  0.00     0.293 HD
ENDBRANCH   6  11
TORSDOF 3
ENDMDL
MODEL 5
REMARK VINA RESULT:    -2.735      2.775      4.492
REMARK INTER + INTRA:          -3.420
REMARK INTER:                  -3.126
REMARK INTRA:                  -0.294
REMARK UNBOUND:                -0.285
REMARK SMILES COC(=O)c1ccccc1O
REMARK SMILES IDX 5 1 6 2 7 3 8 4 9 5 10 6 3 7 4 8 2 9 1 10 11 11
REMARK H PARENT 11 12
REMARK Flexibility Score: inf
ROOT
ATOM      1  C   UNL     1     128.874 124.468 115.987  1.00  0.00     0.101 A 
ATOM      2  C   UNL     1     129.226 125.257 114.875  1.00  0.00     0.019 A 
ATOM      3  C   UNL     1     129.324 126.645 114.990  1.00  0.00     0.001 A 
ATOM      4  C   UNL     1     129.072 127.265 116.214  1.00  0.00     0.004 A 
ATOM      5  C   UNL     1     128.702 126.500 117.321  1.00  0.00     0.047 A 
ATOM      6  C   UNL     1     128.579 125.108 117.217  1.00  0.00     0.130 A 
ENDROOT
BRANCH   1   7
ATOM      7  C   UNL     1     128.864 122.997 115.837  1.00  0.00     0.341 C 
ATOM      8  O   UNL     1     129.816 122.423 115.241  1.00  0.00    -0.246 OA
BRANCH   7   9
ATOM      9  O   UNL     1     127.836 122.240 116.407  1.00  0.00    -0.465 OA
ATOM     10  C   UNL     1     126.978 121.407 115.635  1.00  0.00     0.282 C 
ENDBRANCH   7   9
ENDBRANCH   1   7
BRANCH   6  11
ATOM     11  O   UNL     1     128.129 124.409 118.339  1.00  0.00    -0.507 OA
ATOM     12  H   UNL     1     127.542 124.819 119.052  1.00  0.00     0.293 HD
ENDBRANCH   6  11
TORSDOF 3
ENDMDL
MODEL 6
REMARK VINA RESULT:    -2.724      4.920      5.739
REMARK INTER + INTRA:          -3.407
REMARK INTER:                  -3.060
REMARK INTRA:                  -0.347
REMARK UNBOUND:                -0.285
REMARK SMILES COC(=O)c1ccccc1O
REMARK SMILES IDX 5 1 6 2 7 3 8 4 9 5 10 6 3 7 4 8 2 9 1 10 11 11
REMARK H PARENT 11 12
REMARK Flexibility Score: inf
ROOT
ATOM      1  C   UNL     1     126.738 121.036 117.252  1.00  0.00     0.101 A 
ATOM      2  C   UNL     1     126.231 119.746 117.495  1.00  0.00     0.019 A 
ATOM      3  C   UNL     1     126.039 118.847 116.444  1.00  0.00     0.001 A 
ATOM      4  C   UNL     1     126.350 119.222 115.138  1.00  0.00     0.004 A 
ATOM      5  C   UNL     1     126.835 120.504 114.876  1.00  0.00     0.047 A 
ATOM      6  C   UNL     1     127.013 121.425 115.916  1.00  0.00     0.130 A 
ENDROOT
BRANCH   1   7
ATOM      7  C   UNL     1     127.002 121.923 118.405  1.00  0.00     0.341 C 
ATOM      8  O   UNL     1     126.189 121.954 119.370  1.00  0.00    -0.246 OA
BRANCH   7   9
ATOM      9  O   UNL     1     128.177 122.680 118.455  1.00  0.00    -0.465 OA
ATOM     10  C   UNL     1     129.460 122.093 118.635  1.00  0.00     0.282 C 
ENDBRANCH   7   9
ENDBRANCH   1   7
BRANCH   6  11
ATOM     11  O   UNL     1     127.425 122.716 115.580  1.00  0.00    -0.507 OA
ATOM     12  H   UNL     1     126.902 123.547 115.818  1.00  0.00     0.293 HD
ENDBRANCH   6  11
TORSDOF 3
ENDMDL
MODEL 7
REMARK VINA RESULT:    -2.714     11.867     14.511
REMARK INTER + INTRA:          -3.396
REMARK INTER:                  -3.111
REMARK INTRA:                  -0.285
REMARK UNBOUND:                -0.285
REMARK SMILES COC(=O)c1ccccc1O
REMARK SMILES IDX 5 1 6 2 7 3 8 4 9 5 10 6 3 7 4 8 2 9 1 10 11 11
REMARK H PARENT 11 12
REMARK Flexibility Score: inf
ROOT
ATOM      1  C   UNL     1     114.429 128.841 115.896  1.00  0.00     0.101 A 
ATOM      2  C   UNL     1     113.535 129.227 114.879  1.00  0.00     0.019 A 
ATOM      3  C   UNL     1     112.168 129.338 115.139  1.00  0.00     0.001 A 
ATOM      4  C   UNL     1     111.674 129.067 116.414  1.00  0.00     0.004 A 
ATOM      5  C   UNL     1     112.543 128.663 117.429  1.00  0.00     0.047 A 
ATOM      6  C   UNL     1     113.915 128.526 117.180  1.00  0.00     0.130 A 
ENDROOT
BRANCH   1   7
ATOM      7  C   UNL     1     115.877 128.818 115.596  1.00  0.00     0.341 C 
ATOM      8  O   UNL     1     116.414 129.809 115.030  1.00  0.00    -0.246 OA
BRANCH   7   9
ATOM      9  O   UNL     1     116.659 127.728 115.991  1.00  0.00    -0.465 OA
ATOM     10  C   UNL     1     118.024 127.586 115.615  1.00  0.00     0.282 C 
ENDBRANCH   7   9
ENDBRANCH   1   7
BRANCH   6  11
ATOM     11  O   UNL     1     114.720 128.044 118.213  1.00  0.00    -0.507 OA
ATOM     12  H   UNL     1     115.306 127.225 118.127  1.00  0.00     0.293 HD
ENDBRANCH   6  11
TORSDOF 3
ENDMDL
MODEL 8
REMARK VINA RESULT:    -2.705      9.416     10.868
REMARK INTER + INTRA:          -3.385
REMARK INTER:                  -3.057
REMARK INTRA:                  -0.328
REMARK UNBOUND:                -0.285
REMARK SMILES COC(=O)c1ccccc1O
REMARK SMILES IDX 5 1 6 2 7 3 8 4 9 5 10 6 3 7 4 8 2 9 1 10 11 11
REMARK H PARENT 11 12
REMARK Flexibility Score: inf
ROOT
ATOM      1  C   UNL     1     117.845 127.465 115.898  1.00  0.00     0.101 A 
ATOM      2  C   UNL     1     118.793 127.192 114.892  1.00  0.00     0.019 A 
ATOM      3  C   UNL     1     119.766 126.209 115.080  1.00  0.00     0.001 A 
ATOM      4  C   UNL     1     119.807 125.485 116.272  1.00  0.00     0.004 A 
ATOM      5  C   UNL     1     118.888 125.756 117.286  1.00  0.00     0.047 A 
ATOM      6  C   UNL     1     117.919 126.755 117.122  1.00  0.00     0.130 A 
ENDROOT
BRANCH   1   7
ATOM      7  C   UNL     1     116.784 128.457 115.620  1.00  0.00     0.341 C 
ATOM      8  O   UNL     1     117.031 129.447 114.878  1.00  0.00    -0.246 OA
BRANCH   7   9
ATOM      9  O   UNL     1     115.495 128.267 116.128  1.00  0.00    -0.465 OA
ATOM     10  C   UNL     1     114.745 129.316 116.730  1.00  0.00     0.282 C 
ENDBRANCH   7   9
ENDBRANCH   1   7
BRANCH   6  11
ATOM     11  O   UNL     1     117.080 127.032 118.203  1.00  0.00    -0.507 OA
ATOM     12  H   UNL     1     116.199 126.561 118.358  1.00  0.00     0.293 HD
ENDBRANCH   6  11
TORSDOF 3
ENDMDL
