MODEL 1
REMARK VINA RESULT:    -8.137      0.000      0.000
REMARK INTER + INTRA:         -10.674
REMARK INTER:                 -10.991
REMARK INTRA:                   0.317
REMARK UNBOUND:                 0.317
REMARK SMILES O=c1c(-c2ccc(O)cc2)coc2c([C@H]3O[C@H](CO)[C@@H](O)[C@H](O)[C@@H]3O)c(O)ccc12
REMARK SMILES IDX 3 1 11 2 12 3 13 4 30 5 2 6 1 7 29 8 28 9 26 10 14 11 4 12
REMARK SMILES IDX 5 13 6 14 7 15 10 16 9 17 8 18 15 20 24 21 16 22 22 23 17 24
REMARK SMILES IDX 20 25 25 26 23 28 18 30 19 31 21 33 27 35
REMARK H PARENT 8 19 25 27 23 29 19 32 21 34 27 36
REMARK Flexibility Score: inf
ROOT
ATOM      1  C   UNL     1      17.380  23.155  31.218  1.00  0.00     0.065 A 
ATOM      2  C   UNL     1      16.019  22.859  31.068  1.00  0.00     0.208 A 
ATOM      3  O   UNL     1      15.589  21.603  31.095  1.00  0.00    -0.463 OA
ATOM      4  C   UNL     1      16.393  20.555  31.261  1.00  0.00     0.147 A 
ATOM      5  C   UNL     1      17.780  20.768  31.440  1.00  0.00     0.066 A 
ATOM      6  C   UNL     1      18.271  22.086  31.418  1.00  0.00     0.200 A 
ATOM      7  O   UNL     1      19.501  22.311  31.599  1.00  0.00    -0.288 OA
ATOM      8  C   UNL     1      18.627  19.673  31.647  1.00  0.00     0.020 A 
ATOM      9  C   UNL     1      18.104  18.387  31.698  1.00  0.00     0.047 A 
ATOM     10  C   UNL     1      16.733  18.155  31.527  1.00  0.00     0.125 A 
ATOM     11  C   UNL     1      15.851  19.242  31.258  1.00  0.00     0.069 A 
ENDROOT
BRANCH   1  12
ATOM     12  C   UNL     1      17.840  24.566  31.172  1.00  0.00    -0.011 A 
ATOM     13  C   UNL     1      18.040  25.215  29.941  1.00  0.00     0.013 A 
ATOM     14  C   UNL     1      18.465  26.547  29.904  1.00  0.00     0.047 A 
ATOM     15  C   UNL     1      18.691  27.247  31.095  1.00  0.00     0.115 A 
ATOM     16  C   UNL     1      18.063  25.279  32.364  1.00  0.00     0.013 A 
ATOM     17  C   UNL     1      18.487  26.610  32.323  1.00  0.00     0.047 A 
BRANCH  15  18
ATOM     18  O   UNL     1      19.115  28.574  31.071  1.00  0.00    -0.508 OA
ATOM     19  H   UNL     1      19.261  29.098  31.926  1.00  0.00     0.293 HD
ENDBRANCH  15  18
ENDBRANCH   1  12
BRANCH  11  20
ATOM     20  C   UNL     1      14.327  19.108  31.027  1.00  0.00     0.188 C 
ATOM     21  C   UNL     1      13.709  17.734  30.659  1.00  0.00     0.179 C 
ATOM     22  O   UNL     1      13.857  20.092  30.112  1.00  0.00    -0.362 OA
ATOM     23  C   UNL     1      14.064  17.363  29.202  1.00  0.00     0.177 C 
ATOM     24  C   UNL     1      14.289  19.831  28.783  1.00  0.00     0.176 C 
ATOM     25  C   UNL     1      13.679  18.510  28.257  1.00  0.00     0.177 C 
BRANCH  21  26
ATOM     26  O   UNL     1      12.311  17.835  30.790  1.00  0.00    -0.387 OA
ATOM     27  H   UNL     1      12.075  17.509  31.698  1.00  0.00     0.211 HD
ENDBRANCH  21  26
BRANCH  23  28
ATOM     28  O   UNL     1      13.393  16.192  28.815  1.00  0.00    -0.387 OA
ATOM     29  H   UNL     1      13.023  16.363  27.909  1.00  0.00     0.211 HD
ENDBRANCH  23  28
BRANCH  24  30
ATOM     30  C   UNL     1      13.903  21.029  27.902  1.00  0.00     0.191 C 
BRANCH  30  31
ATOM     31  O   UNL     1      13.522  22.131  28.681  1.00  0.00    -0.394 OA
ATOM     32  H   UNL     1      12.958  21.780  29.419  1.00  0.00     0.210 HD
ENDBRANCH  30  31
ENDBRANCH  24  30
BRANCH  25  33
ATOM     33  O   UNL     1      14.170  18.223  26.971  1.00  0.00    -0.388 OA
ATOM     34  H   UNL     1      14.190  17.235  26.879  1.00  0.00     0.211 HD
ENDBRANCH  25  33
ENDBRANCH  11  20
BRANCH  10  35
ATOM     35  O   UNL     1      16.279  16.844  31.639  1.00  0.00    -0.507 OA
ATOM     36  H   UNL     1      15.313  16.591  31.468  1.00  0.00     0.293 HD
ENDBRANCH  10  35
TORSDOF 9
ENDMDL
MODEL 2
REMARK VINA RESULT:    -8.059      2.622      4.779
REMARK INTER + INTRA:         -10.568
REMARK INTER:                 -11.153
REMARK INTRA:                   0.585
REMARK UNBOUND:                 0.317
REMARK SMILES O=c1c(-c2ccc(O)cc2)coc2c([C@H]3O[C@H](CO)[C@@H](O)[C@H](O)[C@@H]3O)c(O)ccc12
REMARK SMILES IDX 3 1 11 2 12 3 13 4 30 5 2 6 1 7 29 8 28 9 26 10 14 11 4 12
REMARK SMILES IDX 5 13 6 14 7 15 10 16 9 17 8 18 15 20 24 21 16 22 22 23 17 24
REMARK SMILES IDX 20 25 25 26 23 28 18 30 19 31 21 33 27 35
REMARK H PARENT 8 19 25 27 23 29 19 32 21 34 27 36
REMARK Flexibility Score: inf
ROOT
ATOM      1  C   UNL     1      16.734  20.995  30.342  1.00  0.00     0.065 A 
ATOM      2  C   UNL     1      17.443  20.141  31.196  1.00  0.00     0.208 A 
ATOM      3  O   UNL     1      17.077  18.874  31.350  1.00  0.00    -0.463 OA
ATOM      4  C   UNL     1      16.034  18.331  30.725  1.00  0.00     0.147 A 
ATOM      5  C   UNL     1      15.275  19.119  29.830  1.00  0.00     0.066 A 
ATOM      6  C   UNL     1      15.636  20.466  29.641  1.00  0.00     0.200 A 
ATOM      7  O   UNL     1      14.993  21.191  28.830  1.00  0.00    -0.288 OA
ATOM      8  C   UNL     1      14.198  18.546  29.146  1.00  0.00     0.020 A 
ATOM      9  C   UNL     1      13.890  17.203  29.329  1.00  0.00     0.047 A 
ATOM     10  C   UNL     1      14.632  16.404  30.208  1.00  0.00     0.125 A 
ATOM     11  C   UNL     1      15.700  16.970  30.964  1.00  0.00     0.069 A 
ENDROOT
BRANCH   1  12
ATOM     12  C   UNL     1      17.154  22.411  30.194  1.00  0.00    -0.011 A 
ATOM     13  C   UNL     1      16.910  23.343  31.219  1.00  0.00     0.013 A 
ATOM     14  C   UNL     1      17.316  24.673  31.078  1.00  0.00     0.047 A 
ATOM     15  C   UNL     1      17.976  25.088  29.914  1.00  0.00     0.115 A 
ATOM     16  C   UNL     1      17.822  22.835  29.031  1.00  0.00     0.013 A 
ATOM     17  C   UNL     1      18.228  24.166  28.893  1.00  0.00     0.047 A 
BRANCH  15  18
ATOM     18  O   UNL     1      18.385  26.411  29.761  1.00  0.00    -0.508 OA
ATOM     19  H   UNL     1      19.356  26.649  29.599  1.00  0.00     0.293 HD
ENDBRANCH  15  18
ENDBRANCH   1  12
BRANCH  11  20
ATOM     20  C   UNL     1      16.571  16.197  31.981  1.00  0.00     0.188 C 
ATOM     21  C   UNL     1      16.731  14.659  31.865  1.00  0.00     0.179 C 
ATOM     22  O   UNL     1      16.219  16.531  33.319  1.00  0.00    -0.362 OA
ATOM     23  C   UNL     1      15.425  13.954  32.297  1.00  0.00     0.177 C 
ATOM     24  C   UNL     1      14.955  15.995  33.685  1.00  0.00     0.176 C 
ATOM     25  C   UNL     1      14.992  14.448  33.684  1.00  0.00     0.177 C 
BRANCH  21  26
ATOM     26  O   UNL     1      17.780  14.263  32.716  1.00  0.00    -0.387 OA
ATOM     27  H   UNL     1      17.672  13.292  32.888  1.00  0.00     0.211 HD
ENDBRANCH  21  26
BRANCH  23  28
ATOM     28  O   UNL     1      15.605  12.563  32.331  1.00  0.00    -0.387 OA
ATOM     29  H   UNL     1      15.560  12.294  33.286  1.00  0.00     0.211 HD
ENDBRANCH  23  28
BRANCH  24  30
ATOM     30  C   UNL     1      14.569  16.556  35.062  1.00  0.00     0.191 C 
BRANCH  30  31
ATOM     31  O   UNL     1      13.199  16.854  35.125  1.00  0.00    -0.394 OA
ATOM     32  H   UNL     1      13.003  17.102  36.067  1.00  0.00     0.210 HD
ENDBRANCH  30  31
ENDBRANCH  24  30
BRANCH  25  33
ATOM     33  O   UNL     1      13.718  13.929  33.974  1.00  0.00    -0.388 OA
ATOM     34  H   UNL     1      13.077  14.685  33.934  1.00  0.00     0.211 HD
ENDBRANCH  25  33
ENDBRANCH  11  20
BRANCH  10  35
ATOM     35  O   UNL     1      14.293  15.058  30.302  1.00  0.00    -0.507 OA
ATOM     36  H   UNL     1      13.515  14.735  30.866  1.00  0.00     0.293 HD
ENDBRANCH  10  35
TORSDOF 9
ENDMDL
MODEL 3
REMARK VINA RESULT:    -7.972     13.309     15.459
REMARK INTER + INTRA:         -10.451
REMARK INTER:                 -10.662
REMARK INTRA:                   0.211
REMARK UNBOUND:                 0.317
REMARK SMILES O=c1c(-c2ccc(O)cc2)coc2c([C@H]3O[C@H](CO)[C@@H](O)[C@H](O)[C@@H]3O)c(O)ccc12
REMARK SMILES IDX 3 1 11 2 12 3 13 4 30 5 2 6 1 7 29 8 28 9 26 10 14 11 4 12
REMARK SMILES IDX 5 13 6 14 7 15 10 16 9 17 8 18 15 20 24 21 16 22 22 23 17 24
REMARK SMILES IDX 20 25 25 26 23 28 18 30 19 31 21 33 27 35
REMARK H PARENT 8 19 25 27 23 29 19 32 21 34 27 36
REMARK Flexibility Score: inf
ROOT
ATOM      1  C   UNL     1       9.290  14.481  19.549  1.00  0.00     0.065 A 
ATOM      2  C   UNL     1       9.156  15.778  20.060  1.00  0.00     0.208 A 
ATOM      3  O   UNL     1       8.330  16.031  21.068  1.00  0.00    -0.463 OA
ATOM      4  C   UNL     1       7.584  15.099  21.657  1.00  0.00     0.147 A 
ATOM      5  C   UNL     1       7.674  13.758  21.215  1.00  0.00     0.066 A 
ATOM      6  C   UNL     1       8.540  13.454  20.149  1.00  0.00     0.200 A 
ATOM      7  O   UNL     1       8.661  12.262  19.746  1.00  0.00    -0.288 OA
ATOM      8  C   UNL     1       6.916  12.768  21.850  1.00  0.00     0.020 A 
ATOM      9  C   UNL     1       6.097  13.098  22.924  1.00  0.00     0.047 A 
ATOM     10  C   UNL     1       5.997  14.419  23.379  1.00  0.00     0.125 A 
ATOM     11  C   UNL     1       6.711  15.460  22.719  1.00  0.00     0.069 A 
ENDROOT
BRANCH   1  12
ATOM     12  C   UNL     1      10.209  14.223  18.413  1.00  0.00    -0.011 A 
ATOM     13  C   UNL     1      11.533  13.806  18.641  1.00  0.00     0.013 A 
ATOM     14  C   UNL     1      12.392  13.555  17.567  1.00  0.00     0.047 A 
ATOM     15  C   UNL     1      11.938  13.713  16.251  1.00  0.00     0.115 A 
ATOM     16  C   UNL     1       9.760  14.372  17.088  1.00  0.00     0.013 A 
ATOM     17  C   UNL     1      10.621  14.120  16.016  1.00  0.00     0.047 A 
BRANCH  15  18
ATOM     18  O   UNL     1      12.784  13.466  15.172  1.00  0.00    -0.508 OA
ATOM     19  H   UNL     1      13.288  12.592  15.085  1.00  0.00     0.293 HD
ENDBRANCH  15  18
ENDBRANCH   1  12
BRANCH  11  20
ATOM     20  C   UNL     1       6.660  16.956  23.113  1.00  0.00     0.188 C 
ATOM     21  C   UNL     1       5.656  17.448  24.187  1.00  0.00     0.179 C 
ATOM     22  O   UNL     1       6.560  17.788  21.962  1.00  0.00    -0.362 OA
ATOM     23  C   UNL     1       4.221  17.448  23.614  1.00  0.00     0.177 C 
ATOM     24  C   UNL     1       5.282  17.695  21.349  1.00  0.00     0.176 C 
ATOM     25  C   UNL     1       4.179  18.230  22.294  1.00  0.00     0.177 C 
BRANCH  21  26
ATOM     26  O   UNL     1       6.015  18.760  24.551  1.00  0.00    -0.387 OA
ATOM     27  H   UNL     1       5.673  18.916  25.470  1.00  0.00     0.211 HD
ENDBRANCH  21  26
BRANCH  23  28
ATOM     28  O   UNL     1       3.326  18.025  24.528  1.00  0.00    -0.387 OA
ATOM     29  H   UNL     1       3.616  17.733  25.432  1.00  0.00     0.211 HD
ENDBRANCH  23  28
BRANCH  24  30
ATOM     30  C   UNL     1       5.321  18.468  20.022  1.00  0.00     0.191 C 
BRANCH  30  31
ATOM     31  O   UNL     1       4.125  18.311  19.306  1.00  0.00    -0.394 OA
ATOM     32  H   UNL     1       4.007  19.133  18.760  1.00  0.00     0.210 HD
ENDBRANCH  30  31
ENDBRANCH  24  30
BRANCH  25  33
ATOM     33  O   UNL     1       2.912  18.066  21.708  1.00  0.00    -0.388 OA
ATOM     34  H   UNL     1       2.962  17.266  21.122  1.00  0.00     0.211 HD
ENDBRANCH  25  33
ENDBRANCH  11  20
BRANCH  10  35
ATOM     35  O   UNL     1       5.193  14.662  24.488  1.00  0.00    -0.507 OA
ATOM     36  H   UNL     1       4.249  15.019  24.403  1.00  0.00     0.293 HD
ENDBRANCH  10  35
TORSDOF 9
ENDMDL
MODEL 4
REMARK VINA RESULT:    -7.917     13.468     15.696
REMARK INTER + INTRA:         -10.376
REMARK INTER:                 -10.691
REMARK INTRA:                   0.315
REMARK UNBOUND:                 0.317
REMARK SMILES O=c1c(-c2ccc(O)cc2)coc2c([C@H]3O[C@H](CO)[C@@H](O)[C@H](O)[C@@H]3O)c(O)ccc12
REMARK SMILES IDX 3 1 11 2 12 3 13 4 30 5 2 6 1 7 29 8 28 9 26 10 14 11 4 12
REMARK SMILES IDX 5 13 6 14 7 15 10 16 9 17 8 18 15 20 24 21 16 22 22 23 17 24
REMARK SMILES IDX 20 25 25 26 23 28 18 30 19 31 21 33 27 35
REMARK H PARENT 8 19 25 27 23 29 19 32 21 34 27 36
REMARK Flexibility Score: inf
ROOT
ATOM      1  C   UNL     1       9.669  15.673  18.241  1.00  0.00     0.065 A 
ATOM      2  C   UNL     1       8.370  15.214  18.490  1.00  0.00     0.208 A 
ATOM      3  O   UNL     1       7.485  15.980  19.119  1.00  0.00    -0.463 OA
ATOM      4  C   UNL     1       7.756  17.209  19.551  1.00  0.00     0.147 A 
ATOM      5  C   UNL     1       9.039  17.758  19.322  1.00  0.00     0.066 A 
ATOM      6  C   UNL     1      10.001  16.974  18.658  1.00  0.00     0.200 A 
ATOM      7  O   UNL     1      11.150  17.444  18.417  1.00  0.00    -0.288 OA
ATOM      8  C   UNL     1       9.320  19.061  19.745  1.00  0.00     0.020 A 
ATOM      9  C   UNL     1       8.336  19.821  20.366  1.00  0.00     0.047 A 
ATOM     10  C   UNL     1       7.058  19.297  20.599  1.00  0.00     0.125 A 
ATOM     11  C   UNL     1       6.755  17.954  20.232  1.00  0.00     0.069 A 
ENDROOT
BRANCH   1  12
ATOM     12  C   UNL     1      10.645  14.796  17.548  1.00  0.00    -0.011 A 
ATOM     13  C   UNL     1      11.728  14.234  18.248  1.00  0.00     0.013 A 
ATOM     14  C   UNL     1      12.639  13.400  17.593  1.00  0.00     0.047 A 
ATOM     15  C   UNL     1      12.477  13.113  16.231  1.00  0.00     0.115 A 
ATOM     16  C   UNL     1      10.486  14.496  16.183  1.00  0.00     0.013 A 
ATOM     17  C   UNL     1      11.399  13.662  15.530  1.00  0.00     0.047 A 
BRANCH  15  18
ATOM     18  O   UNL     1      13.379  12.285  15.567  1.00  0.00    -0.508 OA
ATOM     19  H   UNL     1      13.114  11.358  15.255  1.00  0.00     0.293 HD
ENDBRANCH  15  18
ENDBRANCH   1  12
BRANCH  11  20
ATOM     20  C   UNL     1       5.391  17.260  20.460  1.00  0.00     0.188 C 
ATOM     21  C   UNL     1       4.209  18.044  21.086  1.00  0.00     0.179 C 
ATOM     22  O   UNL     1       5.551  16.025  21.150  1.00  0.00    -0.362 OA
ATOM     23  C   UNL     1       4.459  18.270  22.594  1.00  0.00     0.177 C 
ATOM     24  C   UNL     1       5.911  16.221  22.511  1.00  0.00     0.176 C 
ATOM     25  C   UNL     1       4.776  16.935  23.282  1.00  0.00     0.177 C 
BRANCH  21  26
ATOM     26  O   UNL     1       3.039  17.280  20.914  1.00  0.00    -0.387 OA
ATOM     27  H   UNL     1       2.534  17.679  20.158  1.00  0.00     0.211 HD
ENDBRANCH  21  26
BRANCH  23  28
ATOM     28  O   UNL     1       3.333  18.852  23.197  1.00  0.00    -0.387 OA
ATOM     29  H   UNL     1       3.613  19.752  23.510  1.00  0.00     0.211 HD
ENDBRANCH  23  28
BRANCH  24  30
ATOM     30  C   UNL     1       6.247  14.853  23.126  1.00  0.00     0.191 C 
BRANCH  30  31
ATOM     31  O   UNL     1       5.192  14.381  23.922  1.00  0.00    -0.394 OA
ATOM     32  H   UNL     1       5.127  13.403  23.759  1.00  0.00     0.210 HD
ENDBRANCH  30  31
ENDBRANCH  24  30
BRANCH  25  33
ATOM     33  O   UNL     1       5.170  17.189  24.608  1.00  0.00    -0.388 OA
ATOM     34  H   UNL     1       6.153  17.331  24.598  1.00  0.00     0.211 HD
ENDBRANCH  25  33
ENDBRANCH  11  20
BRANCH  10  35
ATOM     35  O   UNL     1       6.112  20.135  21.183  1.00  0.00    -0.507 OA
ATOM     36  H   UNL     1       5.158  20.188  20.848  1.00  0.00     0.293 HD
ENDBRANCH  10  35
TORSDOF 9
ENDMDL
MODEL 5
REMARK VINA RESULT:    -7.883      2.128      3.831
REMARK INTER + INTRA:         -10.331
REMARK INTER:                 -10.593
REMARK INTRA:                   0.262
REMARK UNBOUND:                 0.317
REMARK SMILES O=c1c(-c2ccc(O)cc2)coc2c([C@H]3O[C@H](CO)[C@@H](O)[C@H](O)[C@@H]3O)c(O)ccc12
REMARK SMILES IDX 3 1 11 2 12 3 13 4 30 5 2 6 1 7 29 8 28 9 26 10 14 11 4 12
REMARK SMILES IDX 5 13 6 14 7 15 10 16 9 17 8 18 15 20 24 21 16 22 22 23 17 24
REMARK SMILES IDX 20 25 25 26 23 28 18 30 19 31 21 33 27 35
REMARK H PARENT 8 19 25 27 23 29 19 32 21 34 27 36
REMARK Flexibility Score: inf
ROOT
ATOM      1  C   UNL     1      17.522  24.086  30.373  1.00  0.00     0.065 A 
ATOM      2  C   UNL     1      16.750  23.757  31.494  1.00  0.00     0.208 A 
ATOM      3  O   UNL     1      15.799  22.834  31.419  1.00  0.00    -0.463 OA
ATOM      4  C   UNL     1      15.510  22.168  30.303  1.00  0.00     0.147 A 
ATOM      5  C   UNL     1      16.255  22.426  29.129  1.00  0.00     0.066 A 
ATOM      6  C   UNL     1      17.272  23.398  29.173  1.00  0.00     0.200 A 
ATOM      7  O   UNL     1      17.971  23.634  28.147  1.00  0.00    -0.288 OA
ATOM      8  C   UNL     1      15.977  21.707  27.961  1.00  0.00     0.020 A 
ATOM      9  C   UNL     1      14.989  20.730  27.962  1.00  0.00     0.047 A 
ATOM     10  C   UNL     1      14.243  20.456  29.115  1.00  0.00     0.125 A 
ATOM     11  C   UNL     1      14.461  21.209  30.305  1.00  0.00     0.069 A 
ENDROOT
BRANCH   1  12
ATOM     12  C   UNL     1      18.572  25.130  30.476  1.00  0.00    -0.011 A 
ATOM     13  C   UNL     1      18.393  26.390  29.877  1.00  0.00     0.013 A 
ATOM     14  C   UNL     1      19.381  27.373  29.986  1.00  0.00     0.047 A 
ATOM     15  C   UNL     1      20.559  27.111  30.699  1.00  0.00     0.115 A 
ATOM     16  C   UNL     1      19.754  24.879  31.196  1.00  0.00     0.013 A 
ATOM     17  C   UNL     1      20.741  25.864  31.303  1.00  0.00     0.047 A 
BRANCH  15  18
ATOM     18  O   UNL     1      21.551  28.082  30.813  1.00  0.00    -0.508 OA
ATOM     19  H   UNL     1      22.373  28.071  30.221  1.00  0.00     0.293 HD
ENDBRANCH  15  18
ENDBRANCH   1  12
BRANCH  11  20
ATOM     20  C   UNL     1      13.684  21.016  31.630  1.00  0.00     0.188 C 
ATOM     21  C   UNL     1      14.367  21.317  32.988  1.00  0.00     0.179 C 
ATOM     22  O   UNL     1      13.075  19.731  31.687  1.00  0.00    -0.362 OA
ATOM     23  C   UNL     1      15.402  20.218  33.319  1.00  0.00     0.177 C 
ATOM     24  C   UNL     1      14.034  18.696  31.860  1.00  0.00     0.176 C 
ATOM     25  C   UNL     1      14.748  18.832  33.226  1.00  0.00     0.177 C 
BRANCH  21  26
ATOM     26  O   UNL     1      13.371  21.338  33.983  1.00  0.00    -0.387 OA
ATOM     27  H   UNL     1      13.063  22.276  34.073  1.00  0.00     0.211 HD
ENDBRANCH  21  26
BRANCH  23  28
ATOM     28  O   UNL     1      15.922  20.404  34.609  1.00  0.00    -0.387 OA
ATOM     29  H   UNL     1      16.907  20.300  34.536  1.00  0.00     0.211 HD
ENDBRANCH  23  28
BRANCH  24  30
ATOM     30  C   UNL     1      13.320  17.343  31.721  1.00  0.00     0.191 C 
BRANCH  30  31
ATOM     31  O   UNL     1      12.225  17.433  30.849  1.00  0.00    -0.394 OA
ATOM     32  H   UNL     1      12.410  16.817  30.092  1.00  0.00     0.210 HD
ENDBRANCH  30  31
ENDBRANCH  24  30
BRANCH  25  33
ATOM     33  O   UNL     1      15.745  17.849  33.356  1.00  0.00    -0.388 OA
ATOM     34  H   UNL     1      16.415  18.016  32.644  1.00  0.00     0.211 HD
ENDBRANCH  25  33
ENDBRANCH  11  20
BRANCH  10  35
ATOM     35  O   UNL     1      13.304  19.431  29.050  1.00  0.00    -0.507 OA
ATOM     36  H   UNL     1      13.442  18.543  29.519  1.00  0.00     0.293 HD
ENDBRANCH  10  35
TORSDOF 9
ENDMDL
MODEL 6
REMARK VINA RESULT:    -7.853      2.865      8.402
REMARK INTER + INTRA:         -10.291
REMARK INTER:                 -10.534
REMARK INTRA:                   0.244
REMARK UNBOUND:                 0.317
REMARK SMILES O=c1c(-c2ccc(O)cc2)coc2c([C@H]3O[C@H](CO)[C@@H](O)[C@H](O)[C@@H]3O)c(O)ccc12
REMARK SMILES IDX 3 1 11 2 12 3 13 4 30 5 2 6 1 7 29 8 28 9 26 10 14 11 4 12
REMARK SMILES IDX 5 13 6 14 7 15 10 16 9 17 8 18 15 20 24 21 16 22 22 23 17 24
REMARK SMILES IDX 20 25 25 26 23 28 18 30 19 31 21 33 27 35
REMARK H PARENT 8 19 25 27 23 29 19 32 21 34 27 36
REMARK Flexibility Score: inf
ROOT
ATOM      1  C   UNL     1      15.186  16.393  31.357  1.00  0.00     0.065 A 
ATOM      2  C   UNL     1      15.791  17.425  32.085  1.00  0.00     0.208 A 
ATOM      3  O   UNL     1      15.762  18.678  31.646  1.00  0.00    -0.463 OA
ATOM      4  C   UNL     1      15.173  19.041  30.508  1.00  0.00     0.147 A 
ATOM      5  C   UNL     1      14.520  18.064  29.721  1.00  0.00     0.066 A 
ATOM      6  C   UNL     1      14.531  16.726  30.158  1.00  0.00     0.200 A 
ATOM      7  O   UNL     1      13.938  15.833  29.490  1.00  0.00    -0.288 OA
ATOM      8  C   UNL     1      13.873  18.445  28.541  1.00  0.00     0.020 A 
ATOM      9  C   UNL     1      13.851  19.780  28.157  1.00  0.00     0.047 A 
ATOM     10  C   UNL     1      14.487  20.764  28.924  1.00  0.00     0.125 A 
ATOM     11  C   UNL     1      15.205  20.403  30.101  1.00  0.00     0.069 A 
ENDROOT
BRANCH   1  12
ATOM     12  C   UNL     1      15.242  14.998  31.861  1.00  0.00    -0.011 A 
ATOM     13  C   UNL     1      14.343  14.555  32.848  1.00  0.00     0.013 A 
ATOM     14  C   UNL     1      14.394  13.237  33.312  1.00  0.00     0.047 A 
ATOM     15  C   UNL     1      15.341  12.345  32.793  1.00  0.00     0.115 A 
ATOM     16  C   UNL     1      16.185  14.093  31.341  1.00  0.00     0.013 A 
ATOM     17  C   UNL     1      16.234  12.776  31.807  1.00  0.00     0.047 A 
BRANCH  15  18
ATOM     18  O   UNL     1      15.402  11.029  33.248  1.00  0.00    -0.508 OA
ATOM     19  H   UNL     1      16.030  10.353  32.829  1.00  0.00     0.293 HD
ENDBRANCH  15  18
ENDBRANCH   1  12
BRANCH  11  20
ATOM     20  C   UNL     1      15.966  21.394  31.014  1.00  0.00     0.188 C 
ATOM     21  C   UNL     1      16.071  22.892  30.626  1.00  0.00     0.179 C 
ATOM     22  O   UNL     1      17.262  20.904  31.338  1.00  0.00    -0.362 OA
ATOM     23  C   UNL     1      17.052  23.069  29.445  1.00  0.00     0.177 C 
ATOM     24  C   UNL     1      18.139  20.940  30.220  1.00  0.00     0.176 C 
ATOM     25  C   UNL     1      18.394  22.398  29.769  1.00  0.00     0.177 C 
BRANCH  21  26
ATOM     26  O   UNL     1      16.550  23.600  31.744  1.00  0.00    -0.387 OA
ATOM     27  H   UNL     1      17.000  24.417  31.406  1.00  0.00     0.211 HD
ENDBRANCH  21  26
BRANCH  23  28
ATOM     28  O   UNL     1      17.262  24.431  29.180  1.00  0.00    -0.387 OA
ATOM     29  H   UNL     1      16.364  24.841  29.068  1.00  0.00     0.211 HD
ENDBRANCH  23  28
BRANCH  24  30
ATOM     30  C   UNL     1      19.444  20.224  30.602  1.00  0.00     0.191 C 
BRANCH  30  31
ATOM     31  O   UNL     1      20.306  20.118  29.500  1.00  0.00    -0.394 OA
ATOM     32  H   UNL     1      21.110  19.624  29.813  1.00  0.00     0.210 HD
ENDBRANCH  30  31
ENDBRANCH  24  30
BRANCH  25  33
ATOM     33  O   UNL     1      19.202  22.419  28.619  1.00  0.00    -0.388 OA
ATOM     34  H   UNL     1      19.206  23.352  28.281  1.00  0.00     0.211 HD
ENDBRANCH  25  33
ENDBRANCH  11  20
BRANCH  10  35
ATOM     35  O   UNL     1      14.381  22.085  28.500  1.00  0.00    -0.507 OA
ATOM     36  H   UNL     1      14.929  22.831  28.913  1.00  0.00     0.293 HD
ENDBRANCH  10  35
TORSDOF 9
ENDMDL
MODEL 7
REMARK VINA RESULT:    -7.794      2.978      7.934
REMARK INTER + INTRA:         -10.210
REMARK INTER:                 -10.395
REMARK INTRA:                   0.185
REMARK UNBOUND:                 0.317
REMARK SMILES O=c1c(-c2ccc(O)cc2)coc2c([C@H]3O[C@H](CO)[C@@H](O)[C@H](O)[C@@H]3O)c(O)ccc12
REMARK SMILES IDX 3 1 11 2 12 3 13 4 30 5 2 6 1 7 29 8 28 9 26 10 14 11 4 12
REMARK SMILES IDX 5 13 6 14 7 15 10 16 9 17 8 18 15 20 24 21 16 22 22 23 17 24
REMARK SMILES IDX 20 25 25 26 23 28 18 30 19 31 21 33 27 35
REMARK H PARENT 8 19 25 27 23 29 19 32 21 34 27 36
REMARK Flexibility Score: inf
ROOT
ATOM      1  C   UNL     1      16.386  17.803  33.024  1.00  0.00     0.065 A 
ATOM      2  C   UNL     1      17.154  18.002  31.870  1.00  0.00     0.208 A 
ATOM      3  O   UNL     1      17.863  19.113  31.707  1.00  0.00    -0.463 OA
ATOM      4  C   UNL     1      17.897  20.098  32.602  1.00  0.00     0.147 A 
ATOM      5  C   UNL     1      17.165  19.969  33.805  1.00  0.00     0.066 A 
ATOM      6  C   UNL     1      16.403  18.804  34.011  1.00  0.00     0.200 A 
ATOM      7  O   UNL     1      15.757  18.647  35.086  1.00  0.00    -0.288 OA
ATOM      8  C   UNL     1      17.222  20.987  34.763  1.00  0.00     0.020 A 
ATOM      9  C   UNL     1      18.013  22.108  34.543  1.00  0.00     0.047 A 
ATOM     10  C   UNL     1      18.748  22.254  33.360  1.00  0.00     0.125 A 
ATOM     11  C   UNL     1      18.668  21.263  32.339  1.00  0.00     0.069 A 
ENDROOT
BRANCH   1  12
ATOM     12  C   UNL     1      15.591  16.559  33.179  1.00  0.00    -0.011 A 
ATOM     13  C   UNL     1      16.148  15.423  33.792  1.00  0.00     0.013 A 
ATOM     14  C   UNL     1      15.392  14.257  33.945  1.00  0.00     0.047 A 
ATOM     15  C   UNL     1      14.067  14.213  33.491  1.00  0.00     0.115 A 
ATOM     16  C   UNL     1      14.258  16.508  32.733  1.00  0.00     0.013 A 
ATOM     17  C   UNL     1      13.504  15.341  32.887  1.00  0.00     0.047 A 
BRANCH  15  18
ATOM     18  O   UNL     1      13.304  13.057  33.637  1.00  0.00    -0.508 OA
ATOM     19  H   UNL     1      12.721  12.710  32.884  1.00  0.00     0.293 HD
ENDBRANCH  15  18
ENDBRANCH   1  12
BRANCH  11  20
ATOM     20  C   UNL     1      19.412  21.326  30.984  1.00  0.00     0.188 C 
ATOM     21  C   UNL     1      20.247  22.577  30.607  1.00  0.00     0.179 C 
ATOM     22  O   UNL     1      18.544  21.000  29.904  1.00  0.00    -0.362 OA
ATOM     23  C   UNL     1      19.311  23.757  30.261  1.00  0.00     0.177 C 
ATOM     24  C   UNL     1      17.591  22.026  29.662  1.00  0.00     0.176 C 
ATOM     25  C   UNL     1      18.290  23.327  29.199  1.00  0.00     0.177 C 
BRANCH  21  26
ATOM     26  O   UNL     1      21.031  22.256  29.483  1.00  0.00    -0.387 OA
ATOM     27  H   UNL     1      20.584  22.648  28.689  1.00  0.00     0.211 HD
ENDBRANCH  21  26
BRANCH  23  28
ATOM     28  O   UNL     1      20.052  24.849  29.783  1.00  0.00    -0.387 OA
ATOM     29  H   UNL     1      20.688  25.099  30.504  1.00  0.00     0.211 HD
ENDBRANCH  23  28
BRANCH  24  30
ATOM     30  C   UNL     1      16.584  21.517  28.619  1.00  0.00     0.191 C 
BRANCH  30  31
ATOM     31  O   UNL     1      15.339  22.148  28.764  1.00  0.00    -0.394 OA
ATOM     32  H   UNL     1      14.650  21.433  28.733  1.00  0.00     0.210 HD
ENDBRANCH  30  31
ENDBRANCH  24  30
BRANCH  25  33
ATOM     33  O   UNL     1      17.345  24.356  29.033  1.00  0.00    -0.388 OA
ATOM     34  H   UNL     1      16.458  23.925  28.931  1.00  0.00     0.211 HD
ENDBRANCH  25  33
ENDBRANCH  11  20
BRANCH  10  35
ATOM     35  O   UNL     1      19.553  23.382  33.234  1.00  0.00    -0.507 OA
ATOM     36  H   UNL     1      20.302  23.587  33.885  1.00  0.00     0.293 HD
ENDBRANCH  10  35
TORSDOF 9
ENDMDL
MODEL 8
REMARK VINA RESULT:    -7.755     11.058     13.821
REMARK INTER + INTRA:         -10.158
REMARK INTER:                 -10.411
REMARK INTRA:                   0.253
REMARK UNBOUND:                 0.317
REMARK SMILES O=c1c(-c2ccc(O)cc2)coc2c([C@H]3O[C@H](CO)[C@@H](O)[C@H](O)[C@@H]3O)c(O)ccc12
REMARK SMILES IDX 3 1 11 2 12 3 13 4 30 5 2 6 1 7 29 8 28 9 26 10 14 11 4 12
REMARK SMILES IDX 5 13 6 14 7 15 10 16 9 17 8 18 15 20 24 21 16 22 22 23 17 24
REMARK SMILES IDX 20 25 25 26 23 28 18 30 19 31 21 33 27 35
REMARK H PARENT 8 19 25 27 23 29 19 32 21 34 27 36
REMARK Flexibility Score: inf
ROOT
ATOM      1  C   UNL     1       8.532  15.855  24.305  1.00  0.00     0.065 A 
ATOM      2  C   UNL     1       7.898  17.084  24.084  1.00  0.00     0.208 A 
ATOM      3  O   UNL     1       8.074  17.747  22.947  1.00  0.00    -0.463 OA
ATOM      4  C   UNL     1       8.848  17.309  21.956  1.00  0.00     0.147 A 
ATOM      5  C   UNL     1       9.509  16.067  22.089  1.00  0.00     0.066 A 
ATOM      6  C   UNL     1       9.344  15.336  23.281  1.00  0.00     0.200 A 
ATOM      7  O   UNL     1       9.903  14.212  23.421  1.00  0.00    -0.288 OA
ATOM      8  C   UNL     1      10.298  15.587  21.038  1.00  0.00     0.020 A 
ATOM      9  C   UNL     1      10.412  16.316  19.861  1.00  0.00     0.047 A 
ATOM     10  C   UNL     1       9.761  17.547  19.707  1.00  0.00     0.125 A 
ATOM     11  C   UNL     1       8.996  18.093  20.779  1.00  0.00     0.069 A 
ENDROOT
BRANCH   1  12
ATOM     12  C   UNL     1       8.331  15.136  25.588  1.00  0.00    -0.011 A 
ATOM     13  C   UNL     1       7.537  13.977  25.645  1.00  0.00     0.013 A 
ATOM     14  C   UNL     1       7.359  13.299  26.855  1.00  0.00     0.047 A 
ATOM     15  C   UNL     1       7.975  13.768  28.022  1.00  0.00     0.115 A 
ATOM     16  C   UNL     1       8.952  15.597  26.764  1.00  0.00     0.013 A 
ATOM     17  C   UNL     1       8.772  14.916  27.972  1.00  0.00     0.047 A 
BRANCH  15  18
ATOM     18  O   UNL     1       7.805  13.102  29.233  1.00  0.00    -0.508 OA
ATOM     19  H   UNL     1       7.984  12.108  29.320  1.00  0.00     0.293 HD
ENDBRANCH  15  18
ENDBRANCH   1  12
BRANCH  11  20
ATOM     20  C   UNL     1       8.255  19.451  20.737  1.00  0.00     0.188 C 
ATOM     21  C   UNL     1       7.013  19.692  21.633  1.00  0.00     0.179 C 
ATOM     22  O   UNL     1       7.948  19.828  19.399  1.00  0.00    -0.362 OA
ATOM     23  C   UNL     1       5.803  18.901  21.088  1.00  0.00     0.177 C 
ATOM     24  C   UNL     1       6.922  19.018  18.842  1.00  0.00     0.176 C 
ATOM     25  C   UNL     1       5.590  19.219  19.602  1.00  0.00     0.177 C 
BRANCH  21  26
ATOM     26  O   UNL     1       6.721  21.069  21.612  1.00  0.00    -0.387 OA
ATOM     27  H   UNL     1       6.980  21.413  20.718  1.00  0.00     0.211 HD
ENDBRANCH  21  26
BRANCH  23  28
ATOM     28  O   UNL     1       4.641  19.224  21.807  1.00  0.00    -0.387 OA
ATOM     29  H   UNL     1       4.741  18.817  22.707  1.00  0.00     0.211 HD
ENDBRANCH  23  28
BRANCH  24  30
ATOM     30  C   UNL     1       6.787  19.363  17.351  1.00  0.00     0.191 C 
BRANCH  30  31
ATOM     31  O   UNL     1       6.457  18.228  16.594  1.00  0.00    -0.394 OA
ATOM     32  H   UNL     1       7.088  18.201  15.828  1.00  0.00     0.210 HD
ENDBRANCH  30  31
ENDBRANCH  24  30
BRANCH  25  33
ATOM     33  O   UNL     1       4.601  18.360  19.090  1.00  0.00    -0.388 OA
ATOM     34  H   UNL     1       4.677  17.501  19.582  1.00  0.00     0.211 HD
ENDBRANCH  25  33
ENDBRANCH  11  20
BRANCH  10  35
ATOM     35  O   UNL     1       9.884  18.196  18.482  1.00  0.00    -0.507 OA
ATOM     36  H   UNL     1       9.318  19.000  18.238  1.00  0.00     0.293 HD
ENDBRANCH  10  35
TORSDOF 9
ENDMDL
MODEL 9
REMARK VINA RESULT:    -7.627     12.375     13.997
REMARK INTER + INTRA:          -9.986
REMARK INTER:                 -10.518
REMARK INTRA:                   0.532
REMARK UNBOUND:                 0.317
REMARK SMILES O=c1c(-c2ccc(O)cc2)coc2c([C@H]3O[C@H](CO)[C@@H](O)[C@H](O)[C@@H]3O)c(O)ccc12
REMARK SMILES IDX 3 1 11 2 12 3 13 4 30 5 2 6 1 7 29 8 28 9 26 10 14 11 4 12
REMARK SMILES IDX 5 13 6 14 7 15 10 16 9 17 8 18 15 20 24 21 16 22 22 23 17 24
REMARK SMILES IDX 20 25 25 26 23 28 18 30 19 31 21 33 27 35
REMARK H PARENT 8 19 25 27 23 29 19 32 21 34 27 36
REMARK Flexibility Score: inf
ROOT
ATOM      1  C   UNL     1       7.191  24.261  20.629  1.00  0.00     0.065 A 
ATOM      2  C   UNL     1       7.498  23.417  21.704  1.00  0.00     0.208 A 
ATOM      3  O   UNL     1       7.500  22.098  21.556  1.00  0.00    -0.463 OA
ATOM      4  C   UNL     1       7.217  21.489  20.406  1.00  0.00     0.147 A 
ATOM      5  C   UNL     1       6.916  22.268  19.264  1.00  0.00     0.066 A 
ATOM      6  C   UNL     1       6.906  23.670  19.386  1.00  0.00     0.200 A 
ATOM      7  O   UNL     1       6.664  24.395  18.380  1.00  0.00    -0.288 OA
ATOM      8  C   UNL     1       6.649  21.635  18.045  1.00  0.00     0.020 A 
ATOM      9  C   UNL     1       6.702  20.250  17.952  1.00  0.00     0.047 A 
ATOM     10  C   UNL     1       7.002  19.460  19.069  1.00  0.00     0.125 A 
ATOM     11  C   UNL     1       7.223  20.069  20.339  1.00  0.00     0.069 A 
ENDROOT
BRANCH   1  12
ATOM     12  C   UNL     1       7.183  25.733  20.822  1.00  0.00    -0.011 A 
ATOM     13  C   UNL     1       8.250  26.523  20.359  1.00  0.00     0.013 A 
ATOM     14  C   UNL     1       8.232  27.910  20.534  1.00  0.00     0.047 A 
ATOM     15  C   UNL     1       7.145  28.525  21.169  1.00  0.00     0.115 A 
ATOM     16  C   UNL     1       6.093  26.360  21.452  1.00  0.00     0.013 A 
ATOM     17  C   UNL     1       6.077  27.747  21.625  1.00  0.00     0.047 A 
BRANCH  15  18
ATOM     18  O   UNL     1       7.116  29.906  21.350  1.00  0.00    -0.508 OA
ATOM     19  H   UNL     1       7.848  30.388  21.858  1.00  0.00     0.293 HD
ENDBRANCH  15  18
ENDBRANCH   1  12
BRANCH  11  20
ATOM     20  C   UNL     1       7.537  19.302  21.646  1.00  0.00     0.188 C 
ATOM     21  C   UNL     1       8.177  17.892  21.591  1.00  0.00     0.179 C 
ATOM     22  O   UNL     1       6.404  19.268  22.507  1.00  0.00    -0.362 OA
ATOM     23  C   UNL     1       7.138  16.853  21.113  1.00  0.00     0.177 C 
ATOM     24  C   UNL     1       5.384  18.414  22.008  1.00  0.00     0.176 C 
ATOM     25  C   UNL     1       5.868  16.945  21.970  1.00  0.00     0.177 C 
BRANCH  21  26
ATOM     26  O   UNL     1       8.611  17.558  22.888  1.00  0.00    -0.387 OA
ATOM     27  H   UNL     1       8.254  16.656  23.096  1.00  0.00     0.211 HD
ENDBRANCH  21  26
BRANCH  23  28
ATOM     28  O   UNL     1       7.665  15.555  21.196  1.00  0.00    -0.387 OA
ATOM     29  H   UNL     1       8.556  15.637  21.627  1.00  0.00     0.211 HD
ENDBRANCH  23  28
BRANCH  24  30
ATOM     30  C   UNL     1       4.136  18.581  22.889  1.00  0.00     0.191 C 
BRANCH  30  31
ATOM     31  O   UNL     1       3.009  18.000  22.290  1.00  0.00    -0.394 OA
ATOM     32  H   UNL     1       2.894  18.440  21.407  1.00  0.00     0.210 HD
ENDBRANCH  30  31
ENDBRANCH  24  30
BRANCH  25  33
ATOM     33  O   UNL     1       4.879  16.119  21.407  1.00  0.00    -0.388 OA
ATOM     34  H   UNL     1       4.078  16.685  21.252  1.00  0.00     0.211 HD
ENDBRANCH  25  33
ENDBRANCH  11  20
BRANCH  10  35
ATOM     35  O   UNL     1       7.084  18.083  18.886  1.00  0.00    -0.507 OA
ATOM     36  H   UNL     1       6.614  17.612  18.122  1.00  0.00     0.293 HD
ENDBRANCH  10  35
TORSDOF 9
ENDMDL
