MODEL 1
REMARK VINA RESULT:    -5.661      0.000      0.000
REMARK INTER + INTRA:          -7.129
REMARK INTER:                  -6.819
REMARK INTRA:                  -0.310
REMARK UNBOUND:                -0.310
REMARK SMILES Oc1cc(O)c2cc(O)c(-c3ccc(O)c(O)c3)[o+]c2c1
REMARK SMILES IDX 10 1 19 2 20 3 21 4 2 5 3 6 4 7 6 8 7 9 8 10 11 11 12 12
REMARK SMILES IDX 13 13 14 14 18 15 16 16 15 17 17 19 9 21 1 23 5 25
REMARK H PARENT 15 18 17 20 9 22 1 24 5 26
REMARK Flexibility Score: inf
ROOT
ATOM      1  C   UNL     1      24.454   7.211 -21.900  1.00  0.00     0.402 A 
ATOM      2  O   UNL     1      23.947   6.731 -23.032  1.00  0.00    -0.202 OA
ATOM      3  C   UNL     1      24.581   6.788 -24.198  1.00  0.00     0.368 A 
ATOM      4  C   UNL     1      23.968   6.253 -25.334  1.00  0.00     0.162 A 
ATOM      5  C   UNL     1      24.611   6.296 -26.571  1.00  0.00     0.128 A 
ATOM      6  C   UNL     1      25.879   6.879 -26.676  1.00  0.00     0.093 A 
ATOM      7  C   UNL     1      26.516   7.423 -25.553  1.00  0.00     0.136 A 
ATOM      8  C   UNL     1      25.863   7.383 -24.294  1.00  0.00     0.125 A 
ATOM      9  C   UNL     1      26.419   7.914 -23.119  1.00  0.00     0.078 A 
ATOM     10  C   UNL     1      25.712   7.841 -21.914  1.00  0.00     0.223 A 
ENDROOT
BRANCH   1  11
ATOM     11  C   UNL     1      23.654   7.078 -20.662  1.00  0.00     0.087 A 
ATOM     12  C   UNL     1      23.661   5.861 -19.962  1.00  0.00     0.022 A 
ATOM     13  C   UNL     1      22.929   5.719 -18.781  1.00  0.00     0.051 A 
ATOM     14  C   UNL     1      22.192   6.797 -18.272  1.00  0.00     0.157 A 
ATOM     15  C   UNL     1      22.930   8.164 -20.137  1.00  0.00     0.068 A 
ATOM     16  C   UNL     1      22.197   8.026 -18.952  1.00  0.00     0.158 A 
BRANCH  14  17
ATOM     17  O   UNL     1      21.461   6.652 -17.094  1.00  0.00    -0.504 OA
ATOM     18  H   UNL     1      21.871   6.243 -16.262  1.00  0.00     0.293 HD
ENDBRANCH  14  17
BRANCH  16  19
ATOM     19  O   UNL     1      21.486   9.122 -18.464  1.00  0.00    -0.504 OA
ATOM     20  H   UNL     1      21.265   9.226 -17.481  1.00  0.00     0.293 HD
ENDBRANCH  16  19
ENDBRANCH   1  11
BRANCH  10  21
ATOM     21  O   UNL     1      26.242   8.413 -20.757  1.00  0.00    -0.500 OA
ATOM     22  H   UNL     1      26.508   9.390 -20.720  1.00  0.00     0.294 HD
ENDBRANCH  10  21
BRANCH   5  23
ATOM     23  O   UNL     1      23.983   5.757 -27.691  1.00  0.00    -0.507 OA
ATOM     24  H   UNL     1      23.858   6.297 -28.540  1.00  0.00     0.293 HD
ENDBRANCH   5  23
BRANCH   7  25
ATOM     25  O   UNL     1      27.783   7.984 -25.740  1.00  0.00    -0.507 OA
ATOM     26  H   UNL     1      28.651   7.482 -25.631  1.00  0.00     0.293 HD
ENDBRANCH   7  25
TORSDOF 6
ENDMDL
MODEL 2
REMARK VINA RESULT:    -5.593      2.962      3.878
REMARK INTER + INTRA:          -7.047
REMARK INTER:                  -6.770
REMARK INTRA:                  -0.277
REMARK UNBOUND:                -0.310
REMARK SMILES Oc1cc(O)c2cc(O)c(-c3ccc(O)c(O)c3)[o+]c2c1
REMARK SMILES IDX 10 1 19 2 20 3 21 4 2 5 3 6 4 7 6 8 7 9 8 10 11 11 12 12
REMARK SMILES IDX 13 13 14 14 18 15 16 16 15 17 17 19 9 21 1 23 5 25
REMARK H PARENT 15 18 17 20 9 22 1 24 5 26
REMARK Flexibility Score: inf
ROOT
ATOM      1  C   UNL     1      23.090   5.086 -22.621  1.00  0.00     0.402 A 
ATOM      2  O   UNL     1      22.029   4.379 -23.001  1.00  0.00    -0.202 OA
ATOM      3  C   UNL     1      21.956   3.739 -24.164  1.00  0.00     0.368 A 
ATOM      4  C   UNL     1      20.800   3.019 -24.474  1.00  0.00     0.162 A 
ATOM      5  C   UNL     1      20.697   2.335 -25.685  1.00  0.00     0.128 A 
ATOM      6  C   UNL     1      21.759   2.370 -26.596  1.00  0.00     0.093 A 
ATOM      7  C   UNL     1      22.929   3.084 -26.310  1.00  0.00     0.136 A 
ATOM      8  C   UNL     1      23.036   3.783 -25.080  1.00  0.00     0.125 A 
ATOM      9  C   UNL     1      24.164   4.534 -24.714  1.00  0.00     0.078 A 
ATOM     10  C   UNL     1      24.194   5.201 -23.485  1.00  0.00     0.223 A 
ENDROOT
BRANCH   1  11
ATOM     11  C   UNL     1      23.053   5.745 -21.296  1.00  0.00     0.087 A 
ATOM     12  C   UNL     1      23.256   4.979 -20.138  1.00  0.00     0.022 A 
ATOM     13  C   UNL     1      23.246   5.584 -18.879  1.00  0.00     0.051 A 
ATOM     14  C   UNL     1      23.050   6.966 -18.760  1.00  0.00     0.157 A 
ATOM     15  C   UNL     1      22.878   7.136 -21.175  1.00  0.00     0.068 A 
ATOM     16  C   UNL     1      22.869   7.745 -19.914  1.00  0.00     0.158 A 
BRANCH  14  17
ATOM     17  O   UNL     1      23.039   7.567 -17.501  1.00  0.00    -0.504 OA
ATOM     18  H   UNL     1      23.796   7.433 -16.843  1.00  0.00     0.293 HD
ENDBRANCH  14  17
BRANCH  16  19
ATOM     19  O   UNL     1      22.686   9.125 -19.831  1.00  0.00    -0.504 OA
ATOM     20  H   UNL     1      21.838   9.576 -20.154  1.00  0.00     0.293 HD
ENDBRANCH  16  19
ENDBRANCH   1  11
BRANCH  10  21
ATOM     21  O   UNL     1      25.294   5.988 -23.143  1.00  0.00    -0.500 OA
ATOM     22  H   UNL     1      25.814   5.834 -22.287  1.00  0.00     0.294 HD
ENDBRANCH  10  21
BRANCH   5  23
ATOM     23  O   UNL     1      19.536   1.623 -25.976  1.00  0.00    -0.507 OA
ATOM     24  H   UNL     1      19.422   1.128 -26.853  1.00  0.00     0.293 HD
ENDBRANCH   5  23
BRANCH   7  25
ATOM     25  O   UNL     1      23.945   3.067 -27.271  1.00  0.00    -0.507 OA
ATOM     26  H   UNL     1      24.275   2.235 -27.737  1.00  0.00     0.293 HD
ENDBRANCH   7  25
TORSDOF 6
ENDMDL
MODEL 3
REMARK VINA RESULT:    -5.557      1.546      7.212
REMARK INTER + INTRA:          -7.003
REMARK INTER:                  -6.792
REMARK INTRA:                  -0.211
REMARK UNBOUND:                -0.310
REMARK SMILES Oc1cc(O)c2cc(O)c(-c3ccc(O)c(O)c3)[o+]c2c1
REMARK SMILES IDX 10 1 19 2 20 3 21 4 2 5 3 6 4 7 6 8 7 9 8 10 11 11 12 12
REMARK SMILES IDX 13 13 14 14 18 15 16 16 15 17 17 19 9 21 1 23 5 25
REMARK H PARENT 15 18 17 20 9 22 1 24 5 26
REMARK Flexibility Score: inf
ROOT
ATOM      1  C   UNL     1      24.264   5.816 -22.623  1.00  0.00     0.402 A 
ATOM      2  O   UNL     1      23.808   6.766 -21.812  1.00  0.00    -0.202 OA
ATOM      3  C   UNL     1      23.388   6.530 -20.574  1.00  0.00     0.368 A 
ATOM      4  C   UNL     1      22.929   7.596 -19.796  1.00  0.00     0.162 A 
ATOM      5  C   UNL     1      22.484   7.378 -18.492  1.00  0.00     0.128 A 
ATOM      6  C   UNL     1      22.498   6.085 -17.959  1.00  0.00     0.093 A 
ATOM      7  C   UNL     1      22.952   4.999 -18.717  1.00  0.00     0.136 A 
ATOM      8  C   UNL     1      23.403   5.216 -20.045  1.00  0.00     0.125 A 
ATOM      9  C   UNL     1      23.864   4.188 -20.883  1.00  0.00     0.078 A 
ATOM     10  C   UNL     1      24.287   4.479 -22.183  1.00  0.00     0.223 A 
ENDROOT
BRANCH   1  11
ATOM     11  C   UNL     1      24.713   6.207 -23.978  1.00  0.00     0.087 A 
ATOM     12  C   UNL     1      25.887   6.962 -24.125  1.00  0.00     0.022 A 
ATOM     13  C   UNL     1      26.341   7.325 -25.395  1.00  0.00     0.051 A 
ATOM     14  C   UNL     1      25.638   6.925 -26.539  1.00  0.00     0.157 A 
ATOM     15  C   UNL     1      24.021   5.789 -25.129  1.00  0.00     0.068 A 
ATOM     16  C   UNL     1      24.474   6.150 -26.404  1.00  0.00     0.158 A 
BRANCH  14  17
ATOM     17  O   UNL     1      26.092   7.291 -27.805  1.00  0.00    -0.504 OA
ATOM     18  H   UNL     1      25.550   7.897 -28.408  1.00  0.00     0.293 HD
ENDBRANCH  14  17
BRANCH  16  19
ATOM     19  O   UNL     1      23.759   5.723 -27.522  1.00  0.00    -0.504 OA
ATOM     20  H   UNL     1      23.295   4.822 -27.553  1.00  0.00     0.293 HD
ENDBRANCH  16  19
ENDBRANCH   1  11
BRANCH  10  21
ATOM     21  O   UNL     1      24.698   3.451 -23.032  1.00  0.00    -0.500 OA
ATOM     22  H   UNL     1      25.148   3.641 -23.919  1.00  0.00     0.294 HD
ENDBRANCH  10  21
BRANCH   5  23
ATOM     23  O   UNL     1      22.031   8.454 -17.732  1.00  0.00    -0.507 OA
ATOM     24  H   UNL     1      21.298   8.343 -17.040  1.00  0.00     0.293 HD
ENDBRANCH   5  23
BRANCH   7  25
ATOM     25  O   UNL     1      22.937   3.739 -18.112  1.00  0.00    -0.507 OA
ATOM     26  H   UNL     1      23.208   2.881 -18.571  1.00  0.00     0.293 HD
ENDBRANCH   7  25
TORSDOF 6
ENDMDL
MODEL 4
REMARK VINA RESULT:    -5.317     16.715     17.867
REMARK INTER + INTRA:          -6.715
REMARK INTER:                  -6.371
REMARK INTRA:                  -0.344
REMARK UNBOUND:                -0.310
REMARK SMILES Oc1cc(O)c2cc(O)c(-c3ccc(O)c(O)c3)[o+]c2c1
REMARK SMILES IDX 10 1 19 2 20 3 21 4 2 5 3 6 4 7 6 8 7 9 8 10 11 11 12 12
REMARK SMILES IDX 13 13 14 14 18 15 16 16 15 17 17 19 9 21 1 23 5 25
REMARK H PARENT 15 18 17 20 9 22 1 24 5 26
REMARK Flexibility Score: inf
ROOT
ATOM      1  C   UNL     1      31.663  -8.431 -27.277  1.00  0.00     0.402 A 
ATOM      2  O   UNL     1      30.488  -8.190 -27.854  1.00  0.00    -0.202 OA
ATOM      3  C   UNL     1      30.337  -8.038 -29.166  1.00  0.00     0.368 A 
ATOM      4  C   UNL     1      29.061  -7.791 -29.679  1.00  0.00     0.162 A 
ATOM      5  C   UNL     1      28.872  -7.630 -31.052  1.00  0.00     0.128 A 
ATOM      6  C   UNL     1      29.965  -7.714 -31.920  1.00  0.00     0.093 A 
ATOM      7  C   UNL     1      31.254  -7.960 -31.431  1.00  0.00     0.136 A 
ATOM      8  C   UNL     1      31.451  -8.123 -30.036  1.00  0.00     0.125 A 
ATOM      9  C   UNL     1      32.708  -8.359 -29.455  1.00  0.00     0.078 A 
ATOM     10  C   UNL     1      32.823  -8.504 -28.069  1.00  0.00     0.223 A 
ENDROOT
BRANCH   1  11
ATOM     11  C   UNL     1      31.700  -8.592 -25.806  1.00  0.00     0.087 A 
ATOM     12  C   UNL     1      31.518  -9.866 -25.247  1.00  0.00     0.022 A 
ATOM     13  C   UNL     1      31.571 -10.046 -23.862  1.00  0.00     0.051 A 
ATOM     14  C   UNL     1      31.822  -8.957 -23.017  1.00  0.00     0.157 A 
ATOM     15  C   UNL     1      31.973  -7.505 -24.957  1.00  0.00     0.068 A 
ATOM     16  C   UNL     1      32.027  -7.681 -23.568  1.00  0.00     0.158 A 
BRANCH  14  17
ATOM     17  O   UNL     1      31.871  -9.138 -21.636  1.00  0.00    -0.504 OA
ATOM     18  H   UNL     1      31.907 -10.062 -21.223  1.00  0.00     0.293 HD
ENDBRANCH  14  17
BRANCH  16  19
ATOM     19  O   UNL     1      32.294  -6.580 -22.756  1.00  0.00    -0.504 OA
ATOM     20  H   UNL     1      31.751  -5.726 -22.812  1.00  0.00     0.293 HD
ENDBRANCH  16  19
ENDBRANCH   1  11
BRANCH  10  21
ATOM     21  O   UNL     1      34.078  -8.689 -27.487  1.00  0.00    -0.500 OA
ATOM     22  H   UNL     1      34.200  -9.248 -26.651  1.00  0.00     0.294 HD
ENDBRANCH  10  21
BRANCH   5  23
ATOM     23  O   UNL     1      27.592  -7.385 -31.544  1.00  0.00    -0.507 OA
ATOM     24  H   UNL     1      27.006  -6.652 -31.158  1.00  0.00     0.293 HD
ENDBRANCH   5  23
BRANCH   7  25
ATOM     25  O   UNL     1      32.294  -8.033 -32.363  1.00  0.00    -0.507 OA
ATOM     26  H   UNL     1      33.072  -7.392 -32.403  1.00  0.00     0.293 HD
ENDBRANCH   7  25
TORSDOF 6
ENDMDL
MODEL 5
REMARK VINA RESULT:    -5.105     11.322     14.420
REMARK INTER + INTRA:          -6.459
REMARK INTER:                  -6.209
REMARK INTRA:                  -0.250
REMARK UNBOUND:                -0.310
REMARK SMILES Oc1cc(O)c2cc(O)c(-c3ccc(O)c(O)c3)[o+]c2c1
REMARK SMILES IDX 10 1 19 2 20 3 21 4 2 5 3 6 4 7 6 8 7 9 8 10 11 11 12 12
REMARK SMILES IDX 13 13 14 14 18 15 16 16 15 17 17 19 9 21 1 23 5 25
REMARK H PARENT 15 18 17 20 9 22 1 24 5 26
REMARK Flexibility Score: inf
ROOT
ATOM      1  C   UNL     1      28.524  -3.967 -29.294  1.00  0.00     0.402 A 
ATOM      2  O   UNL     1      27.609  -3.008 -29.178  1.00  0.00    -0.202 OA
ATOM      3  C   UNL     1      27.913  -1.725 -29.013  1.00  0.00     0.368 A 
ATOM      4  C   UNL     1      26.881  -0.789 -28.906  1.00  0.00     0.162 A 
ATOM      5  C   UNL     1      27.170   0.564 -28.735  1.00  0.00     0.128 A 
ATOM      6  C   UNL     1      28.501   0.989 -28.671  1.00  0.00     0.093 A 
ATOM      7  C   UNL     1      29.554   0.072 -28.776  1.00  0.00     0.136 A 
ATOM      8  C   UNL     1      29.264  -1.306 -28.947  1.00  0.00     0.125 A 
ATOM      9  C   UNL     1      30.254  -2.297 -29.049  1.00  0.00     0.078 A 
ATOM     10  C   UNL     1      29.889  -3.637 -29.212  1.00  0.00     0.223 A 
ENDROOT
BRANCH   1  11
ATOM     11  C   UNL     1      28.059  -5.359 -29.484  1.00  0.00     0.087 A 
ATOM     12  C   UNL     1      27.320  -5.985 -28.468  1.00  0.00     0.022 A 
ATOM     13  C   UNL     1      26.854  -7.292 -28.635  1.00  0.00     0.051 A 
ATOM     14  C   UNL     1      27.106  -7.986 -29.825  1.00  0.00     0.157 A 
ATOM     15  C   UNL     1      28.292  -6.051 -30.686  1.00  0.00     0.068 A 
ATOM     16  C   UNL     1      27.825  -7.361 -30.857  1.00  0.00     0.158 A 
BRANCH  14  17
ATOM     17  O   UNL     1      26.641  -9.291 -29.988  1.00  0.00    -0.504 OA
ATOM     18  H   UNL     1      25.916  -9.673 -29.393  1.00  0.00     0.293 HD
ENDBRANCH  14  17
BRANCH  16  19
ATOM     19  O   UNL     1      28.080  -8.018 -32.059  1.00  0.00    -0.504 OA
ATOM     20  H   UNL     1      27.749  -7.662 -32.949  1.00  0.00     0.293 HD
ENDBRANCH  16  19
ENDBRANCH   1  11
BRANCH  10  21
ATOM     21  O   UNL     1      30.871  -4.628 -29.263  1.00  0.00    -0.500 OA
ATOM     22  H   UNL     1      31.851  -4.400 -29.380  1.00  0.00     0.294 HD
ENDBRANCH  10  21
BRANCH   5  23
ATOM     23  O   UNL     1      26.127   1.481 -28.629  1.00  0.00    -0.507 OA
ATOM     24  H   UNL     1      25.499   1.663 -29.405  1.00  0.00     0.293 HD
ENDBRANCH   5  23
BRANCH   7  25
ATOM     25  O   UNL     1      30.857   0.576 -28.706  1.00  0.00    -0.507 OA
ATOM     26  H   UNL     1      31.657   0.154 -29.152  1.00  0.00     0.293 HD
ENDBRANCH   7  25
TORSDOF 6
ENDMDL
MODEL 6
REMARK VINA RESULT:    -5.033      2.122      3.135
REMARK INTER + INTRA:          -6.372
REMARK INTER:                  -6.345
REMARK INTRA:                  -0.027
REMARK UNBOUND:                -0.310
REMARK SMILES Oc1cc(O)c2cc(O)c(-c3ccc(O)c(O)c3)[o+]c2c1
REMARK SMILES IDX 10 1 19 2 20 3 21 4 2 5 3 6 4 7 6 8 7 9 8 10 11 11 12 12
REMARK SMILES IDX 13 13 14 14 18 15 16 16 15 17 17 19 9 21 1 23 5 25
REMARK H PARENT 15 18 17 20 9 22 1 24 5 26
REMARK Flexibility Score: inf
ROOT
ATOM      1  C   UNL     1      23.917   5.673 -21.568  1.00  0.00     0.402 A 
ATOM      2  O   UNL     1      24.004   6.244 -22.766  1.00  0.00    -0.202 OA
ATOM      3  C   UNL     1      24.140   5.557 -23.895  1.00  0.00     0.368 A 
ATOM      4  C   UNL     1      24.219   6.247 -25.107  1.00  0.00     0.162 A 
ATOM      5  C   UNL     1      24.359   5.551 -26.308  1.00  0.00     0.128 A 
ATOM      6  C   UNL     1      24.420   4.153 -26.300  1.00  0.00     0.093 A 
ATOM      7  C   UNL     1      24.344   3.437 -25.099  1.00  0.00     0.136 A 
ATOM      8  C   UNL     1      24.204   4.142 -23.875  1.00  0.00     0.125 A 
ATOM      9  C   UNL     1      24.131   3.509 -22.623  1.00  0.00     0.078 A 
ATOM     10  C   UNL     1      23.999   4.272 -21.459  1.00  0.00     0.223 A 
ENDROOT
BRANCH   1  11
ATOM     11  C   UNL     1      23.758   6.547 -20.384  1.00  0.00     0.087 A 
ATOM     12  C   UNL     1      24.544   7.704 -20.270  1.00  0.00     0.022 A 
ATOM     13  C   UNL     1      24.396   8.555 -19.172  1.00  0.00     0.051 A 
ATOM     14  C   UNL     1      23.449   8.271 -18.180  1.00  0.00     0.157 A 
ATOM     15  C   UNL     1      22.793   6.276 -19.398  1.00  0.00     0.068 A 
ATOM     16  C   UNL     1      22.641   7.128 -18.296  1.00  0.00     0.158 A 
BRANCH  14  17
ATOM     17  O   UNL     1      23.305   9.121 -17.084  1.00  0.00    -0.504 OA
ATOM     18  H   UNL     1      23.922   9.911 -16.941  1.00  0.00     0.293 HD
ENDBRANCH  14  17
BRANCH  16  19
ATOM     19  O   UNL     1      21.679   6.824 -17.334  1.00  0.00    -0.504 OA
ATOM     20  H   UNL     1      21.781   7.100 -16.364  1.00  0.00     0.293 HD
ENDBRANCH  16  19
ENDBRANCH   1  11
BRANCH  10  21
ATOM     21  O   UNL     1      23.978   3.647 -20.212  1.00  0.00    -0.500 OA
ATOM     22  H   UNL     1      23.625   2.704 -20.095  1.00  0.00     0.294 HD
ENDBRANCH  10  21
BRANCH   5  23
ATOM     23  O   UNL     1      24.436   6.257 -27.506  1.00  0.00    -0.507 OA
ATOM     24  H   UNL     1      24.741   7.224 -27.533  1.00  0.00     0.293 HD
ENDBRANCH   5  23
BRANCH   7  25
ATOM     25  O   UNL     1      24.409   2.043 -25.175  1.00  0.00    -0.507 OA
ATOM     26  H   UNL     1      23.788   1.471 -25.728  1.00  0.00     0.293 HD
ENDBRANCH   7  25
TORSDOF 6
ENDMDL
MODEL 7
REMARK VINA RESULT:    -5.028     16.878     18.144
REMARK INTER + INTRA:          -6.367
REMARK INTER:                  -6.098
REMARK INTRA:                  -0.269
REMARK UNBOUND:                -0.310
REMARK SMILES Oc1cc(O)c2cc(O)c(-c3ccc(O)c(O)c3)[o+]c2c1
REMARK SMILES IDX 10 1 19 2 20 3 21 4 2 5 3 6 4 7 6 8 7 9 8 10 11 11 12 12
REMARK SMILES IDX 13 13 14 14 18 15 16 16 15 17 17 19 9 21 1 23 5 25
REMARK H PARENT 15 18 17 20 9 22 1 24 5 26
REMARK Flexibility Score: inf
ROOT
ATOM      1  C   UNL     1      31.781  -7.991 -27.056  1.00  0.00     0.402 A 
ATOM      2  O   UNL     1      32.552  -8.174 -28.124  1.00  0.00    -0.202 OA
ATOM      3  C   UNL     1      32.127  -7.999 -29.371  1.00  0.00     0.368 A 
ATOM      4  C   UNL     1      33.014  -8.212 -30.429  1.00  0.00     0.162 A 
ATOM      5  C   UNL     1      32.595  -8.033 -31.748  1.00  0.00     0.128 A 
ATOM      6  C   UNL     1      31.280  -7.638 -32.013  1.00  0.00     0.093 A 
ATOM      7  C   UNL     1      30.371  -7.418 -30.971  1.00  0.00     0.136 A 
ATOM      8  C   UNL     1      30.792  -7.601 -29.629  1.00  0.00     0.125 A 
ATOM      9  C   UNL     1      29.948  -7.416 -28.522  1.00  0.00     0.078 A 
ATOM     10  C   UNL     1      30.434  -7.621 -27.227  1.00  0.00     0.223 A 
ENDROOT
BRANCH   1  11
ATOM     11  C   UNL     1      32.375  -8.208 -25.718  1.00  0.00     0.087 A 
ATOM     12  C   UNL     1      33.238  -7.240 -25.180  1.00  0.00     0.022 A 
ATOM     13  C   UNL     1      33.794  -7.414 -23.910  1.00  0.00     0.051 A 
ATOM     14  C   UNL     1      33.482  -8.550 -23.152  1.00  0.00     0.157 A 
ATOM     15  C   UNL     1      32.048  -9.337 -24.945  1.00  0.00     0.068 A 
ATOM     16  C   UNL     1      32.602  -9.514 -23.671  1.00  0.00     0.158 A 
BRANCH  14  17
ATOM     17  O   UNL     1      34.040  -8.723 -21.886  1.00  0.00    -0.504 OA
ATOM     18  H   UNL     1      34.831  -9.338 -21.734  1.00  0.00     0.293 HD
ENDBRANCH  14  17
BRANCH  16  19
ATOM     19  O   UNL     1      32.260 -10.648 -22.937  1.00  0.00    -0.504 OA
ATOM     20  H   UNL     1      32.571 -10.785 -21.982  1.00  0.00     0.293 HD
ENDBRANCH  16  19
ENDBRANCH   1  11
BRANCH  10  21
ATOM     21  O   UNL     1      29.582  -7.486 -26.130  1.00  0.00    -0.500 OA
ATOM     22  H   UNL     1      29.507  -8.207 -25.423  1.00  0.00     0.294 HD
ENDBRANCH  10  21
BRANCH   5  23
ATOM     23  O   UNL     1      33.495  -8.250 -32.789  1.00  0.00    -0.507 OA
ATOM     24  H   UNL     1      34.471  -7.988 -32.710  1.00  0.00     0.293 HD
ENDBRANCH   5  23
BRANCH   7  25
ATOM     25  O   UNL     1      29.076  -7.022 -31.318  1.00  0.00    -0.507 OA
ATOM     26  H   UNL     1      28.723  -6.990 -32.263  1.00  0.00     0.293 HD
ENDBRANCH   7  25
TORSDOF 6
ENDMDL
MODEL 8
REMARK VINA RESULT:    -5.011     12.687     14.699
REMARK INTER + INTRA:          -6.346
REMARK INTER:                  -6.223
REMARK INTRA:                  -0.123
REMARK UNBOUND:                -0.310
REMARK SMILES Oc1cc(O)c2cc(O)c(-c3ccc(O)c(O)c3)[o+]c2c1
REMARK SMILES IDX 10 1 19 2 20 3 21 4 2 5 3 6 4 7 6 8 7 9 8 10 11 11 12 12
REMARK SMILES IDX 13 13 14 14 18 15 16 16 15 17 17 19 9 21 1 23 5 25
REMARK H PARENT 15 18 17 20 9 22 1 24 5 26
REMARK Flexibility Score: inf
ROOT
ATOM      1  C   UNL     1      26.674  -5.116 -28.613  1.00  0.00     0.402 A 
ATOM      2  O   UNL     1      26.767  -6.241 -29.318  1.00  0.00    -0.202 OA
ATOM      3  C   UNL     1      27.780  -6.509 -30.135  1.00  0.00     0.368 A 
ATOM      4  C   UNL     1      27.792  -7.720 -30.831  1.00  0.00     0.162 A 
ATOM      5  C   UNL     1      28.844  -8.029 -31.693  1.00  0.00     0.128 A 
ATOM      6  C   UNL     1      29.895  -7.121 -31.862  1.00  0.00     0.093 A 
ATOM      7  C   UNL     1      29.908  -5.900 -31.177  1.00  0.00     0.136 A 
ATOM      8  C   UNL     1      28.838  -5.581 -30.301  1.00  0.00     0.125 A 
ATOM      9  C   UNL     1      28.760  -4.377 -29.582  1.00  0.00     0.078 A 
ATOM     10  C   UNL     1      27.670  -4.132 -28.741  1.00  0.00     0.223 A 
ENDROOT
BRANCH   1  11
ATOM     11  C   UNL     1      25.500  -4.939 -27.729  1.00  0.00     0.087 A 
ATOM     12  C   UNL     1      24.621  -3.868 -27.955  1.00  0.00     0.022 A 
ATOM     13  C   UNL     1      23.495  -3.694 -27.146  1.00  0.00     0.051 A 
ATOM     14  C   UNL     1      23.223  -4.596 -26.109  1.00  0.00     0.157 A 
ATOM     15  C   UNL     1      25.212  -5.855 -26.701  1.00  0.00     0.068 A 
ATOM     16  C   UNL     1      24.083  -5.683 -25.889  1.00  0.00     0.158 A 
BRANCH  14  17
ATOM     17  O   UNL     1      22.100  -4.417 -25.302  1.00  0.00    -0.504 OA
ATOM     18  H   UNL     1      21.162  -4.519 -25.669  1.00  0.00     0.293 HD
ENDBRANCH  14  17
BRANCH  16  19
ATOM     19  O   UNL     1      23.833  -6.607 -24.876  1.00  0.00    -0.504 OA
ATOM     20  H   UNL     1      23.918  -6.367 -23.895  1.00  0.00     0.293 HD
ENDBRANCH  16  19
ENDBRANCH   1  11
BRANCH  10  21
ATOM     21  O   UNL     1      27.568  -2.914 -28.067  1.00  0.00    -0.500 OA
ATOM     22  H   UNL     1      28.313  -2.571 -27.473  1.00  0.00     0.294 HD
ENDBRANCH  10  21
BRANCH   5  23
ATOM     23  O   UNL     1      28.837  -9.242 -32.378  1.00  0.00    -0.507 OA
ATOM     24  H   UNL     1      27.970  -9.704 -32.630  1.00  0.00     0.293 HD
ENDBRANCH   5  23
BRANCH   7  25
ATOM     25  O   UNL     1      30.995  -5.049 -31.397  1.00  0.00    -0.507 OA
ATOM     26  H   UNL     1      31.832  -5.035 -30.834  1.00  0.00     0.293 HD
ENDBRANCH   7  25
TORSDOF 6
ENDMDL
MODEL 9
REMARK VINA RESULT:    -4.996     13.641     16.665
REMARK INTER + INTRA:          -6.328
REMARK INTER:                  -6.000
REMARK INTRA:                  -0.328
REMARK UNBOUND:                -0.310
REMARK SMILES Oc1cc(O)c2cc(O)c(-c3ccc(O)c(O)c3)[o+]c2c1
REMARK SMILES IDX 10 1 19 2 20 3 21 4 2 5 3 6 4 7 6 8 7 9 8 10 11 11 12 12
REMARK SMILES IDX 13 13 14 14 18 15 16 16 15 17 17 19 9 21 1 23 5 25
REMARK H PARENT 15 18 17 20 9 22 1 24 5 26
REMARK Flexibility Score: inf
ROOT
ATOM      1  C   UNL     1      26.792  -6.521 -28.067  1.00  0.00     0.402 A 
ATOM      2  O   UNL     1      26.430  -7.365 -27.105  1.00  0.00    -0.202 OA
ATOM      3  C   UNL     1      25.476  -7.097 -26.219  1.00  0.00     0.368 A 
ATOM      4  C   UNL     1      25.164  -8.050 -25.246  1.00  0.00     0.162 A 
ATOM      5  C   UNL     1      24.166  -7.797 -24.305  1.00  0.00     0.128 A 
ATOM      6  C   UNL     1      23.474  -6.581 -24.334  1.00  0.00     0.093 A 
ATOM      7  C   UNL     1      23.768  -5.609 -25.298  1.00  0.00     0.136 A 
ATOM      8  C   UNL     1      24.783  -5.862 -26.255  1.00  0.00     0.125 A 
ATOM      9  C   UNL     1      25.154  -4.942 -27.250  1.00  0.00     0.078 A 
ATOM     10  C   UNL     1      26.170  -5.262 -28.157  1.00  0.00     0.223 A 
ENDROOT
BRANCH   1  11
ATOM     11  C   UNL     1      27.861  -6.940 -29.001  1.00  0.00     0.087 A 
ATOM     12  C   UNL     1      29.195  -6.945 -28.566  1.00  0.00     0.022 A 
ATOM     13  C   UNL     1      30.218  -7.356 -29.424  1.00  0.00     0.051 A 
ATOM     14  C   UNL     1      29.921  -7.783 -30.724  1.00  0.00     0.157 A 
ATOM     15  C   UNL     1      27.564  -7.390 -30.300  1.00  0.00     0.068 A 
ATOM     16  C   UNL     1      28.587  -7.804 -31.163  1.00  0.00     0.158 A 
BRANCH  14  17
ATOM     17  O   UNL     1      30.945  -8.191 -31.579  1.00  0.00    -0.504 OA
ATOM     18  H   UNL     1      30.784  -8.870 -32.313  1.00  0.00     0.293 HD
ENDBRANCH  14  17
BRANCH  16  19
ATOM     19  O   UNL     1      28.256  -8.238 -32.445  1.00  0.00    -0.504 OA
ATOM     20  H   UNL     1      28.899  -8.779 -33.013  1.00  0.00     0.293 HD
ENDBRANCH  16  19
ENDBRANCH   1  11
BRANCH  10  21
ATOM     21  O   UNL     1      26.573  -4.328 -29.112  1.00  0.00    -0.500 OA
ATOM     22  H   UNL     1      27.193  -4.579 -29.873  1.00  0.00     0.294 HD
ENDBRANCH  10  21
BRANCH   5  23
ATOM     23  O   UNL     1      23.869  -8.760 -23.343  1.00  0.00    -0.507 OA
ATOM     24  H   UNL     1      22.926  -9.110 -23.216  1.00  0.00     0.293 HD
ENDBRANCH   5  23
BRANCH   7  25
ATOM     25  O   UNL     1      23.030  -4.422 -25.262  1.00  0.00    -0.507 OA
ATOM     26  H   UNL     1      23.216  -3.653 -24.636  1.00  0.00     0.293 HD
ENDBRANCH   7  25
TORSDOF 6
ENDMDL
