MODEL 1
REMARK VINA RESULT:    -5.993      0.000      0.000
REMARK INTER + INTRA:          -6.733
REMARK INTER:                  -6.519
REMARK INTRA:                  -0.214
REMARK UNBOUND:                -0.214
REMARK SMILES O=C([O-])c1ccccc1O
REMARK SMILES IDX 4 1 9 2 5 3 8 4 6 5 7 6 2 7 1 8 3 9 10 10
REMARK H PARENT 10 11
REMARK Flexibility Score: inf
ROOT
ATOM      1  C   UNL     1      10.481 -11.568  28.925  1.00  0.00     0.039 A 
ATOM      2  C   UNL     1      11.754 -12.050  29.315  1.00  0.00     0.124 A 
ATOM      3  C   UNL     1       9.842 -12.162  27.817  1.00  0.00     0.014 A 
ATOM      4  C   UNL     1      12.354 -13.099  28.603  1.00  0.00     0.047 A 
ATOM      5  C   UNL     1      10.452 -13.206  27.117  1.00  0.00     0.001 A 
ATOM      6  C   UNL     1      11.706 -13.674  27.509  1.00  0.00     0.004 A 
ENDROOT
BRANCH   1   7
ATOM      7  C   UNL     1       9.809 -10.460  29.650  1.00  0.00     0.075 C 
ATOM      8  O   UNL     1      10.491  -9.586  30.250  1.00  0.00    -0.545 OA
ATOM      9  O   UNL     1       8.423 -10.359  29.684  1.00  0.00    -0.545 OA
ENDBRANCH   1   7
BRANCH   2  10
ATOM     10  O   UNL     1      12.424 -11.493  30.404  1.00  0.00    -0.507 OA
ATOM     11  H   UNL     1      12.435 -11.947  31.312  1.00  0.00     0.293 HD
ENDBRANCH   2  10
TORSDOF 2
ENDMDL
MODEL 2
REMARK VINA RESULT:    -5.954      1.231      2.148
REMARK INTER + INTRA:          -6.690
REMARK INTER:                  -6.566
REMARK INTRA:                  -0.124
REMARK UNBOUND:                -0.214
REMARK SMILES O=C([O-])c1ccccc1O
REMARK SMILES IDX 4 1 9 2 5 3 8 4 6 5 7 6 2 7 1 8 3 9 10 10
REMARK H PARENT 10 11
REMARK Flexibility Score: inf
ROOT
ATOM      1  C   UNL     1      10.791 -11.626  28.860  1.00  0.00     0.039 A 
ATOM      2  C   UNL     1      10.395 -12.750  28.095  1.00  0.00     0.124 A 
ATOM      3  C   UNL     1      12.165 -11.417  29.097  1.00  0.00     0.014 A 
ATOM      4  C   UNL     1      11.365 -13.628  27.588  1.00  0.00     0.047 A 
ATOM      5  C   UNL     1      13.119 -12.300  28.586  1.00  0.00     0.001 A 
ATOM      6  C   UNL     1      12.720 -13.403  27.833  1.00  0.00     0.004 A 
ENDROOT
BRANCH   1   7
ATOM      7  C   UNL     1       9.798 -10.671  29.416  1.00  0.00     0.075 C 
ATOM      8  O   UNL     1      10.163  -9.768  30.216  1.00  0.00    -0.545 OA
ATOM      9  O   UNL     1       8.454 -10.749  29.072  1.00  0.00    -0.545 OA
ENDBRANCH   1   7
BRANCH   2  10
ATOM     10  O   UNL     1       9.048 -12.998  27.836  1.00  0.00    -0.507 OA
ATOM     11  H   UNL     1       8.754 -13.713  27.179  1.00  0.00     0.293 HD
ENDBRANCH   2  10
TORSDOF 2
ENDMDL
MODEL 3
REMARK VINA RESULT:    -5.798     11.299     12.075
REMARK INTER + INTRA:          -6.520
REMARK INTER:                  -6.296
REMARK INTRA:                  -0.224
REMARK UNBOUND:                -0.214
REMARK SMILES O=C([O-])c1ccccc1O
REMARK SMILES IDX 4 1 9 2 5 3 8 4 6 5 7 6 2 7 1 8 3 9 10 10
REMARK H PARENT 10 11
REMARK Flexibility Score: inf
ROOT
ATOM      1  C   UNL     1      15.847  -1.035  26.456  1.00  0.00     0.039 A 
ATOM      2  C   UNL     1      15.506  -2.069  27.361  1.00  0.00     0.124 A 
ATOM      3  C   UNL     1      17.156  -0.998  25.933  1.00  0.00     0.014 A 
ATOM      4  C   UNL     1      16.463  -3.030  27.719  1.00  0.00     0.047 A 
ATOM      5  C   UNL     1      18.099  -1.961  26.299  1.00  0.00     0.001 A 
ATOM      6  C   UNL     1      17.753  -2.976  27.191  1.00  0.00     0.004 A 
ENDROOT
BRANCH   1   7
ATOM      7  C   UNL     1      14.866   0.003  26.050  1.00  0.00     0.075 C 
ATOM      8  O   UNL     1      13.836  -0.315  25.399  1.00  0.00    -0.545 OA
ATOM      9  O   UNL     1      15.058   1.341  26.375  1.00  0.00    -0.545 OA
ENDBRANCH   1   7
BRANCH   2  10
ATOM     10  O   UNL     1      14.224  -2.146  27.905  1.00  0.00    -0.507 OA
ATOM     11  H   UNL     1      14.070  -2.394  28.876  1.00  0.00     0.293 HD
ENDBRANCH   2  10
TORSDOF 2
ENDMDL
MODEL 4
REMARK VINA RESULT:    -5.699      0.851      2.391
REMARK INTER + INTRA:          -6.412
REMARK INTER:                  -6.157
REMARK INTRA:                  -0.255
REMARK UNBOUND:                -0.214
REMARK SMILES O=C([O-])c1ccccc1O
REMARK SMILES IDX 4 1 9 2 5 3 8 4 6 5 7 6 2 7 1 8 3 9 10 10
REMARK H PARENT 10 11
REMARK Flexibility Score: inf
ROOT
ATOM      1  C   UNL     1      11.193 -11.736  29.354  1.00  0.00     0.039 A 
ATOM      2  C   UNL     1       9.912 -11.770  28.752  1.00  0.00     0.124 A 
ATOM      3  C   UNL     1      12.212 -12.554  28.826  1.00  0.00     0.014 A 
ATOM      4  C   UNL     1       9.679 -12.608  27.651  1.00  0.00     0.047 A 
ATOM      5  C   UNL     1      11.965 -13.385  27.731  1.00  0.00     0.001 A 
ATOM      6  C   UNL     1      10.700 -13.412  27.144  1.00  0.00     0.004 A 
ENDROOT
BRANCH   1   7
ATOM      7  C   UNL     1      11.485 -10.863  30.520  1.00  0.00     0.075 C 
ATOM      8  O   UNL     1      12.112 -11.318  31.514  1.00  0.00    -0.545 OA
ATOM      9  O   UNL     1      11.077  -9.535  30.545  1.00  0.00    -0.545 OA
ENDBRANCH   1   7
BRANCH   2  10
ATOM     10  O   UNL     1       8.873 -10.978  29.240  1.00  0.00    -0.507 OA
ATOM     11  H   UNL     1       8.274 -10.444  28.620  1.00  0.00     0.293 HD
ENDBRANCH   2  10
TORSDOF 2
ENDMDL
MODEL 5
REMARK VINA RESULT:    -5.598      1.979      3.826
REMARK INTER + INTRA:          -6.303
REMARK INTER:                  -6.064
REMARK INTRA:                  -0.239
REMARK UNBOUND:                -0.214
REMARK SMILES O=C([O-])c1ccccc1O
REMARK SMILES IDX 4 1 9 2 5 3 8 4 6 5 7 6 2 7 1 8 3 9 10 10
REMARK H PARENT 10 11
REMARK Flexibility Score: inf
ROOT
ATOM      1  C   UNL     1      12.333 -13.203  28.294  1.00  0.00     0.039 A 
ATOM      2  C   UNL     1      12.109 -12.108  29.164  1.00  0.00     0.124 A 
ATOM      3  C   UNL     1      11.333 -13.541  27.360  1.00  0.00     0.014 A 
ATOM      4  C   UNL     1      10.910 -11.384  29.083  1.00  0.00     0.047 A 
ATOM      5  C   UNL     1      10.144 -12.811  27.291  1.00  0.00     0.001 A 
ATOM      6  C   UNL     1       9.933 -11.734  28.151  1.00  0.00     0.004 A 
ENDROOT
BRANCH   1   7
ATOM      7  C   UNL     1      13.587 -13.997  28.345  1.00  0.00     0.075 C 
ATOM      8  O   UNL     1      13.914 -14.602  29.401  1.00  0.00    -0.545 OA
ATOM      9  O   UNL     1      14.423 -14.093  27.239  1.00  0.00    -0.545 OA
ENDBRANCH   1   7
BRANCH   2  10
ATOM     10  O   UNL     1      13.069 -11.737  30.105  1.00  0.00    -0.507 OA
ATOM     11  H   UNL     1      13.853 -12.338  30.333  1.00  0.00     0.293 HD
ENDBRANCH   2  10
TORSDOF 2
ENDMDL
MODEL 6
REMARK VINA RESULT:    -5.596      2.127      4.090
REMARK INTER + INTRA:          -6.301
REMARK INTER:                  -6.051
REMARK INTRA:                  -0.250
REMARK UNBOUND:                -0.214
REMARK SMILES O=C([O-])c1ccccc1O
REMARK SMILES IDX 4 1 9 2 5 3 8 4 6 5 7 6 2 7 1 8 3 9 10 10
REMARK H PARENT 10 11
REMARK Flexibility Score: inf
ROOT
ATOM      1  C   UNL     1      11.350 -12.216  28.919  1.00  0.00     0.039 A 
ATOM      2  C   UNL     1       9.952 -12.113  28.722  1.00  0.00     0.124 A 
ATOM      3  C   UNL     1      12.020 -11.167  29.581  1.00  0.00     0.014 A 
ATOM      4  C   UNL     1       9.261 -10.982  29.184  1.00  0.00     0.047 A 
ATOM      5  C   UNL     1      11.319 -10.046  30.035  1.00  0.00     0.001 A 
ATOM      6  C   UNL     1       9.942  -9.954  29.836  1.00  0.00     0.004 A 
ENDROOT
BRANCH   1   7
ATOM      7  C   UNL     1      12.121 -13.394  28.447  1.00  0.00     0.075 C 
ATOM      8  O   UNL     1      11.944 -13.845  27.284  1.00  0.00    -0.545 OA
ATOM      9  O   UNL     1      13.048 -14.023  29.269  1.00  0.00    -0.545 OA
ENDBRANCH   1   7
BRANCH   2  10
ATOM     10  O   UNL     1       9.246 -13.125  28.072  1.00  0.00    -0.507 OA
ATOM     11  H   UNL     1       9.238 -14.078  28.421  1.00  0.00     0.293 HD
ENDBRANCH   2  10
TORSDOF 2
ENDMDL
MODEL 7
REMARK VINA RESULT:    -5.534      1.582      2.376
REMARK INTER + INTRA:          -6.233
REMARK INTER:                  -6.016
REMARK INTRA:                  -0.217
REMARK UNBOUND:                -0.214
REMARK SMILES O=C([O-])c1ccccc1O
REMARK SMILES IDX 4 1 9 2 5 3 8 4 6 5 7 6 2 7 1 8 3 9 10 10
REMARK H PARENT 10 11
REMARK Flexibility Score: inf
ROOT
ATOM      1  C   UNL     1      11.382 -12.628  28.347  1.00  0.00     0.039 A 
ATOM      2  C   UNL     1      12.237 -12.016  29.294  1.00  0.00     0.124 A 
ATOM      3  C   UNL     1      11.856 -13.743  27.626  1.00  0.00     0.014 A 
ATOM      4  C   UNL     1      13.529 -12.523  29.500  1.00  0.00     0.047 A 
ATOM      5  C   UNL     1      13.145 -14.236  27.841  1.00  0.00     0.001 A 
ATOM      6  C   UNL     1      13.981 -13.627  28.777  1.00  0.00     0.004 A 
ENDROOT
BRANCH   1   7
ATOM      7  C   UNL     1      10.007 -12.125  28.097  1.00  0.00     0.075 C 
ATOM      8  O   UNL     1       9.125 -12.892  27.625  1.00  0.00    -0.545 OA
ATOM      9  O   UNL     1       9.661 -10.808  28.375  1.00  0.00    -0.545 OA
ENDBRANCH   1   7
BRANCH   2  10
ATOM     10  O   UNL     1      11.812 -10.911  30.031  1.00  0.00    -0.507 OA
ATOM     11  H   UNL     1      11.983  -9.962  29.716  1.00  0.00     0.293 HD
ENDBRANCH   2  10
TORSDOF 2
ENDMDL
MODEL 8
REMARK VINA RESULT:    -5.530     11.441     12.122
REMARK INTER + INTRA:          -6.229
REMARK INTER:                  -6.010
REMARK INTRA:                  -0.220
REMARK UNBOUND:                -0.214
REMARK SMILES O=C([O-])c1ccccc1O
REMARK SMILES IDX 4 1 9 2 5 3 8 4 6 5 7 6 2 7 1 8 3 9 10 10
REMARK H PARENT 10 11
REMARK Flexibility Score: inf
ROOT
ATOM      1  C   UNL     1      15.953  -1.288  26.610  1.00  0.00     0.039 A 
ATOM      2  C   UNL     1      17.263  -1.442  26.096  1.00  0.00     0.124 A 
ATOM      3  C   UNL     1      15.509  -2.175  27.611  1.00  0.00     0.014 A 
ATOM      4  C   UNL     1      18.091  -2.463  26.586  1.00  0.00     0.047 A 
ATOM      5  C   UNL     1      16.344  -3.188  28.088  1.00  0.00     0.001 A 
ATOM      6  C   UNL     1      17.633  -3.332  27.577  1.00  0.00     0.004 A 
ENDROOT
BRANCH   1   7
ATOM      7  C   UNL     1      15.043  -0.221  26.121  1.00  0.00     0.075 C 
ATOM      8  O   UNL     1      15.315   0.992  26.327  1.00  0.00    -0.545 OA
ATOM      9  O   UNL     1      13.877  -0.531  25.430  1.00  0.00    -0.545 OA
ENDBRANCH   1   7
BRANCH   2  10
ATOM     10  O   UNL     1      17.746  -0.587  25.106  1.00  0.00    -0.507 OA
ATOM     11  H   UNL     1      17.127   0.013  24.571  1.00  0.00     0.293 HD
ENDBRANCH   2  10
TORSDOF 2
ENDMDL
MODEL 9
REMARK VINA RESULT:    -5.505      2.225      3.790
REMARK INTER + INTRA:          -6.202
REMARK INTER:                  -5.991
REMARK INTRA:                  -0.210
REMARK UNBOUND:                -0.214
REMARK SMILES O=C([O-])c1ccccc1O
REMARK SMILES IDX 4 1 9 2 5 3 8 4 6 5 7 6 2 7 1 8 3 9 10 10
REMARK H PARENT 10 11
REMARK Flexibility Score: inf
ROOT
ATOM      1  C   UNL     1      11.488 -11.974  28.927  1.00  0.00     0.039 A 
ATOM      2  C   UNL     1      10.859 -10.709  29.010  1.00  0.00     0.124 A 
ATOM      3  C   UNL     1      12.472 -12.305  29.880  1.00  0.00     0.014 A 
ATOM      4  C   UNL     1      11.219  -9.814  30.028  1.00  0.00     0.047 A 
ATOM      5  C   UNL     1      12.821 -11.403  30.888  1.00  0.00     0.001 A 
ATOM      6  C   UNL     1      12.196 -10.159  30.962  1.00  0.00     0.004 A 
ENDROOT
BRANCH   1   7
ATOM      7  C   UNL     1      11.138 -12.953  27.866  1.00  0.00     0.075 C 
ATOM      8  O   UNL     1      11.948 -13.866  27.550  1.00  0.00    -0.545 OA
ATOM      9  O   UNL     1       9.919 -12.888  27.202  1.00  0.00    -0.545 OA
ENDBRANCH   1   7
BRANCH   2  10
ATOM     10  O   UNL     1       9.880 -10.338  28.089  1.00  0.00    -0.507 OA
ATOM     11  H   UNL     1       9.257 -11.019  27.668  1.00  0.00     0.293 HD
ENDBRANCH   2  10
TORSDOF 2
ENDMDL
