MODEL 1
REMARK VINA RESULT:    -4.869      0.000      0.000
REMARK INTER + INTRA:         -10.377
REMARK INTER:                  -8.854
REMARK INTRA:                  -1.523
REMARK UNBOUND:                -1.523
REMARK SMILES CCCCCCCCCCCCCCCC(=O)[O-]
REMARK SMILES IDX 9 1 10 2 11 3 12 4 13 5 14 6 15 7 16 8 17 9 18 10 8 11 7 12
REMARK SMILES IDX 6 13 5 14 4 15 3 16 2 17 1 18
REMARK H PARENT
REMARK Flexibility Score: inf
ROOT
ATOM      1  C   UNL     1      -9.761 -37.237  44.626  1.00  0.00     0.000 C 
ENDROOT
BRANCH   1   2
ATOM      2  C   UNL     1     -10.394 -36.073  45.401  1.00  0.00     0.000 C 
BRANCH   2   3
ATOM      3  C   UNL     1     -10.207 -34.720  44.695  1.00  0.00     0.000 C 
BRANCH   3   4
ATOM      4  C   UNL     1      -9.637 -34.870  43.273  1.00  0.00     0.000 C 
BRANCH   4   5
ATOM      5  C   UNL     1     -10.306 -33.921  42.266  1.00  0.00     0.000 C 
BRANCH   5   6
ATOM      6  C   UNL     1      -9.397 -33.589  41.074  1.00  0.00     0.006 C 
BRANCH   6   7
ATOM      7  C   UNL     1      -7.930 -33.515  41.508  1.00  0.00     0.053 C 
BRANCH   7   8
ATOM      8  C   UNL     1      -7.632 -32.183  42.121  1.00  0.00     0.041 C 
ATOM      9  O   UNL     1      -7.892 -31.123  41.494  1.00  0.00    -0.550 OA
ATOM     10  O   UNL     1      -7.109 -32.111  43.407  1.00  0.00    -0.550 OA
ENDBRANCH   7   8
ENDBRANCH   6   7
ENDBRANCH   5   6
ENDBRANCH   4   5
ENDBRANCH   3   4
ENDBRANCH   2   3
ENDBRANCH   1   2
BRANCH   1  11
ATOM     11  C   UNL     1      -8.866 -38.084  45.538  1.00  0.00     0.000 C 
BRANCH  11  12
ATOM     12  C   UNL     1      -9.085 -37.721  47.014  1.00  0.00    -0.000 C 
BRANCH  12  13
ATOM     13  C   UNL     1      -8.388 -38.694  47.982  1.00  0.00    -0.000 C 
BRANCH  13  14
ATOM     14  C   UNL     1      -9.234 -39.910  48.400  1.00  0.00    -0.000 C 
BRANCH  14  15
ATOM     15  C   UNL     1     -10.746 -39.643  48.316  1.00  0.00    -0.000 C 
BRANCH  15  16
ATOM     16  C   UNL     1     -11.431 -40.465  47.212  1.00  0.00    -0.000 C 
BRANCH  16  17
ATOM     17  C   UNL     1     -12.549 -39.685  46.505  1.00  0.00    -0.003 C 
ATOM     18  C   UNL     1     -12.731 -38.302  47.125  1.00  0.00     0.004 C 
ENDBRANCH  16  17
ENDBRANCH  15  16
ENDBRANCH  14  15
ENDBRANCH  13  14
ENDBRANCH  12  13
ENDBRANCH  11  12
ENDBRANCH   1  11
TORSDOF 14
ENDMDL
MODEL 2
REMARK VINA RESULT:    -4.858      1.303      2.574
REMARK INTER + INTRA:         -10.356
REMARK INTER:                  -8.910
REMARK INTRA:                  -1.446
REMARK UNBOUND:                -1.523
REMARK SMILES CCCCCCCCCCCCCCCC(=O)[O-]
REMARK SMILES IDX 9 1 10 2 11 3 12 4 13 5 14 6 15 7 16 8 17 9 18 10 8 11 7 12
REMARK SMILES IDX 6 13 5 14 4 15 3 16 2 17 1 18
REMARK H PARENT
REMARK Flexibility Score: inf
ROOT
ATOM      1  C   UNL     1      -9.128 -38.102  44.895  1.00  0.00     0.000 C 
ENDROOT
BRANCH   1   2
ATOM      2  C   UNL     1     -10.149 -36.984  44.639  1.00  0.00     0.000 C 
BRANCH   2   3
ATOM      3  C   UNL     1      -9.522 -35.754  43.963  1.00  0.00     0.000 C 
BRANCH   3   4
ATOM      4  C   UNL     1     -10.245 -34.445  44.330  1.00  0.00     0.000 C 
BRANCH   4   5
ATOM      5  C   UNL     1     -10.439 -33.518  43.120  1.00  0.00     0.000 C 
BRANCH   5   6
ATOM      6  C   UNL     1      -9.978 -34.161  41.804  1.00  0.00     0.006 C 
BRANCH   6   7
ATOM      7  C   UNL     1      -9.459 -33.100  40.829  1.00  0.00     0.053 C 
BRANCH   7   8
ATOM      8  C   UNL     1      -8.089 -32.649  41.226  1.00  0.00     0.041 C 
ATOM      9  O   UNL     1      -7.906 -31.482  41.659  1.00  0.00    -0.550 OA
ATOM     10  O   UNL     1      -7.021 -33.536  41.164  1.00  0.00    -0.550 OA
ENDBRANCH   7   8
ENDBRANCH   6   7
ENDBRANCH   5   6
ENDBRANCH   4   5
ENDBRANCH   3   4
ENDBRANCH   2   3
ENDBRANCH   1   2
BRANCH   1  11
ATOM     11  C   UNL     1      -9.563 -39.409  44.221  1.00  0.00     0.000 C 
BRANCH  11  12
ATOM     12  C   UNL     1     -11.092 -39.552  44.235  1.00  0.00    -0.000 C 
BRANCH  12  13
ATOM     13  C   UNL     1     -11.573 -40.781  45.027  1.00  0.00    -0.000 C 
BRANCH  13  14
ATOM     14  C   UNL     1     -12.459 -40.462  46.244  1.00  0.00    -0.000 C 
BRANCH  14  15
ATOM     15  C   UNL     1     -11.793 -39.486  47.229  1.00  0.00    -0.000 C 
BRANCH  15  16
ATOM     16  C   UNL     1     -10.801 -40.184  48.172  1.00  0.00    -0.000 C 
BRANCH  16  17
ATOM     17  C   UNL     1      -9.526 -39.359  48.402  1.00  0.00    -0.003 C 
ATOM     18  C   UNL     1      -8.283 -40.244  48.349  1.00  0.00     0.004 C 
ENDBRANCH  16  17
ENDBRANCH  15  16
ENDBRANCH  14  15
ENDBRANCH  13  14
ENDBRANCH  12  13
ENDBRANCH  11  12
ENDBRANCH   1  11
TORSDOF 14
ENDMDL
MODEL 3
REMARK VINA RESULT:    -4.753      1.346      2.542
REMARK INTER + INTRA:         -10.166
REMARK INTER:                  -8.555
REMARK INTRA:                  -1.611
REMARK UNBOUND:                -1.523
REMARK SMILES CCCCCCCCCCCCCCCC(=O)[O-]
REMARK SMILES IDX 9 1 10 2 11 3 12 4 13 5 14 6 15 7 16 8 17 9 18 10 8 11 7 12
REMARK SMILES IDX 6 13 5 14 4 15 3 16 2 17 1 18
REMARK H PARENT
REMARK Flexibility Score: inf
ROOT
ATOM      1  C   UNL     1     -10.194 -36.058  47.497  1.00  0.00     0.000 C 
ENDROOT
BRANCH   1   2
ATOM      2  C   UNL     1     -10.003 -35.269  46.193  1.00  0.00     0.000 C 
BRANCH   2   3
ATOM      3  C   UNL     1     -10.628 -35.973  44.978  1.00  0.00     0.000 C 
BRANCH   3   4
ATOM      4  C   UNL     1      -9.913 -35.624  43.661  1.00  0.00     0.000 C 
BRANCH   4   5
ATOM      5  C   UNL     1      -9.568 -34.130  43.553  1.00  0.00     0.000 C 
BRANCH   5   6
ATOM      6  C   UNL     1     -10.306 -33.435  42.400  1.00  0.00     0.006 C 
BRANCH   6   7
ATOM      7  C   UNL     1      -9.524 -33.567  41.090  1.00  0.00     0.053 C 
BRANCH   7   8
ATOM      8  C   UNL     1      -8.227 -32.827  41.179  1.00  0.00     0.041 C 
ATOM      9  O   UNL     1      -8.217 -31.578  41.335  1.00  0.00    -0.550 OA
ATOM     10  O   UNL     1      -7.025 -33.525  41.137  1.00  0.00    -0.550 OA
ENDBRANCH   7   8
ENDBRANCH   6   7
ENDBRANCH   5   6
ENDBRANCH   4   5
ENDBRANCH   3   4
ENDBRANCH   2   3
ENDBRANCH   1   2
BRANCH   1  11
ATOM     11  C   UNL     1     -11.474 -36.900  47.447  1.00  0.00     0.000 C 
BRANCH  11  12
ATOM     12  C   UNL     1     -11.965 -37.240  48.861  1.00  0.00    -0.000 C 
BRANCH  12  13
ATOM     13  C   UNL     1     -11.552 -38.652  49.317  1.00  0.00    -0.000 C 
BRANCH  13  14
ATOM     14  C   UNL     1     -10.851 -39.501  48.242  1.00  0.00    -0.000 C 
BRANCH  14  15
ATOM     15  C   UNL     1      -9.393 -39.836  48.601  1.00  0.00    -0.000 C 
BRANCH  15  16
ATOM     16  C   UNL     1      -8.493 -39.962  47.362  1.00  0.00    -0.000 C 
BRANCH  16  17
ATOM     17  C   UNL     1      -9.161 -39.414  46.091  1.00  0.00    -0.003 C 
ATOM     18  C   UNL     1      -8.150 -38.682  45.212  1.00  0.00     0.004 C 
ENDBRANCH  16  17
ENDBRANCH  15  16
ENDBRANCH  14  15
ENDBRANCH  13  14
ENDBRANCH  12  13
ENDBRANCH  11  12
ENDBRANCH   1  11
TORSDOF 14
ENDMDL
MODEL 4
REMARK VINA RESULT:    -4.722      2.892      7.561
REMARK INTER + INTRA:         -10.109
REMARK INTER:                  -8.762
REMARK INTRA:                  -1.347
REMARK UNBOUND:                -1.523
REMARK SMILES CCCCCCCCCCCCCCCC(=O)[O-]
REMARK SMILES IDX 9 1 10 2 11 3 12 4 13 5 14 6 15 7 16 8 17 9 18 10 8 11 7 12
REMARK SMILES IDX 6 13 5 14 4 15 3 16 2 17 1 18
REMARK H PARENT
REMARK Flexibility Score: inf
ROOT
ATOM      1  C   UNL     1     -10.310 -37.464  44.223  1.00  0.00     0.000 C 
ENDROOT
BRANCH   1   2
ATOM      2  C   UNL     1     -11.535 -38.251  43.735  1.00  0.00     0.000 C 
BRANCH   2   3
ATOM      3  C   UNL     1     -11.746 -39.560  44.513  1.00  0.00     0.000 C 
BRANCH   3   4
ATOM      4  C   UNL     1     -12.844 -39.440  45.585  1.00  0.00     0.000 C 
BRANCH   4   5
ATOM      5  C   UNL     1     -12.355 -39.861  46.980  1.00  0.00     0.000 C 
BRANCH   5   6
ATOM      6  C   UNL     1     -10.883 -40.299  46.983  1.00  0.00     0.006 C 
BRANCH   6   7
ATOM      7  C   UNL     1     -10.070 -39.476  47.986  1.00  0.00     0.053 C 
BRANCH   7   8
ATOM      8  C   UNL     1      -8.829 -38.943  47.342  1.00  0.00     0.041 C 
ATOM      9  O   UNL     1      -8.343 -39.514  46.331  1.00  0.00    -0.550 OA
ATOM     10  O   UNL     1      -8.236 -37.784  47.829  1.00  0.00    -0.550 OA
ENDBRANCH   7   8
ENDBRANCH   6   7
ENDBRANCH   5   6
ENDBRANCH   4   5
ENDBRANCH   3   4
ENDBRANCH   2   3
ENDBRANCH   1   2
BRANCH   1  11
ATOM     11  C   UNL     1     -10.718 -36.377  45.225  1.00  0.00     0.000 C 
BRANCH  11  12
ATOM     12  C   UNL     1     -10.415 -34.978  44.671  1.00  0.00    -0.000 C 
BRANCH  12  13
ATOM     13  C   UNL     1     -10.239 -34.962  43.142  1.00  0.00    -0.000 C 
BRANCH  13  14
ATOM     14  C   UNL     1     -10.343 -33.571  42.492  1.00  0.00    -0.000 C 
BRANCH  14  15
ATOM     15  C   UNL     1      -9.605 -33.483  41.145  1.00  0.00    -0.000 C 
BRANCH  15  16
ATOM     16  C   UNL     1      -8.092 -33.272  41.314  1.00  0.00    -0.000 C 
BRANCH  16  17
ATOM     17  C   UNL     1      -7.757 -31.958  42.035  1.00  0.00    -0.003 C 
ATOM     18  C   UNL     1      -7.229 -32.224  43.443  1.00  0.00     0.004 C 
ENDBRANCH  16  17
ENDBRANCH  15  16
ENDBRANCH  14  15
ENDBRANCH  13  14
ENDBRANCH  12  13
ENDBRANCH  11  12
ENDBRANCH   1  11
TORSDOF 14
ENDMDL
MODEL 5
REMARK VINA RESULT:    -4.712      1.605      3.269
REMARK INTER + INTRA:         -10.091
REMARK INTER:                  -8.746
REMARK INTRA:                  -1.345
REMARK UNBOUND:                -1.523
REMARK SMILES CCCCCCCCCCCCCCCC(=O)[O-]
REMARK SMILES IDX 9 1 10 2 11 3 12 4 13 5 14 6 15 7 16 8 17 9 18 10 8 11 7 12
REMARK SMILES IDX 6 13 5 14 4 15 3 16 2 17 1 18
REMARK H PARENT
REMARK Flexibility Score: inf
ROOT
ATOM      1  C   UNL     1     -10.382 -34.486  44.317  1.00  0.00     0.000 C 
ENDROOT
BRANCH   1   2
ATOM      2  C   UNL     1     -10.647 -33.608  43.085  1.00  0.00     0.000 C 
BRANCH   2   3
ATOM      3  C   UNL     1     -10.006 -34.172  41.807  1.00  0.00     0.000 C 
BRANCH   3   4
ATOM      4  C   UNL     1      -9.366 -33.078  40.934  1.00  0.00     0.000 C 
BRANCH   4   5
ATOM      5  C   UNL     1      -7.871 -32.884  41.232  1.00  0.00     0.000 C 
BRANCH   5   6
ATOM      6  C   UNL     1      -7.609 -31.736  42.218  1.00  0.00     0.006 C 
BRANCH   6   7
ATOM      7  C   UNL     1      -7.218 -32.277  43.596  1.00  0.00     0.053 C 
BRANCH   7   8
ATOM      8  C   UNL     1      -6.423 -31.260  44.352  1.00  0.00     0.041 C 
ATOM      9  O   UNL     1      -6.418 -30.056  43.984  1.00  0.00    -0.550 OA
ATOM     10  O   UNL     1      -5.723 -31.633  45.493  1.00  0.00    -0.550 OA
ENDBRANCH   7   8
ENDBRANCH   6   7
ENDBRANCH   5   6
ENDBRANCH   4   5
ENDBRANCH   3   4
ENDBRANCH   2   3
ENDBRANCH   1   2
BRANCH   1  11
ATOM     11  C   UNL     1      -9.167 -35.394  44.093  1.00  0.00     0.000 C 
BRANCH  11  12
ATOM     12  C   UNL     1      -9.494 -36.850  44.454  1.00  0.00    -0.000 C 
BRANCH  12  13
ATOM     13  C   UNL     1     -11.007 -37.130  44.508  1.00  0.00    -0.000 C 
BRANCH  13  14
ATOM     14  C   UNL     1     -11.386 -38.599  44.770  1.00  0.00    -0.000 C 
BRANCH  14  15
ATOM     15  C   UNL     1     -10.168 -39.482  45.091  1.00  0.00    -0.000 C 
BRANCH  15  16
ATOM     16  C   UNL     1     -10.102 -39.879  46.574  1.00  0.00    -0.000 C 
BRANCH  16  17
ATOM     17  C   UNL     1      -8.889 -39.270  47.293  1.00  0.00    -0.003 C 
ATOM     18  C   UNL     1      -8.359 -40.213  48.371  1.00  0.00     0.004 C 
ENDBRANCH  16  17
ENDBRANCH  15  16
ENDBRANCH  14  15
ENDBRANCH  13  14
ENDBRANCH  12  13
ENDBRANCH  11  12
ENDBRANCH   1  11
TORSDOF 14
ENDMDL
MODEL 6
REMARK VINA RESULT:    -4.689      1.535      2.876
REMARK INTER + INTRA:         -10.050
REMARK INTER:                  -8.032
REMARK INTRA:                  -2.018
REMARK UNBOUND:                -1.523
REMARK SMILES CCCCCCCCCCCCCCCC(=O)[O-]
REMARK SMILES IDX 9 1 10 2 11 3 12 4 13 5 14 6 15 7 16 8 17 9 18 10 8 11 7 12
REMARK SMILES IDX 6 13 5 14 4 15 3 16 2 17 1 18
REMARK H PARENT
REMARK Flexibility Score: inf
ROOT
ATOM      1  C   UNL     1      -8.405 -38.538  46.726  1.00  0.00     0.000 C 
ENDROOT
BRANCH   1   2
ATOM      2  C   UNL     1      -8.066 -38.749  45.243  1.00  0.00     0.000 C 
BRANCH   2   3
ATOM      3  C   UNL     1      -8.835 -37.793  44.318  1.00  0.00     0.000 C 
BRANCH   3   4
ATOM      4  C   UNL     1      -9.830 -36.903  45.084  1.00  0.00     0.000 C 
BRANCH   4   5
ATOM      5  C   UNL     1     -10.554 -35.903  44.168  1.00  0.00     0.000 C 
BRANCH   5   6
ATOM      6  C   UNL     1      -9.947 -34.494  44.236  1.00  0.00     0.006 C 
BRANCH   6   7
ATOM      7  C   UNL     1     -10.492 -33.608  43.112  1.00  0.00     0.053 C 
BRANCH   7   8
ATOM      8  C   UNL     1      -9.606 -33.683  41.909  1.00  0.00     0.041 C 
ATOM      9  O   UNL     1     -10.040 -33.343  40.778  1.00  0.00    -0.550 OA
ATOM     10  O   UNL     1      -8.282 -34.084  42.046  1.00  0.00    -0.550 OA
ENDBRANCH   7   8
ENDBRANCH   6   7
ENDBRANCH   5   6
ENDBRANCH   4   5
ENDBRANCH   3   4
ENDBRANCH   2   3
ENDBRANCH   1   2
BRANCH   1  11
ATOM     11  C   UNL     1      -8.705 -39.873  47.417  1.00  0.00     0.000 C 
BRANCH  11  12
ATOM     12  C   UNL     1      -9.540 -39.660  48.687  1.00  0.00    -0.000 C 
BRANCH  12  13
ATOM     13  C   UNL     1     -11.040 -39.934  48.473  1.00  0.00    -0.000 C 
BRANCH  13  14
ATOM     14  C   UNL     1     -11.806 -38.815  47.746  1.00  0.00    -0.000 C 
BRANCH  14  15
ATOM     15  C   UNL     1     -12.667 -39.338  46.584  1.00  0.00    -0.000 C 
BRANCH  15  16
ATOM     16  C   UNL     1     -12.151 -40.671  46.020  1.00  0.00    -0.000 C 
BRANCH  16  17
ATOM     17  C   UNL     1     -11.346 -40.490  44.724  1.00  0.00    -0.003 C 
ATOM     18  C   UNL     1     -12.087 -39.590  43.739  1.00  0.00     0.004 C 
ENDBRANCH  16  17
ENDBRANCH  15  16
ENDBRANCH  14  15
ENDBRANCH  13  14
ENDBRANCH  12  13
ENDBRANCH  11  12
ENDBRANCH   1  11
TORSDOF 14
ENDMDL
MODEL 7
REMARK VINA RESULT:    -4.642      3.185      7.095
REMARK INTER + INTRA:          -9.964
REMARK INTER:                  -8.187
REMARK INTRA:                  -1.778
REMARK UNBOUND:                -1.523
REMARK SMILES CCCCCCCCCCCCCCCC(=O)[O-]
REMARK SMILES IDX 9 1 10 2 11 3 12 4 13 5 14 6 15 7 16 8 17 9 18 10 8 11 7 12
REMARK SMILES IDX 6 13 5 14 4 15 3 16 2 17 1 18
REMARK H PARENT
REMARK Flexibility Score: inf
ROOT
ATOM      1  C   UNL     1     -10.597 -39.466  44.178  1.00  0.00     0.000 C 
ENDROOT
BRANCH   1   2
ATOM      2  C   UNL     1     -11.132 -40.532  45.146  1.00  0.00     0.000 C 
BRANCH   2   3
ATOM      3  C   UNL     1     -12.483 -40.143  45.767  1.00  0.00     0.000 C 
BRANCH   3   4
ATOM      4  C   UNL     1     -12.519 -38.676  46.232  1.00  0.00     0.000 C 
BRANCH   4   5
ATOM      5  C   UNL     1     -12.232 -38.525  47.734  1.00  0.00     0.000 C 
BRANCH   5   6
ATOM      6  C   UNL     1     -10.745 -38.282  48.030  1.00  0.00     0.006 C 
BRANCH   6   7
ATOM      7  C   UNL     1     -10.069 -39.561  48.531  1.00  0.00     0.053 C 
BRANCH   7   8
ATOM      8  C   UNL     1      -8.590 -39.492  48.316  1.00  0.00     0.041 C 
ATOM      9  O   UNL     1      -8.039 -38.393  48.048  1.00  0.00    -0.550 OA
ATOM     10  O   UNL     1      -7.813 -40.636  48.459  1.00  0.00    -0.550 OA
ENDBRANCH   7   8
ENDBRANCH   6   7
ENDBRANCH   5   6
ENDBRANCH   4   5
ENDBRANCH   3   4
ENDBRANCH   2   3
ENDBRANCH   1   2
BRANCH   1  11
ATOM     11  C   UNL     1      -9.146 -39.098  44.513  1.00  0.00     0.000 C 
BRANCH  11  12
ATOM     12  C   UNL     1      -9.031 -37.619  44.908  1.00  0.00    -0.000 C 
BRANCH  12  13
ATOM     13  C   UNL     1      -9.972 -36.707  44.100  1.00  0.00    -0.000 C 
BRANCH  13  14
ATOM     14  C   UNL     1     -10.606 -35.556  44.902  1.00  0.00    -0.000 C 
BRANCH  14  15
ATOM     15  C   UNL     1     -10.070 -34.175  44.490  1.00  0.00    -0.000 C 
BRANCH  15  16
ATOM     16  C   UNL     1     -10.499 -33.775  43.069  1.00  0.00    -0.000 C 
BRANCH  16  17
ATOM     17  C   UNL     1      -9.349 -33.875  42.057  1.00  0.00    -0.003 C 
ATOM     18  C   UNL     1      -9.771 -33.338  40.692  1.00  0.00     0.004 C 
ENDBRANCH  16  17
ENDBRANCH  15  16
ENDBRANCH  14  15
ENDBRANCH  13  14
ENDBRANCH  12  13
ENDBRANCH  11  12
ENDBRANCH   1  11
TORSDOF 14
ENDMDL
MODEL 8
REMARK VINA RESULT:    -4.640      1.282      3.077
REMARK INTER + INTRA:          -9.961
REMARK INTER:                  -8.226
REMARK INTRA:                  -1.736
REMARK UNBOUND:                -1.523
REMARK SMILES CCCCCCCCCCCCCCCC(=O)[O-]
REMARK SMILES IDX 9 1 10 2 11 3 12 4 13 5 14 6 15 7 16 8 17 9 18 10 8 11 7 12
REMARK SMILES IDX 6 13 5 14 4 15 3 16 2 17 1 18
REMARK H PARENT
REMARK Flexibility Score: inf
ROOT
ATOM      1  C   UNL     1     -12.063 -39.207  44.449  1.00  0.00     0.000 C 
ENDROOT
BRANCH   1   2
ATOM      2  C   UNL     1     -10.767 -38.408  44.243  1.00  0.00     0.000 C 
BRANCH   2   3
ATOM      3  C   UNL     1     -10.942 -36.910  44.541  1.00  0.00     0.000 C 
BRANCH   3   4
ATOM      4  C   UNL     1      -9.776 -36.061  44.001  1.00  0.00     0.000 C 
BRANCH   4   5
ATOM      5  C   UNL     1      -9.792 -34.624  44.544  1.00  0.00     0.000 C 
BRANCH   5   6
ATOM      6  C   UNL     1     -10.343 -33.614  43.527  1.00  0.00     0.006 C 
BRANCH   6   7
ATOM      7  C   UNL     1      -9.712 -33.828  42.148  1.00  0.00     0.053 C 
BRANCH   7   8
ATOM      8  C   UNL     1      -8.344 -33.225  42.098  1.00  0.00     0.041 C 
ATOM      9  O   UNL     1      -8.042 -32.273  42.864  1.00  0.00    -0.550 OA
ATOM     10  O   UNL     1      -7.386 -33.747  41.238  1.00  0.00    -0.550 OA
ENDBRANCH   7   8
ENDBRANCH   6   7
ENDBRANCH   5   6
ENDBRANCH   4   5
ENDBRANCH   3   4
ENDBRANCH   2   3
ENDBRANCH   1   2
BRANCH   1  11
ATOM     11  C   UNL     1     -11.803 -40.474  45.272  1.00  0.00     0.000 C 
BRANCH  11  12
ATOM     12  C   UNL     1     -12.210 -40.271  46.738  1.00  0.00    -0.000 C 
BRANCH  12  13
ATOM     13  C   UNL     1     -12.994 -38.965  46.969  1.00  0.00    -0.000 C 
BRANCH  13  14
ATOM     14  C   UNL     1     -12.329 -37.973  47.940  1.00  0.00    -0.000 C 
BRANCH  14  15
ATOM     15  C   UNL     1     -10.989 -38.487  48.494  1.00  0.00    -0.000 C 
BRANCH  15  16
ATOM     16  C   UNL     1      -9.787 -37.689  47.965  1.00  0.00    -0.000 C 
BRANCH  16  17
ATOM     17  C   UNL     1      -8.530 -38.557  47.802  1.00  0.00    -0.003 C 
ATOM     18  C   UNL     1      -8.759 -39.962  48.352  1.00  0.00     0.004 C 
ENDBRANCH  16  17
ENDBRANCH  15  16
ENDBRANCH  14  15
ENDBRANCH  13  14
ENDBRANCH  12  13
ENDBRANCH  11  12
ENDBRANCH   1  11
TORSDOF 14
ENDMDL
MODEL 9
REMARK VINA RESULT:    -4.628      4.925      6.337
REMARK INTER + INTRA:          -9.938
REMARK INTER:                  -7.713
REMARK INTRA:                  -2.225
REMARK UNBOUND:                -1.523
REMARK SMILES CCCCCCCCCCCCCCCC(=O)[O-]
REMARK SMILES IDX 9 1 10 2 11 3 12 4 13 5 14 6 15 7 16 8 17 9 18 10 8 11 7 12
REMARK SMILES IDX 6 13 5 14 4 15 3 16 2 17 1 18
REMARK H PARENT
REMARK Flexibility Score: inf
ROOT
ATOM      1  C   UNL     1     -12.399 -39.525  45.581  1.00  0.00     0.000 C 
ENDROOT
BRANCH   1   2
ATOM      2  C   UNL     1     -11.984 -40.990  45.780  1.00  0.00     0.000 C 
BRANCH   2   3
ATOM      3  C   UNL     1     -11.349 -41.601  44.520  1.00  0.00     0.000 C 
BRANCH   3   4
ATOM      4  C   UNL     1     -10.778 -40.534  43.569  1.00  0.00     0.000 C 
BRANCH   4   5
ATOM      5  C   UNL     1      -9.790 -41.121  42.549  1.00  0.00     0.000 C 
BRANCH   5   6
ATOM      6  C   UNL     1      -8.347 -40.650  42.784  1.00  0.00     0.006 C 
BRANCH   6   7
ATOM      7  C   UNL     1      -7.342 -41.697  42.295  1.00  0.00     0.053 C 
BRANCH   7   8
ATOM      8  C   UNL     1      -6.392 -42.062  43.391  1.00  0.00     0.041 C 
ATOM      9  O   UNL     1      -6.154 -41.250  44.322  1.00  0.00    -0.550 OA
ATOM     10  O   UNL     1      -5.804 -43.322  43.408  1.00  0.00    -0.550 OA
ENDBRANCH   7   8
ENDBRANCH   6   7
ENDBRANCH   5   6
ENDBRANCH   4   5
ENDBRANCH   3   4
ENDBRANCH   2   3
ENDBRANCH   1   2
BRANCH   1  11
ATOM     11  C   UNL     1     -12.871 -38.903  46.900  1.00  0.00     0.000 C 
BRANCH  11  12
ATOM     12  C   UNL     1     -12.003 -37.695  47.280  1.00  0.00    -0.000 C 
BRANCH  12  13
ATOM     13  C   UNL     1     -11.125 -37.951  48.519  1.00  0.00    -0.000 C 
BRANCH  13  14
ATOM     14  C   UNL     1     -11.167 -39.393  49.056  1.00  0.00    -0.000 C 
BRANCH  14  15
ATOM     15  C   UNL     1      -9.846 -40.149  48.841  1.00  0.00    -0.000 C 
BRANCH  15  16
ATOM     16  C   UNL     1      -8.783 -39.293  48.136  1.00  0.00    -0.000 C 
BRANCH  16  17
ATOM     17  C   UNL     1      -8.587 -39.689  46.665  1.00  0.00    -0.003 C 
ATOM     18  C   UNL     1      -8.622 -38.463  45.756  1.00  0.00     0.004 C 
ENDBRANCH  16  17
ENDBRANCH  15  16
ENDBRANCH  14  15
ENDBRANCH  13  14
ENDBRANCH  12  13
ENDBRANCH  11  12
ENDBRANCH   1  11
TORSDOF 14
ENDMDL
