MODEL 1
REMARK VINA RESULT:    -3.258      0.000      0.000
REMARK INTER + INTRA:          -3.793
REMARK INTER:                  -3.734
REMARK INTRA:                  -0.059
REMARK UNBOUND:                -0.059
REMARK SMILES CC(C)[C@H]([NH3+])C(=O)[O-]
REMARK SMILES IDX 4 1 5 2 6 6 7 7 8 8 2 9 1 10 3 11
REMARK H PARENT 5 3 5 4 5 5
REMARK Flexibility Score: inf
ROOT
ATOM      1  C   UNL     1       5.116  12.884  13.125  1.00  0.00     0.230 C 
ENDROOT
BRANCH   1   2
ATOM      2  N   UNL     1       5.282  14.344  13.157  1.00  0.00    -0.350 N 
ATOM      3  H   UNL     1       6.072  14.606  13.790  1.00  0.00     0.345 HD
ATOM      4  H   UNL     1       4.403  14.810  13.481  1.00  0.00     0.345 HD
ATOM      5  H   UNL     1       5.523  14.700  12.202  1.00  0.00     0.345 HD
ENDBRANCH   1   2
BRANCH   1   6
ATOM      6  C   UNL     1       3.979  12.532  12.198  1.00  0.00     0.099 C 
ATOM      7  O   UNL     1       2.842  12.262  12.666  1.00  0.00    -0.544 OA
ATOM      8  O   UNL     1       4.178  12.507  10.824  1.00  0.00    -0.544 OA
ENDBRANCH   1   6
BRANCH   1   9
ATOM      9  C   UNL     1       4.870  12.297  14.549  1.00  0.00     0.047 C 
ATOM     10  C   UNL     1       4.745  13.402  15.611  1.00  0.00     0.014 C 
ATOM     11  C   UNL     1       5.996  11.331  14.956  1.00  0.00     0.014 C 
ENDBRANCH   1   9
TORSDOF 3
ENDMDL
MODEL 2
REMARK VINA RESULT:    -3.230      2.553      3.340
REMARK INTER + INTRA:          -3.762
REMARK INTER:                  -3.693
REMARK INTRA:                  -0.069
REMARK UNBOUND:                -0.059
REMARK SMILES CC(C)[C@H]([NH3+])C(=O)[O-]
REMARK SMILES IDX 4 1 5 2 6 6 7 7 8 8 2 9 1 10 3 11
REMARK H PARENT 5 3 5 4 5 5
REMARK Flexibility Score: inf
ROOT
ATOM      1  C   UNL     1       4.538  11.707  11.118  1.00  0.00     0.230 C 
ENDROOT
BRANCH   1   2
ATOM      2  N   UNL     1       4.252  12.440   9.877  1.00  0.00    -0.350 N 
ATOM      3  H   UNL     1       4.039  13.442  10.088  1.00  0.00     0.345 HD
ATOM      4  H   UNL     1       3.445  12.008   9.369  1.00  0.00     0.345 HD
ATOM      5  H   UNL     1       5.091  12.430   9.251  1.00  0.00     0.345 HD
ENDBRANCH   1   2
BRANCH   1   6
ATOM      6  C   UNL     1       4.035  12.505  12.295  1.00  0.00     0.099 C 
ATOM      7  O   UNL     1       2.927  12.224  12.824  1.00  0.00    -0.544 OA
ATOM      8  O   UNL     1       4.791  13.553  12.805  1.00  0.00    -0.544 OA
ENDBRANCH   1   6
BRANCH   1   9
ATOM      9  C   UNL     1       6.059  11.398  11.271  1.00  0.00     0.047 C 
ATOM     10  C   UNL     1       6.673  10.879   9.961  1.00  0.00     0.014 C 
ATOM     11  C   UNL     1       6.309  10.368  12.388  1.00  0.00     0.014 C 
ENDBRANCH   1   9
TORSDOF 3
ENDMDL
MODEL 3
REMARK VINA RESULT:    -3.167      2.548      2.986
REMARK INTER + INTRA:          -3.690
REMARK INTER:                  -3.800
REMARK INTRA:                   0.110
REMARK UNBOUND:                -0.059
REMARK SMILES CC(C)[C@H]([NH3+])C(=O)[O-]
REMARK SMILES IDX 4 1 5 2 6 6 7 7 8 8 2 9 1 10 3 11
REMARK H PARENT 5 3 5 4 5 5
REMARK Flexibility Score: inf
ROOT
ATOM      1  C   UNL     1       4.932  12.108  11.167  1.00  0.00     0.230 C 
ENDROOT
BRANCH   1   2
ATOM      2  N   UNL     1       4.243  12.255   9.877  1.00  0.00    -0.350 N 
ATOM      3  H   UNL     1       3.381  12.835   9.990  1.00  0.00     0.345 HD
ATOM      4  H   UNL     1       3.988  11.319   9.484  1.00  0.00     0.345 HD
ATOM      5  H   UNL     1       4.861  12.753   9.194  1.00  0.00     0.345 HD
ENDBRANCH   1   2
BRANCH   1   6
ATOM      6  C   UNL     1       5.066  10.642  11.496  1.00  0.00     0.099 C 
ATOM      7  O   UNL     1       4.336   9.793  10.918  1.00  0.00    -0.544 OA
ATOM      8  O   UNL     1       5.997  10.217  12.435  1.00  0.00    -0.544 OA
ENDBRANCH   1   6
BRANCH   1   9
ATOM      9  C   UNL     1       4.187  12.863  12.311  1.00  0.00     0.047 C 
ATOM     10  C   UNL     1       5.167  13.482  13.322  1.00  0.00     0.014 C 
ATOM     11  C   UNL     1       3.217  11.929  13.057  1.00  0.00     0.014 C 
ENDBRANCH   1   9
TORSDOF 3
ENDMDL
MODEL 4
REMARK VINA RESULT:    -3.160      2.532      3.538
REMARK INTER + INTRA:          -3.682
REMARK INTER:                  -3.623
REMARK INTRA:                  -0.058
REMARK UNBOUND:                -0.059
REMARK SMILES CC(C)[C@H]([NH3+])C(=O)[O-]
REMARK SMILES IDX 4 1 5 2 6 6 7 7 8 8 2 9 1 10 3 11
REMARK H PARENT 5 3 5 4 5 5
REMARK Flexibility Score: inf
ROOT
ATOM      1  C   UNL     1       5.779  13.858  13.641  1.00  0.00     0.230 C 
ENDROOT
BRANCH   1   2
ATOM      2  N   UNL     1       7.227  13.973  13.421  1.00  0.00    -0.350 N 
ATOM      3  H   UNL     1       7.590  13.121  12.937  1.00  0.00     0.345 HD
ATOM      4  H   UNL     1       7.731  14.103  14.329  1.00  0.00     0.345 HD
ATOM      5  H   UNL     1       7.433  14.790  12.799  1.00  0.00     0.345 HD
ENDBRANCH   1   2
BRANCH   1   6
ATOM      6  C   UNL     1       5.495  13.904  15.121  1.00  0.00     0.099 C 
ATOM      7  O   UNL     1       4.645  13.125  15.628  1.00  0.00    -0.544 OA
ATOM      8  O   UNL     1       6.170  14.804  15.936  1.00  0.00    -0.544 OA
ENDBRANCH   1   6
BRANCH   1   9
ATOM      9  C   UNL     1       5.198  12.556  13.008  1.00  0.00     0.047 C 
ATOM     10  C   UNL     1       6.249  11.806  12.173  1.00  0.00     0.014 C 
ATOM     11  C   UNL     1       3.977  12.863  12.124  1.00  0.00     0.014 C 
ENDBRANCH   1   9
TORSDOF 3
ENDMDL
MODEL 5
REMARK VINA RESULT:    -3.143      2.814      3.473
REMARK INTER + INTRA:          -3.661
REMARK INTER:                  -3.613
REMARK INTRA:                  -0.048
REMARK UNBOUND:                -0.059
REMARK SMILES CC(C)[C@H]([NH3+])C(=O)[O-]
REMARK SMILES IDX 4 1 5 2 6 6 7 7 8 8 2 9 1 10 3 11
REMARK H PARENT 5 3 5 4 5 5
REMARK Flexibility Score: inf
ROOT
ATOM      1  C   UNL     1       5.807  12.084  12.693  1.00  0.00     0.230 C 
ENDROOT
BRANCH   1   2
ATOM      2  N   UNL     1       5.473  11.226  13.838  1.00  0.00    -0.350 N 
ATOM      3  H   UNL     1       6.345  10.898  14.313  1.00  0.00     0.345 HD
ATOM      4  H   UNL     1       4.909  10.400  13.531  1.00  0.00     0.345 HD
ATOM      5  H   UNL     1       4.923  11.768  14.546  1.00  0.00     0.345 HD
ENDBRANCH   1   2
BRANCH   1   6
ATOM      6  C   UNL     1       6.639  13.248  13.169  1.00  0.00     0.099 C 
ATOM      7  O   UNL     1       6.128  14.133  13.905  1.00  0.00    -0.544 OA
ATOM      8  O   UNL     1       7.975  13.351  12.801  1.00  0.00    -0.544 OA
ENDBRANCH   1   6
BRANCH   1   9
ATOM      9  C   UNL     1       4.529  12.586  11.952  1.00  0.00     0.047 C 
ATOM     10  C   UNL     1       3.244  12.207  12.705  1.00  0.00     0.014 C 
ATOM     11  C   UNL     1       4.459  12.024  10.521  1.00  0.00     0.014 C 
ENDBRANCH   1   9
TORSDOF 3
ENDMDL
MODEL 6
REMARK VINA RESULT:    -3.122      1.871      2.323
REMARK INTER + INTRA:          -3.638
REMARK INTER:                  -3.604
REMARK INTRA:                  -0.034
REMARK UNBOUND:                -0.059
REMARK SMILES CC(C)[C@H]([NH3+])C(=O)[O-]
REMARK SMILES IDX 4 1 5 2 6 6 7 7 8 8 2 9 1 10 3 11
REMARK H PARENT 5 3 5 4 5 5
REMARK Flexibility Score: inf
ROOT
ATOM      1  C   UNL     1       6.577  13.068  13.642  1.00  0.00     0.230 C 
ENDROOT
BRANCH   1   2
ATOM      2  N   UNL     1       7.781  13.668  13.052  1.00  0.00    -0.350 N 
ATOM      3  H   UNL     1       7.738  14.711  13.120  1.00  0.00     0.345 HD
ATOM      4  H   UNL     1       7.884  13.386  12.049  1.00  0.00     0.345 HD
ATOM      5  H   UNL     1       8.632  13.361  13.579  1.00  0.00     0.345 HD
ENDBRANCH   1   2
BRANCH   1   6
ATOM      6  C   UNL     1       5.653  12.617  12.537  1.00  0.00     0.099 C 
ATOM      7  O   UNL     1       6.031  11.744  11.712  1.00  0.00    -0.544 OA
ATOM      8  O   UNL     1       4.379  13.161  12.425  1.00  0.00    -0.544 OA
ENDBRANCH   1   6
BRANCH   1   9
ATOM      9  C   UNL     1       5.847  14.057  14.602  1.00  0.00     0.047 C 
ATOM     10  C   UNL     1       6.798  15.133  15.148  1.00  0.00     0.014 C 
ATOM     11  C   UNL     1       5.198  13.311  15.782  1.00  0.00     0.014 C 
ENDBRANCH   1   9
TORSDOF 3
ENDMDL
MODEL 7
REMARK VINA RESULT:    -3.103      4.358      5.026
REMARK INTER + INTRA:          -3.615
REMARK INTER:                  -3.543
REMARK INTRA:                  -0.073
REMARK UNBOUND:                -0.059
REMARK SMILES CC(C)[C@H]([NH3+])C(=O)[O-]
REMARK SMILES IDX 4 1 5 2 6 6 7 7 8 8 2 9 1 10 3 11
REMARK H PARENT 5 3 5 4 5 5
REMARK Flexibility Score: inf
ROOT
ATOM      1  C   UNL     1       7.213  15.091  15.242  1.00  0.00     0.230 C 
ENDROOT
BRANCH   1   2
ATOM      2  N   UNL     1       8.272  15.120  14.223  1.00  0.00    -0.350 N 
ATOM      3  H   UNL     1       8.044  14.459  13.445  1.00  0.00     0.345 HD
ATOM      4  H   UNL     1       9.196  14.865  14.642  1.00  0.00     0.345 HD
ATOM      5  H   UNL     1       8.341  16.077  13.803  1.00  0.00     0.345 HD
ENDBRANCH   1   2
BRANCH   1   6
ATOM      6  C   UNL     1       7.842  15.003  16.610  1.00  0.00     0.099 C 
ATOM      7  O   UNL     1       7.724  15.956  17.425  1.00  0.00    -0.544 OA
ATOM      8  O   UNL     1       8.552  13.868  16.982  1.00  0.00    -0.544 OA
ENDBRANCH   1   6
BRANCH   1   9
ATOM      9  C   UNL     1       6.220  13.910  15.014  1.00  0.00     0.047 C 
ATOM     10  C   UNL     1       5.550  13.983  13.632  1.00  0.00     0.014 C 
ATOM     11  C   UNL     1       5.131  13.879  16.101  1.00  0.00     0.014 C 
ENDBRANCH   1   9
TORSDOF 3
ENDMDL
MODEL 8
REMARK VINA RESULT:    -3.101      2.824      3.401
REMARK INTER + INTRA:          -3.614
REMARK INTER:                  -3.570
REMARK INTRA:                  -0.044
REMARK UNBOUND:                -0.059
REMARK SMILES CC(C)[C@H]([NH3+])C(=O)[O-]
REMARK SMILES IDX 4 1 5 2 6 6 7 7 8 8 2 9 1 10 3 11
REMARK H PARENT 5 3 5 4 5 5
REMARK Flexibility Score: inf
ROOT
ATOM      1  C   UNL     1       6.262  13.016  13.418  1.00  0.00     0.230 C 
ENDROOT
BRANCH   1   2
ATOM      2  N   UNL     1       5.729  14.377  13.574  1.00  0.00    -0.350 N 
ATOM      3  H   UNL     1       4.755  14.431  13.198  1.00  0.00     0.345 HD
ATOM      4  H   UNL     1       6.336  15.072  13.079  1.00  0.00     0.345 HD
ATOM      5  H   UNL     1       5.681  14.631  14.589  1.00  0.00     0.345 HD
ENDBRANCH   1   2
BRANCH   1   6
ATOM      6  C   UNL     1       7.706  13.093  12.989  1.00  0.00     0.099 C 
ATOM      7  O   UNL     1       8.504  13.863  13.585  1.00  0.00    -0.544 OA
ATOM      8  O   UNL     1       8.165  12.312  11.936  1.00  0.00    -0.544 OA
ENDBRANCH   1   6
BRANCH   1   9
ATOM      9  C   UNL     1       5.427  12.180  12.400  1.00  0.00     0.047 C 
ATOM     10  C   UNL     1       4.073  12.839  12.091  1.00  0.00     0.014 C 
ATOM     11  C   UNL     1       5.186  10.751  12.917  1.00  0.00     0.014 C 
ENDBRANCH   1   9
TORSDOF 3
ENDMDL
MODEL 9
REMARK VINA RESULT:    -3.101      3.089      3.757
REMARK INTER + INTRA:          -3.613
REMARK INTER:                  -3.548
REMARK INTRA:                  -0.065
REMARK UNBOUND:                -0.059
REMARK SMILES CC(C)[C@H]([NH3+])C(=O)[O-]
REMARK SMILES IDX 4 1 5 2 6 6 7 7 8 8 2 9 1 10 3 11
REMARK H PARENT 5 3 5 4 5 5
REMARK Flexibility Score: inf
ROOT
ATOM      1  C   UNL     1       6.373  14.150  14.400  1.00  0.00     0.230 C 
ENDROOT
BRANCH   1   2
ATOM      2  N   UNL     1       6.977  15.464  14.661  1.00  0.00    -0.350 N 
ATOM      3  H   UNL     1       6.318  16.228  14.386  1.00  0.00     0.345 HD
ATOM      4  H   UNL     1       7.876  15.570  14.136  1.00  0.00     0.345 HD
ATOM      5  H   UNL     1       7.167  15.577  15.685  1.00  0.00     0.345 HD
ENDBRANCH   1   2
BRANCH   1   6
ATOM      6  C   UNL     1       5.468  13.781  15.548  1.00  0.00     0.099 C 
ATOM      7  O   UNL     1       4.754  12.745  15.485  1.00  0.00    -0.544 OA
ATOM      8  O   UNL     1       5.417  14.579  16.684  1.00  0.00    -0.544 OA
ENDBRANCH   1   6
BRANCH   1   9
ATOM      9  C   UNL     1       7.454  13.049  14.174  1.00  0.00     0.047 C 
ATOM     10  C   UNL     1       8.633  13.194  15.150  1.00  0.00     0.014 C 
ATOM     11  C   UNL     1       7.989  13.080  12.731  1.00  0.00     0.014 C 
ENDBRANCH   1   9
TORSDOF 3
ENDMDL
