MODEL 1
REMARK VINA RESULT:    -4.690      0.000      0.000
REMARK INTER + INTRA:          -5.518
REMARK INTER:                  -5.787
REMARK INTRA:                   0.269
REMARK UNBOUND:                 0.269
REMARK SMILES C=C1[C@@H]2CC[C@H]3[C@H]2C(C)(C)CCC[C@@]13C
REMARK SMILES IDX 14 1 6 2 7 3 3 4 2 5 1 6 4 7 5 8 15 9 8 10 9 11 10 12 11 13
REMARK SMILES IDX 13 15 12 16
REMARK H PARENT
REMARK Flexibility Score: 80.00
ROOT
ATOM      1  C   UNL     1      -1.428   4.281  11.132  1.00  0.00    -0.008 C 
ATOM      2  C   UNL     1      -0.957   4.424  12.578  1.00  0.00     0.003 C 
ATOM      3  C   UNL     1      -2.163   3.754  13.255  1.00  0.00     0.006 C 
ATOM      4  C   UNL     1      -3.134   4.856  12.861  1.00  0.00     0.019 C 
ATOM      5  C   UNL     1      -2.856   4.823  11.339  1.00  0.00    -0.068 C 
ATOM      6  C   UNL     1      -3.735   5.136  10.383  1.00  0.00     0.009 C 
ATOM      7  C   UNL     1      -2.484   6.117  13.407  1.00  0.00     0.008 C 
ATOM      8  C   UNL     1      -0.998   5.861  13.157  1.00  0.00     0.005 C 
ATOM      9  C   UNL     1      -0.609   5.130  10.141  1.00  0.00     0.016 C 
ENDROOT
BRANCH   3  10
ATOM     10  C   UNL     1      -1.731   2.589  14.173  1.00  0.00    -0.032 C 
ATOM     11  C   UNL     1      -2.943   2.124  15.019  1.00  0.00     0.011 C 
ATOM     12  C   UNL     1      -0.610   2.988  15.162  1.00  0.00     0.011 C 
BRANCH  10  13
ATOM     13  C   UNL     1      -1.246   1.403  13.208  1.00  0.00     0.007 CG0
ATOM     14  G   UNL     1      -0.608   1.752  11.790  1.00  0.00     0.000 G0
ENDBRANCH  10  13
ENDBRANCH   3  10
BRANCH   1  15
ATOM     15  C   UNL     1      -1.368   2.722  10.768  1.00  0.00     0.011 C 
BRANCH  15  16
ATOM     16  C   UNL     1      -0.611   1.751  11.786  1.00  0.00     0.001 CG0
ATOM     17  G   UNL     1      -1.244   1.399  13.206  1.00  0.00     0.000 G0
ENDBRANCH  15  16
ENDBRANCH   1  15
TORSDOF 0
ENDMDL
MODEL 2
REMARK VINA RESULT:    -4.234      1.543      2.814
REMARK INTER + INTRA:          -4.955
REMARK INTER:                  -5.217
REMARK INTRA:                   0.263
REMARK UNBOUND:                 0.269
REMARK SMILES C=C1[C@@H]2CC[C@H]3[C@H]2C(C)(C)CCC[C@@]13C
REMARK SMILES IDX 14 1 6 2 7 3 3 4 2 5 1 6 4 7 5 8 15 9 8 10 9 11 10 12 11 13
REMARK SMILES IDX 13 15 12 16
REMARK H PARENT
REMARK Flexibility Score: 80.00
ROOT
ATOM      1  C   UNL     1      -0.820   5.937  12.254  1.00  0.00    -0.008 C 
ATOM      2  C   UNL     1      -1.903   5.051  12.865  1.00  0.00     0.003 C 
ATOM      3  C   UNL     1      -1.397   3.703  12.327  1.00  0.00     0.006 C 
ATOM      4  C   UNL     1      -1.694   4.048  10.876  1.00  0.00     0.019 C 
ATOM      5  C   UNL     1      -0.889   5.369  10.823  1.00  0.00    -0.068 C 
ATOM      6  C   UNL     1      -0.299   5.875   9.737  1.00  0.00     0.009 C 
ATOM      7  C   UNL     1      -3.167   4.422  10.892  1.00  0.00     0.008 C 
ATOM      8  C   UNL     1      -3.307   5.168  12.219  1.00  0.00     0.005 C 
ATOM      9  C   UNL     1      -1.159   7.439  12.315  1.00  0.00     0.016 C 
ENDROOT
BRANCH   3  10
ATOM     10  C   UNL     1      -1.177   2.679  13.462  1.00  0.00    -0.032 C 
ATOM     11  C   UNL     1      -0.915   1.280  12.849  1.00  0.00     0.011 C 
ATOM     12  C   UNL     1      -2.405   2.546  14.396  1.00  0.00     0.011 C 
BRANCH  10  13
ATOM     13  C   UNL     1       0.111   3.171  14.280  1.00  0.00     0.007 CG0
ATOM     14  G   UNL     1       0.453   4.727  14.350  1.00  0.00     0.000 G0
ENDBRANCH  10  13
ENDBRANCH   3  10
BRANCH   1  15
ATOM     15  C   UNL     1       0.548   5.606  13.022  1.00  0.00     0.011 C 
BRANCH  15  16
ATOM     16  C   UNL     1       0.458   4.730  14.354  1.00  0.00     0.001 CG0
ATOM     17  G   UNL     1       0.112   3.175  14.289  1.00  0.00     0.000 G0
ENDBRANCH  15  16
ENDBRANCH   1  15
TORSDOF 0
ENDMDL
MODEL 3
REMARK VINA RESULT:    -3.865      2.117      3.700
REMARK INTER + INTRA:          -4.500
REMARK INTER:                  -4.760
REMARK INTRA:                   0.261
REMARK UNBOUND:                 0.269
REMARK SMILES C=C1[C@@H]2CC[C@H]3[C@H]2C(C)(C)CCC[C@@]13C
REMARK SMILES IDX 14 1 6 2 7 3 3 4 2 5 1 6 4 7 5 8 15 9 8 10 9 11 10 12 11 13
REMARK SMILES IDX 13 15 12 16
REMARK H PARENT
REMARK Flexibility Score: 80.00
ROOT
ATOM      1  C   UNL     1      -1.890   4.263  11.289  1.00  0.00    -0.008 C 
ATOM      2  C   UNL     1      -1.926   4.784  12.723  1.00  0.00     0.003 C 
ATOM      3  C   UNL     1      -0.506   4.363  13.134  1.00  0.00     0.006 C 
ATOM      4  C   UNL     1      -0.810   2.874  13.061  1.00  0.00     0.019 C 
ATOM      5  C   UNL     1      -1.342   2.858  11.607  1.00  0.00    -0.068 C 
ATOM      6  C   UNL     1      -1.263   1.824  10.764  1.00  0.00     0.009 C 
ATOM      7  C   UNL     1      -2.011   2.710  13.978  1.00  0.00     0.008 C 
ATOM      8  C   UNL     1      -2.816   3.980  13.706  1.00  0.00     0.005 C 
ATOM      9  C   UNL     1      -3.278   4.222  10.622  1.00  0.00     0.016 C 
ENDROOT
BRANCH   3  10
ATOM     10  C   UNL     1       0.313   5.557  13.671  1.00  0.00    -0.032 C 
ATOM     11  C   UNL     1       1.632   5.036  14.296  1.00  0.00     0.011 C 
ATOM     12  C   UNL     1      -0.432   6.350  14.771  1.00  0.00     0.011 C 
BRANCH  10  13
ATOM     13  C   UNL     1       0.635   6.494  12.411  1.00  0.00     0.007 CG0
ATOM     14  G   UNL     1      -0.372   6.528  11.176  1.00  0.00     0.000 G0
ENDBRANCH  10  13
ENDBRANCH   3  10
BRANCH   1  15
ATOM     15  C   UNL     1      -0.868   5.192  10.475  1.00  0.00     0.011 C 
BRANCH  15  16
ATOM     16  C   UNL     1      -0.375   6.541  11.174  1.00  0.00     0.001 CG0
ATOM     17  G   UNL     1       0.626   6.503  12.413  1.00  0.00     0.000 G0
ENDBRANCH  15  16
ENDBRANCH   1  15
TORSDOF 0
ENDMDL
MODEL 4
REMARK VINA RESULT:    -3.842      2.157      4.145
REMARK INTER + INTRA:          -4.471
REMARK INTER:                  -4.741
REMARK INTRA:                   0.270
REMARK UNBOUND:                 0.269
REMARK SMILES C=C1[C@@H]2CC[C@H]3[C@H]2C(C)(C)CCC[C@@]13C
REMARK SMILES IDX 14 1 6 2 7 3 3 4 2 5 1 6 4 7 5 8 15 9 8 10 9 11 10 12 11 13
REMARK SMILES IDX 13 15 12 16
REMARK H PARENT
REMARK Flexibility Score: 80.00
ROOT
ATOM      1  C   UNL     1      -0.629   3.390  13.247  1.00  0.00    -0.008 C 
ATOM      2  C   UNL     1      -0.601   4.333  12.047  1.00  0.00     0.003 C 
ATOM      3  C   UNL     1      -1.282   5.538  12.714  1.00  0.00     0.006 C 
ATOM      4  C   UNL     1      -2.624   4.839  12.857  1.00  0.00     0.019 C 
ATOM      5  C   UNL     1      -2.111   3.592  13.618  1.00  0.00    -0.068 C 
ATOM      6  C   UNL     1      -2.816   2.875  14.497  1.00  0.00     0.009 C 
ATOM      7  C   UNL     1      -2.949   4.395  11.440  1.00  0.00     0.008 C 
ATOM      8  C   UNL     1      -1.581   3.983  10.897  1.00  0.00     0.005 C 
ATOM      9  C   UNL     1      -0.302   1.930  12.881  1.00  0.00     0.016 C 
ENDROOT
BRANCH   3  10
ATOM     10  C   UNL     1      -0.422   6.817  12.601  1.00  0.00    -0.032 C 
ATOM     11  C   UNL     1      -1.256   8.040  13.058  1.00  0.00     0.011 C 
ATOM     12  C   UNL     1       0.047   7.099  11.154  1.00  0.00     0.011 C 
BRANCH  10  13
ATOM     13  C   UNL     1       0.833   6.611  13.578  1.00  0.00     0.007 CG0
ATOM     14  G   UNL     1       1.389   5.142  13.848  1.00  0.00     0.000 G0
ENDBRANCH  10  13
ENDBRANCH   3  10
BRANCH   1  15
ATOM     15  C   UNL     1       0.400   3.974  14.330  1.00  0.00     0.011 C 
BRANCH  15  16
ATOM     16  C   UNL     1       1.386   5.140  13.861  1.00  0.00     0.001 CG0
ATOM     17  G   UNL     1       0.839   6.610  13.577  1.00  0.00     0.000 G0
ENDBRANCH  15  16
ENDBRANCH   1  15
TORSDOF 0
ENDMDL
MODEL 5
REMARK VINA RESULT:    -3.755      2.119      4.491
REMARK INTER + INTRA:          -4.364
REMARK INTER:                  -4.634
REMARK INTRA:                   0.270
REMARK UNBOUND:                 0.269
REMARK SMILES C=C1[C@@H]2CC[C@H]3[C@H]2C(C)(C)CCC[C@@]13C
REMARK SMILES IDX 14 1 6 2 7 3 3 4 2 5 1 6 4 7 5 8 15 9 8 10 9 11 10 12 11 13
REMARK SMILES IDX 13 15 12 16
REMARK H PARENT
REMARK Flexibility Score: 80.00
ROOT
ATOM      1  C   UNL     1      -0.556   3.938  13.906  1.00  0.00    -0.008 C 
ATOM      2  C   UNL     1      -0.194   4.110  12.433  1.00  0.00     0.003 C 
ATOM      3  C   UNL     1      -1.596   4.470  11.916  1.00  0.00     0.006 C 
ATOM      4  C   UNL     1      -2.175   3.094  12.204  1.00  0.00     0.019 C 
ATOM      5  C   UNL     1      -1.784   3.030  13.700  1.00  0.00    -0.068 C 
ATOM      6  C   UNL     1      -2.449   2.364  14.648  1.00  0.00     0.009 C 
ATOM      7  C   UNL     1      -1.244   2.152  11.458  1.00  0.00     0.008 C 
ATOM      8  C   UNL     1       0.124   2.801  11.664  1.00  0.00     0.005 C 
ATOM      9  C   UNL     1       0.555   3.258  14.728  1.00  0.00     0.016 C 
ENDROOT
BRANCH   3  10
ATOM     10  C   UNL     1      -1.596   5.810  11.146  1.00  0.00    -0.032 C 
ATOM     11  C   UNL     1      -2.963   5.998  10.441  1.00  0.00     0.011 C 
ATOM     12  C   UNL     1      -0.504   5.873  10.050  1.00  0.00     0.011 C 
BRANCH  10  13
ATOM     13  C   UNL     1      -1.377   6.964  12.237  1.00  0.00     0.007 CG0
ATOM     14  G   UNL     1      -0.553   6.648  13.565  1.00  0.00     0.000 G0
ENDBRANCH  10  13
ENDBRANCH   3  10
BRANCH   1  15
ATOM     15  C   UNL     1      -0.910   5.394  14.477  1.00  0.00     0.011 C 
BRANCH  15  16
ATOM     16  C   UNL     1      -0.553   6.655  13.564  1.00  0.00     0.001 CG0
ATOM     17  G   UNL     1      -1.382   6.968  12.240  1.00  0.00     0.000 G0
ENDBRANCH  15  16
ENDBRANCH   1  15
TORSDOF 0
ENDMDL
MODEL 6
REMARK VINA RESULT:    -3.730      1.558      4.051
REMARK INTER + INTRA:          -4.334
REMARK INTER:                  -4.604
REMARK INTRA:                   0.271
REMARK UNBOUND:                 0.269
REMARK SMILES C=C1[C@@H]2CC[C@H]3[C@H]2C(C)(C)CCC[C@@]13C
REMARK SMILES IDX 14 1 6 2 7 3 3 4 2 5 1 6 4 7 5 8 15 9 8 10 9 11 10 12 11 13
REMARK SMILES IDX 13 15 12 16
REMARK H PARENT
REMARK Flexibility Score: 80.00
ROOT
ATOM      1  C   UNL     1      -0.429   4.531  14.100  1.00  0.00    -0.008 C 
ATOM      2  C   UNL     1      -1.468   5.300  13.287  1.00  0.00     0.003 C 
ATOM      3  C   UNL     1      -0.552   5.724  12.128  1.00  0.00     0.006 C 
ATOM      4  C   UNL     1       0.294   6.647  12.991  1.00  0.00     0.019 C 
ATOM      5  C   UNL     1       0.675   5.606  14.071  1.00  0.00    -0.068 C 
ATOM      6  C   UNL     1       1.802   5.609  14.788  1.00  0.00     0.009 C 
ATOM      7  C   UNL     1      -0.726   7.586  13.615  1.00  0.00     0.008 C 
ATOM      8  C   UNL     1      -1.911   6.660  13.884  1.00  0.00     0.005 C 
ATOM      9  C   UNL     1      -0.899   4.200  15.529  1.00  0.00     0.016 C 
ENDROOT
BRANCH   3  10
ATOM     10  C   UNL     1      -1.119   5.286  10.760  1.00  0.00    -0.032 C 
ATOM     11  C   UNL     1      -0.305   5.959   9.626  1.00  0.00     0.011 C 
ATOM     12  C   UNL     1      -2.599   5.694  10.565  1.00  0.00     0.011 C 
BRANCH  10  13
ATOM     13  C   UNL     1      -0.952   3.693  10.685  1.00  0.00     0.007 CG0
ATOM     14  G   UNL     1      -0.991   2.832  12.026  1.00  0.00     0.000 G0
ENDBRANCH  10  13
ENDBRANCH   3  10
BRANCH   1  15
ATOM     15  C   UNL     1      -0.070   3.206  13.273  1.00  0.00     0.011 C 
BRANCH  15  16
ATOM     16  C   UNL     1      -1.003   2.830  12.032  1.00  0.00     0.001 CG0
ATOM     17  G   UNL     1      -0.951   3.677  10.683  1.00  0.00     0.000 G0
ENDBRANCH  15  16
ENDBRANCH   1  15
TORSDOF 0
ENDMDL
MODEL 7
REMARK VINA RESULT:    -3.630      2.348      4.492
REMARK INTER + INTRA:          -4.210
REMARK INTER:                  -4.466
REMARK INTRA:                   0.256
REMARK UNBOUND:                 0.269
REMARK SMILES C=C1[C@@H]2CC[C@H]3[C@H]2C(C)(C)CCC[C@@]13C
REMARK SMILES IDX 14 1 6 2 7 3 3 4 2 5 1 6 4 7 5 8 15 9 8 10 9 11 10 12 11 13
REMARK SMILES IDX 13 15 12 16
REMARK H PARENT
REMARK Flexibility Score: 80.00
ROOT
ATOM      1  C   UNL     1      -1.875   3.944  13.381  1.00  0.00    -0.008 C 
ATOM      2  C   UNL     1      -1.340   5.242  13.981  1.00  0.00     0.003 C 
ATOM      3  C   UNL     1      -0.428   5.651  12.813  1.00  0.00     0.006 C 
ATOM      4  C   UNL     1       0.533   4.490  13.015  1.00  0.00     0.019 C 
ATOM      5  C   UNL     1      -0.518   3.356  12.950  1.00  0.00    -0.068 C 
ATOM      6  C   UNL     1      -0.291   2.111  12.519  1.00  0.00     0.009 C 
ATOM      7  C   UNL     1       0.956   4.625  14.469  1.00  0.00     0.008 C 
ATOM      8  C   UNL     1      -0.336   5.075  15.151  1.00  0.00     0.005 C 
ATOM      9  C   UNL     1      -2.608   3.058  14.407  1.00  0.00     0.016 C 
ENDROOT
BRANCH   3  10
ATOM     10  C   UNL     1      -0.754   7.072  12.303  1.00  0.00    -0.032 C 
ATOM     11  C   UNL     1       0.338   7.520  11.299  1.00  0.00     0.011 C 
ATOM     12  C   UNL     1      -0.790   8.124  13.437  1.00  0.00     0.011 C 
BRANCH  10  13
ATOM     13  C   UNL     1      -2.174   6.979  11.565  1.00  0.00     0.007 CG0
ATOM     14  G   UNL     1      -3.235   5.884  12.032  1.00  0.00     0.000 G0
ENDBRANCH  10  13
ENDBRANCH   3  10
BRANCH   1  15
ATOM     15  C   UNL     1      -2.829   4.349  12.158  1.00  0.00     0.011 C 
BRANCH  15  16
ATOM     16  C   UNL     1      -3.245   5.885  12.019  1.00  0.00     0.001 CG0
ATOM     17  G   UNL     1      -2.185   6.981  11.556  1.00  0.00     0.000 G0
ENDBRANCH  15  16
ENDBRANCH   1  15
TORSDOF 0
ENDMDL
MODEL 8
REMARK VINA RESULT:    -3.600      2.022      3.624
REMARK INTER + INTRA:          -4.172
REMARK INTER:                  -4.442
REMARK INTRA:                   0.270
REMARK UNBOUND:                 0.269
REMARK SMILES C=C1[C@@H]2CC[C@H]3[C@H]2C(C)(C)CCC[C@@]13C
REMARK SMILES IDX 14 1 6 2 7 3 3 4 2 5 1 6 4 7 5 8 15 9 8 10 9 11 10 12 11 13
REMARK SMILES IDX 13 15 12 16
REMARK H PARENT
REMARK Flexibility Score: 80.00
ROOT
ATOM      1  C   UNL     1      -2.061   6.089  11.159  1.00  0.00    -0.008 C 
ATOM      2  C   UNL     1      -2.475   4.804  11.874  1.00  0.00     0.003 C 
ATOM      3  C   UNL     1      -1.082   4.385  12.371  1.00  0.00     0.006 C 
ATOM      4  C   UNL     1      -0.546   4.113  10.974  1.00  0.00     0.019 C 
ATOM      5  C   UNL     1      -0.879   5.498  10.367  1.00  0.00    -0.068 C 
ATOM      6  C   UNL     1      -0.203   6.095   9.382  1.00  0.00     0.009 C 
ATOM      7  C   UNL     1      -1.543   3.121  10.396  1.00  0.00     0.008 C 
ATOM      8  C   UNL     1      -2.875   3.624  10.951  1.00  0.00     0.005 C 
ATOM      9  C   UNL     1      -3.164   6.658  10.246  1.00  0.00     0.016 C 
ENDROOT
BRANCH   3  10
ATOM     10  C   UNL     1      -1.061   4.167  13.900  1.00  0.00    -0.032 C 
ATOM     11  C   UNL     1       0.281   3.510  14.307  1.00  0.00     0.011 C 
ATOM     12  C   UNL     1      -2.194   3.232  14.389  1.00  0.00     0.011 C 
BRANCH  10  13
ATOM     13  C   UNL     1      -1.190   5.618  14.570  1.00  0.00     0.007 CG0
ATOM     14  G   UNL     1      -1.985   6.771  13.809  1.00  0.00     0.000 G0
ENDBRANCH  10  13
ENDBRANCH   3  10
BRANCH   1  15
ATOM     15  C   UNL     1      -1.628   7.139  12.291  1.00  0.00     0.011 C 
BRANCH  15  16
ATOM     16  C   UNL     1      -1.974   6.779  13.808  1.00  0.00     0.001 CG0
ATOM     17  G   UNL     1      -1.196   5.616  14.571  1.00  0.00     0.000 G0
ENDBRANCH  15  16
ENDBRANCH   1  15
TORSDOF 0
ENDMDL
MODEL 9
REMARK VINA RESULT:    -3.576      1.799      3.472
REMARK INTER + INTRA:          -4.143
REMARK INTER:                  -4.400
REMARK INTRA:                   0.257
REMARK UNBOUND:                 0.269
REMARK SMILES C=C1[C@@H]2CC[C@H]3[C@H]2C(C)(C)CCC[C@@]13C
REMARK SMILES IDX 14 1 6 2 7 3 3 4 2 5 1 6 4 7 5 8 15 9 8 10 9 11 10 12 11 13
REMARK SMILES IDX 13 15 12 16
REMARK H PARENT
REMARK Flexibility Score: 80.00
ROOT
ATOM      1  C   UNL     1      -1.817   4.061  11.564  1.00  0.00    -0.008 C 
ATOM      2  C   UNL     1      -0.605   4.985  11.474  1.00  0.00     0.003 C 
ATOM      3  C   UNL     1      -1.248   6.231  12.105  1.00  0.00     0.006 C 
ATOM      4  C   UNL     1      -2.216   6.448  10.954  1.00  0.00     0.019 C 
ATOM      5  C   UNL     1      -2.850   5.036  10.965  1.00  0.00    -0.068 C 
ATOM      6  C   UNL     1      -4.099   4.743  10.593  1.00  0.00     0.009 C 
ATOM      7  C   UNL     1      -1.311   6.522   9.735  1.00  0.00     0.008 C 
ATOM      8  C   UNL     1      -0.241   5.476  10.050  1.00  0.00     0.005 C 
ATOM      9  C   UNL     1      -1.662   2.774  10.730  1.00  0.00     0.016 C 
ENDROOT
BRANCH   3  10
ATOM     10  C   UNL     1      -0.429   6.750  13.308  1.00  0.00    -0.032 C 
ATOM     11  C   UNL     1      -0.987   8.125  13.755  1.00  0.00     0.011 C 
ATOM     12  C   UNL     1       1.068   6.951  12.974  1.00  0.00     0.011 C 
BRANCH  10  13
ATOM     13  C   UNL     1      -0.612   5.675  14.484  1.00  0.00     0.007 CG0
ATOM     14  G   UNL     1      -0.878   4.146  14.119  1.00  0.00     0.000 G0
ENDBRANCH  10  13
ENDBRANCH   3  10
BRANCH   1  15
ATOM     15  C   UNL     1      -2.050   3.737  13.116  1.00  0.00     0.011 C 
BRANCH  15  16
ATOM     16  C   UNL     1      -0.892   4.143  14.140  1.00  0.00     0.001 CG0
ATOM     17  G   UNL     1      -0.614   5.671  14.496  1.00  0.00     0.000 G0
ENDBRANCH  15  16
ENDBRANCH   1  15
TORSDOF 0
ENDMDL
