MODEL 1
REMARK VINA RESULT:    -6.355      0.000      0.000
REMARK INTER + INTRA:          -6.541
REMARK INTER:                  -6.541
REMARK INTRA:                   0.000
REMARK UNBOUND:                 0.000
REMARK SMILES C=C1[C@H]2C[C@]3(C[C@@H]1O)[C@@H](C)CC[C@H]3C2(C)C
REMARK SMILES IDX 10 1 9 2 11 3 12 4 13 5 5 6 4 7 3 8 14 9 15 10 16 11 2 12
REMARK SMILES IDX 1 13 7 14 6 15 8 16
REMARK H PARENT 8 17
REMARK Flexibility Score: inf
ROOT
ATOM      1  C   UNL     1     113.752 120.405 132.158  1.00  0.00     0.008 C 
ATOM      2  C   UNL     1     114.562 121.586 131.603  1.00  0.00    -0.008 C 
ATOM      3  C   UNL     1     116.088 121.481 131.904  1.00  0.00     0.004 C 
ATOM      4  C   UNL     1     116.827 122.179 130.730  1.00  0.00     0.005 C 
ATOM      5  C   UNL     1     115.676 122.796 129.956  1.00  0.00     0.002 C 
ATOM      6  C   UNL     1     114.526 121.802 130.074  1.00  0.00    -0.020 C 
ATOM      7  C   UNL     1     113.434 122.622 129.402  1.00  0.00     0.016 C 
ATOM      8  C   UNL     1     114.171 123.015 128.090  1.00  0.00     0.023 C 
ATOM      9  C   UNL     1     115.663 123.326 128.510  1.00  0.00    -0.025 C 
ATOM     10  C   UNL     1     115.893 124.857 128.479  1.00  0.00     0.012 C 
ATOM     11  C   UNL     1     116.767 122.675 127.639  1.00  0.00     0.012 C 
ATOM     12  C   UNL     1     114.086 121.814 127.176  1.00  0.00    -0.045 C 
ATOM     13  C   UNL     1     113.830 121.968 125.868  1.00  0.00     0.011 C 
ATOM     14  C   UNL     1     114.258 120.431 127.773  1.00  0.00     0.140 C 
ATOM     15  C   UNL     1     114.731 120.448 129.265  1.00  0.00     0.044 C 
ENDROOT
BRANCH  14  16
ATOM     16  O   UNL     1     115.160 119.686 126.995  1.00  0.00    -0.389 OA
ATOM     17  H   UNL     1     115.438 118.908 127.545  1.00  0.00     0.211 HD
ENDBRANCH  14  16
TORSDOF 1
ENDMDL
MODEL 2
REMARK VINA RESULT:    -6.341      2.089      3.746
REMARK INTER + INTRA:          -6.526
REMARK INTER:                  -6.526
REMARK INTRA:                   0.000
REMARK UNBOUND:                 0.000
REMARK SMILES C=C1[C@H]2C[C@]3(C[C@@H]1O)[C@@H](C)CC[C@H]3C2(C)C
REMARK SMILES IDX 10 1 9 2 11 3 12 4 13 5 5 6 4 7 3 8 14 9 15 10 16 11 2 12
REMARK SMILES IDX 1 13 7 14 6 15 8 16
REMARK H PARENT 8 17
REMARK Flexibility Score: inf
ROOT
ATOM      1  C   UNL     1     117.193 120.892 133.924  1.00  0.00     0.008 C 
ATOM      2  C   UNL     1     116.240 120.338 132.856  1.00  0.00    -0.008 C 
ATOM      3  C   UNL     1     114.754 120.278 133.328  1.00  0.00     0.004 C 
ATOM      4  C   UNL     1     113.874 120.484 132.066  1.00  0.00     0.005 C 
ATOM      5  C   UNL     1     114.905 120.449 130.952  1.00  0.00     0.002 C 
ATOM      6  C   UNL     1     116.148 121.118 131.526  1.00  0.00    -0.020 C 
ATOM      7  C   UNL     1     117.108 120.862 130.375  1.00  0.00     0.016 C 
ATOM      8  C   UNL     1     116.248 121.392 129.192  1.00  0.00     0.023 C 
ATOM      9  C   UNL     1     114.766 120.933 129.497  1.00  0.00    -0.025 C 
ATOM     10  C   UNL     1     114.393 119.761 128.556  1.00  0.00     0.012 C 
ATOM     11  C   UNL     1     113.670 122.017 129.343  1.00  0.00     0.012 C 
ATOM     12  C   UNL     1     116.381 122.899 129.209  1.00  0.00    -0.045 C 
ATOM     13  C   UNL     1     116.530 123.584 128.065  1.00  0.00     0.011 C 
ATOM     14  C   UNL     1     116.381 123.614 130.546  1.00  0.00     0.140 C 
ATOM     15  C   UNL     1     116.015 122.687 131.752  1.00  0.00     0.044 C 
ENDROOT
BRANCH  14  16
ATOM     16  O   UNL     1     115.501 124.708 130.500  1.00  0.00    -0.389 OA
ATOM     17  H   UNL     1     115.964 125.468 130.939  1.00  0.00     0.211 HD
ENDBRANCH  14  16
TORSDOF 1
ENDMDL
MODEL 3
REMARK VINA RESULT:    -6.181      1.618      4.260
REMARK INTER + INTRA:          -6.362
REMARK INTER:                  -6.362
REMARK INTRA:                   0.000
REMARK UNBOUND:                 0.000
REMARK SMILES C=C1[C@H]2C[C@]3(C[C@@H]1O)[C@@H](C)CC[C@H]3C2(C)C
REMARK SMILES IDX 10 1 9 2 11 3 12 4 13 5 5 6 4 7 3 8 14 9 15 10 16 11 2 12
REMARK SMILES IDX 1 13 7 14 6 15 8 16
REMARK H PARENT 8 17
REMARK Flexibility Score: inf
ROOT
ATOM      1  C   UNL     1     113.557 122.222 125.348  1.00  0.00     0.008 C 
ATOM      2  C   UNL     1     113.609 121.401 126.644  1.00  0.00    -0.008 C 
ATOM      3  C   UNL     1     114.439 120.088 126.509  1.00  0.00     0.004 C 
ATOM      4  C   UNL     1     115.061 119.803 127.902  1.00  0.00     0.005 C 
ATOM      5  C   UNL     1     114.388 120.853 128.769  1.00  0.00     0.002 C 
ATOM      6  C   UNL     1     114.240 122.082 127.879  1.00  0.00    -0.020 C 
ATOM      7  C   UNL     1     113.427 122.959 128.819  1.00  0.00     0.016 C 
ATOM      8  C   UNL     1     114.305 122.856 130.099  1.00  0.00     0.023 C 
ATOM      9  C   UNL     1     114.799 121.356 130.165  1.00  0.00    -0.025 C 
ATOM     10  C   UNL     1     114.019 120.611 131.275  1.00  0.00     0.012 C 
ATOM     11  C   UNL     1     116.309 121.146 130.440  1.00  0.00     0.012 C 
ATOM     12  C   UNL     1     115.457 123.817 129.905  1.00  0.00    -0.045 C 
ATOM     13  C   UNL     1     115.879 124.589 130.917  1.00  0.00     0.011 C 
ATOM     14  C   UNL     1     116.098 123.917 128.535  1.00  0.00     0.140 C 
ATOM     15  C   UNL     1     115.606 122.820 127.532  1.00  0.00     0.044 C 
ENDROOT
BRANCH  14  16
ATOM     16  O   UNL     1     117.496 123.857 128.659  1.00  0.00    -0.389 OA
ATOM     17  H   UNL     1     117.702 123.940 129.626  1.00  0.00     0.211 HD
ENDBRANCH  14  16
TORSDOF 1
ENDMDL
MODEL 4
REMARK VINA RESULT:    -6.129      1.894      4.221
REMARK INTER + INTRA:          -6.308
REMARK INTER:                  -6.308
REMARK INTRA:                   0.000
REMARK UNBOUND:                 0.000
REMARK SMILES C=C1[C@H]2C[C@]3(C[C@@H]1O)[C@@H](C)CC[C@H]3C2(C)C
REMARK SMILES IDX 10 1 9 2 11 3 12 4 13 5 5 6 4 7 3 8 14 9 15 10 16 11 2 12
REMARK SMILES IDX 1 13 7 14 6 15 8 16
REMARK H PARENT 8 17
REMARK Flexibility Score: inf
ROOT
ATOM      1  C   UNL     1     115.895 118.746 127.698  1.00  0.00     0.008 C 
ATOM      2  C   UNL     1     115.749 120.258 127.919  1.00  0.00    -0.008 C 
ATOM      3  C   UNL     1     114.510 120.869 127.195  1.00  0.00     0.004 C 
ATOM      4  C   UNL     1     114.032 122.067 128.058  1.00  0.00     0.005 C 
ATOM      5  C   UNL     1     115.137 122.173 129.093  1.00  0.00     0.002 C 
ATOM      6  C   UNL     1     115.569 120.738 129.376  1.00  0.00    -0.020 C 
ATOM      7  C   UNL     1     116.756 121.022 130.283  1.00  0.00     0.016 C 
ATOM      8  C   UNL     1     116.085 121.992 131.298  1.00  0.00     0.023 C 
ATOM      9  C   UNL     1     115.123 122.911 130.445  1.00  0.00    -0.025 C 
ATOM     10  C   UNL     1     115.751 124.321 130.312  1.00  0.00     0.012 C 
ATOM     11  C   UNL     1     113.687 123.094 130.996  1.00  0.00     0.012 C 
ATOM     12  C   UNL     1     115.315 121.127 132.270  1.00  0.00    -0.045 C 
ATOM     13  C   UNL     1     115.329 121.399 133.584  1.00  0.00     0.011 C 
ATOM     14  C   UNL     1     114.561 119.925 131.736  1.00  0.00     0.140 C 
ATOM     15  C   UNL     1     114.502 119.868 130.173  1.00  0.00     0.044 C 
ENDROOT
BRANCH  14  16
ATOM     16  O   UNL     1     113.258 119.909 132.263  1.00  0.00    -0.389 OA
ATOM     17  H   UNL     1     113.345 120.022 133.245  1.00  0.00     0.211 HD
ENDBRANCH  14  16
TORSDOF 1
ENDMDL
MODEL 5
REMARK VINA RESULT:    -5.955      1.851      4.153
REMARK INTER + INTRA:          -6.129
REMARK INTER:                  -6.129
REMARK INTRA:                   0.000
REMARK UNBOUND:                 0.000
REMARK SMILES C=C1[C@H]2C[C@]3(C[C@@H]1O)[C@@H](C)CC[C@H]3C2(C)C
REMARK SMILES IDX 10 1 9 2 11 3 12 4 13 5 5 6 4 7 3 8 14 9 15 10 16 11 2 12
REMARK SMILES IDX 1 13 7 14 6 15 8 16
REMARK H PARENT 8 17
REMARK Flexibility Score: inf
ROOT
ATOM      1  C   UNL     1     116.553 125.629 130.016  1.00  0.00     0.008 C 
ATOM      2  C   UNL     1     116.185 124.439 129.119  1.00  0.00    -0.008 C 
ATOM      3  C   UNL     1     117.400 123.869 128.324  1.00  0.00     0.004 C 
ATOM      4  C   UNL     1     117.141 122.350 128.135  1.00  0.00     0.005 C 
ATOM      5  C   UNL     1     115.723 122.205 128.657  1.00  0.00     0.002 C 
ATOM      6  C   UNL     1     115.612 123.186 129.818  1.00  0.00    -0.020 C 
ATOM      7  C   UNL     1     114.128 123.037 130.115  1.00  0.00     0.016 C 
ATOM      8  C   UNL     1     114.035 121.488 130.215  1.00  0.00     0.023 C 
ATOM      9  C   UNL     1     114.980 120.924 129.081  1.00  0.00    -0.025 C 
ATOM     10  C   UNL     1     114.112 120.377 127.920  1.00  0.00     0.012 C 
ATOM     11  C   UNL     1     115.954 119.795 129.501  1.00  0.00     0.012 C 
ATOM     12  C   UNL     1     114.534 121.118 131.594  1.00  0.00    -0.045 C 
ATOM     13  C   UNL     1     113.907 120.178 132.318  1.00  0.00     0.011 C 
ATOM     14  C   UNL     1     115.732 121.858 132.157  1.00  0.00     0.140 C 
ATOM     15  C   UNL     1     116.444 122.781 131.113  1.00  0.00     0.044 C 
ENDROOT
BRANCH  14  16
ATOM     16  O   UNL     1     116.653 120.938 132.686  1.00  0.00    -0.389 OA
ATOM     17  H   UNL     1     116.125 120.178 133.044  1.00  0.00     0.211 HD
ENDBRANCH  14  16
TORSDOF 1
ENDMDL
MODEL 6
REMARK VINA RESULT:    -5.838      1.878      2.999
REMARK INTER + INTRA:          -6.009
REMARK INTER:                  -6.009
REMARK INTRA:                   0.000
REMARK UNBOUND:                 0.000
REMARK SMILES C=C1[C@H]2C[C@]3(C[C@@H]1O)[C@@H](C)CC[C@H]3C2(C)C
REMARK SMILES IDX 10 1 9 2 11 3 12 4 13 5 5 6 4 7 3 8 14 9 15 10 16 11 2 12
REMARK SMILES IDX 1 13 7 14 6 15 8 16
REMARK H PARENT 8 17
REMARK Flexibility Score: inf
ROOT
ATOM      1  C   UNL     1     114.117 120.384 132.550  1.00  0.00     0.008 C 
ATOM      2  C   UNL     1     113.771 120.970 131.174  1.00  0.00    -0.008 C 
ATOM      3  C   UNL     1     113.720 122.528 131.164  1.00  0.00     0.004 C 
ATOM      4  C   UNL     1     114.150 122.982 129.743  1.00  0.00     0.005 C 
ATOM      5  C   UNL     1     114.222 121.662 128.997  1.00  0.00     0.002 C 
ATOM      6  C   UNL     1     114.738 120.648 130.013  1.00  0.00    -0.020 C 
ATOM      7  C   UNL     1     114.601 119.384 129.178  1.00  0.00     0.016 C 
ATOM      8  C   UNL     1     115.339 119.842 127.887  1.00  0.00     0.023 C 
ATOM      9  C   UNL     1     114.917 121.348 127.659  1.00  0.00    -0.025 C 
ATOM     10  C   UNL     1     113.913 121.423 126.483  1.00  0.00     0.012 C 
ATOM     11  C   UNL     1     116.066 122.340 127.351  1.00  0.00     0.012 C 
ATOM     12  C   UNL     1     116.818 119.713 128.172  1.00  0.00    -0.045 C 
ATOM     13  C   UNL     1     117.652 119.219 127.244  1.00  0.00     0.011 C 
ATOM     14  C   UNL     1     117.334 120.115 129.540  1.00  0.00     0.140 C 
ATOM     15  C   UNL     1     116.263 120.836 130.425  1.00  0.00     0.044 C 
ENDROOT
BRANCH  14  16
ATOM     16  O   UNL     1     118.466 120.935 129.399  1.00  0.00    -0.389 OA
ATOM     17  H   UNL     1     118.197 121.847 129.682  1.00  0.00     0.211 HD
ENDBRANCH  14  16
TORSDOF 1
ENDMDL
MODEL 7
REMARK VINA RESULT:    -5.784      2.153      4.002
REMARK INTER + INTRA:          -5.953
REMARK INTER:                  -5.953
REMARK INTRA:                   0.000
REMARK UNBOUND:                 0.000
REMARK SMILES C=C1[C@H]2C[C@]3(C[C@@H]1O)[C@@H](C)CC[C@H]3C2(C)C
REMARK SMILES IDX 10 1 9 2 11 3 12 4 13 5 5 6 4 7 3 8 14 9 15 10 16 11 2 12
REMARK SMILES IDX 1 13 7 14 6 15 8 16
REMARK H PARENT 8 17
REMARK Flexibility Score: inf
ROOT
ATOM      1  C   UNL     1     118.055 118.970 128.797  1.00  0.00     0.008 C 
ATOM      2  C   UNL     1     116.797 119.637 128.222  1.00  0.00    -0.008 C 
ATOM      3  C   UNL     1     115.499 118.804 128.452  1.00  0.00     0.004 C 
ATOM      4  C   UNL     1     114.331 119.818 128.579  1.00  0.00     0.005 C 
ATOM      5  C   UNL     1     115.009 121.128 128.219  1.00  0.00     0.002 C 
ATOM      6  C   UNL     1     116.421 121.025 128.785  1.00  0.00    -0.020 C 
ATOM      7  C   UNL     1     117.000 122.310 128.213  1.00  0.00     0.016 C 
ATOM      8  C   UNL     1     115.903 123.316 128.667  1.00  0.00     0.023 C 
ATOM      9  C   UNL     1     114.525 122.566 128.480  1.00  0.00    -0.025 C 
ATOM     10  C   UNL     1     113.797 123.140 127.239  1.00  0.00     0.012 C 
ATOM     11  C   UNL     1     113.537 122.644 129.671  1.00  0.00     0.012 C 
ATOM     12  C   UNL     1     116.180 123.623 130.121  1.00  0.00    -0.045 C 
ATOM     13  C   UNL     1     116.076 124.877 130.587  1.00  0.00     0.011 C 
ATOM     14  C   UNL     1     116.616 122.493 131.033  1.00  0.00     0.140 C 
ATOM     15  C   UNL     1     116.506 121.078 130.373  1.00  0.00     0.044 C 
ENDROOT
BRANCH  14  16
ATOM     16  O   UNL     1     115.865 122.524 132.221  1.00  0.00    -0.389 OA
ATOM     17  H   UNL     1     115.057 121.971 132.064  1.00  0.00     0.211 HD
ENDBRANCH  14  16
TORSDOF 1
ENDMDL
MODEL 8
REMARK VINA RESULT:    -5.665      2.043      3.818
REMARK INTER + INTRA:          -5.830
REMARK INTER:                  -5.830
REMARK INTRA:                   0.000
REMARK UNBOUND:                 0.000
REMARK SMILES C=C1[C@H]2C[C@]3(C[C@@H]1O)[C@@H](C)CC[C@H]3C2(C)C
REMARK SMILES IDX 10 1 9 2 11 3 12 4 13 5 5 6 4 7 3 8 14 9 15 10 16 11 2 12
REMARK SMILES IDX 1 13 7 14 6 15 8 16
REMARK H PARENT 8 17
REMARK Flexibility Score: inf
ROOT
ATOM      1  C   UNL     1     116.258 118.529 126.882  1.00  0.00     0.008 C 
ATOM      2  C   UNL     1     116.549 118.820 128.361  1.00  0.00    -0.008 C 
ATOM      3  C   UNL     1     118.030 119.228 128.628  1.00  0.00     0.004 C 
ATOM      4  C   UNL     1     118.018 120.196 129.841  1.00  0.00     0.005 C 
ATOM      5  C   UNL     1     116.572 120.114 130.296  1.00  0.00     0.002 C 
ATOM      6  C   UNL     1     115.751 119.967 129.019  1.00  0.00    -0.020 C 
ATOM      7  C   UNL     1     114.382 119.741 129.642  1.00  0.00     0.016 C 
ATOM      8  C   UNL     1     114.338 120.948 130.623  1.00  0.00     0.023 C 
ATOM      9  C   UNL     1     115.797 121.074 131.218  1.00  0.00    -0.025 C 
ATOM     10  C   UNL     1     115.798 120.559 132.679  1.00  0.00     0.012 C 
ATOM     11  C   UNL     1     116.410 122.497 131.229  1.00  0.00     0.012 C 
ATOM     12  C   UNL     1     113.965 122.158 129.796  1.00  0.00    -0.045 C 
ATOM     13  C   UNL     1     113.091 123.061 130.264  1.00  0.00     0.011 C 
ATOM     14  C   UNL     1     114.569 122.308 128.414  1.00  0.00     0.140 C 
ATOM     15  C   UNL     1     115.699 121.270 128.108  1.00  0.00     0.044 C 
ENDROOT
BRANCH  14  16
ATOM     16  O   UNL     1     115.063 123.613 128.251  1.00  0.00    -0.389 OA
ATOM     17  H   UNL     1     115.738 123.755 128.964  1.00  0.00     0.211 HD
ENDBRANCH  14  16
TORSDOF 1
ENDMDL
MODEL 9
REMARK VINA RESULT:    -5.611      1.808      3.556
REMARK INTER + INTRA:          -5.775
REMARK INTER:                  -5.775
REMARK INTRA:                   0.000
REMARK UNBOUND:                 0.000
REMARK SMILES C=C1[C@H]2C[C@]3(C[C@@H]1O)[C@@H](C)CC[C@H]3C2(C)C
REMARK SMILES IDX 10 1 9 2 11 3 12 4 13 5 5 6 4 7 3 8 14 9 15 10 16 11 2 12
REMARK SMILES IDX 1 13 7 14 6 15 8 16
REMARK H PARENT 8 17
REMARK Flexibility Score: inf
ROOT
ATOM      1  C   UNL     1     115.831 119.001 126.626  1.00  0.00     0.008 C 
ATOM      2  C   UNL     1     114.955 119.655 127.704  1.00  0.00    -0.008 C 
ATOM      3  C   UNL     1     115.141 119.020 129.117  1.00  0.00     0.004 C 
ATOM      4  C   UNL     1     114.892 120.150 130.152  1.00  0.00     0.005 C 
ATOM      5  C   UNL     1     114.394 121.282 129.272  1.00  0.00     0.002 C 
ATOM      6  C   UNL     1     115.178 121.160 127.970  1.00  0.00    -0.020 C 
ATOM      7  C   UNL     1     114.466 122.234 127.162  1.00  0.00     0.016 C 
ATOM      8  C   UNL     1     114.546 123.417 128.171  1.00  0.00     0.023 C 
ATOM      9  C   UNL     1     114.299 122.784 129.598  1.00  0.00    -0.025 C 
ATOM     10  C   UNL     1     112.875 123.157 130.080  1.00  0.00     0.012 C 
ATOM     11  C   UNL     1     115.289 123.205 130.712  1.00  0.00     0.012 C 
ATOM     12  C   UNL     1     115.940 123.989 128.047  1.00  0.00    -0.045 C 
ATOM     13  C   UNL     1     116.135 125.317 128.050  1.00  0.00     0.011 C 
ATOM     14  C   UNL     1     117.107 123.036 127.881  1.00  0.00     0.140 C 
ATOM     15  C   UNL     1     116.720 121.533 128.084  1.00  0.00     0.044 C 
ENDROOT
BRANCH  14  16
ATOM     16  O   UNL     1     118.138 123.387 128.768  1.00  0.00    -0.389 OA
ATOM     17  H   UNL     1     117.984 122.876 129.604  1.00  0.00     0.211 HD
ENDBRANCH  14  16
TORSDOF 1
ENDMDL
