MODEL 1
REMARK VINA RESULT:    -3.391      0.000      0.000
REMARK INTER + INTRA:          -3.811
REMARK INTER:                  -3.787
REMARK INTRA:                  -0.023
REMARK UNBOUND:                -0.023
REMARK SMILES CCCC(=O)[O-]
REMARK SMILES IDX 3 1 4 2 5 3 6 4 2 5 1 6
REMARK H PARENT
REMARK Flexibility Score: inf
ROOT
ATOM      1  C   UNL     1     -52.196  23.384 -37.761  1.00  0.00     0.052 C 
ENDROOT
BRANCH   1   2
ATOM      2  C   UNL     1     -53.181  22.480 -37.092  1.00  0.00     0.041 C 
ATOM      3  O   UNL     1     -53.374  22.560 -35.850  1.00  0.00    -0.550 OA
ATOM      4  O   UNL     1     -53.851  21.513 -37.831  1.00  0.00    -0.550 OA
ENDBRANCH   1   2
BRANCH   1   5
ATOM      5  C   UNL     1     -52.489  23.482 -39.260  1.00  0.00     0.003 C 
ATOM      6  C   UNL     1     -51.471  22.688 -40.074  1.00  0.00     0.004 C 
ENDBRANCH   1   5
TORSDOF 2
ENDMDL
MODEL 2
REMARK VINA RESULT:    -3.315     16.430     16.866
REMARK INTER + INTRA:          -3.726
REMARK INTER:                  -3.682
REMARK INTRA:                  -0.044
REMARK UNBOUND:                -0.023
REMARK SMILES CCCC(=O)[O-]
REMARK SMILES IDX 3 1 4 2 5 3 6 4 2 5 1 6
REMARK H PARENT
REMARK Flexibility Score: inf
ROOT
ATOM      1  C   UNL     1     -37.944  18.241 -29.748  1.00  0.00     0.052 C 
ENDROOT
BRANCH   1   2
ATOM      2  C   UNL     1     -38.193  18.237 -31.223  1.00  0.00     0.041 C 
ATOM      3  O   UNL     1     -38.032  19.290 -31.895  1.00  0.00    -0.550 OA
ATOM      4  O   UNL     1     -38.650  17.084 -31.849  1.00  0.00    -0.550 OA
ENDBRANCH   1   2
BRANCH   1   5
ATOM      5  C   UNL     1     -38.639  19.435 -29.090  1.00  0.00     0.003 C 
ATOM      6  C   UNL     1     -40.027  19.055 -28.583  1.00  0.00     0.004 C 
ENDBRANCH   1   5
TORSDOF 2
ENDMDL
MODEL 3
REMARK VINA RESULT:    -3.249     16.791     17.300
REMARK INTER + INTRA:          -3.652
REMARK INTER:                  -3.632
REMARK INTRA:                  -0.019
REMARK UNBOUND:                -0.023
REMARK SMILES CCCC(=O)[O-]
REMARK SMILES IDX 3 1 4 2 5 3 6 4 2 5 1 6
REMARK H PARENT
REMARK Flexibility Score: inf
ROOT
ATOM      1  C   UNL     1     -38.209  18.882 -30.333  1.00  0.00     0.052 C 
ENDROOT
BRANCH   1   2
ATOM      2  C   UNL     1     -37.890  17.579 -30.994  1.00  0.00     0.041 C 
ATOM      3  O   UNL     1     -38.667  17.103 -31.863  1.00  0.00    -0.550 OA
ATOM      4  O   UNL     1     -36.761  16.864 -30.615  1.00  0.00    -0.550 OA
ENDBRANCH   1   2
BRANCH   1   5
ATOM      5  C   UNL     1     -38.568  18.663 -28.861  1.00  0.00     0.003 C 
ATOM      6  C   UNL     1     -40.002  19.097 -28.573  1.00  0.00     0.004 C 
ENDBRANCH   1   5
TORSDOF 2
ENDMDL
MODEL 4
REMARK VINA RESULT:    -3.179     16.465     16.901
REMARK INTER + INTRA:          -3.574
REMARK INTER:                  -3.507
REMARK INTRA:                  -0.066
REMARK UNBOUND:                -0.023
REMARK SMILES CCCC(=O)[O-]
REMARK SMILES IDX 3 1 4 2 5 3 6 4 2 5 1 6
REMARK H PARENT
REMARK Flexibility Score: inf
ROOT
ATOM      1  C   UNL     1     -38.483  19.612 -30.077  1.00  0.00     0.052 C 
ENDROOT
BRANCH   1   2
ATOM      2  C   UNL     1     -38.959  18.954 -28.822  1.00  0.00     0.041 C 
ATOM      3  O   UNL     1     -38.143  18.360 -28.069  1.00  0.00    -0.550 OA
ATOM      4  O   UNL     1     -40.313  18.952 -28.506  1.00  0.00    -0.550 OA
ENDBRANCH   1   2
BRANCH   1   5
ATOM      5  C   UNL     1     -37.624  18.647 -30.896  1.00  0.00     0.003 C 
ATOM      6  C   UNL     1     -38.477  17.555 -31.535  1.00  0.00     0.004 C 
ENDBRANCH   1   5
TORSDOF 2
ENDMDL
MODEL 5
REMARK VINA RESULT:    -3.156     16.334     16.796
REMARK INTER + INTRA:          -3.548
REMARK INTER:                  -3.481
REMARK INTRA:                  -0.067
REMARK UNBOUND:                -0.023
REMARK SMILES CCCC(=O)[O-]
REMARK SMILES IDX 3 1 4 2 5 3 6 4 2 5 1 6
REMARK H PARENT
REMARK Flexibility Score: inf
ROOT
ATOM      1  C   UNL     1     -38.251  18.593 -28.691  1.00  0.00     0.052 C 
ENDROOT
BRANCH   1   2
ATOM      2  C   UNL     1     -39.466  19.462 -28.758  1.00  0.00     0.041 C 
ATOM      3  O   UNL     1     -40.587  19.011 -28.404  1.00  0.00    -0.550 OA
ATOM      4  O   UNL     1     -39.371  20.755 -29.258  1.00  0.00    -0.550 OA
ENDBRANCH   1   2
BRANCH   1   5
ATOM      5  C   UNL     1     -37.483  18.641 -30.014  1.00  0.00     0.003 C 
ATOM      6  C   UNL     1     -38.262  17.952 -31.130  1.00  0.00     0.004 C 
ENDBRANCH   1   5
TORSDOF 2
ENDMDL
MODEL 6
REMARK VINA RESULT:    -3.105     15.704     16.312
REMARK INTER + INTRA:          -3.492
REMARK INTER:                  -3.455
REMARK INTRA:                  -0.037
REMARK UNBOUND:                -0.023
REMARK SMILES CCCC(=O)[O-]
REMARK SMILES IDX 3 1 4 2 5 3 6 4 2 5 1 6
REMARK H PARENT
REMARK Flexibility Score: inf
ROOT
ATOM      1  C   UNL     1     -38.706  20.242 -30.005  1.00  0.00     0.052 C 
ENDROOT
BRANCH   1   2
ATOM      2  C   UNL     1     -39.258  21.580 -29.626  1.00  0.00     0.041 C 
ATOM      3  O   UNL     1     -38.626  22.323 -28.830  1.00  0.00    -0.550 OA
ATOM      4  O   UNL     1     -40.494  21.986 -30.112  1.00  0.00    -0.550 OA
ENDBRANCH   1   2
BRANCH   1   5
ATOM      5  C   UNL     1     -38.801  19.270 -28.826  1.00  0.00     0.003 C 
ATOM      6  C   UNL     1     -40.253  19.032 -28.422  1.00  0.00     0.004 C 
ENDBRANCH   1   5
TORSDOF 2
ENDMDL
MODEL 7
REMARK VINA RESULT:    -3.071     17.434     17.950
REMARK INTER + INTRA:          -3.453
REMARK INTER:                  -3.447
REMARK INTRA:                  -0.006
REMARK UNBOUND:                -0.023
REMARK SMILES CCCC(=O)[O-]
REMARK SMILES IDX 3 1 4 2 5 3 6 4 2 5 1 6
REMARK H PARENT
REMARK Flexibility Score: inf
ROOT
ATOM      1  C   UNL     1     -38.339  18.307 -30.238  1.00  0.00     0.052 C 
ENDROOT
BRANCH   1   2
ATOM      2  C   UNL     1     -37.011  17.636 -30.390  1.00  0.00     0.041 C 
ATOM      3  O   UNL     1     -36.918  16.385 -30.282  1.00  0.00    -0.550 OA
ATOM      4  O   UNL     1     -35.867  18.395 -30.603  1.00  0.00    -0.550 OA
ENDBRANCH   1   2
BRANCH   1   5
ATOM      5  C   UNL     1     -38.556  18.741 -28.786  1.00  0.00     0.003 C 
ATOM      6  C   UNL     1     -40.018  19.097 -28.530  1.00  0.00     0.004 C 
ENDBRANCH   1   5
TORSDOF 2
ENDMDL
MODEL 8
REMARK VINA RESULT:    -3.066      1.944      3.254
REMARK INTER + INTRA:          -3.448
REMARK INTER:                  -3.429
REMARK INTRA:                  -0.019
REMARK UNBOUND:                -0.023
REMARK SMILES CCCC(=O)[O-]
REMARK SMILES IDX 3 1 4 2 5 3 6 4 2 5 1 6
REMARK H PARENT
REMARK Flexibility Score: inf
ROOT
ATOM      1  C   UNL     1     -52.378  23.235 -37.901  1.00  0.00     0.052 C 
ENDROOT
BRANCH   1   2
ATOM      2  C   UNL     1     -52.336  22.695 -39.295  1.00  0.00     0.041 C 
ATOM      3  O   UNL     1     -53.359  22.159 -39.798  1.00  0.00    -0.550 OA
ATOM      4  O   UNL     1     -51.154  22.738 -40.023  1.00  0.00    -0.550 OA
ENDBRANCH   1   2
BRANCH   1   5
ATOM      5  C   UNL     1     -53.656  22.784 -37.190  1.00  0.00     0.003 C 
ATOM      6  C   UNL     1     -53.368  22.364 -35.751  1.00  0.00     0.004 C 
ENDBRANCH   1   5
TORSDOF 2
ENDMDL
MODEL 9
REMARK VINA RESULT:    -3.024     16.555     16.999
REMARK INTER + INTRA:          -3.400
REMARK INTER:                  -3.380
REMARK INTRA:                  -0.020
REMARK UNBOUND:                -0.023
REMARK SMILES CCCC(=O)[O-]
REMARK SMILES IDX 3 1 4 2 5 3 6 4 2 5 1 6
REMARK H PARENT
REMARK Flexibility Score: inf
ROOT
ATOM      1  C   UNL     1     -38.479  18.371 -30.371  1.00  0.00     0.052 C 
ENDROOT
BRANCH   1   2
ATOM      2  C   UNL     1     -38.689  18.652 -28.918  1.00  0.00     0.041 C 
ATOM      3  O   UNL     1     -37.731  18.548 -28.108  1.00  0.00    -0.550 OA
ATOM      4  O   UNL     1     -39.955  18.981 -28.448  1.00  0.00    -0.550 OA
ENDBRANCH   1   2
BRANCH   1   5
ATOM      5  C   UNL     1     -37.420  19.310 -30.952  1.00  0.00     0.003 C 
ATOM      6  C   UNL     1     -38.045  20.327 -31.903  1.00  0.00     0.004 C 
ENDBRANCH   1   5
TORSDOF 2
ENDMDL
