MODEL 1
REMARK VINA RESULT:    -4.974      0.000      0.000
REMARK INTER + INTRA:          -6.153
REMARK INTER:                  -5.847
REMARK INTRA:                  -0.306
REMARK UNBOUND:                -0.306
REMARK SMILES O=c1cc(-c2ccc(O)c(O)c2)oc2cc(O)cc(O)c12
REMARK SMILES IDX 4 1 3 2 2 3 1 4 21 5 19 6 18 7 16 8 15 9 14 10 13 11 5 12
REMARK SMILES IDX 6 13 7 14 8 15 12 16 10 17 9 18 11 20 20 22 17 24
REMARK H PARENT 9 19 11 21 20 23 17 25
REMARK Flexibility Score: inf
ROOT
ATOM      1  C   UNL     1       0.810  -0.700  -6.392  1.00  0.00     0.138 A 
ATOM      2  C   UNL     1      -0.371  -0.002  -6.102  1.00  0.00     0.100 A 
ATOM      3  C   UNL     1      -1.601  -0.655  -6.205  1.00  0.00     0.197 A 
ATOM      4  O   UNL     1      -2.638  -0.021  -5.879  1.00  0.00    -0.289 OA
ATOM      5  C   UNL     1      -1.649  -2.003  -6.633  1.00  0.00     0.107 A 
ATOM      6  C   UNL     1      -2.847  -2.757  -6.814  1.00  0.00     0.134 A 
ATOM      7  C   UNL     1      -2.765  -4.118  -7.128  1.00  0.00     0.093 A 
ATOM      8  C   UNL     1      -1.529  -4.740  -7.326  1.00  0.00     0.123 A 
ATOM      9  C   UNL     1      -0.356  -3.999  -7.204  1.00  0.00     0.094 A 
ATOM     10  C   UNL     1      -0.403  -2.647  -6.858  1.00  0.00     0.146 A 
ATOM     11  O   UNL     1       0.741  -1.982  -6.738  1.00  0.00    -0.456 OA
ENDROOT
BRANCH   1  12
ATOM     12  C   UNL     1       2.145  -0.056  -6.300  1.00  0.00     0.021 A 
ATOM     13  C   UNL     1       2.389   1.014  -5.416  1.00  0.00     0.016 A 
ATOM     14  C   UNL     1       3.653   1.608  -5.356  1.00  0.00     0.051 A 
ATOM     15  C   UNL     1       4.688   1.152  -6.181  1.00  0.00     0.157 A 
ATOM     16  C   UNL     1       3.187  -0.498  -7.135  1.00  0.00     0.062 A 
ATOM     17  C   UNL     1       4.454   0.099  -7.073  1.00  0.00     0.158 A 
BRANCH  15  18
ATOM     18  O   UNL     1       5.949   1.742  -6.124  1.00  0.00    -0.504 OA
ATOM     19  H   UNL     1       6.680   1.497  -6.783  1.00  0.00     0.293 HD
ENDBRANCH  15  18
BRANCH  17  20
ATOM     20  O   UNL     1       5.485  -0.350  -7.897  1.00  0.00    -0.504 OA
ATOM     21  H   UNL     1       6.266  -0.880  -7.528  1.00  0.00     0.293 HD
ENDBRANCH  17  20
ENDBRANCH   1  12
BRANCH   6  22
ATOM     22  O   UNL     1      -4.132  -2.213  -6.723  1.00  0.00    -0.507 OA
ATOM     23  H   UNL     1      -4.821  -2.474  -6.034  1.00  0.00     0.293 HD
ENDBRANCH   6  22
BRANCH   8  24
ATOM     24  O   UNL     1      -1.458  -6.092  -7.653  1.00  0.00    -0.508 OA
ATOM     25  H   UNL     1      -0.570  -6.573  -7.733  1.00  0.00     0.293 HD
ENDBRANCH   8  24
TORSDOF 5
ENDMDL
MODEL 2
REMARK VINA RESULT:    -4.940      2.730      7.816
REMARK INTER + INTRA:          -6.112
REMARK INTER:                  -5.809
REMARK INTRA:                  -0.303
REMARK UNBOUND:                -0.306
REMARK SMILES O=c1cc(-c2ccc(O)c(O)c2)oc2cc(O)cc(O)c12
REMARK SMILES IDX 4 1 3 2 2 3 1 4 21 5 19 6 18 7 16 8 15 9 14 10 13 11 5 12
REMARK SMILES IDX 6 13 7 14 8 15 12 16 10 17 9 18 11 20 20 22 17 24
REMARK H PARENT 9 19 11 21 20 23 17 25
REMARK Flexibility Score: inf
ROOT
ATOM      1  C   UNL     1      -0.436   0.790  -6.322  1.00  0.00     0.138 A 
ATOM      2  C   UNL     1       0.769   0.096  -6.148  1.00  0.00     0.100 A 
ATOM      3  C   UNL     1       1.982   0.775  -6.278  1.00  0.00     0.197 A 
ATOM      4  O   UNL     1       3.045   0.139  -6.055  1.00  0.00    -0.289 OA
ATOM      5  C   UNL     1       1.986   2.149  -6.618  1.00  0.00     0.107 A 
ATOM      6  C   UNL     1       3.161   2.933  -6.817  1.00  0.00     0.134 A 
ATOM      7  C   UNL     1       3.042   4.311  -7.035  1.00  0.00     0.093 A 
ATOM      8  C   UNL     1       1.788   4.922  -7.120  1.00  0.00     0.123 A 
ATOM      9  C   UNL     1       0.634   4.155  -6.979  1.00  0.00     0.094 A 
ATOM     10  C   UNL     1       0.720   2.784  -6.727  1.00  0.00     0.146 A 
ATOM     11  O   UNL     1      -0.405   2.093  -6.585  1.00  0.00    -0.456 OA
ENDROOT
BRANCH   1  12
ATOM     12  C   UNL     1      -1.754   0.118  -6.195  1.00  0.00     0.021 A 
ATOM     13  C   UNL     1      -1.956  -0.950  -5.299  1.00  0.00     0.016 A 
ATOM     14  C   UNL     1      -3.205  -1.571  -5.207  1.00  0.00     0.051 A 
ATOM     15  C   UNL     1      -4.268  -1.143  -6.012  1.00  0.00     0.157 A 
ATOM     16  C   UNL     1      -2.824   0.531  -7.010  1.00  0.00     0.062 A 
ATOM     17  C   UNL     1      -4.076  -0.092  -6.916  1.00  0.00     0.158 A 
BRANCH  15  18
ATOM     18  O   UNL     1      -5.514  -1.760  -5.922  1.00  0.00    -0.504 OA
ATOM     19  H   UNL     1      -6.328  -1.382  -6.395  1.00  0.00     0.293 HD
ENDBRANCH  15  18
BRANCH  17  20
ATOM     20  O   UNL     1      -5.134   0.328  -7.720  1.00  0.00    -0.504 OA
ATOM     21  H   UNL     1      -5.876   0.916  -7.357  1.00  0.00     0.293 HD
ENDBRANCH  17  20
ENDBRANCH   1  12
BRANCH   6  22
ATOM     22  O   UNL     1       4.457   2.407  -6.836  1.00  0.00    -0.507 OA
ATOM     23  H   UNL     1       5.257   2.828  -6.389  1.00  0.00     0.293 HD
ENDBRANCH   6  22
BRANCH   8  24
ATOM     24  O   UNL     1       1.680   6.292  -7.351  1.00  0.00    -0.508 OA
ATOM     25  H   UNL     1       2.491   6.899  -7.333  1.00  0.00     0.293 HD
ENDBRANCH   8  24
TORSDOF 5
ENDMDL
MODEL 3
REMARK VINA RESULT:    -4.795     11.200     14.537
REMARK INTER + INTRA:          -5.942
REMARK INTER:                  -5.676
REMARK INTRA:                  -0.266
REMARK UNBOUND:                -0.306
REMARK SMILES O=c1cc(-c2ccc(O)c(O)c2)oc2cc(O)cc(O)c12
REMARK SMILES IDX 4 1 3 2 2 3 1 4 21 5 19 6 18 7 16 8 15 9 14 10 13 11 5 12
REMARK SMILES IDX 6 13 7 14 8 15 12 16 10 17 9 18 11 20 20 22 17 24
REMARK H PARENT 9 19 11 21 20 23 17 25
REMARK Flexibility Score: inf
ROOT
ATOM      1  C   UNL     1      -8.655  -2.237 -16.559  1.00  0.00     0.138 A 
ATOM      2  C   UNL     1      -9.032  -0.956 -16.985  1.00  0.00     0.100 A 
ATOM      3  C   UNL     1      -8.692   0.156 -16.213  1.00  0.00     0.197 A 
ATOM      4  O   UNL     1      -8.989   1.297 -16.652  1.00  0.00    -0.289 OA
ATOM      5  C   UNL     1      -8.000  -0.021 -14.991  1.00  0.00     0.107 A 
ATOM      6  C   UNL     1      -7.636   1.034 -14.103  1.00  0.00     0.134 A 
ATOM      7  C   UNL     1      -6.850   0.751 -12.980  1.00  0.00     0.093 A 
ATOM      8  C   UNL     1      -6.464  -0.558 -12.681  1.00  0.00     0.123 A 
ATOM      9  C   UNL     1      -6.859  -1.602 -13.514  1.00  0.00     0.094 A 
ATOM     10  C   UNL     1      -7.614  -1.348 -14.661  1.00  0.00     0.146 A 
ATOM     11  O   UNL     1      -7.957  -2.371 -15.436  1.00  0.00    -0.456 OA
ENDROOT
BRANCH   1  12
ATOM     12  C   UNL     1      -8.991  -3.455 -17.341  1.00  0.00     0.021 A 
ATOM     13  C   UNL     1      -9.716  -4.521 -16.773  1.00  0.00     0.016 A 
ATOM     14  C   UNL     1     -10.011  -5.659 -17.530  1.00  0.00     0.051 A 
ATOM     15  C   UNL     1      -9.581  -5.755 -18.858  1.00  0.00     0.157 A 
ATOM     16  C   UNL     1      -8.551  -3.566 -18.672  1.00  0.00     0.062 A 
ATOM     17  C   UNL     1      -8.848  -4.708 -19.430  1.00  0.00     0.158 A 
BRANCH  15  18
ATOM     18  O   UNL     1      -9.873  -6.889 -19.615  1.00  0.00    -0.504 OA
ATOM     19  H   UNL     1     -10.644  -6.902 -20.272  1.00  0.00     0.293 HD
ENDBRANCH  15  18
BRANCH  17  20
ATOM     20  O   UNL     1      -8.417  -4.809 -20.751  1.00  0.00    -0.504 OA
ATOM     21  H   UNL     1      -7.887  -5.608 -21.078  1.00  0.00     0.293 HD
ENDBRANCH  17  20
ENDBRANCH   1  12
BRANCH   6  22
ATOM     22  O   UNL     1      -8.042   2.364 -14.263  1.00  0.00    -0.507 OA
ATOM     23  H   UNL     1      -7.433   3.165 -14.190  1.00  0.00     0.293 HD
ENDBRANCH   6  22
BRANCH   8  24
ATOM     24  O   UNL     1      -5.694  -0.832 -11.553  1.00  0.00    -0.508 OA
ATOM     25  H   UNL     1      -5.275  -1.743 -11.404  1.00  0.00     0.293 HD
ENDBRANCH   8  24
TORSDOF 5
ENDMDL
MODEL 4
REMARK VINA RESULT:    -4.723      3.051      3.507
REMARK INTER + INTRA:          -5.857
REMARK INTER:                  -5.591
REMARK INTRA:                  -0.266
REMARK UNBOUND:                -0.306
REMARK SMILES O=c1cc(-c2ccc(O)c(O)c2)oc2cc(O)cc(O)c12
REMARK SMILES IDX 4 1 3 2 2 3 1 4 21 5 19 6 18 7 16 8 15 9 14 10 13 11 5 12
REMARK SMILES IDX 6 13 7 14 8 15 12 16 10 17 9 18 11 20 20 22 17 24
REMARK H PARENT 9 19 11 21 20 23 17 25
REMARK Flexibility Score: inf
ROOT
ATOM      1  C   UNL     1      -0.932   0.826  -7.168  1.00  0.00     0.138 A 
ATOM      2  C   UNL     1      -2.329   0.814  -7.285  1.00  0.00     0.100 A 
ATOM      3  C   UNL     1      -3.026  -0.381  -7.101  1.00  0.00     0.197 A 
ATOM      4  O   UNL     1      -4.283  -0.349  -7.151  1.00  0.00    -0.289 OA
ATOM      5  C   UNL     1      -2.316  -1.576  -6.832  1.00  0.00     0.107 A 
ATOM      6  C   UNL     1      -2.917  -2.859  -6.667  1.00  0.00     0.134 A 
ATOM      7  C   UNL     1      -2.124  -3.949  -6.288  1.00  0.00     0.093 A 
ATOM      8  C   UNL     1      -0.743  -3.814  -6.126  1.00  0.00     0.123 A 
ATOM      9  C   UNL     1      -0.139  -2.577  -6.337  1.00  0.00     0.094 A 
ATOM     10  C   UNL     1      -0.908  -1.462  -6.682  1.00  0.00     0.146 A 
ATOM     11  O   UNL     1      -0.294  -0.298  -6.860  1.00  0.00    -0.456 OA
ENDROOT
BRANCH   1  12
ATOM     12  C   UNL     1      -0.140   2.069  -7.354  1.00  0.00     0.021 A 
ATOM     13  C   UNL     1       0.636   2.285  -8.509  1.00  0.00     0.016 A 
ATOM     14  C   UNL     1       1.379   3.461  -8.654  1.00  0.00     0.051 A 
ATOM     15  C   UNL     1       1.366   4.433  -7.648  1.00  0.00     0.157 A 
ATOM     16  C   UNL     1      -0.137   3.046  -6.342  1.00  0.00     0.062 A 
ATOM     17  C   UNL     1       0.608   4.225  -6.489  1.00  0.00     0.158 A 
BRANCH  15  18
ATOM     18  O   UNL     1       2.105   5.606  -7.789  1.00  0.00    -0.504 OA
ATOM     19  H   UNL     1       1.717   6.426  -8.241  1.00  0.00     0.293 HD
ENDBRANCH  15  18
BRANCH  17  20
ATOM     20  O   UNL     1       0.601   5.193  -5.486  1.00  0.00    -0.504 OA
ATOM     21  H   UNL     1       0.466   4.948  -4.512  1.00  0.00     0.293 HD
ENDBRANCH  17  20
ENDBRANCH   1  12
BRANCH   6  22
ATOM     22  O   UNL     1      -4.273  -3.120  -6.888  1.00  0.00    -0.507 OA
ATOM     23  H   UNL     1      -4.630  -3.838  -7.500  1.00  0.00     0.293 HD
ENDBRANCH   6  22
BRANCH   8  24
ATOM     24  O   UNL     1       0.040  -4.908  -5.763  1.00  0.00    -0.508 OA
ATOM     25  H   UNL     1       0.941  -4.791  -5.315  1.00  0.00     0.293 HD
ENDBRANCH   8  24
TORSDOF 5
ENDMDL
MODEL 5
REMARK VINA RESULT:    -4.674      2.646      3.271
REMARK INTER + INTRA:          -5.800
REMARK INTER:                  -5.531
REMARK INTRA:                  -0.269
REMARK UNBOUND:                -0.306
REMARK SMILES O=c1cc(-c2ccc(O)c(O)c2)oc2cc(O)cc(O)c12
REMARK SMILES IDX 4 1 3 2 2 3 1 4 21 5 19 6 18 7 16 8 15 9 14 10 13 11 5 12
REMARK SMILES IDX 6 13 7 14 8 15 12 16 10 17 9 18 11 20 20 22 17 24
REMARK H PARENT 9 19 11 21 20 23 17 25
REMARK Flexibility Score: inf
ROOT
ATOM      1  C   UNL     1      -1.807  -0.764  -6.135  1.00  0.00     0.138 A 
ATOM      2  C   UNL     1      -3.196  -0.631  -5.997  1.00  0.00     0.100 A 
ATOM      3  C   UNL     1      -4.015  -1.749  -6.163  1.00  0.00     0.197 A 
ATOM      4  O   UNL     1      -5.251  -1.612  -5.973  1.00  0.00    -0.289 OA
ATOM      5  C   UNL     1      -3.441  -2.998  -6.501  1.00  0.00     0.107 A 
ATOM      6  C   UNL     1      -4.181  -4.196  -6.734  1.00  0.00     0.134 A 
ATOM      7  C   UNL     1      -3.498  -5.399  -6.946  1.00  0.00     0.093 A 
ATOM      8  C   UNL     1      -2.102  -5.436  -6.993  1.00  0.00     0.123 A 
ATOM      9  C   UNL     1      -1.372  -4.263  -6.820  1.00  0.00     0.094 A 
ATOM     10  C   UNL     1      -2.024  -3.052  -6.571  1.00  0.00     0.146 A 
ATOM     11  O   UNL     1      -1.289  -1.960  -6.397  1.00  0.00    -0.456 OA
ENDROOT
BRANCH   1  12
ATOM     12  C   UNL     1      -0.888   0.392  -5.970  1.00  0.00     0.021 A 
ATOM     13  C   UNL     1       0.171   0.367  -5.041  1.00  0.00     0.016 A 
ATOM     14  C   UNL     1       1.015   1.473  -4.900  1.00  0.00     0.051 A 
ATOM     15  C   UNL     1       0.811   2.621  -5.675  1.00  0.00     0.157 A 
ATOM     16  C   UNL     1      -1.093   1.554  -6.735  1.00  0.00     0.062 A 
ATOM     17  C   UNL     1      -0.246   2.662  -6.592  1.00  0.00     0.158 A 
BRANCH  15  18
ATOM     18  O   UNL     1       1.651   3.725  -5.537  1.00  0.00    -0.504 OA
ATOM     19  H   UNL     1       1.344   4.568  -5.066  1.00  0.00     0.293 HD
ENDBRANCH  15  18
BRANCH  17  20
ATOM     20  O   UNL     1      -0.449   3.808  -7.359  1.00  0.00    -0.504 OA
ATOM     21  H   UNL     1      -1.049   4.560  -7.042  1.00  0.00     0.293 HD
ENDBRANCH  17  20
ENDBRANCH   1  12
BRANCH   6  22
ATOM     22  O   UNL     1      -5.578  -4.252  -6.793  1.00  0.00    -0.507 OA
ATOM     23  H   UNL     1      -6.192  -4.187  -5.995  1.00  0.00     0.293 HD
ENDBRANCH   6  22
BRANCH   8  24
ATOM     24  O   UNL     1      -1.431  -6.636  -7.220  1.00  0.00    -0.508 OA
ATOM     25  H   UNL     1      -1.064  -7.191  -6.456  1.00  0.00     0.293 HD
ENDBRANCH   8  24
TORSDOF 5
ENDMDL
MODEL 6
REMARK VINA RESULT:    -4.667      2.788      7.418
REMARK INTER + INTRA:          -5.792
REMARK INTER:                  -5.500
REMARK INTRA:                  -0.291
REMARK UNBOUND:                -0.306
REMARK SMILES O=c1cc(-c2ccc(O)c(O)c2)oc2cc(O)cc(O)c12
REMARK SMILES IDX 4 1 3 2 2 3 1 4 21 5 19 6 18 7 16 8 15 9 14 10 13 11 5 12
REMARK SMILES IDX 6 13 7 14 8 15 12 16 10 17 9 18 11 20 20 22 17 24
REMARK H PARENT 9 19 11 21 20 23 17 25
REMARK Flexibility Score: inf
ROOT
ATOM      1  C   UNL     1       0.508   1.788  -6.252  1.00  0.00     0.138 A 
ATOM      2  C   UNL     1       0.706   3.173  -6.350  1.00  0.00     0.100 A 
ATOM      3  C   UNL     1       1.970   3.708  -6.099  1.00  0.00     0.197 A 
ATOM      4  O   UNL     1       2.132   4.946  -6.254  1.00  0.00    -0.289 OA
ATOM      5  C   UNL     1       3.033   2.855  -5.715  1.00  0.00     0.107 A 
ATOM      6  C   UNL     1       4.352   3.293  -5.395  1.00  0.00     0.134 A 
ATOM      7  C   UNL     1       5.352   2.346  -5.143  1.00  0.00     0.093 A 
ATOM      8  C   UNL     1       5.065   0.978  -5.141  1.00  0.00     0.123 A 
ATOM      9  C   UNL     1       3.768   0.543  -5.401  1.00  0.00     0.094 A 
ATOM     10  C   UNL     1       2.756   1.462  -5.690  1.00  0.00     0.146 A 
ATOM     11  O   UNL     1       1.536   1.003  -5.945  1.00  0.00    -0.456 OA
ENDROOT
BRANCH   1  12
ATOM     12  C   UNL     1      -0.816   1.165  -6.508  1.00  0.00     0.021 A 
ATOM     13  C   UNL     1      -1.603   1.533  -7.616  1.00  0.00     0.016 A 
ATOM     14  C   UNL     1      -2.850   0.937  -7.828  1.00  0.00     0.051 A 
ATOM     15  C   UNL     1      -3.333  -0.027  -6.935  1.00  0.00     0.157 A 
ATOM     16  C   UNL     1      -1.315   0.206  -5.609  1.00  0.00     0.062 A 
ATOM     17  C   UNL     1      -2.565  -0.392  -5.823  1.00  0.00     0.158 A 
BRANCH  15  18
ATOM     18  O   UNL     1      -4.575  -0.624  -7.143  1.00  0.00    -0.504 OA
ATOM     19  H   UNL     1      -4.783  -1.552  -6.793  1.00  0.00     0.293 HD
ENDBRANCH  15  18
BRANCH  17  20
ATOM     20  O   UNL     1      -3.050  -1.348  -4.933  1.00  0.00    -0.504 OA
ATOM     21  H   UNL     1      -2.772  -1.357  -3.959  1.00  0.00     0.293 HD
ENDBRANCH  17  20
ENDBRANCH   1  12
BRANCH   6  22
ATOM     22  O   UNL     1       4.724   4.637  -5.287  1.00  0.00    -0.507 OA
ATOM     23  H   UNL     1       4.564   5.339  -5.993  1.00  0.00     0.293 HD
ENDBRANCH   6  22
BRANCH   8  24
ATOM     24  O   UNL     1       6.064   0.044  -4.875  1.00  0.00    -0.508 OA
ATOM     25  H   UNL     1       6.713  -0.258  -5.592  1.00  0.00     0.293 HD
ENDBRANCH   8  24
TORSDOF 5
ENDMDL
MODEL 7
REMARK VINA RESULT:    -4.651      3.596      5.807
REMARK INTER + INTRA:          -5.772
REMARK INTER:                  -5.454
REMARK INTRA:                  -0.318
REMARK UNBOUND:                -0.306
REMARK SMILES O=c1cc(-c2ccc(O)c(O)c2)oc2cc(O)cc(O)c12
REMARK SMILES IDX 4 1 3 2 2 3 1 4 21 5 19 6 18 7 16 8 15 9 14 10 13 11 5 12
REMARK SMILES IDX 6 13 7 14 8 15 12 16 10 17 9 18 11 20 20 22 17 24
REMARK H PARENT 9 19 11 21 20 23 17 25
REMARK Flexibility Score: inf
ROOT
ATOM      1  C   UNL     1       4.146   3.839  -5.772  1.00  0.00     0.138 A 
ATOM      2  C   UNL     1       2.864   4.175  -5.316  1.00  0.00     0.100 A 
ATOM      3  C   UNL     1       1.812   3.275  -5.490  1.00  0.00     0.197 A 
ATOM      4  O   UNL     1       0.686   3.578  -5.016  1.00  0.00    -0.289 OA
ATOM      5  C   UNL     1       2.040   2.046  -6.155  1.00  0.00     0.107 A 
ATOM      6  C   UNL     1       1.035   1.070  -6.425  1.00  0.00     0.134 A 
ATOM      7  C   UNL     1       1.401  -0.160  -6.984  1.00  0.00     0.093 A 
ATOM      8  C   UNL     1       2.727  -0.426  -7.338  1.00  0.00     0.123 A 
ATOM      9  C   UNL     1       3.706   0.542  -7.127  1.00  0.00     0.094 A 
ATOM     10  C   UNL     1       3.378   1.766  -6.539  1.00  0.00     0.146 A 
ATOM     11  O   UNL     1       4.346   2.655  -6.342  1.00  0.00    -0.456 OA
ENDROOT
BRANCH   1  12
ATOM     12  C   UNL     1       5.302   4.759  -5.613  1.00  0.00     0.021 A 
ATOM     13  C   UNL     1       5.162   6.022  -5.006  1.00  0.00     0.016 A 
ATOM     14  C   UNL     1       6.265   6.872  -4.878  1.00  0.00     0.051 A 
ATOM     15  C   UNL     1       7.519   6.479  -5.359  1.00  0.00     0.157 A 
ATOM     16  C   UNL     1       6.563   4.378  -6.106  1.00  0.00     0.062 A 
ATOM     17  C   UNL     1       7.668   5.231  -5.976  1.00  0.00     0.158 A 
BRANCH  15  18
ATOM     18  O   UNL     1       8.621   7.324  -5.233  1.00  0.00    -0.504 OA
ATOM     19  H   UNL     1       8.525   8.272  -4.888  1.00  0.00     0.293 HD
ENDBRANCH  15  18
BRANCH  17  20
ATOM     20  O   UNL     1       8.917   4.845  -6.458  1.00  0.00    -0.504 OA
ATOM     21  H   UNL     1       9.671   4.586  -5.833  1.00  0.00     0.293 HD
ENDBRANCH  17  20
ENDBRANCH   1  12
BRANCH   6  22
ATOM     22  O   UNL     1      -0.329   1.267  -6.189  1.00  0.00    -0.507 OA
ATOM     23  H   UNL     1      -0.762   2.163  -6.022  1.00  0.00     0.293 HD
ENDBRANCH   6  22
BRANCH   8  24
ATOM     24  O   UNL     1       3.078  -1.648  -7.908  1.00  0.00    -0.508 OA
ATOM     25  H   UNL     1       2.763  -1.912  -8.834  1.00  0.00     0.293 HD
ENDBRANCH   8  24
TORSDOF 5
ENDMDL
MODEL 8
REMARK VINA RESULT:    -4.605     11.084     14.632
REMARK INTER + INTRA:          -5.719
REMARK INTER:                  -5.427
REMARK INTRA:                  -0.292
REMARK UNBOUND:                -0.306
REMARK SMILES O=c1cc(-c2ccc(O)c(O)c2)oc2cc(O)cc(O)c12
REMARK SMILES IDX 4 1 3 2 2 3 1 4 21 5 19 6 18 7 16 8 15 9 14 10 13 11 5 12
REMARK SMILES IDX 6 13 7 14 8 15 12 16 10 17 9 18 11 20 20 22 17 24
REMARK H PARENT 9 19 11 21 20 23 17 25
REMARK Flexibility Score: inf
ROOT
ATOM      1  C   UNL     1      -8.081  -3.330 -16.479  1.00  0.00     0.138 A 
ATOM      2  C   UNL     1      -7.555  -4.027 -15.382  1.00  0.00     0.100 A 
ATOM      3  C   UNL     1      -7.174  -3.326 -14.238  1.00  0.00     0.197 A 
ATOM      4  O   UNL     1      -6.763  -3.984 -13.247  1.00  0.00    -0.289 OA
ATOM      5  C   UNL     1      -7.290  -1.915 -14.205  1.00  0.00     0.107 A 
ATOM      6  C   UNL     1      -6.896  -1.092 -13.109  1.00  0.00     0.134 A 
ATOM      7  C   UNL     1      -7.167   0.281 -13.144  1.00  0.00     0.093 A 
ATOM      8  C   UNL     1      -7.764   0.870 -14.262  1.00  0.00     0.123 A 
ATOM      9  C   UNL     1      -8.104   0.082 -15.359  1.00  0.00     0.094 A 
ATOM     10  C   UNL     1      -7.878  -1.296 -15.340  1.00  0.00     0.146 A 
ATOM     11  O   UNL     1      -8.231  -2.012 -16.402  1.00  0.00    -0.456 OA
ENDROOT
BRANCH   1  12
ATOM     12  C   UNL     1      -8.501  -4.026 -17.722  1.00  0.00     0.021 A 
ATOM     13  C   UNL     1      -8.759  -3.320 -18.913  1.00  0.00     0.016 A 
ATOM     14  C   UNL     1      -9.163  -3.999 -20.067  1.00  0.00     0.051 A 
ATOM     15  C   UNL     1      -9.323  -5.390 -20.048  1.00  0.00     0.157 A 
ATOM     16  C   UNL     1      -8.678  -5.421 -17.709  1.00  0.00     0.062 A 
ATOM     17  C   UNL     1      -9.083  -6.102 -18.867  1.00  0.00     0.158 A 
BRANCH  15  18
ATOM     18  O   UNL     1      -9.725  -6.070 -21.196  1.00  0.00    -0.504 OA
ATOM     19  H   UNL     1      -9.698  -7.082 -21.248  1.00  0.00     0.293 HD
ENDBRANCH  15  18
BRANCH  17  20
ATOM     20  O   UNL     1      -9.247  -7.485 -18.849  1.00  0.00    -0.504 OA
ATOM     21  H   UNL     1     -10.158  -7.910 -18.724  1.00  0.00     0.293 HD
ENDBRANCH  17  20
ENDBRANCH   1  12
BRANCH   6  22
ATOM     22  O   UNL     1      -6.217  -1.566 -11.981  1.00  0.00    -0.507 OA
ATOM     23  H   UNL     1      -6.435  -1.316 -11.029  1.00  0.00     0.293 HD
ENDBRANCH   6  22
BRANCH   8  24
ATOM     24  O   UNL     1      -8.017   2.239 -14.293  1.00  0.00    -0.508 OA
ATOM     25  H   UNL     1      -7.561   2.848 -14.963  1.00  0.00     0.293 HD
ENDBRANCH   8  24
TORSDOF 5
ENDMDL
MODEL 9
REMARK VINA RESULT:    -4.559      2.568      4.072
REMARK INTER + INTRA:          -5.665
REMARK INTER:                  -5.357
REMARK INTRA:                  -0.308
REMARK UNBOUND:                -0.306
REMARK SMILES O=c1cc(-c2ccc(O)c(O)c2)oc2cc(O)cc(O)c12
REMARK SMILES IDX 4 1 3 2 2 3 1 4 21 5 19 6 18 7 16 8 15 9 14 10 13 11 5 12
REMARK SMILES IDX 6 13 7 14 8 15 12 16 10 17 9 18 11 20 20 22 17 24
REMARK H PARENT 9 19 11 21 20 23 17 25
REMARK Flexibility Score: inf
ROOT
ATOM      1  C   UNL     1      -1.120  -0.326  -5.613  1.00  0.00     0.138 A 
ATOM      2  C   UNL     1      -0.787  -1.686  -5.545  1.00  0.00     0.100 A 
ATOM      3  C   UNL     1      -1.800  -2.641  -5.452  1.00  0.00     0.197 A 
ATOM      4  O   UNL     1      -1.473  -3.856  -5.455  1.00  0.00    -0.289 OA
ATOM      5  C   UNL     1      -3.153  -2.228  -5.394  1.00  0.00     0.107 A 
ATOM      6  C   UNL     1      -4.267  -3.110  -5.259  1.00  0.00     0.134 A 
ATOM      7  C   UNL     1      -5.567  -2.595  -5.330  1.00  0.00     0.093 A 
ATOM      8  C   UNL     1      -5.793  -1.224  -5.473  1.00  0.00     0.123 A 
ATOM      9  C   UNL     1      -4.712  -0.350  -5.553  1.00  0.00     0.094 A 
ATOM     10  C   UNL     1      -3.402  -0.835  -5.519  1.00  0.00     0.146 A 
ATOM     11  O   UNL     1      -2.401   0.032  -5.613  1.00  0.00    -0.456 OA
ENDROOT
BRANCH   1  12
ATOM     12  C   UNL     1      -0.083   0.732  -5.711  1.00  0.00     0.021 A 
ATOM     13  C   UNL     1       1.200   0.563  -5.155  1.00  0.00     0.016 A 
ATOM     14  C   UNL     1       2.155   1.580  -5.255  1.00  0.00     0.051 A 
ATOM     15  C   UNL     1       1.843   2.782  -5.901  1.00  0.00     0.157 A 
ATOM     16  C   UNL     1      -0.392   1.948  -6.347  1.00  0.00     0.062 A 
ATOM     17  C   UNL     1       0.567   2.967  -6.446  1.00  0.00     0.158 A 
BRANCH  15  18
ATOM     18  O   UNL     1       2.792   3.797  -6.002  1.00  0.00    -0.504 OA
ATOM     19  H   UNL     1       3.704   3.631  -6.412  1.00  0.00     0.293 HD
ENDBRANCH  15  18
BRANCH  17  20
ATOM     20  O   UNL     1       0.257   4.166  -7.086  1.00  0.00    -0.504 OA
ATOM     21  H   UNL     1      -0.555   4.713  -6.825  1.00  0.00     0.293 HD
ENDBRANCH  17  20
ENDBRANCH   1  12
BRANCH   6  22
ATOM     22  O   UNL     1      -4.150  -4.485  -5.028  1.00  0.00    -0.507 OA
ATOM     23  H   UNL     1      -4.084  -4.913  -4.117  1.00  0.00     0.293 HD
ENDBRANCH   6  22
BRANCH   8  24
ATOM     24  O   UNL     1      -7.091  -0.720  -5.529  1.00  0.00    -0.508 OA
ATOM     25  H   UNL     1      -7.277   0.235  -5.809  1.00  0.00     0.293 HD
ENDBRANCH   8  24
TORSDOF 5
ENDMDL
