MODEL 1
REMARK VINA RESULT:    -5.037      0.000      0.000
REMARK INTER + INTRA:          -6.913
REMARK INTER:                  -6.362
REMARK INTRA:                  -0.551
REMARK UNBOUND:                -0.551
REMARK SMILES Oc1ccc(CCc2cc(O)cc(O)c2)cc1
REMARK SMILES IDX 6 1 5 2 4 3 3 4 2 5 16 6 17 7 1 8 7 10 8 11 15 12 9 13 13 14
REMARK SMILES IDX 10 15 12 16 14 17 11 19
REMARK H PARENT 1 9 14 18 11 20
REMARK Flexibility Score: inf
ROOT
ATOM      1  C   UNL     1      -5.147  90.563 -12.645  1.00  0.00     0.040 C 
ENDROOT
BRANCH   1   2
ATOM      2  C   UNL     1      -4.742  90.597 -14.098  1.00  0.00    -0.047 A 
ATOM      3  C   UNL     1      -3.454  91.016 -14.467  1.00  0.00     0.007 A 
ATOM      4  C   UNL     1      -3.097  91.094 -15.816  1.00  0.00     0.046 A 
ATOM      5  C   UNL     1      -4.022  90.758 -16.809  1.00  0.00     0.115 A 
ATOM      6  C   UNL     1      -5.671  90.269 -15.098  1.00  0.00     0.007 A 
ATOM      7  C   UNL     1      -5.312  90.344 -16.447  1.00  0.00     0.046 A 
BRANCH   5   8
ATOM      8  O   UNL     1      -3.653  90.840 -18.150  1.00  0.00    -0.508 OA
ATOM      9  H   UNL     1      -3.826  90.078 -18.794  1.00  0.00     0.293 HD
ENDBRANCH   5   8
ENDBRANCH   1   2
BRANCH   1  10
ATOM     10  C   UNL     1      -5.877  91.846 -12.228  1.00  0.00     0.040 C 
BRANCH  10  11
ATOM     11  C   UNL     1      -5.039  92.690 -11.301  1.00  0.00    -0.040 A 
ATOM     12  C   UNL     1      -5.257  92.650  -9.914  1.00  0.00     0.050 A 
ATOM     13  C   UNL     1      -4.077  93.568 -11.822  1.00  0.00     0.050 A 
ATOM     14  C   UNL     1      -4.515  93.469  -9.057  1.00  0.00     0.119 A 
ATOM     15  C   UNL     1      -3.330  94.389 -10.965  1.00  0.00     0.119 A 
ATOM     16  C   UNL     1      -3.549  94.337  -9.586  1.00  0.00     0.092 A 
BRANCH  14  17
ATOM     17  O   UNL     1      -4.747  93.417  -7.685  1.00  0.00    -0.508 OA
ATOM     18  H   UNL     1      -5.668  93.221  -7.310  1.00  0.00     0.293 HD
ENDBRANCH  14  17
BRANCH  15  19
ATOM     19  O   UNL     1      -2.371  95.261 -11.476  1.00  0.00    -0.508 OA
ATOM     20  H   UNL     1      -1.628  95.631 -10.895  1.00  0.00     0.293 HD
ENDBRANCH  15  19
ENDBRANCH  10  11
ENDBRANCH   1  10
TORSDOF 6
ENDMDL
MODEL 2
REMARK VINA RESULT:    -4.996      0.116      2.038
REMARK INTER + INTRA:          -6.861
REMARK INTER:                  -6.308
REMARK INTRA:                  -0.553
REMARK UNBOUND:                -0.551
REMARK SMILES Oc1ccc(CCc2cc(O)cc(O)c2)cc1
REMARK SMILES IDX 6 1 5 2 4 3 3 4 2 5 16 6 17 7 1 8 7 10 8 11 15 12 9 13 13 14
REMARK SMILES IDX 10 15 12 16 14 17 11 19
REMARK H PARENT 1 9 14 18 11 20
REMARK Flexibility Score: inf
ROOT
ATOM      1  C   UNL     1      -5.251  90.662 -12.597  1.00  0.00     0.040 C 
ENDROOT
BRANCH   1   2
ATOM      2  C   UNL     1      -4.807  90.649 -14.038  1.00  0.00    -0.047 A 
ATOM      3  C   UNL     1      -3.513  91.069 -14.386  1.00  0.00     0.007 A 
ATOM      4  C   UNL     1      -3.119  91.103 -15.727  1.00  0.00     0.046 A 
ATOM      5  C   UNL     1      -4.013  90.722 -16.733  1.00  0.00     0.115 A 
ATOM      6  C   UNL     1      -5.704  90.275 -15.051  1.00  0.00     0.007 A 
ATOM      7  C   UNL     1      -5.308  90.307 -16.392  1.00  0.00     0.046 A 
BRANCH   5   8
ATOM      8  O   UNL     1      -3.608  90.761 -18.065  1.00  0.00    -0.508 OA
ATOM      9  H   UNL     1      -3.105  89.990 -18.488  1.00  0.00     0.293 HD
ENDBRANCH   5   8
ENDBRANCH   1   2
BRANCH   1  10
ATOM     10  C   UNL     1      -5.989  91.959 -12.241  1.00  0.00     0.040 C 
BRANCH  10  11
ATOM     11  C   UNL     1      -5.177  92.826 -11.312  1.00  0.00    -0.040 A 
ATOM     12  C   UNL     1      -4.153  93.644 -11.818  1.00  0.00     0.050 A 
ATOM     13  C   UNL     1      -5.396  92.775  -9.927  1.00  0.00     0.050 A 
ATOM     14  C   UNL     1      -3.367  94.411 -10.953  1.00  0.00     0.119 A 
ATOM     15  C   UNL     1      -4.610  93.545  -9.057  1.00  0.00     0.119 A 
ATOM     16  C   UNL     1      -3.599  94.361  -9.571  1.00  0.00     0.092 A 
BRANCH  14  17
ATOM     17  O   UNL     1      -2.355  95.214 -11.474  1.00  0.00    -0.508 OA
ATOM     18  H   UNL     1      -2.121  95.199 -12.460  1.00  0.00     0.293 HD
ENDBRANCH  14  17
BRANCH  15  19
ATOM     19  O   UNL     1      -4.825  93.501  -7.681  1.00  0.00    -0.508 OA
ATOM     20  H   UNL     1      -5.658  93.079  -7.288  1.00  0.00     0.293 HD
ENDBRANCH  15  19
ENDBRANCH  10  11
ENDBRANCH   1  10
TORSDOF 6
ENDMDL
MODEL 3
REMARK VINA RESULT:    -4.867     10.307     11.773
REMARK INTER + INTRA:          -6.699
REMARK INTER:                  -6.199
REMARK INTRA:                  -0.499
REMARK UNBOUND:                -0.551
REMARK SMILES Oc1ccc(CCc2cc(O)cc(O)c2)cc1
REMARK SMILES IDX 6 1 5 2 4 3 3 4 2 5 16 6 17 7 1 8 7 10 8 11 15 12 9 13 13 14
REMARK SMILES IDX 10 15 12 16 14 17 11 19
REMARK H PARENT 1 9 14 18 11 20
REMARK Flexibility Score: inf
ROOT
ATOM      1  C   UNL     1      -6.945  83.530  -6.368  1.00  0.00     0.040 C 
ENDROOT
BRANCH   1   2
ATOM      2  C   UNL     1      -7.977  83.044  -7.354  1.00  0.00    -0.047 A 
ATOM      3  C   UNL     1      -8.893  82.044  -6.989  1.00  0.00     0.007 A 
ATOM      4  C   UNL     1      -9.817  81.560  -7.920  1.00  0.00     0.046 A 
ATOM      5  C   UNL     1      -9.833  82.066  -9.224  1.00  0.00     0.115 A 
ATOM      6  C   UNL     1      -7.991  83.544  -8.666  1.00  0.00     0.007 A 
ATOM      7  C   UNL     1      -8.917  83.061  -9.595  1.00  0.00     0.046 A 
BRANCH   5   8
ATOM      8  O   UNL     1     -10.758  81.574 -10.141  1.00  0.00    -0.508 OA
ATOM      9  H   UNL     1     -11.752  81.730 -10.025  1.00  0.00     0.293 HD
ENDBRANCH   5   8
ENDBRANCH   1   2
BRANCH   1  10
ATOM     10  C   UNL     1      -5.784  84.249  -7.066  1.00  0.00     0.040 C 
BRANCH  10  11
ATOM     11  C   UNL     1      -4.757  83.277  -7.588  1.00  0.00    -0.040 A 
ATOM     12  C   UNL     1      -3.972  82.527  -6.696  1.00  0.00     0.050 A 
ATOM     13  C   UNL     1      -4.533  83.159  -8.968  1.00  0.00     0.050 A 
ATOM     14  C   UNL     1      -2.985  81.662  -7.177  1.00  0.00     0.119 A 
ATOM     15  C   UNL     1      -3.545  82.290  -9.454  1.00  0.00     0.119 A 
ATOM     16  C   UNL     1      -2.775  81.543  -8.558  1.00  0.00     0.092 A 
BRANCH  14  17
ATOM     17  O   UNL     1      -2.215  80.929  -6.277  1.00  0.00    -0.508 OA
ATOM     18  H   UNL     1      -1.404  80.402  -6.580  1.00  0.00     0.293 HD
ENDBRANCH  14  17
BRANCH  15  19
ATOM     19  O   UNL     1      -3.320  82.166 -10.823  1.00  0.00    -0.508 OA
ATOM     20  H   UNL     1      -3.005  81.294 -11.232  1.00  0.00     0.293 HD
ENDBRANCH  15  19
ENDBRANCH  10  11
ENDBRANCH   1  10
TORSDOF 6
ENDMDL
MODEL 4
REMARK VINA RESULT:    -4.859      4.344      6.320
REMARK INTER + INTRA:          -6.688
REMARK INTER:                  -6.139
REMARK INTRA:                  -0.549
REMARK UNBOUND:                -0.551
REMARK SMILES Oc1ccc(CCc2cc(O)cc(O)c2)cc1
REMARK SMILES IDX 6 1 5 2 4 3 3 4 2 5 16 6 17 7 1 8 7 10 8 11 15 12 9 13 13 14
REMARK SMILES IDX 10 15 12 16 14 17 11 19
REMARK H PARENT 1 9 14 18 11 20
REMARK Flexibility Score: inf
ROOT
ATOM      1  C   UNL     1      -7.864  89.641 -11.642  1.00  0.00     0.040 C 
ENDROOT
BRANCH   1   2
ATOM      2  C   UNL     1      -9.244  89.442 -12.216  1.00  0.00    -0.047 A 
ATOM      3  C   UNL     1      -9.468  89.591 -13.594  1.00  0.00     0.007 A 
ATOM      4  C   UNL     1     -10.757  89.455 -14.117  1.00  0.00     0.046 A 
ATOM      5  C   UNL     1     -11.834  89.172 -13.271  1.00  0.00     0.115 A 
ATOM      6  C   UNL     1     -10.328  89.166 -11.368  1.00  0.00     0.007 A 
ATOM      7  C   UNL     1     -11.617  89.027 -11.893  1.00  0.00     0.046 A 
BRANCH   5   8
ATOM      8  O   UNL     1     -13.113  89.039 -13.806  1.00  0.00    -0.508 OA
ATOM      9  H   UNL     1     -13.930  89.387 -13.317  1.00  0.00     0.293 HD
ENDBRANCH   5   8
ENDBRANCH   1   2
BRANCH   1  10
ATOM     10  C   UNL     1      -6.822  88.763 -12.347  1.00  0.00     0.040 C 
BRANCH  10  11
ATOM     11  C   UNL     1      -5.875  89.584 -13.186  1.00  0.00    -0.040 A 
ATOM     12  C   UNL     1      -5.142  90.634 -12.608  1.00  0.00     0.050 A 
ATOM     13  C   UNL     1      -5.767  89.345 -14.565  1.00  0.00     0.050 A 
ATOM     14  C   UNL     1      -4.302  91.427 -13.395  1.00  0.00     0.119 A 
ATOM     15  C   UNL     1      -4.923  90.139 -15.356  1.00  0.00     0.119 A 
ATOM     16  C   UNL     1      -4.192  91.176 -14.770  1.00  0.00     0.092 A 
BRANCH  14  17
ATOM     17  O   UNL     1      -3.585  92.465 -12.804  1.00  0.00    -0.508 OA
ATOM     18  H   UNL     1      -2.572  92.456 -12.769  1.00  0.00     0.293 HD
ENDBRANCH  14  17
BRANCH  15  19
ATOM     19  O   UNL     1      -4.808  89.905 -16.725  1.00  0.00    -0.508 OA
ATOM     20  H   UNL     1      -5.150  89.050 -17.147  1.00  0.00     0.293 HD
ENDBRANCH  15  19
ENDBRANCH  10  11
ENDBRANCH   1  10
TORSDOF 6
ENDMDL
MODEL 5
REMARK VINA RESULT:    -4.850     10.546     12.310
REMARK INTER + INTRA:          -6.677
REMARK INTER:                  -6.094
REMARK INTRA:                  -0.583
REMARK UNBOUND:                -0.551
REMARK SMILES Oc1ccc(CCc2cc(O)cc(O)c2)cc1
REMARK SMILES IDX 6 1 5 2 4 3 3 4 2 5 16 6 17 7 1 8 7 10 8 11 15 12 9 13 13 14
REMARK SMILES IDX 10 15 12 16 14 17 11 19
REMARK H PARENT 1 9 14 18 11 20
REMARK Flexibility Score: inf
ROOT
ATOM      1  C   UNL     1      -7.134  84.058  -7.892  1.00  0.00     0.040 C 
ENDROOT
BRANCH   1   2
ATOM      2  C   UNL     1      -8.362  83.190  -8.005  1.00  0.00    -0.047 A 
ATOM      3  C   UNL     1      -8.827  82.778  -9.264  1.00  0.00     0.007 A 
ATOM      4  C   UNL     1      -9.994  82.015  -9.370  1.00  0.00     0.046 A 
ATOM      5  C   UNL     1     -10.708  81.659  -8.222  1.00  0.00     0.115 A 
ATOM      6  C   UNL     1      -9.087  82.838  -6.855  1.00  0.00     0.007 A 
ATOM      7  C   UNL     1     -10.252  82.072  -6.962  1.00  0.00     0.046 A 
BRANCH   5   8
ATOM      8  O   UNL     1     -11.869  80.898  -8.342  1.00  0.00    -0.508 OA
ATOM      9  H   UNL     1     -12.713  81.137  -7.835  1.00  0.00     0.293 HD
ENDBRANCH   5   8
ENDBRANCH   1   2
BRANCH   1  10
ATOM     10  C   UNL     1      -6.176  83.550  -6.806  1.00  0.00     0.040 C 
BRANCH  10  11
ATOM     11  C   UNL     1      -4.987  82.838  -7.399  1.00  0.00    -0.040 A 
ATOM     12  C   UNL     1      -4.719  82.928  -8.775  1.00  0.00     0.050 A 
ATOM     13  C   UNL     1      -4.174  82.028  -6.591  1.00  0.00     0.050 A 
ATOM     14  C   UNL     1      -3.645  82.229  -9.335  1.00  0.00     0.119 A 
ATOM     15  C   UNL     1      -3.095  81.327  -7.149  1.00  0.00     0.119 A 
ATOM     16  C   UNL     1      -2.833  81.429  -8.518  1.00  0.00     0.092 A 
BRANCH  14  17
ATOM     17  O   UNL     1      -3.397  82.329 -10.701  1.00  0.00    -0.508 OA
ATOM     18  H   UNL     1      -2.468  82.520 -11.059  1.00  0.00     0.293 HD
ENDBRANCH  14  17
BRANCH  15  19
ATOM     19  O   UNL     1      -2.282  80.524  -6.351  1.00  0.00    -0.508 OA
ATOM     20  H   UNL     1      -1.562  80.921  -5.760  1.00  0.00     0.293 HD
ENDBRANCH  15  19
ENDBRANCH  10  11
ENDBRANCH   1  10
TORSDOF 6
ENDMDL
MODEL 6
REMARK VINA RESULT:    -4.829      3.828      6.268
REMARK INTER + INTRA:          -6.651
REMARK INTER:                  -5.827
REMARK INTRA:                  -0.824
REMARK UNBOUND:                -0.551
REMARK SMILES Oc1ccc(CCc2cc(O)cc(O)c2)cc1
REMARK SMILES IDX 6 1 5 2 4 3 3 4 2 5 16 6 17 7 1 8 7 10 8 11 15 12 9 13 13 14
REMARK SMILES IDX 10 15 12 16 14 17 11 19
REMARK H PARENT 1 9 14 18 11 20
REMARK Flexibility Score: inf
ROOT
ATOM      1  C   UNL     1      -4.373  90.909 -13.783  1.00  0.00     0.040 C 
ENDROOT
BRANCH   1   2
ATOM      2  C   UNL     1      -5.819  90.489 -13.706  1.00  0.00    -0.047 A 
ATOM      3  C   UNL     1      -6.197  89.178 -14.038  1.00  0.00     0.007 A 
ATOM      4  C   UNL     1      -7.544  88.805 -14.014  1.00  0.00     0.046 A 
ATOM      5  C   UNL     1      -8.526  89.736 -13.662  1.00  0.00     0.115 A 
ATOM      6  C   UNL     1      -6.809  91.424 -13.361  1.00  0.00     0.007 A 
ATOM      7  C   UNL     1      -8.155  91.048 -13.334  1.00  0.00     0.046 A 
BRANCH   5   8
ATOM      8  O   UNL     1      -9.865  89.351 -13.642  1.00  0.00    -0.508 OA
ATOM      9  H   UNL     1     -10.435  89.374 -14.479  1.00  0.00     0.293 HD
ENDBRANCH   5   8
ENDBRANCH   1   2
BRANCH   1  10
ATOM     10  C   UNL     1      -3.781  90.658 -15.176  1.00  0.00     0.040 C 
BRANCH  10  11
ATOM     11  C   UNL     1      -4.423  91.535 -16.221  1.00  0.00    -0.040 A 
ATOM     12  C   UNL     1      -5.095  90.961 -17.314  1.00  0.00     0.050 A 
ATOM     13  C   UNL     1      -4.300  92.931 -16.144  1.00  0.00     0.050 A 
ATOM     14  C   UNL     1      -5.647  91.772 -18.310  1.00  0.00     0.119 A 
ATOM     15  C   UNL     1      -4.855  93.746 -17.141  1.00  0.00     0.119 A 
ATOM     16  C   UNL     1      -5.528  93.166 -18.220  1.00  0.00     0.092 A 
BRANCH  14  17
ATOM     17  O   UNL     1      -6.307  91.184 -19.386  1.00  0.00    -0.508 OA
ATOM     18  H   UNL     1      -6.148  90.216 -19.641  1.00  0.00     0.293 HD
ENDBRANCH  14  17
BRANCH  15  19
ATOM     19  O   UNL     1      -4.740  95.133 -17.069  1.00  0.00    -0.508 OA
ATOM     20  H   UNL     1      -4.281  95.665 -17.799  1.00  0.00     0.293 HD
ENDBRANCH  15  19
ENDBRANCH  10  11
ENDBRANCH   1  10
TORSDOF 6
ENDMDL
MODEL 7
REMARK VINA RESULT:    -4.825      8.281     10.653
REMARK INTER + INTRA:          -6.646
REMARK INTER:                  -6.041
REMARK INTRA:                  -0.605
REMARK UNBOUND:                -0.551
REMARK SMILES Oc1ccc(CCc2cc(O)cc(O)c2)cc1
REMARK SMILES IDX 6 1 5 2 4 3 3 4 2 5 16 6 17 7 1 8 7 10 8 11 15 12 9 13 13 14
REMARK SMILES IDX 10 15 12 16 14 17 11 19
REMARK H PARENT 1 9 14 18 11 20
REMARK Flexibility Score: inf
ROOT
ATOM      1  C   UNL     1      -6.094  85.491  -7.776  1.00  0.00     0.040 C 
ENDROOT
BRANCH   1   2
ATOM      2  C   UNL     1      -5.351  86.757  -7.432  1.00  0.00    -0.047 A 
ATOM      3  C   UNL     1      -5.351  87.845  -8.321  1.00  0.00     0.007 A 
ATOM      4  C   UNL     1      -4.621  88.999  -8.023  1.00  0.00     0.046 A 
ATOM      5  C   UNL     1      -3.882  89.078  -6.839  1.00  0.00     0.115 A 
ATOM      6  C   UNL     1      -4.600  86.837  -6.248  1.00  0.00     0.007 A 
ATOM      7  C   UNL     1      -3.873  87.994  -5.950  1.00  0.00     0.046 A 
BRANCH   5   8
ATOM      8  O   UNL     1      -3.159  90.234  -6.555  1.00  0.00    -0.508 OA
ATOM      9  H   UNL     1      -3.506  91.152  -6.808  1.00  0.00     0.293 HD
ENDBRANCH   5   8
ENDBRANCH   1   2
BRANCH   1  10
ATOM     10  C   UNL     1      -5.728  84.341  -6.828  1.00  0.00     0.040 C 
BRANCH  10  11
ATOM     11  C   UNL     1      -4.722  83.405  -7.447  1.00  0.00    -0.040 A 
ATOM     12  C   UNL     1      -4.599  83.318  -8.844  1.00  0.00     0.050 A 
ATOM     13  C   UNL     1      -3.944  82.567  -6.633  1.00  0.00     0.050 A 
ATOM     14  C   UNL     1      -3.701  82.414  -9.420  1.00  0.00     0.119 A 
ATOM     15  C   UNL     1      -3.041  81.661  -7.209  1.00  0.00     0.119 A 
ATOM     16  C   UNL     1      -2.921  81.587  -8.599  1.00  0.00     0.092 A 
BRANCH  14  17
ATOM     17  O   UNL     1      -3.595  82.340 -10.807  1.00  0.00    -0.508 OA
ATOM     18  H   UNL     1      -3.882  81.513 -11.317  1.00  0.00     0.293 HD
ENDBRANCH  14  17
BRANCH  15  19
ATOM     19  O   UNL     1      -2.263  80.828  -6.406  1.00  0.00    -0.508 OA
ATOM     20  H   UNL     1      -2.545  79.878  -6.199  1.00  0.00     0.293 HD
ENDBRANCH  15  19
ENDBRANCH  10  11
ENDBRANCH   1  10
TORSDOF 6
ENDMDL
MODEL 8
REMARK VINA RESULT:    -4.824     10.282     11.773
REMARK INTER + INTRA:          -6.644
REMARK INTER:                  -6.280
REMARK INTRA:                  -0.364
REMARK UNBOUND:                -0.551
REMARK SMILES Oc1ccc(CCc2cc(O)cc(O)c2)cc1
REMARK SMILES IDX 6 1 5 2 4 3 3 4 2 5 16 6 17 7 1 8 7 10 8 11 15 12 9 13 13 14
REMARK SMILES IDX 10 15 12 16 14 17 11 19
REMARK H PARENT 1 9 14 18 11 20
REMARK Flexibility Score: inf
ROOT
ATOM      1  C   UNL     1      -8.943  83.213  -8.239  1.00  0.00     0.040 C 
ENDROOT
BRANCH   1   2
ATOM      2  C   UNL     1     -10.364  83.224  -8.744  1.00  0.00    -0.047 A 
ATOM      3  C   UNL     1     -10.968  82.038  -9.190  1.00  0.00     0.007 A 
ATOM      4  C   UNL     1     -12.268  82.058  -9.703  1.00  0.00     0.046 A 
ATOM      5  C   UNL     1     -12.976  83.262  -9.779  1.00  0.00     0.115 A 
ATOM      6  C   UNL     1     -11.074  84.432  -8.829  1.00  0.00     0.007 A 
ATOM      7  C   UNL     1     -12.376  84.450  -9.340  1.00  0.00     0.046 A 
BRANCH   5   8
ATOM      8  O   UNL     1     -14.270  83.268 -10.293  1.00  0.00    -0.508 OA
ATOM      9  H   UNL     1     -14.501  83.774 -11.140  1.00  0.00     0.293 HD
ENDBRANCH   5   8
ENDBRANCH   1   2
BRANCH   1  10
ATOM     10  C   UNL     1      -7.949  83.642  -9.327  1.00  0.00     0.040 C 
BRANCH  10  11
ATOM     11  C   UNL     1      -6.530  83.298  -8.954  1.00  0.00    -0.040 A 
ATOM     12  C   UNL     1      -5.595  82.968  -9.949  1.00  0.00     0.050 A 
ATOM     13  C   UNL     1      -6.147  83.245  -7.604  1.00  0.00     0.050 A 
ATOM     14  C   UNL     1      -4.291  82.600  -9.602  1.00  0.00     0.119 A 
ATOM     15  C   UNL     1      -4.840  82.878  -7.253  1.00  0.00     0.119 A 
ATOM     16  C   UNL     1      -3.915  82.558  -8.251  1.00  0.00     0.092 A 
BRANCH  14  17
ATOM     17  O   UNL     1      -3.379  82.273 -10.602  1.00  0.00    -0.508 OA
ATOM     18  H   UNL     1      -3.324  82.806 -11.463  1.00  0.00     0.293 HD
ENDBRANCH  14  17
BRANCH  15  19
ATOM     19  O   UNL     1      -4.453  82.826  -5.916  1.00  0.00    -0.508 OA
ATOM     20  H   UNL     1      -3.960  83.594  -5.476  1.00  0.00     0.293 HD
ENDBRANCH  15  19
ENDBRANCH  10  11
ENDBRANCH   1  10
TORSDOF 6
ENDMDL
MODEL 9
REMARK VINA RESULT:    -4.821      8.336     10.523
REMARK INTER + INTRA:          -6.640
REMARK INTER:                  -6.045
REMARK INTRA:                  -0.595
REMARK UNBOUND:                -0.551
REMARK SMILES Oc1ccc(CCc2cc(O)cc(O)c2)cc1
REMARK SMILES IDX 6 1 5 2 4 3 3 4 2 5 16 6 17 7 1 8 7 10 8 11 15 12 9 13 13 14
REMARK SMILES IDX 10 15 12 16 14 17 11 19
REMARK H PARENT 1 9 14 18 11 20
REMARK Flexibility Score: inf
ROOT
ATOM      1  C   UNL     1      -6.084  85.483  -7.623  1.00  0.00     0.040 C 
ENDROOT
BRANCH   1   2
ATOM      2  C   UNL     1      -5.263  86.725  -7.386  1.00  0.00    -0.047 A 
ATOM      3  C   UNL     1      -4.358  86.784  -6.314  1.00  0.00     0.007 A 
ATOM      4  C   UNL     1      -3.634  87.954  -6.066  1.00  0.00     0.046 A 
ATOM      5  C   UNL     1      -3.808  89.076  -6.883  1.00  0.00     0.115 A 
ATOM      6  C   UNL     1      -5.441  87.855  -8.200  1.00  0.00     0.007 A 
ATOM      7  C   UNL     1      -4.713  89.023  -7.953  1.00  0.00     0.046 A 
BRANCH   5   8
ATOM      8  O   UNL     1      -3.080  90.235  -6.626  1.00  0.00    -0.508 OA
ATOM      9  H   UNL     1      -3.516  91.055  -6.222  1.00  0.00     0.293 HD
ENDBRANCH   5   8
ENDBRANCH   1   2
BRANCH   1  10
ATOM     10  C   UNL     1      -5.694  84.351  -6.663  1.00  0.00     0.040 C 
BRANCH  10  11
ATOM     11  C   UNL     1      -4.785  83.346  -7.324  1.00  0.00    -0.040 A 
ATOM     12  C   UNL     1      -3.976  82.500  -6.546  1.00  0.00     0.050 A 
ATOM     13  C   UNL     1      -4.692  83.292  -8.724  1.00  0.00     0.050 A 
ATOM     14  C   UNL     1      -3.096  81.603  -7.159  1.00  0.00     0.119 A 
ATOM     15  C   UNL     1      -3.812  82.391  -9.340  1.00  0.00     0.119 A 
ATOM     16  C   UNL     1      -3.017  81.549  -8.558  1.00  0.00     0.092 A 
BRANCH  14  17
ATOM     17  O   UNL     1      -2.301  80.774  -6.371  1.00  0.00    -0.508 OA
ATOM     18  H   UNL     1      -2.632  79.872  -6.050  1.00  0.00     0.293 HD
ENDBRANCH  14  17
BRANCH  15  19
ATOM     19  O   UNL     1      -3.718  82.330 -10.729  1.00  0.00    -0.508 OA
ATOM     20  H   UNL     1      -2.849  82.086 -11.191  1.00  0.00     0.293 HD
ENDBRANCH  15  19
ENDBRANCH  10  11
ENDBRANCH   1  10
TORSDOF 6
ENDMDL
