MODEL 1
REMARK VINA RESULT:    -4.609      0.000      0.000
REMARK INTER + INTRA:          -4.609
REMARK INTER:                  -4.609
REMARK INTRA:                   0.000
REMARK UNBOUND:                 0.000
REMARK SMILES CC1=CC[C@H]2[C@@H](C1)C2(C)C
REMARK SMILES IDX 1 1 2 2 3 3 4 4 5 5 6 6 7 7 8 8 9 9 10 10
REMARK H PARENT
REMARK Flexibility Score: inf
ROOT
ATOM      1  C   UNL     1      12.227  64.875 -31.038  1.00  0.00     0.039 C 
ATOM      2  C   UNL     1      13.130  65.773 -30.238  1.00  0.00    -0.077 C 
ATOM      3  C   UNL     1      14.356  65.342 -29.895  1.00  0.00    -0.028 C 
ATOM      4  C   UNL     1      15.296  66.196 -29.092  1.00  0.00     0.031 C 
ATOM      5  C   UNL     1      15.206  67.683 -29.492  1.00  0.00     0.003 C 
ATOM      6  C   UNL     1      13.799  68.191 -29.883  1.00  0.00     0.003 C 
ATOM      7  C   UNL     1      12.662  67.148 -29.821  1.00  0.00     0.034 C 
ATOM      8  C   UNL     1      14.470  68.690 -28.593  1.00  0.00    -0.029 C 
ATOM      9  C   UNL     1      15.008  70.123 -28.666  1.00  0.00     0.012 C 
ATOM     10  C   UNL     1      13.931  68.254 -27.217  1.00  0.00     0.012 C 
ENDROOT
TORSDOF 0
ENDMDL
MODEL 2
REMARK VINA RESULT:    -4.215      9.180     10.109
REMARK INTER + INTRA:          -4.215
REMARK INTER:                  -4.215
REMARK INTRA:                   0.000
REMARK UNBOUND:                 0.000
REMARK SMILES CC1=CC[C@H]2[C@@H](C1)C2(C)C
REMARK SMILES IDX 1 1 2 2 3 3 4 4 5 5 6 6 7 7 8 8 9 9 10 10
REMARK H PARENT
REMARK Flexibility Score: inf
ROOT
ATOM      1  C   UNL     1       4.760  68.759 -33.027  1.00  0.00     0.039 C 
ATOM      2  C   UNL     1       4.600  67.553 -32.142  1.00  0.00    -0.077 C 
ATOM      3  C   UNL     1       4.728  66.325 -32.670  1.00  0.00    -0.028 C 
ATOM      4  C   UNL     1       4.572  65.087 -31.833  1.00  0.00     0.031 C 
ATOM      5  C   UNL     1       5.171  65.267 -30.422  1.00  0.00     0.003 C 
ATOM      6  C   UNL     1       5.023  66.675 -29.803  1.00  0.00     0.003 C 
ATOM      7  C   UNL     1       4.293  67.723 -30.673  1.00  0.00     0.034 C 
ATOM      8  C   UNL     1       4.254  65.485 -29.207  1.00  0.00    -0.029 C 
ATOM      9  C   UNL     1       4.817  64.962 -27.881  1.00  0.00     0.012 C 
ATOM     10  C   UNL     1       2.724  65.391 -29.361  1.00  0.00     0.012 C 
ENDROOT
TORSDOF 0
ENDMDL
MODEL 3
REMARK VINA RESULT:    -4.121     17.575     18.649
REMARK INTER + INTRA:          -4.121
REMARK INTER:                  -4.121
REMARK INTRA:                   0.000
REMARK UNBOUND:                 0.000
REMARK SMILES CC1=CC[C@H]2[C@@H](C1)C2(C)C
REMARK SMILES IDX 1 1 2 2 3 3 4 4 5 5 6 6 7 7 8 8 9 9 10 10
REMARK H PARENT
REMARK Flexibility Score: inf
ROOT
ATOM      1  C   UNL     1      -0.471  79.561 -32.392  1.00  0.00     0.039 C 
ATOM      2  C   UNL     1       0.297  79.831 -31.128  1.00  0.00    -0.077 C 
ATOM      3  C   UNL     1       1.621  79.601 -31.098  1.00  0.00    -0.028 C 
ATOM      4  C   UNL     1       2.436  79.847 -29.860  1.00  0.00     0.031 C 
ATOM      5  C   UNL     1       1.966  81.107 -29.103  1.00  0.00     0.003 C 
ATOM      6  C   UNL     1       0.444  81.377 -29.126  1.00  0.00     0.003 C 
ATOM      7  C   UNL     1      -0.414  80.353 -29.901  1.00  0.00     0.034 C 
ATOM      8  C   UNL     1       1.138  80.980 -27.813  1.00  0.00    -0.029 C 
ATOM      9  C   UNL     1       1.327  82.129 -26.818  1.00  0.00     0.012 C 
ATOM     10  C   UNL     1       0.883  79.595 -27.187  1.00  0.00     0.012 C 
ENDROOT
TORSDOF 0
ENDMDL
MODEL 4
REMARK VINA RESULT:    -4.015      1.343      4.034
REMARK INTER + INTRA:          -4.015
REMARK INTER:                  -4.015
REMARK INTRA:                   0.000
REMARK UNBOUND:                 0.000
REMARK SMILES CC1=CC[C@H]2[C@@H](C1)C2(C)C
REMARK SMILES IDX 1 1 2 2 3 3 4 4 5 5 6 6 7 7 8 8 9 9 10 10
REMARK H PARENT
REMARK Flexibility Score: inf
ROOT
ATOM      1  C   UNL     1      12.992  70.978 -27.039  1.00  0.00     0.039 C 
ATOM      2  C   UNL     1      13.577  69.831 -27.817  1.00  0.00    -0.077 C 
ATOM      3  C   UNL     1      14.612  70.054 -28.644  1.00  0.00    -0.028 C 
ATOM      4  C   UNL     1      15.230  68.946 -29.449  1.00  0.00     0.031 C 
ATOM      5  C   UNL     1      15.287  67.622 -28.658  1.00  0.00     0.003 C 
ATOM      6  C   UNL     1      14.097  67.354 -27.709  1.00  0.00     0.003 C 
ATOM      7  C   UNL     1      13.001  68.442 -27.673  1.00  0.00     0.034 C 
ATOM      8  C   UNL     1      14.295  66.487 -28.962  1.00  0.00    -0.029 C 
ATOM      9  C   UNL     1      14.833  65.079 -28.686  1.00  0.00     0.012 C 
ATOM     10  C   UNL     1      13.322  66.604 -30.151  1.00  0.00     0.012 C 
ENDROOT
TORSDOF 0
ENDMDL
MODEL 5
REMARK VINA RESULT:    -3.998     17.978     19.096
REMARK INTER + INTRA:          -3.998
REMARK INTER:                  -3.998
REMARK INTRA:                   0.000
REMARK UNBOUND:                 0.000
REMARK SMILES CC1=CC[C@H]2[C@@H](C1)C2(C)C
REMARK SMILES IDX 1 1 2 2 3 3 4 4 5 5 6 6 7 7 8 8 9 9 10 10
REMARK H PARENT
REMARK Flexibility Score: inf
ROOT
ATOM      1  C   UNL     1       1.390  77.261 -19.044  1.00  0.00     0.039 C 
ATOM      2  C   UNL     1       2.448  77.302 -17.976  1.00  0.00    -0.077 C 
ATOM      3  C   UNL     1       2.328  78.173 -16.961  1.00  0.00    -0.028 C 
ATOM      4  C   UNL     1       3.358  78.260 -15.871  1.00  0.00     0.031 C 
ATOM      5  C   UNL     1       3.911  76.871 -15.489  1.00  0.00     0.003 C 
ATOM      6  C   UNL     1       4.059  75.863 -16.652  1.00  0.00     0.003 C 
ATOM      7  C   UNL     1       3.638  76.374 -18.048  1.00  0.00     0.034 C 
ATOM      8  C   UNL     1       5.308  76.430 -15.958  1.00  0.00    -0.029 C 
ATOM      9  C   UNL     1       6.016  75.450 -15.017  1.00  0.00     0.012 C 
ATOM     10  C   UNL     1       6.227  77.421 -16.698  1.00  0.00     0.012 C 
ENDROOT
TORSDOF 0
ENDMDL
MODEL 6
REMARK VINA RESULT:    -3.978      7.548     10.660
REMARK INTER + INTRA:          -3.978
REMARK INTER:                  -3.978
REMARK INTRA:                   0.000
REMARK UNBOUND:                 0.000
REMARK SMILES CC1=CC[C@H]2[C@@H](C1)C2(C)C
REMARK SMILES IDX 1 1 2 2 3 3 4 4 5 5 6 6 7 7 8 8 9 9 10 10
REMARK H PARENT
REMARK Flexibility Score: inf
ROOT
ATOM      1  C   UNL     1      13.028  77.333 -21.431  1.00  0.00     0.039 C 
ATOM      2  C   UNL     1      13.469  76.822 -22.775  1.00  0.00    -0.077 C 
ATOM      3  C   UNL     1      14.504  77.410 -23.398  1.00  0.00    -0.028 C 
ATOM      4  C   UNL     1      14.981  76.944 -24.744  1.00  0.00     0.031 C 
ATOM      5  C   UNL     1      14.913  75.409 -24.879  1.00  0.00     0.003 C 
ATOM      6  C   UNL     1      13.723  74.723 -24.171  1.00  0.00     0.003 C 
ATOM      7  C   UNL     1      12.751  75.661 -23.421  1.00  0.00     0.034 C 
ATOM      8  C   UNL     1      13.799  74.746 -25.706  1.00  0.00    -0.029 C 
ATOM      9  C   UNL     1      14.189  73.409 -26.346  1.00  0.00     0.012 C 
ATOM     10  C   UNL     1      12.818  75.610 -26.522  1.00  0.00     0.012 C 
ENDROOT
TORSDOF 0
ENDMDL
MODEL 7
REMARK VINA RESULT:    -3.920     16.985     18.402
REMARK INTER + INTRA:          -3.920
REMARK INTER:                  -3.920
REMARK INTRA:                   0.000
REMARK UNBOUND:                 0.000
REMARK SMILES CC1=CC[C@H]2[C@@H](C1)C2(C)C
REMARK SMILES IDX 1 1 2 2 3 3 4 4 5 5 6 6 7 7 8 8 9 9 10 10
REMARK H PARENT
REMARK Flexibility Score: inf
ROOT
ATOM      1  C   UNL     1       0.557  76.056 -25.434  1.00  0.00     0.039 C 
ATOM      2  C   UNL     1       0.112  76.147 -24.000  1.00  0.00    -0.077 C 
ATOM      3  C   UNL     1      -0.979  76.867 -23.692  1.00  0.00    -0.028 C 
ATOM      4  C   UNL     1      -1.463  76.997 -22.275  1.00  0.00     0.031 C 
ATOM      5  C   UNL     1      -1.294  75.682 -21.487  1.00  0.00     0.003 C 
ATOM      6  C   UNL     1      -0.038  74.849 -21.830  1.00  0.00     0.003 C 
ATOM      7  C   UNL     1       0.889  75.439 -22.916  1.00  0.00     0.034 C 
ATOM      8  C   UNL     1      -0.162  75.530 -20.457  1.00  0.00    -0.029 C 
ATOM      9  C   UNL     1      -0.476  74.578 -19.299  1.00  0.00     0.012 C 
ATOM     10  C   UNL     1       0.733  76.733 -20.102  1.00  0.00     0.012 C 
ENDROOT
TORSDOF 0
ENDMDL
MODEL 8
REMARK VINA RESULT:    -3.912      7.771      9.222
REMARK INTER + INTRA:          -3.912
REMARK INTER:                  -3.912
REMARK INTRA:                   0.000
REMARK UNBOUND:                 0.000
REMARK SMILES CC1=CC[C@H]2[C@@H](C1)C2(C)C
REMARK SMILES IDX 1 1 2 2 3 3 4 4 5 5 6 6 7 7 8 8 9 9 10 10
REMARK H PARENT
REMARK Flexibility Score: inf
ROOT
ATOM      1  C   UNL     1      12.213  75.605 -27.681  1.00  0.00     0.039 C 
ATOM      2  C   UNL     1      11.128  75.231 -28.654  1.00  0.00    -0.077 C 
ATOM      3  C   UNL     1      11.141  75.756 -29.891  1.00  0.00    -0.028 C 
ATOM      4  C   UNL     1      10.079  75.421 -30.899  1.00  0.00     0.031 C 
ATOM      5  C   UNL     1       9.648  73.942 -30.812  1.00  0.00     0.003 C 
ATOM      6  C   UNL     1       9.624  73.331 -29.393  1.00  0.00     0.003 C 
ATOM      7  C   UNL     1      10.032  74.277 -28.242  1.00  0.00     0.034 C 
ATOM      8  C   UNL     1       8.311  73.556 -30.159  1.00  0.00    -0.029 C 
ATOM      9  C   UNL     1       7.672  72.281 -30.719  1.00  0.00     0.012 C 
ATOM     10  C   UNL     1       7.323  74.648 -29.706  1.00  0.00     0.012 C 
ENDROOT
TORSDOF 0
ENDMDL
