MODEL 1
REMARK VINA RESULT:    -6.158      0.000      0.000
REMARK INTER + INTRA:          -6.852
REMARK INTER:                  -6.698
REMARK INTRA:                  -0.153
REMARK UNBOUND:                -0.153
REMARK SMILES CC(=O)[C@@H]1CC[C@H]2[C@H]3CC=C4C[C@@H](O)CC[C@@]4(C)[C@@H]3CC[C@@]12C
REMARK SMILES IDX 4 1 5 2 6 3 7 4 22 5 21 6 20 7 19 8 8 9 9 10 10 11 11 12
REMARK SMILES IDX 17 13 16 14 15 15 13 16 12 17 18 18 23 19 2 20 1 21 3 22
REMARK SMILES IDX 14 23
REMARK H PARENT 14 24
REMARK Flexibility Score: inf
ROOT
ATOM      1  C   UNL     1      14.128 -43.263  -7.849  1.00  0.00     0.062 C 
ATOM      2  C   UNL     1      13.700 -44.624  -7.279  1.00  0.00     0.012 C 
ATOM      3  C   UNL     1      14.726 -44.984  -6.205  1.00  0.00     0.005 C 
ATOM      4  C   UNL     1      15.865 -43.944  -6.313  1.00  0.00    -0.001 C 
ATOM      5  C   UNL     1      15.132 -42.661  -6.827  1.00  0.00    -0.020 C 
ATOM      6  C   UNL     1      16.054 -41.576  -7.482  1.00  0.00     0.008 C 
ATOM      7  C   UNL     1      17.525 -41.965  -7.547  1.00  0.00     0.005 C 
ATOM      8  C   UNL     1      17.652 -43.366  -8.159  1.00  0.00     0.003 C 
ATOM      9  C   UNL     1      17.138 -44.415  -7.144  1.00  0.00     0.000 C 
ATOM     10  C   UNL     1      17.023 -45.770  -7.872  1.00  0.00     0.031 C 
ATOM     11  C   UNL     1      18.247 -46.107  -8.684  1.00  0.00    -0.027 C 
ATOM     12  C   UNL     1      19.144 -45.195  -9.119  1.00  0.00    -0.065 C 
ATOM     13  C   UNL     1      19.090 -43.717  -8.702  1.00  0.00    -0.008 C 
ATOM     14  C   UNL     1      19.388 -42.838  -9.962  1.00  0.00     0.014 C 
ATOM     15  C   UNL     1      20.604 -43.303 -10.782  1.00  0.00     0.033 C 
ATOM     16  C   UNL     1      20.484 -44.774 -11.197  1.00  0.00     0.118 C 
ATOM     17  C   UNL     1      20.310 -45.667  -9.964  1.00  0.00     0.063 C 
ATOM     18  C   UNL     1      20.181 -43.460  -7.628  1.00  0.00     0.016 C 
ATOM     19  C   UNL     1      14.390 -41.989  -5.631  1.00  0.00     0.012 C 
ENDROOT
BRANCH   1  20
ATOM     20  C   UNL     1      12.953 -42.369  -8.214  1.00  0.00     0.133 C 
ATOM     21  C   UNL     1      11.552 -42.732  -7.819  1.00  0.00     0.088 C 
ATOM     22  O   UNL     1      13.138 -41.327  -8.826  1.00  0.00    -0.300 OA
ENDBRANCH   1  20
BRANCH  16  23
ATOM     23  O   UNL     1      19.398 -44.931 -12.074  1.00  0.00    -0.393 OA
ATOM     24  H   UNL     1      19.253 -44.051 -12.512  1.00  0.00     0.210 HD
ENDBRANCH  16  23
TORSDOF 2
ENDMDL
MODEL 2
REMARK VINA RESULT:    -6.046     14.838     17.712
REMARK INTER + INTRA:          -6.730
REMARK INTER:                  -6.633
REMARK INTRA:                  -0.097
REMARK UNBOUND:                -0.153
REMARK SMILES CC(=O)[C@@H]1CC[C@H]2[C@H]3CC=C4C[C@@H](O)CC[C@@]4(C)[C@@H]3CC[C@@]12C
REMARK SMILES IDX 4 1 5 2 6 3 7 4 22 5 21 6 20 7 19 8 8 9 9 10 10 11 11 12
REMARK SMILES IDX 17 13 16 14 15 15 13 16 12 17 18 18 23 19 2 20 1 21 3 22
REMARK SMILES IDX 14 23
REMARK H PARENT 14 24
REMARK Flexibility Score: inf
ROOT
ATOM      1  C   UNL     1      26.844 -29.222 -14.267  1.00  0.00     0.062 C 
ATOM      2  C   UNL     1      28.331 -29.598 -14.342  1.00  0.00     0.012 C 
ATOM      3  C   UNL     1      28.431 -31.056 -13.893  1.00  0.00     0.005 C 
ATOM      4  C   UNL     1      27.040 -31.447 -13.345  1.00  0.00    -0.001 C 
ATOM      5  C   UNL     1      26.062 -30.561 -14.185  1.00  0.00    -0.020 C 
ATOM      6  C   UNL     1      24.632 -30.367 -13.571  1.00  0.00     0.008 C 
ATOM      7  C   UNL     1      24.436 -31.050 -12.223  1.00  0.00     0.005 C 
ATOM      8  C   UNL     1      25.591 -30.666 -11.288  1.00  0.00     0.003 C 
ATOM      9  C   UNL     1      26.886 -31.369 -11.763  1.00  0.00     0.000 C 
ATOM     10  C   UNL     1      28.072 -30.765 -10.984  1.00  0.00     0.031 C 
ATOM     11  C   UNL     1      27.816 -30.672  -9.502  1.00  0.00    -0.027 C 
ATOM     12  C   UNL     1      26.585 -30.669  -8.943  1.00  0.00    -0.065 C 
ATOM     13  C   UNL     1      25.306 -30.911  -9.758  1.00  0.00    -0.008 C 
ATOM     14  C   UNL     1      24.214 -29.901  -9.273  1.00  0.00     0.014 C 
ATOM     15  C   UNL     1      24.077 -29.805  -7.744  1.00  0.00     0.033 C 
ATOM     16  C   UNL     1      25.415 -29.479  -7.070  1.00  0.00     0.118 C 
ATOM     17  C   UNL     1      26.471 -30.527  -7.438  1.00  0.00     0.063 C 
ATOM     18  C   UNL     1      24.815 -32.361  -9.497  1.00  0.00     0.016 C 
ATOM     19  C   UNL     1      25.884 -31.202 -15.596  1.00  0.00     0.012 C 
ENDROOT
BRANCH   1  20
ATOM     20  C   UNL     1      26.408 -28.277 -15.375  1.00  0.00     0.133 C 
ATOM     21  C   UNL     1      27.369 -27.835 -16.440  1.00  0.00     0.088 C 
ATOM     22  O   UNL     1      25.254 -27.873 -15.423  1.00  0.00    -0.300 OA
ENDBRANCH   1  20
BRANCH  16  23
ATOM     23  O   UNL     1      25.840 -28.197  -7.459  1.00  0.00    -0.393 OA
ATOM     24  H   UNL     1      26.702 -28.314  -7.938  1.00  0.00     0.210 HD
ENDBRANCH  16  23
TORSDOF 2
ENDMDL
MODEL 3
REMARK VINA RESULT:    -5.801     14.729     17.043
REMARK INTER + INTRA:          -6.463
REMARK INTER:                  -6.360
REMARK INTRA:                  -0.104
REMARK UNBOUND:                -0.153
REMARK SMILES CC(=O)[C@@H]1CC[C@H]2[C@H]3CC=C4C[C@@H](O)CC[C@@]4(C)[C@@H]3CC[C@@]12C
REMARK SMILES IDX 4 1 5 2 6 3 7 4 22 5 21 6 20 7 19 8 8 9 9 10 10 11 11 12
REMARK SMILES IDX 17 13 16 14 15 15 13 16 12 17 18 18 23 19 2 20 1 21 3 22
REMARK SMILES IDX 14 23
REMARK H PARENT 14 24
REMARK Flexibility Score: inf
ROOT
ATOM      1  C   UNL     1      25.399 -29.994  -8.801  1.00  0.00     0.062 C 
ATOM      2  C   UNL     1      23.950 -30.503  -8.763  1.00  0.00     0.012 C 
ATOM      3  C   UNL     1      23.932 -31.814  -9.549  1.00  0.00     0.005 C 
ATOM      4  C   UNL     1      25.315 -31.944 -10.227  1.00  0.00    -0.001 C 
ATOM      5  C   UNL     1      26.272 -31.204  -9.235  1.00  0.00    -0.020 C 
ATOM      6  C   UNL     1      27.645 -30.748  -9.838  1.00  0.00     0.008 C 
ATOM      7  C   UNL     1      27.813 -31.069 -11.318  1.00  0.00     0.005 C 
ATOM      8  C   UNL     1      26.582 -30.574 -12.087  1.00  0.00     0.003 C 
ATOM      9  C   UNL     1      25.371 -31.477 -11.748  1.00  0.00     0.000 C 
ATOM     10  C   UNL     1      24.101 -30.808 -12.311  1.00  0.00     0.031 C 
ATOM     11  C   UNL     1      24.264 -30.342 -13.735  1.00  0.00    -0.027 C 
ATOM     12  C   UNL     1      25.457 -30.101 -14.323  1.00  0.00    -0.065 C 
ATOM     13  C   UNL     1      26.795 -30.421 -13.641  1.00  0.00    -0.008 C 
ATOM     14  C   UNL     1      27.781 -29.235 -13.907  1.00  0.00     0.014 C 
ATOM     15  C   UNL     1      27.823 -28.765 -15.371  1.00  0.00     0.033 C 
ATOM     16  C   UNL     1      26.428 -28.403 -15.894  1.00  0.00     0.118 C 
ATOM     17  C   UNL     1      25.474 -29.595 -15.752  1.00  0.00     0.063 C 
ATOM     18  C   UNL     1      27.376 -31.720 -14.264  1.00  0.00     0.016 C 
ATOM     19  C   UNL     1      26.576 -32.145  -8.030  1.00  0.00     0.012 C 
ENDROOT
BRANCH   1  20
ATOM     20  C   UNL     1      25.827 -29.307  -7.514  1.00  0.00     0.133 C 
ATOM     21  C   UNL     1      26.789 -28.155  -7.534  1.00  0.00     0.088 C 
ATOM     22  O   UNL     1      25.378 -29.677  -6.439  1.00  0.00    -0.300 OA
ENDBRANCH   1  20
BRANCH  16  23
ATOM     23  O   UNL     1      25.933 -27.293 -15.190  1.00  0.00    -0.393 OA
ATOM     24  H   UNL     1      25.047 -27.075 -15.583  1.00  0.00     0.210 HD
ENDBRANCH  16  23
TORSDOF 2
ENDMDL
MODEL 4
REMARK VINA RESULT:    -5.769      1.630      2.167
REMARK INTER + INTRA:          -6.428
REMARK INTER:                  -6.265
REMARK INTRA:                  -0.164
REMARK UNBOUND:                -0.153
REMARK SMILES CC(=O)[C@@H]1CC[C@H]2[C@H]3CC=C4C[C@@H](O)CC[C@@]4(C)[C@@H]3CC[C@@]12C
REMARK SMILES IDX 4 1 5 2 6 3 7 4 22 5 21 6 20 7 19 8 8 9 9 10 10 11 11 12
REMARK SMILES IDX 17 13 16 14 15 15 13 16 12 17 18 18 23 19 2 20 1 21 3 22
REMARK SMILES IDX 14 23
REMARK H PARENT 14 24
REMARK Flexibility Score: inf
ROOT
ATOM      1  C   UNL     1      12.596 -42.019  -8.567  1.00  0.00     0.062 C 
ATOM      2  C   UNL     1      12.207 -43.002  -7.453  1.00  0.00     0.012 C 
ATOM      3  C   UNL     1      13.275 -42.869  -6.367  1.00  0.00     0.005 C 
ATOM      4  C   UNL     1      14.395 -41.980  -6.954  1.00  0.00    -0.001 C 
ATOM      5  C   UNL     1      13.627 -41.040  -7.941  1.00  0.00    -0.020 C 
ATOM      6  C   UNL     1      14.511 -40.345  -9.034  1.00  0.00     0.008 C 
ATOM      7  C   UNL     1      15.984 -40.729  -8.980  1.00  0.00     0.005 C 
ATOM      8  C   UNL     1      16.108 -42.257  -8.936  1.00  0.00     0.003 C 
ATOM      9  C   UNL     1      15.644 -42.767  -7.551  1.00  0.00     0.000 C 
ATOM     10  C   UNL     1      15.521 -44.303  -7.621  1.00  0.00     0.031 C 
ATOM     11  C   UNL     1      16.720 -44.960  -8.255  1.00  0.00    -0.027 C 
ATOM     12  C   UNL     1      17.589 -44.325  -9.073  1.00  0.00    -0.065 C 
ATOM     13  C   UNL     1      17.530 -42.812  -9.330  1.00  0.00    -0.008 C 
ATOM     14  C   UNL     1      17.771 -42.560 -10.856  1.00  0.00     0.014 C 
ATOM     15  C   UNL     1      18.964 -43.336 -11.442  1.00  0.00     0.033 C 
ATOM     16  C   UNL     1      18.849 -44.843 -11.180  1.00  0.00     0.118 C 
ATOM     17  C   UNL     1      18.731 -45.119  -9.677  1.00  0.00     0.063 C 
ATOM     18  C   UNL     1      18.655 -42.122  -8.512  1.00  0.00     0.016 C 
ATOM     19  C   UNL     1      12.920 -39.918  -7.123  1.00  0.00     0.012 C 
ENDROOT
BRANCH   1  20
ATOM     20  C   UNL     1      11.397 -41.366  -9.236  1.00  0.00     0.133 C 
ATOM     21  C   UNL     1      10.029 -41.450  -8.627  1.00  0.00     0.088 C 
ATOM     22  O   UNL     1      11.536 -40.744 -10.280  1.00  0.00    -0.300 OA
ENDBRANCH   1  20
BRANCH  16  23
ATOM     23  O   UNL     1      17.734 -45.357 -11.863  1.00  0.00    -0.393 OA
ATOM     24  H   UNL     1      17.776 -46.346 -11.776  1.00  0.00     0.210 HD
ENDBRANCH  16  23
TORSDOF 2
ENDMDL
MODEL 5
REMARK VINA RESULT:    -5.763      2.363      3.923
REMARK INTER + INTRA:          -6.421
REMARK INTER:                  -6.288
REMARK INTRA:                  -0.133
REMARK UNBOUND:                -0.153
REMARK SMILES CC(=O)[C@@H]1CC[C@H]2[C@H]3CC=C4C[C@@H](O)CC[C@@]4(C)[C@@H]3CC[C@@]12C
REMARK SMILES IDX 4 1 5 2 6 3 7 4 22 5 21 6 20 7 19 8 8 9 9 10 10 11 11 12
REMARK SMILES IDX 17 13 16 14 15 15 13 16 12 17 18 18 23 19 2 20 1 21 3 22
REMARK SMILES IDX 14 23
REMARK H PARENT 14 24
REMARK Flexibility Score: inf
ROOT
ATOM      1  C   UNL     1      17.192 -43.846  -8.989  1.00  0.00     0.062 C 
ATOM      2  C   UNL     1      16.646 -44.704 -10.140  1.00  0.00     0.012 C 
ATOM      3  C   UNL     1      17.210 -46.110  -9.935  1.00  0.00     0.005 C 
ATOM      4  C   UNL     1      18.256 -46.008  -8.802  1.00  0.00    -0.001 C 
ATOM      5  C   UNL     1      17.710 -44.841  -7.915  1.00  0.00    -0.020 C 
ATOM      6  C   UNL     1      18.758 -44.175  -6.958  1.00  0.00     0.008 C 
ATOM      7  C   UNL     1      20.163 -44.753  -7.075  1.00  0.00     0.005 C 
ATOM      8  C   UNL     1      20.576 -44.785  -8.552  1.00  0.00     0.003 C 
ATOM      9  C   UNL     1      19.769 -45.885  -9.283  1.00  0.00     0.000 C 
ATOM     10  C   UNL     1      19.998 -45.720 -10.799  1.00  0.00     0.031 C 
ATOM     11  C   UNL     1      21.452 -45.549 -11.158  1.00  0.00    -0.027 C 
ATOM     12  C   UNL     1      22.403 -45.130 -10.293  1.00  0.00    -0.065 C 
ATOM     13  C   UNL     1      22.127 -44.922  -8.797  1.00  0.00    -0.008 C 
ATOM     14  C   UNL     1      22.834 -43.602  -8.343  1.00  0.00     0.014 C 
ATOM     15  C   UNL     1      24.290 -43.468  -8.824  1.00  0.00     0.033 C 
ATOM     16  C   UNL     1      24.403 -43.616 -10.346  1.00  0.00     0.118 C 
ATOM     17  C   UNL     1      23.822 -44.960 -10.800  1.00  0.00     0.063 C 
ATOM     18  C   UNL     1      22.723 -46.120  -8.009  1.00  0.00     0.016 C 
ATOM     19  C   UNL     1      16.544 -45.381  -7.032  1.00  0.00     0.012 C 
ENDROOT
BRANCH   1  20
ATOM     20  C   UNL     1      16.199 -42.807  -8.493  1.00  0.00     0.133 C 
ATOM     21  C   UNL     1      16.666 -41.540  -7.838  1.00  0.00     0.088 C 
ATOM     22  O   UNL     1      14.998 -42.983  -8.637  1.00  0.00    -0.300 OA
ENDBRANCH   1  20
BRANCH  16  23
ATOM     23  O   UNL     1      23.733 -42.554 -10.976  1.00  0.00    -0.393 OA
ATOM     24  H   UNL     1      23.162 -42.954 -11.683  1.00  0.00     0.210 HD
ENDBRANCH  16  23
TORSDOF 2
ENDMDL
MODEL 6
REMARK VINA RESULT:    -5.725     11.808     16.160
REMARK INTER + INTRA:          -6.380
REMARK INTER:                  -6.242
REMARK INTRA:                  -0.138
REMARK UNBOUND:                -0.153
REMARK SMILES CC(=O)[C@@H]1CC[C@H]2[C@H]3CC=C4C[C@@H](O)CC[C@@]4(C)[C@@H]3CC[C@@]12C
REMARK SMILES IDX 4 1 5 2 6 3 7 4 22 5 21 6 20 7 19 8 8 9 9 10 10 11 11 12
REMARK SMILES IDX 17 13 16 14 15 15 13 16 12 17 18 18 23 19 2 20 1 21 3 22
REMARK SMILES IDX 14 23
REMARK H PARENT 14 24
REMARK Flexibility Score: inf
ROOT
ATOM      1  C   UNL     1      26.989 -43.363 -17.461  1.00  0.00     0.062 C 
ATOM      2  C   UNL     1      28.351 -44.057 -17.312  1.00  0.00     0.012 C 
ATOM      3  C   UNL     1      29.393 -43.085 -17.865  1.00  0.00     0.005 C 
ATOM      4  C   UNL     1      28.613 -41.933 -18.537  1.00  0.00    -0.001 C 
ATOM      5  C   UNL     1      27.293 -41.858 -17.701  1.00  0.00    -0.020 C 
ATOM      6  C   UNL     1      26.095 -41.124 -18.397  1.00  0.00     0.008 C 
ATOM      7  C   UNL     1      26.402 -40.628 -19.805  1.00  0.00     0.005 C 
ATOM      8  C   UNL     1      27.011 -41.773 -20.623  1.00  0.00     0.003 C 
ATOM      9  C   UNL     1      28.446 -42.055 -20.116  1.00  0.00     0.000 C 
ATOM     10  C   UNL     1      28.933 -43.369 -20.761  1.00  0.00     0.031 C 
ATOM     11  C   UNL     1      28.680 -43.424 -22.245  1.00  0.00    -0.027 C 
ATOM     12  C   UNL     1      27.758 -42.672 -22.886  1.00  0.00    -0.065 C 
ATOM     13  C   UNL     1      26.962 -41.563 -22.184  1.00  0.00    -0.008 C 
ATOM     14  C   UNL     1      25.474 -41.644 -22.663  1.00  0.00     0.014 C 
ATOM     15  C   UNL     1      25.308 -41.785 -24.187  1.00  0.00     0.033 C 
ATOM     16  C   UNL     1      26.093 -42.981 -24.738  1.00  0.00     0.118 C 
ATOM     17  C   UNL     1      27.578 -42.860 -24.380  1.00  0.00     0.063 C 
ATOM     18  C   UNL     1      27.556 -40.187 -22.591  1.00  0.00     0.016 C 
ATOM     19  C   UNL     1      27.585 -41.117 -16.361  1.00  0.00     0.012 C 
ENDROOT
BRANCH   1  20
ATOM     20  C   UNL     1      26.035 -43.662 -16.316  1.00  0.00     0.133 C 
ATOM     21  C   UNL     1      24.552 -43.505 -16.482  1.00  0.00     0.088 C 
ATOM     22  O   UNL     1      26.466 -44.053 -15.240  1.00  0.00    -0.300 OA
ENDBRANCH   1  20
BRANCH  16  23
ATOM     23  O   UNL     1      25.560 -44.174 -24.221  1.00  0.00    -0.393 OA
ATOM     24  H   UNL     1      25.028 -43.928 -23.420  1.00  0.00     0.210 HD
ENDBRANCH  16  23
TORSDOF 2
ENDMDL
MODEL 7
REMARK VINA RESULT:    -5.636     14.134     17.053
REMARK INTER + INTRA:          -6.283
REMARK INTER:                  -6.115
REMARK INTRA:                  -0.168
REMARK UNBOUND:                -0.153
REMARK SMILES CC(=O)[C@@H]1CC[C@H]2[C@H]3CC=C4C[C@@H](O)CC[C@@]4(C)[C@@H]3CC[C@@]12C
REMARK SMILES IDX 4 1 5 2 6 3 7 4 22 5 21 6 20 7 19 8 8 9 9 10 10 11 11 12
REMARK SMILES IDX 17 13 16 14 15 15 13 16 12 17 18 18 23 19 2 20 1 21 3 22
REMARK SMILES IDX 14 23
REMARK H PARENT 14 24
REMARK Flexibility Score: inf
ROOT
ATOM      1  C   UNL     1      25.219 -42.203 -23.307  1.00  0.00     0.062 C 
ATOM      2  C   UNL     1      26.108 -41.145 -23.979  1.00  0.00     0.012 C 
ATOM      3  C   UNL     1      27.487 -41.783 -24.145  1.00  0.00     0.005 C 
ATOM      4  C   UNL     1      27.455 -43.119 -23.368  1.00  0.00    -0.001 C 
ATOM      5  C   UNL     1      25.958 -43.560 -23.475  1.00  0.00    -0.020 C 
ATOM      6  C   UNL     1      25.490 -44.616 -22.415  1.00  0.00     0.008 C 
ATOM      7  C   UNL     1      26.569 -45.019 -21.418  1.00  0.00     0.005 C 
ATOM      8  C   UNL     1      27.206 -43.756 -20.824  1.00  0.00     0.003 C 
ATOM      9  C   UNL     1      28.076 -43.067 -21.903  1.00  0.00     0.000 C 
ATOM     10  C   UNL     1      28.484 -41.677 -21.375  1.00  0.00     0.031 C 
ATOM     11  C   UNL     1      29.002 -41.713 -19.961  1.00  0.00    -0.027 C 
ATOM     12  C   UNL     1      28.740 -42.706 -19.082  1.00  0.00    -0.065 C 
ATOM     13  C   UNL     1      27.997 -43.990 -19.481  1.00  0.00    -0.008 C 
ATOM     14  C   UNL     1      26.980 -44.345 -18.345  1.00  0.00     0.014 C 
ATOM     15  C   UNL     1      27.570 -44.276 -16.926  1.00  0.00     0.033 C 
ATOM     16  C   UNL     1      28.207 -42.910 -16.639  1.00  0.00     0.118 C 
ATOM     17  C   UNL     1      29.292 -42.595 -17.674  1.00  0.00     0.063 C 
ATOM     18  C   UNL     1      29.030 -45.141 -19.623  1.00  0.00     0.016 C 
ATOM     19  C   UNL     1      25.711 -44.170 -24.888  1.00  0.00     0.012 C 
ENDROOT
BRANCH   1  20
ATOM     20  C   UNL     1      23.781 -42.178 -23.799  1.00  0.00     0.133 C 
ATOM     21  C   UNL     1      23.401 -41.436 -25.047  1.00  0.00     0.088 C 
ATOM     22  O   UNL     1      22.909 -42.780 -23.188  1.00  0.00    -0.300 OA
ENDBRANCH   1  20
BRANCH  16  23
ATOM     23  O   UNL     1      27.215 -41.915 -16.649  1.00  0.00    -0.393 OA
ATOM     24  H   UNL     1      27.285 -41.449 -17.524  1.00  0.00     0.210 HD
ENDBRANCH  16  23
TORSDOF 2
ENDMDL
MODEL 8
REMARK VINA RESULT:    -5.583      2.154      6.784
REMARK INTER + INTRA:          -6.226
REMARK INTER:                  -6.145
REMARK INTRA:                  -0.081
REMARK UNBOUND:                -0.153
REMARK SMILES CC(=O)[C@@H]1CC[C@H]2[C@H]3CC=C4C[C@@H](O)CC[C@@]4(C)[C@@H]3CC[C@@]12C
REMARK SMILES IDX 4 1 5 2 6 3 7 4 22 5 21 6 20 7 19 8 8 9 9 10 10 11 11 12
REMARK SMILES IDX 17 13 16 14 15 15 13 16 12 17 18 18 23 19 2 20 1 21 3 22
REMARK SMILES IDX 14 23
REMARK H PARENT 14 24
REMARK Flexibility Score: inf
ROOT
ATOM      1  C   UNL     1      21.417 -45.397  -9.814  1.00  0.00     0.062 C 
ATOM      2  C   UNL     1      21.062 -46.002 -11.180  1.00  0.00     0.012 C 
ATOM      3  C   UNL     1      20.327 -44.911 -11.958  1.00  0.00     0.005 C 
ATOM      4  C   UNL     1      20.060 -43.759 -10.962  1.00  0.00    -0.001 C 
ATOM      5  C   UNL     1      21.264 -43.858  -9.969  1.00  0.00    -0.020 C 
ATOM      6  C   UNL     1      21.057 -43.149  -8.586  1.00  0.00     0.008 C 
ATOM      7  C   UNL     1      19.687 -42.502  -8.417  1.00  0.00     0.005 C 
ATOM      8  C   UNL     1      18.599 -43.519  -8.784  1.00  0.00     0.003 C 
ATOM      9  C   UNL     1      18.606 -43.745 -10.315  1.00  0.00     0.000 C 
ATOM     10  C   UNL     1      17.701 -44.954 -10.626  1.00  0.00     0.031 C 
ATOM     11  C   UNL     1      16.369 -44.887  -9.924  1.00  0.00    -0.027 C 
ATOM     12  C   UNL     1      16.130 -44.146  -8.819  1.00  0.00    -0.065 C 
ATOM     13  C   UNL     1      17.162 -43.167  -8.240  1.00  0.00    -0.008 C 
ATOM     14  C   UNL     1      17.157 -43.309  -6.681  1.00  0.00     0.014 C 
ATOM     15  C   UNL     1      15.753 -43.318  -6.053  1.00  0.00     0.033 C 
ATOM     16  C   UNL     1      14.857 -44.398  -6.671  1.00  0.00     0.118 C 
ATOM     17  C   UNL     1      14.753 -44.205  -8.188  1.00  0.00     0.063 C 
ATOM     18  C   UNL     1      16.748 -41.720  -8.624  1.00  0.00     0.016 C 
ATOM     19  C   UNL     1      22.524 -43.228 -10.637  1.00  0.00     0.012 C 
ENDROOT
BRANCH   1  20
ATOM     20  C   UNL     1      22.759 -45.870  -9.278  1.00  0.00     0.133 C 
ATOM     21  C   UNL     1      22.963 -46.125  -7.814  1.00  0.00     0.088 C 
ATOM     22  O   UNL     1      23.693 -46.066 -10.043  1.00  0.00    -0.300 OA
ENDBRANCH   1  20
BRANCH  16  23
ATOM     23  O   UNL     1      15.376 -45.669  -6.374  1.00  0.00    -0.393 OA
ATOM     24  H   UNL     1      16.083 -45.855  -7.046  1.00  0.00     0.210 HD
ENDBRANCH  16  23
TORSDOF 2
ENDMDL
