MODEL 1
REMARK VINA RESULT:    -4.988      0.000      0.000
REMARK INTER + INTRA:          -5.134
REMARK INTER:                  -5.134
REMARK INTRA:                   0.000
REMARK UNBOUND:                 0.000
REMARK SMILES Nc1ncnc2nc[nH]c12
REMARK SMILES IDX 8 1 7 2 6 3 5 4 4 5 3 6 2 7 10 8 9 9 1 11
REMARK H PARENT 9 10 1 12 1 13
REMARK Flexibility Score: inf
ROOT
ATOM      1  C   UNL     1     -12.725 -41.271  41.366  1.00  0.00     0.199 A 
ATOM      2  N   UNL     1     -13.041 -40.808  40.126  1.00  0.00    -0.217 NA
ATOM      3  C   UNL     1     -12.115 -39.856  39.931  1.00  0.00     0.182 A 
ATOM      4  N   UNL     1     -11.979 -39.072  38.835  1.00  0.00    -0.215 NA
ATOM      5  C   UNL     1     -10.967 -38.152  38.821  1.00  0.00     0.226 A 
ATOM      6  N   UNL     1     -10.118 -38.034  39.891  1.00  0.00    -0.217 NA
ATOM      7  C   UNL     1     -10.254 -38.824  40.998  1.00  0.00     0.152 A 
ATOM      8  C   UNL     1     -11.289 -39.756  40.998  1.00  0.00     0.127 A 
ATOM      9  N   UNL     1     -11.658 -40.647  41.925  1.00  0.00    -0.340 N 
ATOM     10  H   UNL     1     -11.234 -40.830  42.862  1.00  0.00     0.168 HD
ENDROOT
BRANCH   7  11
ATOM     11  N   UNL     1      -9.358 -38.683  42.102  1.00  0.00    -0.382 N 
ATOM     12  H   UNL     1      -9.216 -37.762  42.572  1.00  0.00     0.158 HD
ATOM     13  H   UNL     1      -8.828 -39.511  42.453  1.00  0.00     0.158 HD
ENDBRANCH   7  11
TORSDOF 1
ENDMDL
MODEL 2
REMARK VINA RESULT:    -4.982      0.931      2.991
REMARK INTER + INTRA:          -5.128
REMARK INTER:                  -5.128
REMARK INTRA:                   0.000
REMARK UNBOUND:                 0.000
REMARK SMILES Nc1ncnc2nc[nH]c12
REMARK SMILES IDX 8 1 7 2 6 3 5 4 4 5 3 6 2 7 10 8 9 9 1 11
REMARK H PARENT 9 10 1 12 1 13
REMARK Flexibility Score: inf
ROOT
ATOM      1  C   UNL     1      -9.652 -38.331  40.901  1.00  0.00     0.199 A 
ATOM      2  N   UNL     1     -10.385 -38.032  39.794  1.00  0.00    -0.217 NA
ATOM      3  C   UNL     1     -11.267 -39.044  39.753  1.00  0.00     0.182 A 
ATOM      4  N   UNL     1     -12.242 -39.231  38.831  1.00  0.00    -0.215 NA
ATOM      5  C   UNL     1     -13.048 -40.328  38.957  1.00  0.00     0.226 A 
ATOM      6  N   UNL     1     -12.868 -41.209  39.993  1.00  0.00    -0.217 NA
ATOM      7  C   UNL     1     -11.885 -41.023  40.924  1.00  0.00     0.152 A 
ATOM      8  C   UNL     1     -11.072 -39.901  40.782  1.00  0.00     0.127 A 
ATOM      9  N   UNL     1     -10.048 -39.468  41.527  1.00  0.00    -0.340 N 
ATOM     10  H   UNL     1      -9.641 -39.895  42.389  1.00  0.00     0.168 HD
ENDROOT
BRANCH   7  11
ATOM     11  N   UNL     1     -11.716 -41.954  41.994  1.00  0.00    -0.382 N 
ATOM     12  H   UNL     1     -12.417 -42.032  42.763  1.00  0.00     0.158 HD
ATOM     13  H   UNL     1     -10.877 -42.575  42.018  1.00  0.00     0.158 HD
ENDBRANCH   7  11
TORSDOF 1
ENDMDL
MODEL 3
REMARK VINA RESULT:    -4.918      3.170      5.000
REMARK INTER + INTRA:          -5.062
REMARK INTER:                  -5.062
REMARK INTRA:                   0.000
REMARK UNBOUND:                 0.000
REMARK SMILES Nc1ncnc2nc[nH]c12
REMARK SMILES IDX 8 1 7 2 6 3 5 4 4 5 3 6 2 7 10 8 9 9 1 11
REMARK H PARENT 9 10 1 12 1 13
REMARK Flexibility Score: inf
ROOT
ATOM      1  C   UNL     1      -9.188 -36.725  38.848  1.00  0.00     0.199 A 
ATOM      2  N   UNL     1     -10.086 -37.402  39.615  1.00  0.00    -0.217 NA
ATOM      3  C   UNL     1     -11.259 -36.918  39.175  1.00  0.00     0.182 A 
ATOM      4  N   UNL     1     -12.493 -37.264  39.614  1.00  0.00    -0.215 NA
ATOM      5  C   UNL     1     -13.576 -36.658  39.041  1.00  0.00     0.226 A 
ATOM      6  N   UNL     1     -13.409 -35.726  38.048  1.00  0.00    -0.217 NA
ATOM      7  C   UNL     1     -12.165 -35.375  37.604  1.00  0.00     0.152 A 
ATOM      8  C   UNL     1     -11.071 -36.001  38.198  1.00  0.00     0.127 A 
ATOM      9  N   UNL     1      -9.760 -35.861  37.972  1.00  0.00    -0.340 N 
ATOM     10  H   UNL     1      -9.277 -35.239  37.287  1.00  0.00     0.168 HD
ENDROOT
BRANCH   7  11
ATOM     11  N   UNL     1     -12.014 -34.402  36.569  1.00  0.00    -0.382 N 
ATOM     12  H   UNL     1     -11.278 -34.498  35.836  1.00  0.00     0.158 HD
ATOM     13  H   UNL     1     -12.648 -33.573  36.536  1.00  0.00     0.158 HD
ENDBRANCH   7  11
TORSDOF 1
ENDMDL
MODEL 4
REMARK VINA RESULT:    -4.882      3.022      3.304
REMARK INTER + INTRA:          -5.024
REMARK INTER:                  -5.024
REMARK INTRA:                   0.000
REMARK UNBOUND:                 0.000
REMARK SMILES Nc1ncnc2nc[nH]c12
REMARK SMILES IDX 8 1 7 2 6 3 5 4 4 5 3 6 2 7 10 8 9 9 1 11
REMARK H PARENT 9 10 1 12 1 13
REMARK Flexibility Score: inf
ROOT
ATOM      1  C   UNL     1     -12.310 -39.634  42.591  1.00  0.00     0.199 A 
ATOM      2  N   UNL     1     -12.285 -39.897  41.255  1.00  0.00    -0.217 NA
ATOM      3  C   UNL     1     -12.962 -38.856  40.746  1.00  0.00     0.182 A 
ATOM      4  N   UNL     1     -13.230 -38.627  39.438  1.00  0.00    -0.215 NA
ATOM      5  C   UNL     1     -13.937 -37.503  39.111  1.00  0.00     0.226 A 
ATOM      6  N   UNL     1     -14.358 -36.636  40.087  1.00  0.00    -0.217 NA
ATOM      7  C   UNL     1     -14.089 -36.865  41.407  1.00  0.00     0.152 A 
ATOM      8  C   UNL     1     -13.369 -38.014  41.725  1.00  0.00     0.127 A 
ATOM      9  N   UNL     1     -12.965 -38.489  42.909  1.00  0.00    -0.340 N 
ATOM     10  H   UNL     1     -13.113 -38.084  43.860  1.00  0.00     0.168 HD
ENDROOT
BRANCH   7  11
ATOM     11  N   UNL     1     -14.538 -35.949  42.406  1.00  0.00    -0.382 N 
ATOM     12  H   UNL     1     -14.155 -35.972  43.377  1.00  0.00     0.158 HD
ATOM     13  H   UNL     1     -15.266 -35.238  42.173  1.00  0.00     0.158 HD
ENDBRANCH   7  11
TORSDOF 1
ENDMDL
MODEL 5
REMARK VINA RESULT:    -4.861      1.260      3.321
REMARK INTER + INTRA:          -5.003
REMARK INTER:                  -5.003
REMARK INTRA:                   0.000
REMARK UNBOUND:                 0.000
REMARK SMILES Nc1ncnc2nc[nH]c12
REMARK SMILES IDX 8 1 7 2 6 3 5 4 4 5 3 6 2 7 10 8 9 9 1 11
REMARK H PARENT 9 10 1 12 1 13
REMARK Flexibility Score: inf
ROOT
ATOM      1  C   UNL     1      -9.888 -36.453  38.362  1.00  0.00     0.199 A 
ATOM      2  N   UNL     1     -10.930 -37.110  37.781  1.00  0.00    -0.217 NA
ATOM      3  C   UNL     1     -11.174 -38.094  38.662  1.00  0.00     0.182 A 
ATOM      4  N   UNL     1     -12.129 -39.050  38.563  1.00  0.00    -0.215 NA
ATOM      5  C   UNL     1     -12.225 -39.973  39.567  1.00  0.00     0.226 A 
ATOM      6  N   UNL     1     -11.375 -39.924  40.642  1.00  0.00    -0.217 NA
ATOM      7  C   UNL     1     -10.411 -38.961  40.744  1.00  0.00     0.152 A 
ATOM      8  C   UNL     1     -10.325 -38.028  39.714  1.00  0.00     0.127 A 
ATOM      9  N   UNL     1      -9.496 -36.991  39.545  1.00  0.00    -0.340 N 
ATOM     10  H   UNL     1      -8.726 -36.662  40.168  1.00  0.00     0.168 HD
ENDROOT
BRANCH   7  11
ATOM     11  N   UNL     1      -9.536 -38.929  41.873  1.00  0.00    -0.382 N 
ATOM     12  H   UNL     1      -8.529 -39.190  41.787  1.00  0.00     0.158 HD
ATOM     13  H   UNL     1      -9.900 -38.642  42.808  1.00  0.00     0.158 HD
ENDBRANCH   7  11
TORSDOF 1
ENDMDL
MODEL 6
REMARK VINA RESULT:    -4.848      3.978      5.629
REMARK INTER + INTRA:          -4.990
REMARK INTER:                  -4.990
REMARK INTRA:                   0.000
REMARK UNBOUND:                 0.000
REMARK SMILES Nc1ncnc2nc[nH]c12
REMARK SMILES IDX 8 1 7 2 6 3 5 4 4 5 3 6 2 7 10 8 9 9 1 11
REMARK H PARENT 9 10 1 12 1 13
REMARK Flexibility Score: inf
ROOT
ATOM      1  C   UNL     1     -12.624 -34.558  37.594  1.00  0.00     0.199 A 
ATOM      2  N   UNL     1     -13.204 -35.514  38.370  1.00  0.00    -0.217 NA
ATOM      3  C   UNL     1     -12.874 -36.645  37.725  1.00  0.00     0.182 A 
ATOM      4  N   UNL     1     -13.208 -37.908  38.084  1.00  0.00    -0.215 NA
ATOM      5  C   UNL     1     -12.777 -38.939  37.296  1.00  0.00     0.226 A 
ATOM      6  N   UNL     1     -12.026 -38.692  36.175  1.00  0.00    -0.217 NA
ATOM      7  C   UNL     1     -11.689 -37.418  35.811  1.00  0.00     0.152 A 
ATOM      8  C   UNL     1     -12.135 -36.379  36.623  1.00  0.00     0.127 A 
ATOM      9  N   UNL     1     -11.963 -35.056  36.518  1.00  0.00    -0.340 N 
ATOM     10  H   UNL     1     -11.444 -34.521  35.787  1.00  0.00     0.168 HD
ENDROOT
BRANCH   7  11
ATOM     11  N   UNL     1     -10.907 -37.185  34.638  1.00  0.00    -0.382 N 
ATOM     12  H   UNL     1     -10.761 -37.932  33.924  1.00  0.00     0.158 HD
ATOM     13  H   UNL     1     -10.466 -36.252  34.483  1.00  0.00     0.158 HD
ENDBRANCH   7  11
TORSDOF 1
ENDMDL
MODEL 7
REMARK VINA RESULT:    -4.816      3.742      4.754
REMARK INTER + INTRA:          -4.957
REMARK INTER:                  -4.957
REMARK INTRA:                   0.000
REMARK UNBOUND:                 0.000
REMARK SMILES Nc1ncnc2nc[nH]c12
REMARK SMILES IDX 8 1 7 2 6 3 5 4 4 5 3 6 2 7 10 8 9 9 1 11
REMARK H PARENT 9 10 1 12 1 13
REMARK Flexibility Score: inf
ROOT
ATOM      1  C   UNL     1     -14.603 -35.472  38.219  1.00  0.00     0.199 A 
ATOM      2  N   UNL     1     -14.013 -36.656  37.899  1.00  0.00    -0.217 NA
ATOM      3  C   UNL     1     -13.811 -37.210  39.105  1.00  0.00     0.182 A 
ATOM      4  N   UNL     1     -13.243 -38.413  39.358  1.00  0.00    -0.215 NA
ATOM      5  C   UNL     1     -13.123 -38.810  40.661  1.00  0.00     0.226 A 
ATOM      6  N   UNL     1     -13.570 -38.005  41.678  1.00  0.00    -0.217 NA
ATOM      7  C   UNL     1     -14.143 -36.791  41.426  1.00  0.00     0.152 A 
ATOM      8  C   UNL     1     -14.258 -36.400  40.094  1.00  0.00     0.127 A 
ATOM      9  N   UNL     1     -14.767 -35.287  39.554  1.00  0.00    -0.340 N 
ATOM     10  H   UNL     1     -15.192 -34.463  40.033  1.00  0.00     0.168 HD
ENDROOT
BRANCH   7  11
ATOM     11  N   UNL     1     -14.600 -35.969  42.501  1.00  0.00    -0.382 N 
ATOM     12  H   UNL     1     -14.315 -34.968  42.579  1.00  0.00     0.158 HD
ATOM     13  H   UNL     1     -15.232 -36.367  43.230  1.00  0.00     0.158 HD
ENDBRANCH   7  11
TORSDOF 1
ENDMDL
MODEL 8
REMARK VINA RESULT:    -4.779      2.787      4.672
REMARK INTER + INTRA:          -4.918
REMARK INTER:                  -4.918
REMARK INTRA:                   0.000
REMARK UNBOUND:                 0.000
REMARK SMILES Nc1ncnc2nc[nH]c12
REMARK SMILES IDX 8 1 7 2 6 3 5 4 4 5 3 6 2 7 10 8 9 9 1 11
REMARK H PARENT 9 10 1 12 1 13
REMARK Flexibility Score: inf
ROOT
ATOM      1  C   UNL     1     -12.853 -34.922  37.279  1.00  0.00     0.199 A 
ATOM      2  N   UNL     1     -13.436 -35.703  38.230  1.00  0.00    -0.217 NA
ATOM      3  C   UNL     1     -12.385 -36.362  38.743  1.00  0.00     0.182 A 
ATOM      4  N   UNL     1     -12.414 -37.281  39.738  1.00  0.00    -0.215 NA
ATOM      5  C   UNL     1     -11.232 -37.848  40.128  1.00  0.00     0.226 A 
ATOM      6  N   UNL     1     -10.054 -37.489  39.522  1.00  0.00    -0.217 NA
ATOM      7  C   UNL     1     -10.023 -36.562  38.518  1.00  0.00     0.152 A 
ATOM      8  C   UNL     1     -11.235 -35.994  38.132  1.00  0.00     0.127 A 
ATOM      9  N   UNL     1     -11.507 -35.078  37.196  1.00  0.00    -0.340 N 
ATOM     10  H   UNL     1     -10.850 -34.590  36.548  1.00  0.00     0.168 HD
ENDROOT
BRANCH   7  11
ATOM     11  N   UNL     1      -8.785 -36.205  37.902  1.00  0.00    -0.382 N 
ATOM     12  H   UNL     1      -8.755 -35.590  37.059  1.00  0.00     0.158 HD
ATOM     13  H   UNL     1      -7.885 -36.561  38.294  1.00  0.00     0.158 HD
ENDBRANCH   7  11
TORSDOF 1
ENDMDL
MODEL 9
REMARK VINA RESULT:    -4.770      2.166      3.390
REMARK INTER + INTRA:          -4.910
REMARK INTER:                  -4.910
REMARK INTRA:                   0.000
REMARK UNBOUND:                 0.000
REMARK SMILES Nc1ncnc2nc[nH]c12
REMARK SMILES IDX 8 1 7 2 6 3 5 4 4 5 3 6 2 7 10 8 9 9 1 11
REMARK H PARENT 9 10 1 12 1 13
REMARK Flexibility Score: inf
ROOT
ATOM      1  C   UNL     1     -10.371 -38.699  40.940  1.00  0.00     0.199 A 
ATOM      2  N   UNL     1     -11.712 -38.462  40.950  1.00  0.00    -0.217 NA
ATOM      3  C   UNL     1     -11.849 -37.547  39.978  1.00  0.00     0.182 A 
ATOM      4  N   UNL     1     -13.002 -36.964  39.573  1.00  0.00    -0.215 NA
ATOM      5  C   UNL     1     -12.942 -36.048  38.559  1.00  0.00     0.226 A 
ATOM      6  N   UNL     1     -11.741 -35.735  37.974  1.00  0.00    -0.217 NA
ATOM      7  C   UNL     1     -10.576 -36.322  38.382  1.00  0.00     0.152 A 
ATOM      8  C   UNL     1     -10.654 -37.252  39.415  1.00  0.00     0.127 A 
ATOM      9  N   UNL     1      -9.697 -37.973  40.011  1.00  0.00    -0.340 N 
ATOM     10  H   UNL     1      -8.672 -37.986  39.818  1.00  0.00     0.168 HD
ENDROOT
BRANCH   7  11
ATOM     11  N   UNL     1      -9.337 -35.980  37.758  1.00  0.00    -0.382 N 
ATOM     12  H   UNL     1      -9.291 -35.272  36.993  1.00  0.00     0.158 HD
ATOM     13  H   UNL     1      -8.453 -36.442  38.066  1.00  0.00     0.158 HD
ENDBRANCH   7  11
TORSDOF 1
ENDMDL
