MODEL 1
REMARK VINA RESULT:    -4.429      0.000      0.000
REMARK INTER + INTRA:          -9.076
REMARK INTER:                  -6.760
REMARK INTRA:                  -2.316
REMARK UNBOUND:                -2.316
REMARK SMILES CC(=O)CCC=C(C)CCC=C(C)CCC=C(C)C
REMARK SMILES IDX 10 1 11 2 12 3 13 4 14 5 15 6 16 7 18 8 17 9 19 10 9 11 7 12
REMARK SMILES IDX 6 13 8 14 5 15 4 16 2 17 3 18 1 19
REMARK H PARENT
REMARK Flexibility Score: inf
ROOT
ATOM      1  C   UNL     1     -16.177 -37.599 210.880  1.00  0.00     0.032 C 
ENDROOT
BRANCH   1   2
ATOM      2  C   UNL     1     -17.398 -37.262 210.057  1.00  0.00    -0.028 C 
ATOM      3  C   UNL     1     -17.625 -37.694 208.795  1.00  0.00    -0.077 C 
ATOM      4  C   UNL     1     -16.610 -38.509 208.032  1.00  0.00     0.039 C 
BRANCH   3   5
ATOM      5  C   UNL     1     -18.919 -37.313 208.105  1.00  0.00     0.034 C 
BRANCH   5   6
ATOM      6  C   UNL     1     -19.916 -38.479 208.082  1.00  0.00     0.032 C 
BRANCH   6   7
ATOM      7  C   UNL     1     -20.105 -39.091 209.450  1.00  0.00    -0.028 C 
ATOM      8  C   UNL     1     -18.951 -41.229 208.843  1.00  0.00     0.039 C 
ATOM      9  C   UNL     1     -19.640 -40.306 209.817  1.00  0.00    -0.080 C 
ATOM     10  C   UNL     1     -19.865 -40.800 211.222  1.00  0.00     0.039 C 
ENDBRANCH   6   7
ENDBRANCH   5   6
ENDBRANCH   3   5
ENDBRANCH   1   2
BRANCH   1  11
ATOM     11  C   UNL     1     -16.570 -38.308 212.182  1.00  0.00     0.034 C 
BRANCH  11  12
ATOM     12  C   UNL     1     -16.292 -39.795 212.116  1.00  0.00    -0.077 C 
ATOM     13  C   UNL     1     -16.032 -40.361 210.915  1.00  0.00    -0.028 C 
ATOM     14  C   UNL     1     -16.347 -40.608 213.388  1.00  0.00     0.039 C 
BRANCH  13  15
ATOM     15  C   UNL     1     -15.730 -41.824 210.707  1.00  0.00     0.035 C 
BRANCH  15  16
ATOM     16  C   UNL     1     -14.406 -42.003 209.948  1.00  0.00     0.079 C 
BRANCH  16  17
ATOM     17  C   UNL     1     -14.434 -41.513 208.518  1.00  0.00     0.130 C 
ATOM     18  O   UNL     1     -15.355 -41.872 207.800  1.00  0.00    -0.300 OA
ATOM     19  C   UNL     1     -13.383 -40.604 207.944  1.00  0.00     0.087 C 
ENDBRANCH  16  17
ENDBRANCH  15  16
ENDBRANCH  13  15
ENDBRANCH  11  12
ENDBRANCH   1  11
TORSDOF 9
ENDMDL
MODEL 2
REMARK VINA RESULT:    -4.202     14.518     17.036
REMARK INTER + INTRA:          -8.728
REMARK INTER:                  -7.648
REMARK INTRA:                  -1.080
REMARK UNBOUND:                -2.316
REMARK SMILES CC(=O)CCC=C(C)CCC=C(C)CCC=C(C)C
REMARK SMILES IDX 10 1 11 2 12 3 13 4 14 5 15 6 16 7 18 8 17 9 19 10 9 11 7 12
REMARK SMILES IDX 6 13 8 14 5 15 4 16 2 17 3 18 1 19
REMARK H PARENT
REMARK Flexibility Score: inf
ROOT
ATOM      1  C   UNL     1      -4.871 -38.656 221.974  1.00  0.00     0.032 C 
ENDROOT
BRANCH   1   2
ATOM      2  C   UNL     1      -5.422 -39.599 220.931  1.00  0.00    -0.028 C 
ATOM      3  C   UNL     1      -5.652 -39.274 219.637  1.00  0.00    -0.077 C 
ATOM      4  C   UNL     1      -5.456 -37.872 219.116  1.00  0.00     0.039 C 
BRANCH   3   5
ATOM      5  C   UNL     1      -6.166 -40.338 218.689  1.00  0.00     0.034 C 
BRANCH   5   6
ATOM      6  C   UNL     1      -5.405 -40.326 217.355  1.00  0.00     0.032 C 
BRANCH   6   7
ATOM      7  C   UNL     1      -6.299 -39.958 216.195  1.00  0.00    -0.028 C 
ATOM      8  C   UNL     1      -4.707 -38.251 215.287  1.00  0.00     0.039 C 
ATOM      9  C   UNL     1      -5.980 -39.059 215.237  1.00  0.00    -0.080 C 
ATOM     10  C   UNL     1      -6.942 -38.795 214.108  1.00  0.00     0.039 C 
ENDBRANCH   6   7
ENDBRANCH   5   6
ENDBRANCH   3   5
ENDBRANCH   1   2
BRANCH   1  11
ATOM     11  C   UNL     1      -5.931 -38.325 223.031  1.00  0.00     0.034 C 
BRANCH  11  12
ATOM     12  C   UNL     1      -5.546 -37.112 223.851  1.00  0.00    -0.077 C 
ATOM     13  C   UNL     1      -4.386 -36.473 223.572  1.00  0.00    -0.028 C 
ATOM     14  C   UNL     1      -6.450 -36.672 224.978  1.00  0.00     0.039 C 
BRANCH  13  15
ATOM     15  C   UNL     1      -3.886 -35.251 224.302  1.00  0.00     0.035 C 
BRANCH  15  16
ATOM     16  C   UNL     1      -4.011 -34.002 223.418  1.00  0.00     0.079 C 
BRANCH  16  17
ATOM     17  C   UNL     1      -5.036 -32.997 223.897  1.00  0.00     0.130 C 
ATOM     18  O   UNL     1      -6.202 -33.159 223.573  1.00  0.00    -0.300 OA
ATOM     19  C   UNL     1      -4.682 -31.813 224.755  1.00  0.00     0.087 C 
ENDBRANCH  16  17
ENDBRANCH  15  16
ENDBRANCH  13  15
ENDBRANCH  11  12
ENDBRANCH   1  11
TORSDOF 9
ENDMDL
MODEL 3
REMARK VINA RESULT:    -4.065     13.900     16.653
REMARK INTER + INTRA:          -8.519
REMARK INTER:                  -7.383
REMARK INTRA:                  -1.136
REMARK UNBOUND:                -2.316
REMARK SMILES CC(=O)CCC=C(C)CCC=C(C)CCC=C(C)C
REMARK SMILES IDX 10 1 11 2 12 3 13 4 14 5 15 6 16 7 18 8 17 9 19 10 9 11 7 12
REMARK SMILES IDX 6 13 8 14 5 15 4 16 2 17 3 18 1 19
REMARK H PARENT
REMARK Flexibility Score: inf
ROOT
ATOM      1  C   UNL     1      -5.276 -39.103 220.890  1.00  0.00     0.032 C 
ENDROOT
BRANCH   1   2
ATOM      2  C   UNL     1      -5.876 -38.486 222.131  1.00  0.00    -0.028 C 
ATOM      3  C   UNL     1      -5.166 -37.999 223.175  1.00  0.00    -0.077 C 
ATOM      4  C   UNL     1      -3.662 -38.106 223.241  1.00  0.00     0.039 C 
BRANCH   3   5
ATOM      5  C   UNL     1      -5.901 -37.366 224.338  1.00  0.00     0.034 C 
BRANCH   5   6
ATOM      6  C   UNL     1      -4.995 -36.417 225.135  1.00  0.00     0.032 C 
BRANCH   6   7
ATOM      7  C   UNL     1      -5.431 -34.976 225.009  1.00  0.00    -0.028 C 
ATOM      8  C   UNL     1      -3.825 -34.474 223.154  1.00  0.00     0.039 C 
ATOM      9  C   UNL     1      -4.944 -34.106 224.097  1.00  0.00    -0.080 C 
ATOM     10  C   UNL     1      -5.478 -32.698 224.046  1.00  0.00     0.039 C 
ENDBRANCH   6   7
ENDBRANCH   5   6
ENDBRANCH   3   5
ENDBRANCH   1   2
BRANCH   1  11
ATOM     11  C   UNL     1      -5.445 -38.177 219.679  1.00  0.00     0.034 C 
BRANCH  11  12
ATOM     12  C   UNL     1      -5.423 -38.949 218.376  1.00  0.00    -0.077 C 
ATOM     13  C   UNL     1      -4.723 -38.452 217.331  1.00  0.00    -0.028 C 
ATOM     14  C   UNL     1      -6.214 -40.232 218.272  1.00  0.00     0.039 C 
BRANCH  13  15
ATOM     15  C   UNL     1      -4.610 -39.120 215.983  1.00  0.00     0.035 C 
BRANCH  15  16
ATOM     16  C   UNL     1      -5.636 -38.537 215.001  1.00  0.00     0.079 C 
BRANCH  16  17
ATOM     17  C   UNL     1      -6.631 -39.543 214.466  1.00  0.00     0.130 C 
ATOM     18  O   UNL     1      -7.745 -39.149 214.156  1.00  0.00    -0.300 OA
ATOM     19  C   UNL     1      -6.308 -41.002 214.296  1.00  0.00     0.087 C 
ENDBRANCH  16  17
ENDBRANCH  15  16
ENDBRANCH  13  15
ENDBRANCH  11  12
ENDBRANCH   1  11
TORSDOF 9
ENDMDL
MODEL 4
REMARK VINA RESULT:    -4.052     14.709     17.369
REMARK INTER + INTRA:          -8.500
REMARK INTER:                  -7.540
REMARK INTRA:                  -0.960
REMARK UNBOUND:                -2.316
REMARK SMILES CC(=O)CCC=C(C)CCC=C(C)CCC=C(C)C
REMARK SMILES IDX 10 1 11 2 12 3 13 4 14 5 15 6 16 7 18 8 17 9 19 10 9 11 7 12
REMARK SMILES IDX 6 13 8 14 5 15 4 16 2 17 3 18 1 19
REMARK H PARENT
REMARK Flexibility Score: inf
ROOT
ATOM      1  C   UNL     1      -5.328 -38.520 221.647  1.00  0.00     0.032 C 
ENDROOT
BRANCH   1   2
ATOM      2  C   UNL     1      -4.444 -37.597 222.454  1.00  0.00    -0.028 C 
ATOM      3  C   UNL     1      -4.797 -37.013 223.623  1.00  0.00    -0.077 C 
ATOM      4  C   UNL     1      -6.179 -37.163 224.208  1.00  0.00     0.039 C 
BRANCH   3   5
ATOM      5  C   UNL     1      -3.790 -36.144 224.348  1.00  0.00     0.034 C 
BRANCH   5   6
ATOM      6  C   UNL     1      -3.313 -34.977 223.472  1.00  0.00     0.032 C 
BRANCH   6   7
ATOM      7  C   UNL     1      -3.323 -33.665 224.222  1.00  0.00    -0.028 C 
ATOM      8  C   UNL     1      -5.730 -33.197 223.713  1.00  0.00     0.039 C 
ATOM      9  C   UNL     1      -4.411 -32.878 224.373  1.00  0.00    -0.080 C 
ATOM     10  C   UNL     1      -4.308 -31.603 225.169  1.00  0.00     0.039 C 
ENDBRANCH   6   7
ENDBRANCH   5   6
ENDBRANCH   3   5
ENDBRANCH   1   2
BRANCH   1  11
ATOM     11  C   UNL     1      -5.555 -37.967 220.235  1.00  0.00     0.034 C 
BRANCH  11  12
ATOM     12  C   UNL     1      -4.792 -38.758 219.194  1.00  0.00    -0.077 C 
ATOM     13  C   UNL     1      -5.053 -38.544 217.884  1.00  0.00    -0.028 C 
ATOM     14  C   UNL     1      -3.786 -39.789 219.650  1.00  0.00     0.039 C 
BRANCH  13  15
ATOM     15  C   UNL     1      -4.362 -39.254 216.747  1.00  0.00     0.035 C 
BRANCH  15  16
ATOM     16  C   UNL     1      -4.707 -38.593 215.404  1.00  0.00     0.079 C 
BRANCH  16  17
ATOM     17  C   UNL     1      -6.079 -38.942 214.870  1.00  0.00     0.130 C 
ATOM     18  O   UNL     1      -6.777 -38.041 214.431  1.00  0.00    -0.300 OA
ATOM     19  C   UNL     1      -6.616 -40.346 214.851  1.00  0.00     0.087 C 
ENDBRANCH  16  17
ENDBRANCH  15  16
ENDBRANCH  13  15
ENDBRANCH  11  12
ENDBRANCH   1  11
TORSDOF 9
ENDMDL
MODEL 5
REMARK VINA RESULT:    -3.950     11.827     14.474
REMARK INTER + INTRA:          -8.344
REMARK INTER:                  -5.894
REMARK INTRA:                  -2.450
REMARK UNBOUND:                -2.316
REMARK SMILES CC(=O)CCC=C(C)CCC=C(C)CCC=C(C)C
REMARK SMILES IDX 10 1 11 2 12 3 13 4 14 5 15 6 16 7 18 8 17 9 19 10 9 11 7 12
REMARK SMILES IDX 6 13 8 14 5 15 4 16 2 17 3 18 1 19
REMARK H PARENT
REMARK Flexibility Score: inf
ROOT
ATOM      1  C   UNL     1      -7.929 -41.150 216.040  1.00  0.00     0.032 C 
ENDROOT
BRANCH   1   2
ATOM      2  C   UNL     1      -7.120 -41.530 214.822  1.00  0.00    -0.028 C 
ATOM      3  C   UNL     1      -6.568 -40.651 213.954  1.00  0.00    -0.077 C 
ATOM      4  C   UNL     1      -6.787 -39.163 214.072  1.00  0.00     0.039 C 
BRANCH   3   5
ATOM      5  C   UNL     1      -5.742 -41.176 212.798  1.00  0.00     0.034 C 
BRANCH   5   6
ATOM      6  C   UNL     1      -4.290 -40.679 212.866  1.00  0.00     0.032 C 
BRANCH   6   7
ATOM      7  C   UNL     1      -3.595 -41.131 214.129  1.00  0.00    -0.028 C 
ATOM      8  C   UNL     1      -3.110 -38.799 214.901  1.00  0.00     0.039 C 
ATOM      9  C   UNL     1      -3.099 -40.298 215.070  1.00  0.00    -0.080 C 
ATOM     10  C   UNL     1      -2.451 -40.866 216.306  1.00  0.00     0.039 C 
ENDBRANCH   6   7
ENDBRANCH   5   6
ENDBRANCH   3   5
ENDBRANCH   1   2
BRANCH   1  11
ATOM     11  C   UNL     1      -7.373 -41.822 217.301  1.00  0.00     0.034 C 
BRANCH  11  12
ATOM     12  C   UNL     1      -6.163 -41.089 217.840  1.00  0.00    -0.077 C 
ATOM     13  C   UNL     1      -6.069 -39.753 217.654  1.00  0.00    -0.028 C 
ATOM     14  C   UNL     1      -5.079 -41.878 218.536  1.00  0.00     0.039 C 
BRANCH  13  15
ATOM     15  C   UNL     1      -4.925 -38.900 218.143  1.00  0.00     0.035 C 
BRANCH  15  16
ATOM     16  C   UNL     1      -5.366 -38.028 219.329  1.00  0.00     0.079 C 
BRANCH  16  17
ATOM     17  C   UNL     1      -4.997 -38.585 220.686  1.00  0.00     0.130 C 
ATOM     18  O   UNL     1      -5.785 -38.438 221.607  1.00  0.00    -0.300 OA
ATOM     19  C   UNL     1      -3.707 -39.314 220.948  1.00  0.00     0.087 C 
ENDBRANCH  16  17
ENDBRANCH  15  16
ENDBRANCH  13  15
ENDBRANCH  11  12
ENDBRANCH   1  11
TORSDOF 9
ENDMDL
MODEL 6
REMARK VINA RESULT:    -3.933      1.466      2.282
REMARK INTER + INTRA:          -8.318
REMARK INTER:                  -6.180
REMARK INTRA:                  -2.138
REMARK UNBOUND:                -2.316
REMARK SMILES CC(=O)CCC=C(C)CCC=C(C)CCC=C(C)C
REMARK SMILES IDX 10 1 11 2 12 3 13 4 14 5 15 6 16 7 18 8 17 9 19 10 9 11 7 12
REMARK SMILES IDX 6 13 8 14 5 15 4 16 2 17 3 18 1 19
REMARK H PARENT
REMARK Flexibility Score: inf
ROOT
ATOM      1  C   UNL     1     -16.441 -38.807 212.982  1.00  0.00     0.032 C 
ENDROOT
BRANCH   1   2
ATOM      2  C   UNL     1     -17.409 -38.456 211.876  1.00  0.00    -0.028 C 
ATOM      3  C   UNL     1     -17.067 -37.876 210.702  1.00  0.00    -0.077 C 
ATOM      4  C   UNL     1     -15.655 -37.431 210.410  1.00  0.00     0.039 C 
BRANCH   3   5
ATOM      5  C   UNL     1     -18.139 -37.622 209.663  1.00  0.00     0.034 C 
BRANCH   5   6
ATOM      6  C   UNL     1     -18.953 -38.889 209.365  1.00  0.00     0.032 C 
BRANCH   6   7
ATOM      7  C   UNL     1     -18.820 -39.323 207.924  1.00  0.00    -0.028 C 
ATOM      8  C   UNL     1     -19.270 -41.734 208.430  1.00  0.00     0.039 C 
ATOM      9  C   UNL     1     -19.001 -40.588 207.486  1.00  0.00    -0.080 C 
ATOM     10  C   UNL     1     -18.870 -40.898 206.017  1.00  0.00     0.039 C 
ENDBRANCH   6   7
ENDBRANCH   5   6
ENDBRANCH   3   5
ENDBRANCH   1   2
BRANCH   1  11
ATOM     11  C   UNL     1     -16.431 -40.317 213.245  1.00  0.00     0.034 C 
BRANCH  11  12
ATOM     12  C   UNL     1     -16.665 -41.108 211.975  1.00  0.00    -0.077 C 
ATOM     13  C   UNL     1     -15.695 -41.139 211.034  1.00  0.00    -0.028 C 
ATOM     14  C   UNL     1     -17.989 -41.810 211.783  1.00  0.00     0.039 C 
BRANCH  13  15
ATOM     15  C   UNL     1     -15.792 -41.892 209.730  1.00  0.00     0.035 C 
BRANCH  15  16
ATOM     16  C   UNL     1     -14.494 -41.748 208.921  1.00  0.00     0.079 C 
BRANCH  16  17
ATOM     17  C   UNL     1     -14.271 -40.370 208.338  1.00  0.00     0.130 C 
ATOM     18  O   UNL     1     -13.231 -39.789 208.607  1.00  0.00    -0.300 OA
ATOM     19  C   UNL     1     -15.268 -39.690 207.441  1.00  0.00     0.087 C 
ENDBRANCH  16  17
ENDBRANCH  15  16
ENDBRANCH  13  15
ENDBRANCH  11  12
ENDBRANCH   1  11
TORSDOF 9
ENDMDL
MODEL 7
REMARK VINA RESULT:    -3.930     14.250     16.687
REMARK INTER + INTRA:          -8.313
REMARK INTER:                  -7.356
REMARK INTRA:                  -0.958
REMARK UNBOUND:                -2.316
REMARK SMILES CC(=O)CCC=C(C)CCC=C(C)CCC=C(C)C
REMARK SMILES IDX 10 1 11 2 12 3 13 4 14 5 15 6 16 7 18 8 17 9 19 10 9 11 7 12
REMARK SMILES IDX 6 13 8 14 5 15 4 16 2 17 3 18 1 19
REMARK H PARENT
REMARK Flexibility Score: inf
ROOT
ATOM      1  C   UNL     1      -5.745 -38.226 220.146  1.00  0.00     0.032 C 
ENDROOT
BRANCH   1   2
ATOM      2  C   UNL     1      -4.777 -38.629 219.058  1.00  0.00    -0.028 C 
ATOM      3  C   UNL     1      -5.007 -39.591 218.134  1.00  0.00    -0.077 C 
ATOM      4  C   UNL     1      -6.253 -40.440 218.155  1.00  0.00     0.039 C 
BRANCH   3   5
ATOM      5  C   UNL     1      -3.962 -39.858 217.071  1.00  0.00     0.034 C 
BRANCH   5   6
ATOM      6  C   UNL     1      -3.958 -38.767 215.991  1.00  0.00     0.032 C 
BRANCH   6   7
ATOM      7  C   UNL     1      -5.334 -38.538 215.411  1.00  0.00    -0.028 C 
ATOM      8  C   UNL     1      -5.262 -40.596 213.985  1.00  0.00     0.039 C 
ATOM      9  C   UNL     1      -5.947 -39.373 214.543  1.00  0.00    -0.080 C 
ATOM     10  C   UNL     1      -7.336 -39.055 214.053  1.00  0.00     0.039 C 
ENDBRANCH   6   7
ENDBRANCH   5   6
ENDBRANCH   3   5
ENDBRANCH   1   2
BRANCH   1  11
ATOM     11  C   UNL     1      -5.433 -38.958 221.457  1.00  0.00     0.034 C 
BRANCH  11  12
ATOM     12  C   UNL     1      -4.414 -38.207 222.288  1.00  0.00    -0.077 C 
ATOM     13  C   UNL     1      -4.775 -37.042 222.873  1.00  0.00    -0.028 C 
ATOM     14  C   UNL     1      -3.015 -38.764 222.410  1.00  0.00     0.039 C 
BRANCH  13  15
ATOM     15  C   UNL     1      -3.865 -36.199 223.732  1.00  0.00     0.035 C 
BRANCH  15  16
ATOM     16  C   UNL     1      -3.925 -34.725 223.304  1.00  0.00     0.079 C 
BRANCH  16  17
ATOM     17  C   UNL     1      -4.886 -33.879 224.110  1.00  0.00     0.130 C 
ATOM     18  O   UNL     1      -5.688 -34.445 224.837  1.00  0.00    -0.300 OA
ATOM     19  C   UNL     1      -4.893 -32.376 224.058  1.00  0.00     0.087 C 
ENDBRANCH  16  17
ENDBRANCH  15  16
ENDBRANCH  13  15
ENDBRANCH  11  12
ENDBRANCH   1  11
TORSDOF 9
ENDMDL
MODEL 8
REMARK VINA RESULT:    -3.852     13.487     15.910
REMARK INTER + INTRA:          -8.195
REMARK INTER:                  -7.102
REMARK INTRA:                  -1.093
REMARK UNBOUND:                -2.316
REMARK SMILES CC(=O)CCC=C(C)CCC=C(C)CCC=C(C)C
REMARK SMILES IDX 10 1 11 2 12 3 13 4 14 5 15 6 16 7 18 8 17 9 19 10 9 11 7 12
REMARK SMILES IDX 6 13 8 14 5 15 4 16 2 17 3 18 1 19
REMARK H PARENT
REMARK Flexibility Score: inf
ROOT
ATOM      1  C   UNL     1      -4.900 -38.302 218.330  1.00  0.00     0.032 C 
ENDROOT
BRANCH   1   2
ATOM      2  C   UNL     1      -4.422 -39.299 217.300  1.00  0.00    -0.028 C 
ATOM      3  C   UNL     1      -3.935 -38.979 216.079  1.00  0.00    -0.077 C 
ATOM      4  C   UNL     1      -3.900 -37.556 215.579  1.00  0.00     0.039 C 
BRANCH   3   5
ATOM      5  C   UNL     1      -3.449 -40.084 215.164  1.00  0.00     0.034 C 
BRANCH   5   6
ATOM      6  C   UNL     1      -4.502 -40.454 214.111  1.00  0.00     0.032 C 
BRANCH   6   7
ATOM      7  C   UNL     1      -5.753 -41.027 214.736  1.00  0.00    -0.028 C 
ATOM      8  C   UNL     1      -7.131 -38.992 214.257  1.00  0.00     0.039 C 
ATOM      9  C   UNL     1      -6.948 -40.399 214.770  1.00  0.00    -0.080 C 
ATOM     10  C   UNL     1      -8.136 -41.083 215.396  1.00  0.00     0.039 C 
ENDBRANCH   6   7
ENDBRANCH   5   6
ENDBRANCH   3   5
ENDBRANCH   1   2
BRANCH   1  11
ATOM     11  C   UNL     1      -5.515 -39.014 219.541  1.00  0.00     0.034 C 
BRANCH  11  12
ATOM     12  C   UNL     1      -4.687 -38.808 220.791  1.00  0.00    -0.077 C 
ATOM     13  C   UNL     1      -5.184 -38.041 221.788  1.00  0.00    -0.028 C 
ATOM     14  C   UNL     1      -3.316 -39.437 220.873  1.00  0.00     0.039 C 
BRANCH  13  15
ATOM     15  C   UNL     1      -4.471 -37.761 223.088  1.00  0.00     0.035 C 
BRANCH  15  16
ATOM     16  C   UNL     1      -4.430 -36.252 223.371  1.00  0.00     0.079 C 
BRANCH  16  17
ATOM     17  C   UNL     1      -5.493 -35.766 224.330  1.00  0.00     0.130 C 
ATOM     18  O   UNL     1      -5.505 -34.583 224.632  1.00  0.00    -0.300 OA
ATOM     19  C   UNL     1      -6.536 -36.673 224.923  1.00  0.00     0.087 C 
ENDBRANCH  16  17
ENDBRANCH  15  16
ENDBRANCH  13  15
ENDBRANCH  11  12
ENDBRANCH   1  11
TORSDOF 9
ENDMDL
MODEL 9
REMARK VINA RESULT:    -3.808     14.260     16.952
REMARK INTER + INTRA:          -8.128
REMARK INTER:                  -6.857
REMARK INTRA:                  -1.271
REMARK UNBOUND:                -2.316
REMARK SMILES CC(=O)CCC=C(C)CCC=C(C)CCC=C(C)C
REMARK SMILES IDX 10 1 11 2 12 3 13 4 14 5 15 6 16 7 18 8 17 9 19 10 9 11 7 12
REMARK SMILES IDX 6 13 8 14 5 15 4 16 2 17 3 18 1 19
REMARK H PARENT
REMARK Flexibility Score: inf
ROOT
ATOM      1  C   UNL     1      -5.074 -38.354 219.399  1.00  0.00     0.032 C 
ENDROOT
BRANCH   1   2
ATOM      2  C   UNL     1      -5.501 -38.399 220.847  1.00  0.00    -0.028 C 
ATOM      3  C   UNL     1      -4.692 -38.717 221.884  1.00  0.00    -0.077 C 
ATOM      4  C   UNL     1      -3.263 -39.156 221.679  1.00  0.00     0.039 C 
BRANCH   3   5
ATOM      5  C   UNL     1      -5.246 -38.677 223.293  1.00  0.00     0.034 C 
BRANCH   5   6
ATOM      6  C   UNL     1      -5.374 -37.238 223.812  1.00  0.00     0.032 C 
BRANCH   6   7
ATOM      7  C   UNL     1      -4.044 -36.672 224.251  1.00  0.00    -0.028 C 
ATOM      8  C   UNL     1      -4.244 -34.634 222.810  1.00  0.00     0.039 C 
ATOM      9  C   UNL     1      -3.545 -35.485 223.841  1.00  0.00    -0.080 C 
ATOM     10  C   UNL     1      -2.217 -35.009 224.369  1.00  0.00     0.039 C 
ENDBRANCH   6   7
ENDBRANCH   5   6
ENDBRANCH   3   5
ENDBRANCH   1   2
BRANCH   1  11
ATOM     11  C   UNL     1      -5.795 -39.432 218.580  1.00  0.00     0.034 C 
BRANCH  11  12
ATOM     12  C   UNL     1      -5.382 -39.399 217.124  1.00  0.00    -0.077 C 
ATOM     13  C   UNL     1      -4.696 -38.329 216.661  1.00  0.00    -0.028 C 
ATOM     14  C   UNL     1      -5.780 -40.544 216.223  1.00  0.00     0.039 C 
BRANCH  13  15
ATOM     15  C   UNL     1      -4.217 -38.170 215.239  1.00  0.00     0.035 C 
BRANCH  15  16
ATOM     16  C   UNL     1      -2.720 -38.496 215.131  1.00  0.00     0.079 C 
BRANCH  16  17
ATOM     17  C   UNL     1      -2.396 -39.644 214.200  1.00  0.00     0.130 C 
ATOM     18  O   UNL     1      -2.116 -39.388 213.039  1.00  0.00    -0.300 OA
ATOM     19  C   UNL     1      -2.399 -41.081 214.642  1.00  0.00     0.087 C 
ENDBRANCH  16  17
ENDBRANCH  15  16
ENDBRANCH  13  15
ENDBRANCH  11  12
ENDBRANCH   1  11
TORSDOF 9
ENDMDL
