MODEL 1
REMARK VINA RESULT:    -7.715      0.000      0.000
REMARK INTER + INTRA:          -8.400
REMARK INTER:                  -8.167
REMARK INTRA:                  -0.233
REMARK UNBOUND:                -0.233
REMARK SMILES O=c1cc(-c2ccccc2)oc2ccccc12
REMARK SMILES IDX 4 1 3 2 2 3 1 4 17 5 16 6 15 7 14 8 13 9 12 10 11 11 5 12
REMARK SMILES IDX 8 13 7 14 9 15 6 16 10 17
REMARK H PARENT
REMARK Flexibility Score: inf
ROOT
ATOM      1  C   UNL     1     -34.902  -5.168 -16.320  1.00  0.00     0.138 A 
ATOM      2  C   UNL     1     -35.555  -4.401 -17.308  1.00  0.00     0.100 A 
ATOM      3  C   UNL     1     -34.810  -3.536 -18.112  1.00  0.00     0.193 A 
ATOM      4  O   UNL     1     -35.394  -2.850 -18.995  1.00  0.00    -0.289 OA
ATOM      5  C   UNL     1     -33.424  -3.442 -17.927  1.00  0.00     0.065 A 
ATOM      6  C   UNL     1     -32.616  -2.591 -18.702  1.00  0.00     0.016 A 
ATOM      7  C   UNL     1     -31.237  -2.536 -18.475  1.00  0.00     0.001 A 
ATOM      8  C   UNL     1     -30.657  -3.326 -17.478  1.00  0.00     0.004 A 
ATOM      9  C   UNL     1     -31.452  -4.174 -16.702  1.00  0.00     0.048 A 
ATOM     10  C   UNL     1     -32.832  -4.237 -16.922  1.00  0.00     0.138 A 
ATOM     11  O   UNL     1     -33.581  -5.047 -16.179  1.00  0.00    -0.456 OA
ENDROOT
BRANCH   1  12
ATOM     12  C   UNL     1     -35.624  -6.117 -15.418  1.00  0.00     0.017 A 
ATOM     13  C   UNL     1     -37.017  -7.959 -13.796  1.00  0.00     0.000 A 
ATOM     14  C   UNL     1     -37.044  -8.091 -15.184  1.00  0.00     0.001 A 
ATOM     15  C   UNL     1     -36.301  -6.915 -13.211  1.00  0.00     0.001 A 
ATOM     16  C   UNL     1     -36.354  -7.181 -15.990  1.00  0.00     0.012 A 
ATOM     17  C   UNL     1     -35.609  -5.999 -14.010  1.00  0.00     0.012 A 
ENDBRANCH   1  12
TORSDOF 1
ENDMDL
MODEL 2
REMARK VINA RESULT:    -7.709      0.096      1.176
REMARK INTER + INTRA:          -8.393
REMARK INTER:                  -8.159
REMARK INTRA:                  -0.234
REMARK UNBOUND:                -0.233
REMARK SMILES O=c1cc(-c2ccccc2)oc2ccccc12
REMARK SMILES IDX 4 1 3 2 2 3 1 4 17 5 16 6 15 7 14 8 13 9 12 10 11 11 5 12
REMARK SMILES IDX 8 13 7 14 9 15 6 16 10 17
REMARK H PARENT
REMARK Flexibility Score: inf
ROOT
ATOM      1  C   UNL     1     -34.891  -5.177 -16.336  1.00  0.00     0.138 A 
ATOM      2  C   UNL     1     -35.512  -4.379 -17.321  1.00  0.00     0.100 A 
ATOM      3  C   UNL     1     -34.735  -3.519 -18.100  1.00  0.00     0.193 A 
ATOM      4  O   UNL     1     -35.289  -2.805 -18.979  1.00  0.00    -0.289 OA
ATOM      5  C   UNL     1     -33.350  -3.462 -17.893  1.00  0.00     0.065 A 
ATOM      6  C   UNL     1     -32.510  -2.618 -18.643  1.00  0.00     0.016 A 
ATOM      7  C   UNL     1     -31.133  -2.600 -18.395  1.00  0.00     0.001 A 
ATOM      8  C   UNL     1     -30.587  -3.420 -17.403  1.00  0.00     0.004 A 
ATOM      9  C   UNL     1     -31.414  -4.261 -16.653  1.00  0.00     0.048 A 
ATOM     10  C   UNL     1     -32.792  -4.287 -16.893  1.00  0.00     0.138 A 
ATOM     11  O   UNL     1     -33.570  -5.090 -16.174  1.00  0.00    -0.456 OA
ENDROOT
BRANCH   1  12
ATOM     12  C   UNL     1     -35.649  -6.123 -15.461  1.00  0.00     0.017 A 
ATOM     13  C   UNL     1     -37.048  -7.858 -13.728  1.00  0.00     0.000 A 
ATOM     14  C   UNL     1     -36.302  -6.802 -13.206  1.00  0.00     0.001 A 
ATOM     15  C   UNL     1     -37.101  -8.056 -15.107  1.00  0.00     0.001 A 
ATOM     16  C   UNL     1     -35.609  -5.941 -14.062  1.00  0.00     0.012 A 
ATOM     17  C   UNL     1     -36.410  -7.199 -15.971  1.00  0.00     0.012 A 
ENDBRANCH   1  12
TORSDOF 1
ENDMDL
MODEL 3
REMARK VINA RESULT:    -7.047      1.584      6.015
REMARK INTER + INTRA:          -7.692
REMARK INTER:                  -7.448
REMARK INTRA:                  -0.244
REMARK UNBOUND:                -0.233
REMARK SMILES O=c1cc(-c2ccccc2)oc2ccccc12
REMARK SMILES IDX 4 1 3 2 2 3 1 4 17 5 16 6 15 7 14 8 13 9 12 10 11 11 5 12
REMARK SMILES IDX 8 13 7 14 9 15 6 16 10 17
REMARK H PARENT
REMARK Flexibility Score: inf
ROOT
ATOM      1  C   UNL     1     -34.294  -3.557 -18.309  1.00  0.00     0.138 A 
ATOM      2  C   UNL     1     -35.453  -2.812 -18.615  1.00  0.00     0.100 A 
ATOM      3  C   UNL     1     -36.698  -3.263 -18.172  1.00  0.00     0.193 A 
ATOM      4  O   UNL     1     -37.734  -2.598 -18.445  1.00  0.00    -0.289 OA
ATOM      5  C   UNL     1     -36.779  -4.450 -17.430  1.00  0.00     0.065 A 
ATOM      6  C   UNL     1     -38.001  -4.959 -16.954  1.00  0.00     0.016 A 
ATOM      7  C   UNL     1     -38.024  -6.149 -16.218  1.00  0.00     0.001 A 
ATOM      8  C   UNL     1     -36.836  -6.834 -15.952  1.00  0.00     0.004 A 
ATOM      9  C   UNL     1     -35.617  -6.335 -16.421  1.00  0.00     0.048 A 
ATOM     10  C   UNL     1     -35.582  -5.147 -17.157  1.00  0.00     0.138 A 
ATOM     11  O   UNL     1     -34.419  -4.681 -17.600  1.00  0.00    -0.456 OA
ENDROOT
BRANCH   1  12
ATOM     12  C   UNL     1     -32.925  -3.145 -18.744  1.00  0.00     0.017 A 
ATOM     13  C   UNL     1     -30.375  -2.347 -19.655  1.00  0.00     0.000 A 
ATOM     14  C   UNL     1     -31.465  -2.331 -20.525  1.00  0.00     0.001 A 
ATOM     15  C   UNL     1     -30.547  -2.759 -18.334  1.00  0.00     0.001 A 
ATOM     16  C   UNL     1     -32.728  -2.724 -20.077  1.00  0.00     0.012 A 
ATOM     17  C   UNL     1     -31.809  -3.155 -17.877  1.00  0.00     0.012 A 
ENDBRANCH   1  12
TORSDOF 1
ENDMDL
MODEL 4
REMARK VINA RESULT:    -7.034      2.501      6.876
REMARK INTER + INTRA:          -7.678
REMARK INTER:                  -7.414
REMARK INTRA:                  -0.264
REMARK UNBOUND:                -0.233
REMARK SMILES O=c1cc(-c2ccccc2)oc2ccccc12
REMARK SMILES IDX 4 1 3 2 2 3 1 4 17 5 16 6 15 7 14 8 13 9 12 10 11 11 5 12
REMARK SMILES IDX 8 13 7 14 9 15 6 16 10 17
REMARK H PARENT
REMARK Flexibility Score: inf
ROOT
ATOM      1  C   UNL     1     -36.626  -5.756 -16.178  1.00  0.00     0.138 A 
ATOM      2  C   UNL     1     -36.219  -7.072 -15.872  1.00  0.00     0.100 A 
ATOM      3  C   UNL     1     -37.003  -7.855 -15.021  1.00  0.00     0.193 A 
ATOM      4  O   UNL     1     -36.640  -9.031 -14.747  1.00  0.00    -0.289 OA
ATOM      5  C   UNL     1     -38.182  -7.321 -14.483  1.00  0.00     0.065 A 
ATOM      6  C   UNL     1     -39.016  -8.055 -13.619  1.00  0.00     0.016 A 
ATOM      7  C   UNL     1     -40.182  -7.474 -13.111  1.00  0.00     0.001 A 
ATOM      8  C   UNL     1     -40.523  -6.163 -13.457  1.00  0.00     0.004 A 
ATOM      9  C   UNL     1     -39.700  -5.426 -14.314  1.00  0.00     0.048 A 
ATOM     10  C   UNL     1     -38.532  -5.998 -14.829  1.00  0.00     0.138 A 
ATOM     11  O   UNL     1     -37.756  -5.289 -15.643  1.00  0.00    -0.456 OA
ENDROOT
BRANCH   1  12
ATOM     12  C   UNL     1     -35.847  -4.853 -17.079  1.00  0.00     0.017 A 
ATOM     13  C   UNL     1     -34.299  -3.211 -18.775  1.00  0.00     0.000 A 
ATOM     14  C   UNL     1     -33.760  -4.391 -18.263  1.00  0.00     0.001 A 
ATOM     15  C   UNL     1     -35.603  -2.844 -18.447  1.00  0.00     0.001 A 
ATOM     16  C   UNL     1     -34.524  -5.206 -17.424  1.00  0.00     0.012 A 
ATOM     17  C   UNL     1     -36.375  -3.653 -17.607  1.00  0.00     0.012 A 
ENDBRANCH   1  12
TORSDOF 1
ENDMDL
MODEL 5
REMARK VINA RESULT:    -7.014      4.837      7.447
REMARK INTER + INTRA:          -7.657
REMARK INTER:                  -7.419
REMARK INTRA:                  -0.238
REMARK UNBOUND:                -0.233
REMARK SMILES O=c1cc(-c2ccccc2)oc2ccccc12
REMARK SMILES IDX 4 1 3 2 2 3 1 4 17 5 16 6 15 7 14 8 13 9 12 10 11 11 5 12
REMARK SMILES IDX 8 13 7 14 9 15 6 16 10 17
REMARK H PARENT
REMARK Flexibility Score: inf
ROOT
ATOM      1  C   UNL     1     -39.750  -5.430 -12.447  1.00  0.00     0.138 A 
ATOM      2  C   UNL     1     -40.561  -6.566 -12.659  1.00  0.00     0.100 A 
ATOM      3  C   UNL     1     -40.104  -7.595 -13.484  1.00  0.00     0.193 A 
ATOM      4  O   UNL     1     -40.829  -8.609 -13.673  1.00  0.00    -0.289 OA
ATOM      5  C   UNL     1     -38.845  -7.485 -14.091  1.00  0.00     0.065 A 
ATOM      6  C   UNL     1     -38.325  -8.485 -14.933  1.00  0.00     0.016 A 
ATOM      7  C   UNL     1     -37.062  -8.325 -15.513  1.00  0.00     0.001 A 
ATOM      8  C   UNL     1     -36.313  -7.173 -15.259  1.00  0.00     0.004 A 
ATOM      9  C   UNL     1     -36.822  -6.174 -14.423  1.00  0.00     0.048 A 
ATOM     10  C   UNL     1     -38.083  -6.325 -13.838  1.00  0.00     0.138 A 
ATOM     11  O   UNL     1     -38.559  -5.369 -13.046  1.00  0.00    -0.456 OA
ENDROOT
BRANCH   1  12
ATOM     12  C   UNL     1     -40.163  -4.285 -11.579  1.00  0.00     0.017 A 
ATOM     13  C   UNL     1     -40.959  -2.188  -9.866  1.00  0.00     0.000 A 
ATOM     14  C   UNL     1     -40.955  -3.504  -9.404  1.00  0.00     0.001 A 
ATOM     15  C   UNL     1     -40.569  -1.910 -11.176  1.00  0.00     0.001 A 
ATOM     16  C   UNL     1     -40.561  -4.544 -10.250  1.00  0.00     0.012 A 
ATOM     17  C   UNL     1     -40.174  -2.946 -12.029  1.00  0.00     0.012 A 
ENDBRANCH   1  12
TORSDOF 1
ENDMDL
MODEL 6
REMARK VINA RESULT:    -6.840      4.641      7.143
REMARK INTER + INTRA:          -7.473
REMARK INTER:                  -7.233
REMARK INTRA:                  -0.240
REMARK UNBOUND:                -0.233
REMARK SMILES O=c1cc(-c2ccccc2)oc2ccccc12
REMARK SMILES IDX 4 1 3 2 2 3 1 4 17 5 16 6 15 7 14 8 13 9 12 10 11 11 5 12
REMARK SMILES IDX 8 13 7 14 9 15 6 16 10 17
REMARK H PARENT
REMARK Flexibility Score: inf
ROOT
ATOM      1  C   UNL     1     -38.284  -4.375 -12.237  1.00  0.00     0.138 A 
ATOM      2  C   UNL     1     -39.561  -4.975 -12.279  1.00  0.00     0.100 A 
ATOM      3  C   UNL     1     -39.763  -6.109 -13.069  1.00  0.00     0.193 A 
ATOM      4  O   UNL     1     -40.903  -6.645 -13.107  1.00  0.00    -0.289 OA
ATOM      5  C   UNL     1     -38.694  -6.634 -13.808  1.00  0.00     0.065 A 
ATOM      6  C   UNL     1     -38.830  -7.774 -14.623  1.00  0.00     0.016 A 
ATOM      7  C   UNL     1     -37.730  -8.257 -15.340  1.00  0.00     0.001 A 
ATOM      8  C   UNL     1     -36.493  -7.611 -15.250  1.00  0.00     0.004 A 
ATOM      9  C   UNL     1     -36.350  -6.478 -14.443  1.00  0.00     0.048 A 
ATOM     10  C   UNL     1     -37.443  -5.987 -13.721  1.00  0.00     0.138 A 
ATOM     11  O   UNL     1     -37.296  -4.909 -12.957  1.00  0.00    -0.456 OA
ENDROOT
BRANCH   1  12
ATOM     12  C   UNL     1     -37.984  -3.160 -11.418  1.00  0.00     0.017 A 
ATOM     13  C   UNL     1     -37.455  -0.914  -9.794  1.00  0.00     0.000 A 
ATOM     14  C   UNL     1     -38.080  -2.036  -9.252  1.00  0.00     0.001 A 
ATOM     15  C   UNL     1     -37.092  -0.903 -11.140  1.00  0.00     0.001 A 
ATOM     16  C   UNL     1     -38.342  -3.150 -10.053  1.00  0.00     0.012 A 
ATOM     17  C   UNL     1     -37.351  -2.014 -11.950  1.00  0.00     0.012 A 
ENDBRANCH   1  12
TORSDOF 1
ENDMDL
MODEL 7
REMARK VINA RESULT:    -6.783      3.703      6.529
REMARK INTER + INTRA:          -7.412
REMARK INTER:                  -7.166
REMARK INTRA:                  -0.246
REMARK UNBOUND:                -0.233
REMARK SMILES O=c1cc(-c2ccccc2)oc2ccccc12
REMARK SMILES IDX 4 1 3 2 2 3 1 4 17 5 16 6 15 7 14 8 13 9 12 10 11 11 5 12
REMARK SMILES IDX 8 13 7 14 9 15 6 16 10 17
REMARK H PARENT
REMARK Flexibility Score: inf
ROOT
ATOM      1  C   UNL     1     -36.893  -4.183 -12.761  1.00  0.00     0.138 A 
ATOM      2  C   UNL     1     -35.754  -4.218 -13.594  1.00  0.00     0.100 A 
ATOM      3  C   UNL     1     -35.594  -5.270 -14.497  1.00  0.00     0.193 A 
ATOM      4  O   UNL     1     -34.577  -5.302 -15.242  1.00  0.00    -0.289 OA
ATOM      5  C   UNL     1     -36.568  -6.277 -14.565  1.00  0.00     0.065 A 
ATOM      6  C   UNL     1     -36.467  -7.364 -15.452  1.00  0.00     0.016 A 
ATOM      7  C   UNL     1     -37.468  -8.341 -15.478  1.00  0.00     0.001 A 
ATOM      8  C   UNL     1     -38.570  -8.241 -14.624  1.00  0.00     0.004 A 
ATOM      9  C   UNL     1     -38.678  -7.165 -13.739  1.00  0.00     0.048 A 
ATOM     10  C   UNL     1     -37.683  -6.182 -13.705  1.00  0.00     0.138 A 
ATOM     11  O   UNL     1     -37.794  -5.162 -12.859  1.00  0.00    -0.456 OA
ENDROOT
BRANCH   1  12
ATOM     12  C   UNL     1     -37.141  -3.093 -11.768  1.00  0.00     0.017 A 
ATOM     13  C   UNL     1     -37.634  -1.106  -9.825  1.00  0.00     0.000 A 
ATOM     14  C   UNL     1     -37.837  -2.450  -9.516  1.00  0.00     0.001 A 
ATOM     15  C   UNL     1     -37.187  -0.745 -11.096  1.00  0.00     0.001 A 
ATOM     16  C   UNL     1     -37.593  -3.437 -10.475  1.00  0.00     0.012 A 
ATOM     17  C   UNL     1     -36.941  -1.726 -12.063  1.00  0.00     0.012 A 
ENDBRANCH   1  12
TORSDOF 1
ENDMDL
MODEL 8
REMARK VINA RESULT:    -6.692      2.138      3.678
REMARK INTER + INTRA:          -7.316
REMARK INTER:                  -7.083
REMARK INTRA:                  -0.233
REMARK UNBOUND:                -0.233
REMARK SMILES O=c1cc(-c2ccccc2)oc2ccccc12
REMARK SMILES IDX 4 1 3 2 2 3 1 4 17 5 16 6 15 7 14 8 13 9 12 10 11 11 5 12
REMARK SMILES IDX 8 13 7 14 9 15 6 16 10 17
REMARK H PARENT
REMARK Flexibility Score: inf
ROOT
ATOM      1  C   UNL     1     -37.114  -6.029 -15.258  1.00  0.00     0.138 A 
ATOM      2  C   UNL     1     -36.077  -5.391 -14.544  1.00  0.00     0.100 A 
ATOM      3  C   UNL     1     -35.070  -4.724 -15.244  1.00  0.00     0.193 A 
ATOM      4  O   UNL     1     -34.143  -4.153 -14.607  1.00  0.00    -0.289 OA
ATOM      5  C   UNL     1     -35.104  -4.697 -16.645  1.00  0.00     0.065 A 
ATOM      6  C   UNL     1     -34.121  -4.042 -17.410  1.00  0.00     0.016 A 
ATOM      7  C   UNL     1     -34.203  -4.046 -18.807  1.00  0.00     0.001 A 
ATOM      8  C   UNL     1     -35.260  -4.698 -19.447  1.00  0.00     0.004 A 
ATOM      9  C   UNL     1     -36.241  -5.352 -18.695  1.00  0.00     0.048 A 
ATOM     10  C   UNL     1     -36.169  -5.354 -17.298  1.00  0.00     0.138 A 
ATOM     11  O   UNL     1     -37.106  -5.978 -16.591  1.00  0.00    -0.456 OA
ENDROOT
BRANCH   1  12
ATOM     12  C   UNL     1     -38.229  -6.765 -14.587  1.00  0.00     0.017 A 
ATOM     13  C   UNL     1     -40.361  -8.069 -13.275  1.00  0.00     0.000 A 
ATOM     14  C   UNL     1     -40.122  -6.716 -13.043  1.00  0.00     0.001 A 
ATOM     15  C   UNL     1     -39.545  -8.778 -14.156  1.00  0.00     0.001 A 
ATOM     16  C   UNL     1     -39.068  -6.067 -13.692  1.00  0.00     0.012 A 
ATOM     17  C   UNL     1     -38.487  -8.137 -14.809  1.00  0.00     0.012 A 
ENDBRANCH   1  12
TORSDOF 1
ENDMDL
MODEL 9
REMARK VINA RESULT:    -6.655      2.352      6.438
REMARK INTER + INTRA:          -7.278
REMARK INTER:                  -7.017
REMARK INTRA:                  -0.261
REMARK UNBOUND:                -0.233
REMARK SMILES O=c1cc(-c2ccccc2)oc2ccccc12
REMARK SMILES IDX 4 1 3 2 2 3 1 4 17 5 16 6 15 7 14 8 13 9 12 10 11 11 5 12
REMARK SMILES IDX 8 13 7 14 9 15 6 16 10 17
REMARK H PARENT
REMARK Flexibility Score: inf
ROOT
ATOM      1  C   UNL     1     -36.427  -5.326 -15.863  1.00  0.00     0.138 A 
ATOM      2  C   UNL     1     -37.616  -4.591 -15.667  1.00  0.00     0.100 A 
ATOM      3  C   UNL     1     -38.686  -5.180 -14.991  1.00  0.00     0.193 A 
ATOM      4  O   UNL     1     -39.748  -4.523 -14.816  1.00  0.00    -0.289 OA
ATOM      5  C   UNL     1     -38.564  -6.493 -14.516  1.00  0.00     0.065 A 
ATOM      6  C   UNL     1     -39.604  -7.145 -13.828  1.00  0.00     0.016 A 
ATOM      7  C   UNL     1     -39.429  -8.457 -13.375  1.00  0.00     0.001 A 
ATOM      8  C   UNL     1     -38.222  -9.125 -13.605  1.00  0.00     0.004 A 
ATOM      9  C   UNL     1     -37.184  -8.485 -14.288  1.00  0.00     0.048 A 
ATOM     10  C   UNL     1     -37.349  -7.173 -14.745  1.00  0.00     0.138 A 
ATOM     11  O   UNL     1     -36.356  -6.573 -15.394  1.00  0.00    -0.456 OA
ENDROOT
BRANCH   1  12
ATOM     12  C   UNL     1     -35.236  -4.771 -16.576  1.00  0.00     0.017 A 
ATOM     13  C   UNL     1     -33.046  -3.655 -17.963  1.00  0.00     0.000 A 
ATOM     14  C   UNL     1     -34.325  -3.127 -18.136  1.00  0.00     0.001 A 
ATOM     15  C   UNL     1     -32.851  -4.735 -17.104  1.00  0.00     0.001 A 
ATOM     16  C   UNL     1     -35.411  -3.677 -17.450  1.00  0.00     0.012 A 
ATOM     17  C   UNL     1     -33.933  -5.293 -16.413  1.00  0.00     0.012 A 
ENDBRANCH   1  12
TORSDOF 1
ENDMDL
