MODEL 1
REMARK VINA RESULT:    -2.394      0.000      0.000
REMARK INTER + INTRA:          -1.461
REMARK INTER:                  -3.653
REMARK INTRA:                   2.192
REMARK UNBOUND:                 2.192
REMARK SMILES CC1=CCC[C@@H](C)C(=O)C[C@@H](C(C)C)C(=O)C1
REMARK SMILES IDX 8 1 9 2 6 3 7 4 5 5 4 6 3 7 2 8 1 9 10 11 11 12 15 13 16 14
REMARK SMILES IDX 17 15 12 17 13 18 14 19
REMARK H PARENT
REMARK Flexibility Score: 70.00
ROOT
ATOM      1  C   UNL     1      22.840 -11.183   6.271  1.00  0.00     0.136 C 
ATOM      2  O   UNL     1      22.916 -10.053   6.731  1.00  0.00    -0.299 OA
ENDROOT
BRANCH   1   3
ATOM      3  C   UNL     1      22.588 -12.342   7.217  1.00  0.00     0.053 C 
ATOM      4  C   UNL     1      21.278 -12.137   7.989  1.00  0.00     0.016 C 
BRANCH   3   5
ATOM      5  C   UNL     1      23.770 -12.558   8.180  1.00  0.00     0.015 C 
BRANCH   5   6
ATOM      6  C   UNL     1      25.105 -12.713   7.430  1.00  0.00     0.028 C 
BRANCH   6   7
ATOM      7  C   UNL     1      26.011 -11.542   7.708  1.00  0.00    -0.028 C 
ATOM      8  C   UNL     1      26.244 -10.529   6.842  1.00  0.00    -0.070 CG0
ATOM      9  C   UNL     1      27.125  -9.394   7.300  1.00  0.00     0.039 C 
ATOM     10  G   UNL     1      25.672 -10.498   5.432  1.00  0.00     0.000 G0
ENDBRANCH   6   7
ENDBRANCH   5   6
ENDBRANCH   3   5
ENDBRANCH   1   3
BRANCH   1  11
ATOM     11  C   UNL     1      23.029 -11.374   4.781  1.00  0.00     0.087 C 
BRANCH  11  12
ATOM     12  C   UNL     1      24.151 -12.397   4.456  1.00  0.00     0.066 C 
BRANCH  12  13
ATOM     13  C   UNL     1      25.530 -11.832   4.775  1.00  0.00     0.140 C 
ATOM     14  O   UNL     1      26.527 -12.507   4.565  1.00  0.00    -0.299 OA
BRANCH  13  15
ATOM     15  C   UNL     1      25.684 -10.471   5.410  1.00  0.00     0.106 CG0
ATOM     16  G   UNL     1      26.275 -10.554   6.810  1.00  0.00     0.000 G0
ENDBRANCH  13  15
ENDBRANCH  12  13
BRANCH  12  17
ATOM     17  C   UNL     1      24.051 -12.921   2.989  1.00  0.00    -0.006 C 
ATOM     18  C   UNL     1      22.612 -13.021   2.455  1.00  0.00     0.008 C 
ATOM     19  C   UNL     1      24.914 -12.086   2.031  1.00  0.00     0.008 C 
ENDBRANCH  12  17
ENDBRANCH  11  12
ENDBRANCH   1  11
TORSDOF 1
ENDMDL
MODEL 2
REMARK VINA RESULT:    -2.339      1.950      4.462
REMARK INTER + INTRA:          -1.378
REMARK INTER:                  -1.558
REMARK INTRA:                   0.179
REMARK UNBOUND:                 2.192
REMARK SMILES CC1=CCC[C@@H](C)C(=O)C[C@@H](C(C)C)C(=O)C1
REMARK SMILES IDX 8 1 9 2 6 3 7 4 5 5 4 6 3 7 2 8 1 9 10 11 11 12 15 13 16 14
REMARK SMILES IDX 17 15 12 17 13 18 14 19
REMARK H PARENT
REMARK Flexibility Score: 70.00
ROOT
ATOM      1  C   UNL     1      25.724 -10.104   7.320  1.00  0.00     0.136 C 
ATOM      2  O   UNL     1      26.033 -10.620   8.384  1.00  0.00    -0.299 OA
ENDROOT
BRANCH   1   3
ATOM      3  C   UNL     1      26.786  -9.359   6.533  1.00  0.00     0.053 C 
ATOM      4  C   UNL     1      26.572  -7.843   6.633  1.00  0.00     0.016 C 
BRANCH   3   5
ATOM      5  C   UNL     1      26.831  -9.816   5.064  1.00  0.00     0.015 C 
BRANCH   5   6
ATOM      6  C   UNL     1      27.124 -11.321   4.936  1.00  0.00     0.028 C 
BRANCH   6   7
ATOM      7  C   UNL     1      26.724 -11.827   3.574  1.00  0.00    -0.028 C 
ATOM      8  C   UNL     1      25.615 -12.561   3.323  1.00  0.00    -0.070 CG0
ATOM      9  C   UNL     1      25.321 -12.931   1.891  1.00  0.00     0.039 C 
ATOM     10  G   UNL     1      24.672 -13.036   4.418  1.00  0.00     0.000 G0
ENDBRANCH   6   7
ENDBRANCH   5   6
ENDBRANCH   3   5
ENDBRANCH   1   3
BRANCH   1  11
ATOM     11  C   UNL     1      24.289 -10.211   6.852  1.00  0.00     0.087 C 
BRANCH  11  12
ATOM     12  C   UNL     1      23.882 -11.674   6.529  1.00  0.00     0.066 C 
BRANCH  12  13
ATOM     13  C   UNL     1      23.857 -11.926   5.026  1.00  0.00     0.140 C 
ATOM     14  O   UNL     1      23.128 -11.256   4.309  1.00  0.00    -0.299 OA
BRANCH  13  15
ATOM     15  C   UNL     1      24.671 -13.038   4.411  1.00  0.00     0.106 CG0
ATOM     16  G   UNL     1      25.610 -12.531   3.326  1.00  0.00     0.000 G0
ENDBRANCH  13  15
ENDBRANCH  12  13
BRANCH  12  17
ATOM     17  C   UNL     1      22.538 -12.069   7.217  1.00  0.00    -0.006 C 
ATOM     18  C   UNL     1      22.713 -12.869   8.520  1.00  0.00     0.008 C 
ATOM     19  C   UNL     1      21.649 -10.842   7.466  1.00  0.00     0.008 C 
ENDBRANCH  12  17
ENDBRANCH  11  12
ENDBRANCH   1  11
TORSDOF 1
ENDMDL
MODEL 3
REMARK VINA RESULT:    -1.753      1.749      4.845
REMARK INTER + INTRA:          -0.484
REMARK INTER:                  -3.669
REMARK INTRA:                   3.185
REMARK UNBOUND:                 2.192
REMARK SMILES CC1=CCC[C@@H](C)C(=O)C[C@@H](C(C)C)C(=O)C1
REMARK SMILES IDX 8 1 9 2 6 3 7 4 5 5 4 6 3 7 2 8 1 9 10 11 11 12 15 13 16 14
REMARK SMILES IDX 17 15 12 17 13 18 14 19
REMARK H PARENT
REMARK Flexibility Score: 70.00
ROOT
ATOM      1  C   UNL     1      26.835 -10.974   4.774  1.00  0.00     0.136 C 
ATOM      2  O   UNL     1      26.887  -9.772   4.991  1.00  0.00    -0.299 OA
ENDROOT
BRANCH   1   3
ATOM      3  C   UNL     1      26.456 -11.449   3.384  1.00  0.00     0.053 C 
ATOM      4  C   UNL     1      25.826 -10.310   2.573  1.00  0.00     0.016 C 
BRANCH   3   5
ATOM      5  C   UNL     1      25.523 -12.673   3.436  1.00  0.00     0.015 C 
BRANCH   5   6
ATOM      6  C   UNL     1      24.149 -12.379   2.808  1.00  0.00     0.028 C 
BRANCH   6   7
ATOM      7  C   UNL     1      23.216 -11.781   3.827  1.00  0.00    -0.028 C 
ATOM      8  C   UNL     1      23.337 -11.940   5.166  1.00  0.00    -0.070 CG0
ATOM      9  C   UNL     1      22.357 -11.217   6.056  1.00  0.00     0.039 C 
ATOM     10  G   UNL     1      24.401 -12.823   5.802  1.00  0.00     0.000 G0
ENDBRANCH   6   7
ENDBRANCH   5   6
ENDBRANCH   3   5
ENDBRANCH   1   3
BRANCH   1  11
ATOM     11  C   UNL     1      27.125 -11.929   5.911  1.00  0.00     0.087 C 
BRANCH  11  12
ATOM     12  C   UNL     1      26.296 -11.601   7.182  1.00  0.00     0.066 C 
BRANCH  12  13
ATOM     13  C   UNL     1      24.908 -12.227   7.119  1.00  0.00     0.140 C 
ATOM     14  O   UNL     1      24.230 -12.306   8.132  1.00  0.00    -0.299 OA
BRANCH  13  15
ATOM     15  C   UNL     1      24.379 -12.815   5.834  1.00  0.00     0.106 CG0
ATOM     16  G   UNL     1      23.322 -11.929   5.188  1.00  0.00     0.000 G0
ENDBRANCH  13  15
ENDBRANCH  12  13
BRANCH  12  17
ATOM     17  C   UNL     1      26.241 -10.067   7.460  1.00  0.00    -0.006 C 
ATOM     18  C   UNL     1      24.821  -9.476   7.437  1.00  0.00     0.008 C 
ATOM     19  C   UNL     1      26.942  -9.706   8.778  1.00  0.00     0.008 C 
ENDBRANCH  12  17
ENDBRANCH  11  12
ENDBRANCH   1  11
TORSDOF 1
ENDMDL
