MODEL 1
REMARK VINA RESULT:    -3.866      0.000      0.000
REMARK INTER + INTRA:          -5.954
REMARK INTER:                  -5.221
REMARK INTRA:                  -0.733
REMARK UNBOUND:                -0.733
REMARK SMILES CCCCCCC=CC(=O)[O-]
REMARK SMILES IDX 5 1 6 2 7 3 8 4 9 5 10 6 11 7 4 8 3 9 2 10 1 11
REMARK H PARENT
REMARK Flexibility Score: inf
ROOT
ATOM      1  C   UNL     1       7.382  47.838  33.471  1.00  0.00     0.004 C 
ENDROOT
BRANCH   1   2
ATOM      2  C   UNL     1       5.884  47.910  33.132  1.00  0.00     0.027 C 
BRANCH   2   3
ATOM      3  C   UNL     1       5.661  48.578  31.805  1.00  0.00    -0.025 C 
ATOM      4  C   UNL     1       6.094  48.029  30.666  1.00  0.00     0.020 C 
BRANCH   4   5
ATOM      5  C   UNL     1       5.869  48.664  29.359  1.00  0.00     0.064 C 
ATOM      6  O   UNL     1       5.985  49.911  29.245  1.00  0.00    -0.545 OA
ATOM      7  O   UNL     1       5.526  47.906  28.244  1.00  0.00    -0.545 OA
ENDBRANCH   4   5
ENDBRANCH   2   3
ENDBRANCH   1   2
BRANCH   1   8
ATOM      8  C   UNL     1       7.945  49.185  33.953  1.00  0.00     0.000 C 
BRANCH   8   9
ATOM      9  C   UNL     1       9.304  49.520  33.315  1.00  0.00    -0.000 C 
BRANCH   9  10
ATOM     10  C   UNL     1       9.518  48.799  31.974  1.00  0.00    -0.003 C 
ATOM     11  C   UNL     1       9.404  49.737  30.772  1.00  0.00     0.004 C 
ENDBRANCH   9  10
ENDBRANCH   8   9
ENDBRANCH   1   8
TORSDOF 6
ENDMDL
MODEL 2
REMARK VINA RESULT:    -3.703      2.944      4.018
REMARK INTER + INTRA:          -5.735
REMARK INTER:                  -5.202
REMARK INTRA:                  -0.533
REMARK UNBOUND:                -0.733
REMARK SMILES CCCCCCC=CC(=O)[O-]
REMARK SMILES IDX 5 1 6 2 7 3 8 4 9 5 10 6 11 7 4 8 3 9 2 10 1 11
REMARK H PARENT
REMARK Flexibility Score: inf
ROOT
ATOM      1  C   UNL     1       5.732  49.485  30.532  1.00  0.00     0.004 C 
ENDROOT
BRANCH   1   2
ATOM      2  C   UNL     1       4.969  48.467  31.394  1.00  0.00     0.027 C 
BRANCH   2   3
ATOM      3  C   UNL     1       5.862  47.873  32.447  1.00  0.00    -0.025 C 
ATOM      4  C   UNL     1       6.233  48.572  33.524  1.00  0.00     0.020 C 
BRANCH   4   5
ATOM      5  C   UNL     1       7.093  47.997  34.569  1.00  0.00     0.064 C 
ATOM      6  O   UNL     1       6.897  48.305  35.773  1.00  0.00    -0.545 OA
ATOM      7  O   UNL     1       8.121  47.119  34.248  1.00  0.00    -0.545 OA
ENDBRANCH   4   5
ENDBRANCH   2   3
ENDBRANCH   1   2
BRANCH   1   8
ATOM      8  C   UNL     1       6.971  48.875  29.854  1.00  0.00     0.000 C 
BRANCH   8   9
ATOM      9  C   UNL     1       8.253  49.678  30.134  1.00  0.00    -0.000 C 
BRANCH   9  10
ATOM     10  C   UNL     1       9.112  49.046  31.242  1.00  0.00    -0.003 C 
ATOM     11  C   UNL     1      10.493  49.690  31.360  1.00  0.00     0.004 C 
ENDBRANCH   9  10
ENDBRANCH   8   9
ENDBRANCH   1   8
TORSDOF 6
ENDMDL
MODEL 3
REMARK VINA RESULT:    -3.644     18.418     19.547
REMARK INTER + INTRA:          -5.655
REMARK INTER:                  -5.392
REMARK INTRA:                  -0.263
REMARK UNBOUND:                -0.733
REMARK SMILES CCCCCCC=CC(=O)[O-]
REMARK SMILES IDX 5 1 6 2 7 3 8 4 9 5 10 6 11 7 4 8 3 9 2 10 1 11
REMARK H PARENT
REMARK Flexibility Score: inf
ROOT
ATOM      1  C   UNL     1      13.595  35.897  20.105  1.00  0.00     0.004 C 
ENDROOT
BRANCH   1   2
ATOM      2  C   UNL     1      14.141  34.561  19.577  1.00  0.00     0.027 C 
BRANCH   2   3
ATOM      3  C   UNL     1      14.760  33.754  20.683  1.00  0.00    -0.025 C 
ATOM      4  C   UNL     1      15.818  32.967  20.465  1.00  0.00     0.020 C 
BRANCH   4   5
ATOM      5  C   UNL     1      16.444  32.184  21.541  1.00  0.00     0.064 C 
ATOM      6  O   UNL     1      15.718  31.552  22.352  1.00  0.00    -0.545 OA
ATOM      7  O   UNL     1      17.826  32.133  21.679  1.00  0.00    -0.545 OA
ENDBRANCH   4   5
ENDBRANCH   2   3
ENDBRANCH   1   2
BRANCH   1   8
ATOM      8  C   UNL     1      12.643  35.717  21.299  1.00  0.00     0.000 C 
BRANCH   8   9
ATOM      9  C   UNL     1      11.232  36.258  21.016  1.00  0.00    -0.000 C 
BRANCH   9  10
ATOM     10  C   UNL     1      10.348  36.284  22.274  1.00  0.00    -0.003 C 
ATOM     11  C   UNL     1      11.096  35.842  23.532  1.00  0.00     0.004 C 
ENDBRANCH   9  10
ENDBRANCH   8   9
ENDBRANCH   1   8
TORSDOF 6
ENDMDL
MODEL 4
REMARK VINA RESULT:    -3.640      2.945      4.761
REMARK INTER + INTRA:          -5.649
REMARK INTER:                  -4.911
REMARK INTRA:                  -0.738
REMARK UNBOUND:                -0.733
REMARK SMILES CCCCCCC=CC(=O)[O-]
REMARK SMILES IDX 5 1 6 2 7 3 8 4 9 5 10 6 11 7 4 8 3 9 2 10 1 11
REMARK H PARENT
REMARK Flexibility Score: inf
ROOT
ATOM      1  C   UNL     1       9.213  49.674  30.842  1.00  0.00     0.004 C 
ENDROOT
BRANCH   1   2
ATOM      2  C   UNL     1       9.521  48.714  32.002  1.00  0.00     0.027 C 
BRANCH   2   3
ATOM      3  C   UNL     1       8.576  48.932  33.149  1.00  0.00    -0.025 C 
ATOM      4  C   UNL     1       8.060  47.906  33.833  1.00  0.00     0.020 C 
BRANCH   4   5
ATOM      5  C   UNL     1       7.147  48.105  34.969  1.00  0.00     0.064 C 
ATOM      6  O   UNL     1       7.374  47.519  36.059  1.00  0.00    -0.545 OA
ATOM      7  O   UNL     1       6.034  48.930  34.857  1.00  0.00    -0.545 OA
ENDBRANCH   4   5
ENDBRANCH   2   3
ENDBRANCH   1   2
BRANCH   1   8
ATOM      8  C   UNL     1       7.709  49.949  30.684  1.00  0.00     0.000 C 
BRANCH   8   9
ATOM      9  C   UNL     1       7.024  48.958  29.729  1.00  0.00    -0.000 C 
BRANCH   9  10
ATOM     10  C   UNL     1       6.200  47.895  30.475  1.00  0.00    -0.003 C 
ATOM     11  C   UNL     1       5.170  48.504  31.426  1.00  0.00     0.004 C 
ENDBRANCH   9  10
ENDBRANCH   8   9
ENDBRANCH   1   8
TORSDOF 6
ENDMDL
MODEL 5
REMARK VINA RESULT:    -3.617     17.050     18.292
REMARK INTER + INTRA:          -5.619
REMARK INTER:                  -5.417
REMARK INTRA:                  -0.202
REMARK UNBOUND:                -0.733
REMARK SMILES CCCCCCC=CC(=O)[O-]
REMARK SMILES IDX 5 1 6 2 7 3 8 4 9 5 10 6 11 7 4 8 3 9 2 10 1 11
REMARK H PARENT
REMARK Flexibility Score: inf
ROOT
ATOM      1  C   UNL     1       9.102  34.826  20.545  1.00  0.00     0.004 C 
ENDROOT
BRANCH   1   2
ATOM      2  C   UNL     1       7.657  34.919  20.031  1.00  0.00     0.027 C 
BRANCH   2   3
ATOM      3  C   UNL     1       7.035  33.557  19.914  1.00  0.00    -0.025 C 
ATOM      4  C   UNL     1       6.042  33.171  20.721  1.00  0.00     0.020 C 
BRANCH   4   5
ATOM      5  C   UNL     1       5.413  31.846  20.607  1.00  0.00     0.064 C 
ATOM      6  O   UNL     1       6.134  30.829  20.433  1.00  0.00    -0.545 OA
ATOM      7  O   UNL     1       4.033  31.699  20.686  1.00  0.00    -0.545 OA
ENDBRANCH   4   5
ENDBRANCH   2   3
ENDBRANCH   1   2
BRANCH   1   8
ATOM      8  C   UNL     1       9.743  36.206  20.765  1.00  0.00     0.000 C 
BRANCH   8   9
ATOM      9  C   UNL     1      10.102  36.464  22.238  1.00  0.00    -0.000 C 
BRANCH   9  10
ATOM     10  C   UNL     1      11.449  35.835  22.633  1.00  0.00    -0.003 C 
ATOM     11  C   UNL     1      12.480  35.887  21.507  1.00  0.00     0.004 C 
ENDBRANCH   9  10
ENDBRANCH   8   9
ENDBRANCH   1   8
TORSDOF 6
ENDMDL
MODEL 6
REMARK VINA RESULT:    -3.616     17.830     18.951
REMARK INTER + INTRA:          -5.617
REMARK INTER:                  -5.199
REMARK INTRA:                  -0.418
REMARK UNBOUND:                -0.733
REMARK SMILES CCCCCCC=CC(=O)[O-]
REMARK SMILES IDX 5 1 6 2 7 3 8 4 9 5 10 6 11 7 4 8 3 9 2 10 1 11
REMARK H PARENT
REMARK Flexibility Score: inf
ROOT
ATOM      1  C   UNL     1      12.916  36.018  21.101  1.00  0.00     0.004 C 
ENDROOT
BRANCH   1   2
ATOM      2  C   UNL     1      13.756  35.424  19.959  1.00  0.00     0.027 C 
BRANCH   2   3
ATOM      3  C   UNL     1      14.652  34.327  20.461  1.00  0.00    -0.025 C 
ATOM      4  C   UNL     1      14.165  33.281  21.136  1.00  0.00     0.020 C 
BRANCH   4   5
ATOM      5  C   UNL     1      15.028  32.193  21.619  1.00  0.00     0.064 C 
ATOM      6  O   UNL     1      14.525  31.245  22.275  1.00  0.00    -0.545 OA
ATOM      7  O   UNL     1      16.395  32.196  21.364  1.00  0.00    -0.545 OA
ENDBRANCH   4   5
ENDBRANCH   2   3
ENDBRANCH   1   2
BRANCH   1   8
ATOM      8  C   UNL     1      11.435  36.179  20.725  1.00  0.00     0.000 C 
BRANCH   8   9
ATOM      9  C   UNL     1      10.502  36.091  21.944  1.00  0.00    -0.000 C 
BRANCH   9  10
ATOM     10  C   UNL     1      11.174  35.415  23.151  1.00  0.00    -0.003 C 
ATOM     11  C   UNL     1      11.023  36.221  24.441  1.00  0.00     0.004 C 
ENDBRANCH   9  10
ENDBRANCH   8   9
ENDBRANCH   1   8
TORSDOF 6
ENDMDL
MODEL 7
REMARK VINA RESULT:    -3.469     16.843     17.960
REMARK INTER + INTRA:          -5.418
REMARK INTER:                  -4.985
REMARK INTRA:                  -0.433
REMARK UNBOUND:                -0.733
REMARK SMILES CCCCCCC=CC(=O)[O-]
REMARK SMILES IDX 5 1 6 2 7 3 8 4 9 5 10 6 11 7 4 8 3 9 2 10 1 11
REMARK H PARENT
REMARK Flexibility Score: inf
ROOT
ATOM      1  C   UNL     1      10.372  36.185  22.110  1.00  0.00     0.004 C 
ENDROOT
BRANCH   1   2
ATOM      2  C   UNL     1       9.897  36.256  20.650  1.00  0.00     0.027 C 
BRANCH   2   3
ATOM      3  C   UNL     1       9.144  35.014  20.265  1.00  0.00    -0.025 C 
ATOM      4  C   UNL     1       7.817  34.931  20.399  1.00  0.00     0.020 C 
BRANCH   4   5
ATOM      5  C   UNL     1       7.066  33.728  20.011  1.00  0.00     0.064 C 
ATOM      6  O   UNL     1       7.389  33.104  18.966  1.00  0.00    -0.545 OA
ATOM      7  O   UNL     1       6.003  33.269  20.779  1.00  0.00    -0.545 OA
ENDBRANCH   4   5
ENDBRANCH   2   3
ENDBRANCH   1   2
BRANCH   1   8
ATOM      8  C   UNL     1      11.893  35.993  22.228  1.00  0.00     0.000 C 
BRANCH   8   9
ATOM      9  C   UNL     1      12.605  36.061  20.867  1.00  0.00    -0.000 C 
BRANCH   9  10
ATOM     10  C   UNL     1      13.728  35.018  20.737  1.00  0.00    -0.003 C 
ATOM     11  C   UNL     1      13.202  33.584  20.684  1.00  0.00     0.004 C 
ENDBRANCH   9  10
ENDBRANCH   8   9
ENDBRANCH   1   8
TORSDOF 6
ENDMDL
MODEL 8
REMARK VINA RESULT:    -3.456      2.534      4.378
REMARK INTER + INTRA:          -5.401
REMARK INTER:                  -4.923
REMARK INTRA:                  -0.478
REMARK UNBOUND:                -0.733
REMARK SMILES CCCCCCC=CC(=O)[O-]
REMARK SMILES IDX 5 1 6 2 7 3 8 4 9 5 10 6 11 7 4 8 3 9 2 10 1 11
REMARK H PARENT
REMARK Flexibility Score: inf
ROOT
ATOM      1  C   UNL     1       5.056  48.255  31.575  1.00  0.00     0.004 C 
ENDROOT
BRANCH   1   2
ATOM      2  C   UNL     1       5.602  48.309  33.010  1.00  0.00     0.027 C 
BRANCH   2   3
ATOM      3  C   UNL     1       6.960  48.951  33.049  1.00  0.00    -0.025 C 
ATOM      4  C   UNL     1       8.026  48.365  32.497  1.00  0.00     0.020 C 
BRANCH   4   5
ATOM      5  C   UNL     1       9.357  48.990  32.513  1.00  0.00     0.064 C 
ATOM      6  O   UNL     1      10.204  48.672  31.639  1.00  0.00    -0.545 OA
ATOM      7  O   UNL     1       9.696  49.928  33.482  1.00  0.00    -0.545 OA
ENDBRANCH   4   5
ENDBRANCH   2   3
ENDBRANCH   1   2
BRANCH   1   8
ATOM      8  C   UNL     1       5.173  49.603  30.846  1.00  0.00     0.000 C 
BRANCH   8   9
ATOM      9  C   UNL     1       5.868  49.479  29.480  1.00  0.00    -0.000 C 
BRANCH   9  10
ATOM     10  C   UNL     1       6.116  48.016  29.077  1.00  0.00    -0.003 C 
ATOM     11  C   UNL     1       5.289  47.588  27.865  1.00  0.00     0.004 C 
ENDBRANCH   9  10
ENDBRANCH   8   9
ENDBRANCH   1   8
TORSDOF 6
ENDMDL
MODEL 9
REMARK VINA RESULT:    -3.367     17.647     18.879
REMARK INTER + INTRA:          -5.280
REMARK INTER:                  -4.660
REMARK INTRA:                  -0.620
REMARK UNBOUND:                -0.733
REMARK SMILES CCCCCCC=CC(=O)[O-]
REMARK SMILES IDX 5 1 6 2 7 3 8 4 9 5 10 6 11 7 4 8 3 9 2 10 1 11
REMARK H PARENT
REMARK Flexibility Score: inf
ROOT
ATOM      1  C   UNL     1      11.932  35.968  22.131  1.00  0.00     0.004 C 
ENDROOT
BRANCH   1   2
ATOM      2  C   UNL     1      12.574  36.257  20.765  1.00  0.00     0.027 C 
BRANCH   2   3
ATOM      3  C   UNL     1      13.661  35.267  20.457  1.00  0.00    -0.025 C 
ATOM      4  C   UNL     1      13.765  34.114  21.125  1.00  0.00     0.020 C 
BRANCH   4   5
ATOM      5  C   UNL     1      14.814  33.128  20.824  1.00  0.00     0.064 C 
ATOM      6  O   UNL     1      15.380  33.147  19.700  1.00  0.00    -0.545 OA
ATOM      7  O   UNL     1      15.190  32.173  21.761  1.00  0.00    -0.545 OA
ENDBRANCH   4   5
ENDBRANCH   2   3
ENDBRANCH   1   2
BRANCH   1   8
ATOM      8  C   UNL     1      10.424  36.265  22.151  1.00  0.00     0.000 C 
BRANCH   8   9
ATOM      9  C   UNL     1       9.792  36.210  20.750  1.00  0.00    -0.000 C 
BRANCH   9  10
ATOM     10  C   UNL     1       9.034  34.896  20.497  1.00  0.00    -0.003 C 
ATOM     11  C   UNL     1       9.901  33.830  19.830  1.00  0.00     0.004 C 
ENDBRANCH   9  10
ENDBRANCH   8   9
ENDBRANCH   1   8
TORSDOF 6
ENDMDL
