MODEL 1
REMARK VINA RESULT:    -3.226      0.000      0.000
REMARK INTER + INTRA:         -11.099
REMARK INTER:                  -7.375
REMARK INTRA:                  -3.725
REMARK UNBOUND:                -3.725
REMARK SMILES CCCCCCCCCCCCCCCCCCCCCCCC(=O)[O-]
REMARK SMILES IDX 13 1 14 2 15 3 16 4 17 5 18 6 19 7 20 8 21 9 22 10 23 11
REMARK SMILES IDX 24 12 25 13 26 14 12 15 11 16 10 17 9 18 8 19 7 20 6 21 5 22
REMARK SMILES IDX 4 23 3 24 2 25 1 26
REMARK H PARENT
REMARK Flexibility Score: inf
ROOT
ATOM      1  C   UNL     1      56.888   2.151  96.142  1.00  0.00     0.000 C 
ENDROOT
BRANCH   1   2
ATOM      2  C   UNL     1      57.476   2.627  94.804  1.00  0.00     0.000 C 
BRANCH   2   3
ATOM      3  C   UNL     1      56.413   2.746  93.694  1.00  0.00     0.000 C 
BRANCH   3   4
ATOM      4  C   UNL     1      54.975   2.411  94.141  1.00  0.00     0.000 C 
BRANCH   4   5
ATOM      5  C   UNL     1      54.119   3.640  94.514  1.00  0.00     0.000 C 
BRANCH   5   6
ATOM      6  C   UNL     1      54.784   4.992  94.195  1.00  0.00     0.000 C 
BRANCH   6   7
ATOM      7  C   UNL     1      55.350   5.680  95.451  1.00  0.00     0.000 C 
BRANCH   7   8
ATOM      8  C   UNL     1      56.392   6.756  95.102  1.00  0.00     0.000 C 
BRANCH   8   9
ATOM      9  C   UNL     1      57.474   6.250  94.122  1.00  0.00     0.000 C 
BRANCH   9  10
ATOM     10  C   UNL     1      58.871   6.109  94.755  1.00  0.00     0.006 C 
BRANCH  10  11
ATOM     11  C   UNL     1      58.909   6.404  96.265  1.00  0.00     0.053 C 
BRANCH  11  12
ATOM     12  C   UNL     1      59.811   7.549  96.620  1.00  0.00     0.041 C 
ATOM     13  O   UNL     1      61.054   7.462  96.442  1.00  0.00    -0.550 OA
ATOM     14  O   UNL     1      59.269   8.743  97.078  1.00  0.00    -0.550 OA
ENDBRANCH  11  12
ENDBRANCH  10  11
ENDBRANCH   9  10
ENDBRANCH   8   9
ENDBRANCH   7   8
ENDBRANCH   6   7
ENDBRANCH   5   6
ENDBRANCH   4   5
ENDBRANCH   3   4
ENDBRANCH   2   3
ENDBRANCH   1   2
BRANCH   1  15
ATOM     15  C   UNL     1      57.932   1.375  96.959  1.00  0.00     0.000 C 
BRANCH  15  16
ATOM     16  C   UNL     1      59.328   2.012  96.892  1.00  0.00     0.000 C 
BRANCH  16  17
ATOM     17  C   UNL     1      60.459   0.968  96.863  1.00  0.00     0.000 C 
BRANCH  17  18
ATOM     18  C   UNL     1      60.009  -0.358  96.211  1.00  0.00    -0.000 C 
BRANCH  18  19
ATOM     19  C   UNL     1      61.032  -0.936  95.219  1.00  0.00    -0.000 C 
BRANCH  19  20
ATOM     20  C   UNL     1      60.488  -1.021  93.784  1.00  0.00    -0.000 C 
BRANCH  20  21
ATOM     21  C   UNL     1      59.170  -0.247  93.606  1.00  0.00    -0.000 C 
BRANCH  21  22
ATOM     22  C   UNL     1      58.046  -1.127  93.033  1.00  0.00    -0.000 C 
BRANCH  22  23
ATOM     23  C   UNL     1      57.466  -2.099  94.074  1.00  0.00    -0.000 C 
BRANCH  23  24
ATOM     24  C   UNL     1      56.547  -1.399  95.091  1.00  0.00    -0.000 C 
BRANCH  24  25
ATOM     25  C   UNL     1      56.701  -1.967  96.511  1.00  0.00    -0.003 C 
ATOM     26  C   UNL     1      55.805  -3.179  96.765  1.00  0.00     0.004 C 
ENDBRANCH  24  25
ENDBRANCH  23  24
ENDBRANCH  22  23
ENDBRANCH  21  22
ENDBRANCH  20  21
ENDBRANCH  19  20
ENDBRANCH  18  19
ENDBRANCH  17  18
ENDBRANCH  16  17
ENDBRANCH  15  16
ENDBRANCH   1  15
TORSDOF 22
ENDMDL
MODEL 2
REMARK VINA RESULT:    -3.188      2.704      4.800
REMARK INTER + INTRA:         -11.014
REMARK INTER:                  -7.630
REMARK INTRA:                  -3.383
REMARK UNBOUND:                -3.725
REMARK SMILES CCCCCCCCCCCCCCCCCCCCCCCC(=O)[O-]
REMARK SMILES IDX 13 1 14 2 15 3 16 4 17 5 18 6 19 7 20 8 21 9 22 10 23 11
REMARK SMILES IDX 24 12 25 13 26 14 12 15 11 16 10 17 9 18 8 19 7 20 6 21 5 22
REMARK SMILES IDX 4 23 3 24 2 25 1 26
REMARK H PARENT
REMARK Flexibility Score: inf
ROOT
ATOM      1  C   UNL     1      56.342   4.958  95.180  1.00  0.00     0.000 C 
ENDROOT
BRANCH   1   2
ATOM      2  C   UNL     1      57.271   4.990  96.404  1.00  0.00     0.000 C 
BRANCH   2   3
ATOM      3  C   UNL     1      58.742   4.705  96.044  1.00  0.00     0.000 C 
BRANCH   3   4
ATOM      4  C   UNL     1      59.764   5.642  96.720  1.00  0.00     0.000 C 
BRANCH   4   5
ATOM      5  C   UNL     1      59.998   6.975  95.978  1.00  0.00     0.000 C 
BRANCH   5   6
ATOM      6  C   UNL     1      59.669   6.925  94.474  1.00  0.00     0.000 C 
BRANCH   6   7
ATOM      7  C   UNL     1      58.541   7.898  94.085  1.00  0.00     0.000 C 
BRANCH   7   8
ATOM      8  C   UNL     1      57.958   8.627  95.308  1.00  0.00     0.000 C 
BRANCH   8   9
ATOM      9  C   UNL     1      56.413   8.626  95.328  1.00  0.00     0.000 C 
BRANCH   9  10
ATOM     10  C   UNL     1      55.808   8.304  96.708  1.00  0.00     0.006 C 
BRANCH  10  11
ATOM     11  C   UNL     1      54.549   9.123  97.047  1.00  0.00     0.053 C 
BRANCH  11  12
ATOM     12  C   UNL     1      53.544   9.149  95.933  1.00  0.00     0.041 C 
ATOM     13  O   UNL     1      52.971   8.091  95.565  1.00  0.00    -0.550 OA
ATOM     14  O   UNL     1      53.186  10.358  95.351  1.00  0.00    -0.550 OA
ENDBRANCH  11  12
ENDBRANCH  10  11
ENDBRANCH   9  10
ENDBRANCH   8   9
ENDBRANCH   7   8
ENDBRANCH   6   7
ENDBRANCH   5   6
ENDBRANCH   4   5
ENDBRANCH   3   4
ENDBRANCH   2   3
ENDBRANCH   1   2
BRANCH   1  15
ATOM     15  C   UNL     1      56.989   4.194  94.015  1.00  0.00     0.000 C 
BRANCH  15  16
ATOM     16  C   UNL     1      56.340   2.823  93.775  1.00  0.00     0.000 C 
BRANCH  16  17
ATOM     17  C   UNL     1      57.350   1.664  93.853  1.00  0.00     0.000 C 
BRANCH  17  18
ATOM     18  C   UNL     1      57.053   0.713  95.033  1.00  0.00    -0.000 C 
BRANCH  18  19
ATOM     19  C   UNL     1      57.578   1.225  96.385  1.00  0.00    -0.000 C 
BRANCH  19  20
ATOM     20  C   UNL     1      59.105   1.106  96.515  1.00  0.00    -0.000 C 
BRANCH  20  21
ATOM     21  C   UNL     1      59.606  -0.332  96.291  1.00  0.00    -0.000 C 
BRANCH  21  22
ATOM     22  C   UNL     1      60.997  -0.371  95.635  1.00  0.00    -0.000 C 
BRANCH  22  23
ATOM     23  C   UNL     1      61.075  -1.372  94.471  1.00  0.00    -0.000 C 
BRANCH  23  24
ATOM     24  C   UNL     1      60.217  -0.948  93.265  1.00  0.00    -0.000 C 
BRANCH  24  25
ATOM     25  C   UNL     1      60.073  -2.069  92.223  1.00  0.00    -0.003 C 
ATOM     26  C   UNL     1      60.690  -3.389  92.683  1.00  0.00     0.004 C 
ENDBRANCH  24  25
ENDBRANCH  23  24
ENDBRANCH  22  23
ENDBRANCH  21  22
ENDBRANCH  20  21
ENDBRANCH  19  20
ENDBRANCH  18  19
ENDBRANCH  17  18
ENDBRANCH  16  17
ENDBRANCH  15  16
ENDBRANCH   1  15
TORSDOF 22
ENDMDL
MODEL 3
REMARK VINA RESULT:    -3.184      3.090      7.743
REMARK INTER + INTRA:         -11.003
REMARK INTER:                  -7.871
REMARK INTRA:                  -3.132
REMARK UNBOUND:                -3.725
REMARK SMILES CCCCCCCCCCCCCCCCCCCCCCCC(=O)[O-]
REMARK SMILES IDX 13 1 14 2 15 3 16 4 17 5 18 6 19 7 20 8 21 9 22 10 23 11
REMARK SMILES IDX 24 12 25 13 26 14 12 15 11 16 10 17 9 18 8 19 7 20 6 21 5 22
REMARK SMILES IDX 4 23 3 24 2 25 1 26
REMARK H PARENT
REMARK Flexibility Score: inf
ROOT
ATOM      1  C   UNL     1      59.432   0.181  96.259  1.00  0.00     0.000 C 
ENDROOT
BRANCH   1   2
ATOM      2  C   UNL     1      60.740  -0.584  95.998  1.00  0.00     0.000 C 
BRANCH   2   3
ATOM      3  C   UNL     1      60.989  -0.846  94.501  1.00  0.00     0.000 C 
BRANCH   3   4
ATOM      4  C   UNL     1      60.911  -2.329  94.084  1.00  0.00     0.000 C 
BRANCH   4   5
ATOM      5  C   UNL     1      60.080  -2.593  92.810  1.00  0.00     0.000 C 
BRANCH   5   6
ATOM      6  C   UNL     1      58.557  -2.599  93.040  1.00  0.00     0.000 C 
BRANCH   6   7
ATOM      7  C   UNL     1      57.809  -1.684  92.054  1.00  0.00     0.000 C 
BRANCH   7   8
ATOM      8  C   UNL     1      58.581  -0.385  91.768  1.00  0.00     0.000 C 
BRANCH   8   9
ATOM      9  C   UNL     1      58.180   0.773  92.710  1.00  0.00     0.000 C 
BRANCH   9  10
ATOM     10  C   UNL     1      56.703   1.192  92.588  1.00  0.00     0.006 C 
BRANCH  10  11
ATOM     11  C   UNL     1      56.497   2.612  92.030  1.00  0.00     0.053 C 
BRANCH  11  12
ATOM     12  C   UNL     1      56.190   2.630  90.561  1.00  0.00     0.041 C 
ATOM     13  O   UNL     1      56.858   3.355  89.778  1.00  0.00    -0.550 OA
ATOM     14  O   UNL     1      55.215   1.786  90.047  1.00  0.00    -0.550 OA
ENDBRANCH  11  12
ENDBRANCH  10  11
ENDBRANCH   9  10
ENDBRANCH   8   9
ENDBRANCH   7   8
ENDBRANCH   6   7
ENDBRANCH   5   6
ENDBRANCH   4   5
ENDBRANCH   3   4
ENDBRANCH   2   3
ENDBRANCH   1   2
BRANCH   1  15
ATOM     15  C   UNL     1      58.215  -0.747  96.130  1.00  0.00     0.000 C 
BRANCH  15  16
ATOM     16  C   UNL     1      56.889   0.026  96.059  1.00  0.00     0.000 C 
BRANCH  16  17
ATOM     17  C   UNL     1      56.908   1.320  96.893  1.00  0.00     0.000 C 
BRANCH  17  18
ATOM     18  C   UNL     1      56.521   2.558  96.055  1.00  0.00    -0.000 C 
BRANCH  18  19
ATOM     19  C   UNL     1      57.730   3.363  95.548  1.00  0.00    -0.000 C 
BRANCH  19  20
ATOM     20  C   UNL     1      57.550   4.880  95.721  1.00  0.00    -0.000 C 
BRANCH  20  21
ATOM     21  C   UNL     1      58.773   5.677  95.236  1.00  0.00    -0.000 C 
BRANCH  21  22
ATOM     22  C   UNL     1      59.731   6.036  96.385  1.00  0.00    -0.000 C 
BRANCH  22  23
ATOM     23  C   UNL     1      60.632   7.237  96.053  1.00  0.00    -0.000 C 
BRANCH  23  24
ATOM     24  C   UNL     1      60.314   8.472  96.915  1.00  0.00    -0.000 C 
BRANCH  24  25
ATOM     25  C   UNL     1      59.929   9.696  96.068  1.00  0.00    -0.003 C 
ATOM     26  C   UNL     1      60.012   9.428  94.566  1.00  0.00     0.004 C 
ENDBRANCH  24  25
ENDBRANCH  23  24
ENDBRANCH  22  23
ENDBRANCH  21  22
ENDBRANCH  20  21
ENDBRANCH  19  20
ENDBRANCH  18  19
ENDBRANCH  17  18
ENDBRANCH  16  17
ENDBRANCH  15  16
ENDBRANCH   1  15
TORSDOF 22
ENDMDL
MODEL 4
REMARK VINA RESULT:    -3.176      4.111      6.569
REMARK INTER + INTRA:         -10.985
REMARK INTER:                  -6.749
REMARK INTRA:                  -4.236
REMARK UNBOUND:                -3.725
REMARK SMILES CCCCCCCCCCCCCCCCCCCCCCCC(=O)[O-]
REMARK SMILES IDX 13 1 14 2 15 3 16 4 17 5 18 6 19 7 20 8 21 9 22 10 23 11
REMARK SMILES IDX 24 12 25 13 26 14 12 15 11 16 10 17 9 18 8 19 7 20 6 21 5 22
REMARK SMILES IDX 4 23 3 24 2 25 1 26
REMARK H PARENT
REMARK Flexibility Score: inf
ROOT
ATOM      1  C   UNL     1      56.560   0.975  96.510  1.00  0.00     0.000 C 
ENDROOT
BRANCH   1   2
ATOM      2  C   UNL     1      57.958   0.995  95.872  1.00  0.00     0.000 C 
BRANCH   2   3
ATOM      3  C   UNL     1      59.006   1.700  96.753  1.00  0.00     0.000 C 
BRANCH   3   4
ATOM      4  C   UNL     1      60.395   1.027  96.767  1.00  0.00     0.000 C 
BRANCH   4   5
ATOM      5  C   UNL     1      60.388  -0.459  96.350  1.00  0.00     0.000 C 
BRANCH   5   6
ATOM      6  C   UNL     1      61.122  -0.747  95.027  1.00  0.00     0.000 C 
BRANCH   6   7
ATOM      7  C   UNL     1      60.434  -1.846  94.198  1.00  0.00     0.000 C 
BRANCH   7   8
ATOM      8  C   UNL     1      59.246  -1.301  93.387  1.00  0.00     0.000 C 
BRANCH   8   9
ATOM      9  C   UNL     1      59.672  -0.277  92.310  1.00  0.00     0.000 C 
BRANCH   9  10
ATOM     10  C   UNL     1      58.497   0.505  91.695  1.00  0.00     0.006 C 
BRANCH  10  11
ATOM     11  C   UNL     1      58.380   0.361  90.166  1.00  0.00     0.053 C 
BRANCH  11  12
ATOM     12  C   UNL     1      57.315   1.236  89.571  1.00  0.00     0.041 C 
ATOM     13  O   UNL     1      56.564   1.922  90.313  1.00  0.00    -0.550 OA
ATOM     14  O   UNL     1      57.204   1.352  88.192  1.00  0.00    -0.550 OA
ENDBRANCH  11  12
ENDBRANCH  10  11
ENDBRANCH   9  10
ENDBRANCH   8   9
ENDBRANCH   7   8
ENDBRANCH   6   7
ENDBRANCH   5   6
ENDBRANCH   4   5
ENDBRANCH   3   4
ENDBRANCH   2   3
ENDBRANCH   1   2
BRANCH   1  15
ATOM     15  C   UNL     1      56.135  -0.458  96.866  1.00  0.00     0.000 C 
BRANCH  15  16
ATOM     16  C   UNL     1      57.083  -1.517  96.282  1.00  0.00     0.000 C 
BRANCH  16  17
ATOM     17  C   UNL     1      56.355  -2.547  95.401  1.00  0.00     0.000 C 
BRANCH  17  18
ATOM     18  C   UNL     1      55.162  -1.925  94.644  1.00  0.00    -0.000 C 
BRANCH  18  19
ATOM     19  C   UNL     1      55.566  -1.178  93.361  1.00  0.00    -0.000 C 
BRANCH  19  20
ATOM     20  C   UNL     1      54.974  -1.810  92.092  1.00  0.00    -0.000 C 
BRANCH  20  21
ATOM     21  C   UNL     1      56.057  -2.232  91.083  1.00  0.00    -0.000 C 
BRANCH  21  22
ATOM     22  C   UNL     1      56.790  -3.515  91.514  1.00  0.00    -0.000 C 
BRANCH  22  23
ATOM     23  C   UNL     1      58.139  -3.694  90.798  1.00  0.00    -0.000 C 
BRANCH  23  24
ATOM     24  C   UNL     1      59.160  -4.474  91.647  1.00  0.00    -0.000 C 
BRANCH  24  25
ATOM     25  C   UNL     1      58.570  -4.951  92.984  1.00  0.00    -0.003 C 
ATOM     26  C   UNL     1      58.935  -6.399  93.310  1.00  0.00     0.004 C 
ENDBRANCH  24  25
ENDBRANCH  23  24
ENDBRANCH  22  23
ENDBRANCH  21  22
ENDBRANCH  20  21
ENDBRANCH  19  20
ENDBRANCH  18  19
ENDBRANCH  17  18
ENDBRANCH  16  17
ENDBRANCH  15  16
ENDBRANCH   1  15
TORSDOF 22
ENDMDL
MODEL 5
REMARK VINA RESULT:    -3.163      1.438      3.067
REMARK INTER + INTRA:         -10.955
REMARK INTER:                  -7.179
REMARK INTRA:                  -3.776
REMARK UNBOUND:                -3.725
REMARK SMILES CCCCCCCCCCCCCCCCCCCCCCCC(=O)[O-]
REMARK SMILES IDX 13 1 14 2 15 3 16 4 17 5 18 6 19 7 20 8 21 9 22 10 23 11
REMARK SMILES IDX 24 12 25 13 26 14 12 15 11 16 10 17 9 18 8 19 7 20 6 21 5 22
REMARK SMILES IDX 4 23 3 24 2 25 1 26
REMARK H PARENT
REMARK Flexibility Score: inf
ROOT
ATOM      1  C   UNL     1      56.528  -1.737  92.841  1.00  0.00     0.000 C 
ENDROOT
BRANCH   1   2
ATOM      2  C   UNL     1      55.450  -0.662  92.635  1.00  0.00     0.000 C 
BRANCH   2   3
ATOM      3  C   UNL     1      56.009   0.771  92.735  1.00  0.00     0.000 C 
BRANCH   3   4
ATOM      4  C   UNL     1      55.751   1.651  91.495  1.00  0.00     0.000 C 
BRANCH   4   5
ATOM      5  C   UNL     1      56.208   3.117  91.645  1.00  0.00     0.000 C 
BRANCH   5   6
ATOM      6  C   UNL     1      57.018   3.397  92.925  1.00  0.00     0.000 C 
BRANCH   6   7
ATOM      7  C   UNL     1      56.191   4.130  93.996  1.00  0.00     0.000 C 
BRANCH   7   8
ATOM      8  C   UNL     1      56.943   5.337  94.583  1.00  0.00     0.000 C 
BRANCH   8   9
ATOM      9  C   UNL     1      57.324   5.144  96.069  1.00  0.00     0.000 C 
BRANCH   9  10
ATOM     10  C   UNL     1      58.812   5.402  96.368  1.00  0.00     0.006 C 
BRANCH  10  11
ATOM     11  C   UNL     1      59.551   6.176  95.261  1.00  0.00     0.053 C 
BRANCH  11  12
ATOM     12  C   UNL     1      59.862   7.595  95.641  1.00  0.00     0.041 C 
ATOM     13  O   UNL     1      60.575   7.844  96.648  1.00  0.00    -0.550 OA
ATOM     14  O   UNL     1      59.427   8.639  94.836  1.00  0.00    -0.550 OA
ENDBRANCH  11  12
ENDBRANCH  10  11
ENDBRANCH   9  10
ENDBRANCH   8   9
ENDBRANCH   7   8
ENDBRANCH   6   7
ENDBRANCH   5   6
ENDBRANCH   4   5
ENDBRANCH   3   4
ENDBRANCH   2   3
ENDBRANCH   1   2
BRANCH   1  15
ATOM     15  C   UNL     1      57.935  -1.119  92.825  1.00  0.00     0.000 C 
BRANCH  15  16
ATOM     16  C   UNL     1      58.921  -1.874  93.730  1.00  0.00     0.000 C 
BRANCH  16  17
ATOM     17  C   UNL     1      60.386  -1.473  93.478  1.00  0.00     0.000 C 
BRANCH  17  18
ATOM     18  C   UNL     1      61.091  -1.007  94.771  1.00  0.00    -0.000 C 
BRANCH  18  19
ATOM     19  C   UNL     1      60.121  -0.646  95.908  1.00  0.00    -0.000 C 
BRANCH  19  20
ATOM     20  C   UNL     1      60.548   0.614  96.678  1.00  0.00    -0.000 C 
BRANCH  20  21
ATOM     21  C   UNL     1      59.395   1.617  96.854  1.00  0.00    -0.000 C 
BRANCH  21  22
ATOM     22  C   UNL     1      58.248   1.371  95.857  1.00  0.00    -0.000 C 
BRANCH  22  23
ATOM     23  C   UNL     1      56.860   1.542  96.497  1.00  0.00    -0.000 C 
BRANCH  23  24
ATOM     24  C   UNL     1      55.890   0.407  96.121  1.00  0.00    -0.000 C 
BRANCH  24  25
ATOM     25  C   UNL     1      55.928  -0.756  97.125  1.00  0.00    -0.003 C 
ATOM     26  C   UNL     1      56.795  -1.921  96.651  1.00  0.00     0.004 C 
ENDBRANCH  24  25
ENDBRANCH  23  24
ENDBRANCH  22  23
ENDBRANCH  21  22
ENDBRANCH  20  21
ENDBRANCH  19  20
ENDBRANCH  18  19
ENDBRANCH  17  18
ENDBRANCH  16  17
ENDBRANCH  15  16
ENDBRANCH   1  15
TORSDOF 22
ENDMDL
MODEL 6
REMARK VINA RESULT:    -3.065      3.017      7.631
REMARK INTER + INTRA:         -10.733
REMARK INTER:                  -7.193
REMARK INTRA:                  -3.539
REMARK UNBOUND:                -3.725
REMARK SMILES CCCCCCCCCCCCCCCCCCCCCCCC(=O)[O-]
REMARK SMILES IDX 13 1 14 2 15 3 16 4 17 5 18 6 19 7 20 8 21 9 22 10 23 11
REMARK SMILES IDX 24 12 25 13 26 14 12 15 11 16 10 17 9 18 8 19 7 20 6 21 5 22
REMARK SMILES IDX 4 23 3 24 2 25 1 26
REMARK H PARENT
REMARK Flexibility Score: inf
ROOT
ATOM      1  C   UNL     1      56.780   3.303  95.419  1.00  0.00     0.000 C 
ENDROOT
BRANCH   1   2
ATOM      2  C   UNL     1      57.099   1.877  95.893  1.00  0.00     0.000 C 
BRANCH   2   3
ATOM      3  C   UNL     1      58.538   1.443  95.554  1.00  0.00     0.000 C 
BRANCH   3   4
ATOM      4  C   UNL     1      59.381   1.002  96.769  1.00  0.00     0.000 C 
BRANCH   4   5
ATOM      5  C   UNL     1      60.432  -0.084  96.457  1.00  0.00     0.000 C 
BRANCH   5   6
ATOM      6  C   UNL     1      60.768  -0.225  94.960  1.00  0.00     0.000 C 
BRANCH   6   7
ATOM      7  C   UNL     1      60.664  -1.680  94.469  1.00  0.00     0.000 C 
BRANCH   7   8
ATOM      8  C   UNL     1      60.399  -1.763  92.956  1.00  0.00     0.000 C 
BRANCH   8   9
ATOM      9  C   UNL     1      58.951  -2.187  92.621  1.00  0.00     0.000 C 
BRANCH   9  10
ATOM     10  C   UNL     1      57.913  -1.066  92.813  1.00  0.00     0.006 C 
BRANCH  10  11
ATOM     11  C   UNL     1      58.272   0.251  92.101  1.00  0.00     0.053 C 
BRANCH  11  12
ATOM     12  C   UNL     1      57.152   1.251  92.109  1.00  0.00     0.041 C 
ATOM     13  O   UNL     1      57.296   2.376  91.564  1.00  0.00    -0.550 OA
ATOM     14  O   UNL     1      55.922   0.908  92.655  1.00  0.00    -0.550 OA
ENDBRANCH  11  12
ENDBRANCH  10  11
ENDBRANCH   9  10
ENDBRANCH   8   9
ENDBRANCH   7   8
ENDBRANCH   6   7
ENDBRANCH   5   6
ENDBRANCH   4   5
ENDBRANCH   3   4
ENDBRANCH   2   3
ENDBRANCH   1   2
BRANCH   1  15
ATOM     15  C   UNL     1      56.387   4.203  96.601  1.00  0.00     0.000 C 
BRANCH  15  16
ATOM     16  C   UNL     1      57.447   5.272  96.908  1.00  0.00     0.000 C 
BRANCH  16  17
ATOM     17  C   UNL     1      58.635   5.231  95.929  1.00  0.00     0.000 C 
BRANCH  17  18
ATOM     18  C   UNL     1      59.992   5.338  96.657  1.00  0.00    -0.000 C 
BRANCH  18  19
ATOM     19  C   UNL     1      60.817   6.570  96.248  1.00  0.00    -0.000 C 
BRANCH  19  20
ATOM     20  C   UNL     1      60.640   6.940  94.767  1.00  0.00    -0.000 C 
BRANCH  20  21
ATOM     21  C   UNL     1      60.404   8.446  94.560  1.00  0.00    -0.000 C 
BRANCH  21  22
ATOM     22  C   UNL     1      58.931   8.842  94.767  1.00  0.00    -0.000 C 
BRANCH  22  23
ATOM     23  C   UNL     1      58.031   8.406  93.600  1.00  0.00    -0.000 C 
BRANCH  23  24
ATOM     24  C   UNL     1      56.747   7.700  94.073  1.00  0.00    -0.000 C 
BRANCH  24  25
ATOM     25  C   UNL     1      56.391   6.484  93.203  1.00  0.00    -0.003 C 
ATOM     26  C   UNL     1      57.598   5.912  92.460  1.00  0.00     0.004 C 
ENDBRANCH  24  25
ENDBRANCH  23  24
ENDBRANCH  22  23
ENDBRANCH  21  22
ENDBRANCH  20  21
ENDBRANCH  19  20
ENDBRANCH  18  19
ENDBRANCH  17  18
ENDBRANCH  16  17
ENDBRANCH  15  16
ENDBRANCH   1  15
TORSDOF 22
ENDMDL
MODEL 7
REMARK VINA RESULT:    -3.010      2.011      3.777
REMARK INTER + INTRA:         -10.606
REMARK INTER:                  -7.657
REMARK INTRA:                  -2.949
REMARK UNBOUND:                -3.725
REMARK SMILES CCCCCCCCCCCCCCCCCCCCCCCC(=O)[O-]
REMARK SMILES IDX 13 1 14 2 15 3 16 4 17 5 18 6 19 7 20 8 21 9 22 10 23 11
REMARK SMILES IDX 24 12 25 13 26 14 12 15 11 16 10 17 9 18 8 19 7 20 6 21 5 22
REMARK SMILES IDX 4 23 3 24 2 25 1 26
REMARK H PARENT
REMARK Flexibility Score: inf
ROOT
ATOM      1  C   UNL     1      55.555   2.011  91.852  1.00  0.00     0.000 C 
ENDROOT
BRANCH   1   2
ATOM      2  C   UNL     1      55.565   2.996  93.032  1.00  0.00     0.000 C 
BRANCH   2   3
ATOM      3  C   UNL     1      56.989   3.329  93.519  1.00  0.00     0.000 C 
BRANCH   3   4
ATOM      4  C   UNL     1      57.171   3.290  95.050  1.00  0.00     0.000 C 
BRANCH   4   5
ATOM      5  C   UNL     1      57.647   4.620  95.672  1.00  0.00     0.000 C 
BRANCH   5   6
ATOM      6  C   UNL     1      58.617   4.451  96.856  1.00  0.00     0.000 C 
BRANCH   6   7
ATOM      7  C   UNL     1      59.848   5.370  96.745  1.00  0.00     0.000 C 
BRANCH   7   8
ATOM      8  C   UNL     1      59.460   6.858  96.736  1.00  0.00     0.000 C 
BRANCH   8   9
ATOM      9  C   UNL     1      60.271   7.684  95.712  1.00  0.00     0.000 C 
BRANCH   9  10
ATOM     10  C   UNL     1      60.761   6.868  94.501  1.00  0.00     0.006 C 
BRANCH  10  11
ATOM     11  C   UNL     1      60.178   7.332  93.153  1.00  0.00     0.053 C 
BRANCH  11  12
ATOM     12  C   UNL     1      59.839   8.794  93.130  1.00  0.00     0.041 C 
ATOM     13  O   UNL     1      58.649   9.171  92.962  1.00  0.00    -0.550 OA
ATOM     14  O   UNL     1      60.828   9.739  93.370  1.00  0.00    -0.550 OA
ENDBRANCH  11  12
ENDBRANCH  10  11
ENDBRANCH   9  10
ENDBRANCH   8   9
ENDBRANCH   7   8
ENDBRANCH   6   7
ENDBRANCH   5   6
ENDBRANCH   4   5
ENDBRANCH   3   4
ENDBRANCH   2   3
ENDBRANCH   1   2
BRANCH   1  15
ATOM     15  C   UNL     1      56.975   1.781  91.312  1.00  0.00     0.000 C 
BRANCH  15  16
ATOM     16  C   UNL     1      57.358   0.293  91.272  1.00  0.00     0.000 C 
BRANCH  16  17
ATOM     17  C   UNL     1      58.852   0.071  90.973  1.00  0.00     0.000 C 
BRANCH  17  18
ATOM     18  C   UNL     1      59.652  -0.285  92.246  1.00  0.00    -0.000 C 
BRANCH  18  19
ATOM     19  C   UNL     1      59.855  -1.796  92.445  1.00  0.00    -0.000 C 
BRANCH  19  20
ATOM     20  C   UNL     1      60.370  -2.148  93.849  1.00  0.00    -0.000 C 
BRANCH  20  21
ATOM     21  C   UNL     1      61.125  -0.982  94.510  1.00  0.00    -0.000 C 
BRANCH  21  22
ATOM     22  C   UNL     1      60.503  -0.569  95.855  1.00  0.00    -0.000 C 
BRANCH  22  23
ATOM     23  C   UNL     1      59.336   0.419  95.690  1.00  0.00    -0.000 C 
BRANCH  23  24
ATOM     24  C   UNL     1      57.980  -0.195  96.082  1.00  0.00    -0.000 C 
BRANCH  24  25
ATOM     25  C   UNL     1      57.078  -0.453  94.864  1.00  0.00    -0.003 C 
ATOM     26  C   UNL     1      56.829  -1.940  94.613  1.00  0.00     0.004 C 
ENDBRANCH  24  25
ENDBRANCH  23  24
ENDBRANCH  22  23
ENDBRANCH  21  22
ENDBRANCH  20  21
ENDBRANCH  19  20
ENDBRANCH  18  19
ENDBRANCH  17  18
ENDBRANCH  16  17
ENDBRANCH  15  16
ENDBRANCH   1  15
TORSDOF 22
ENDMDL
MODEL 8
REMARK VINA RESULT:    -0.633      2.344      3.899
REMARK INTER + INTRA:          -5.172
REMARK INTER:                  -2.447
REMARK INTRA:                  -2.725
REMARK UNBOUND:                -3.725
REMARK SMILES CCCCCCCCCCCCCCCCCCCCCCCC(=O)[O-]
REMARK SMILES IDX 13 1 14 2 15 3 16 4 17 5 18 6 19 7 20 8 21 9 22 10 23 11
REMARK SMILES IDX 24 12 25 13 26 14 12 15 11 16 10 17 9 18 8 19 7 20 6 21 5 22
REMARK SMILES IDX 4 23 3 24 2 25 1 26
REMARK H PARENT
REMARK Flexibility Score: inf
ROOT
ATOM      1  C   UNL     1      57.230   1.847  96.514  1.00  0.00     0.000 C 
ENDROOT
BRANCH   1   2
ATOM      2  C   UNL     1      56.806   3.324  96.480  1.00  0.00     0.000 C 
BRANCH   2   3
ATOM      3  C   UNL     1      57.863   4.233  95.825  1.00  0.00     0.000 C 
BRANCH   3   4
ATOM      4  C   UNL     1      58.473   5.294  96.765  1.00  0.00     0.000 C 
BRANCH   4   5
ATOM      5  C   UNL     1      59.897   5.746  96.381  1.00  0.00     0.000 C 
BRANCH   5   6
ATOM      6  C   UNL     1      60.113   7.270  96.443  1.00  0.00     0.000 C 
BRANCH   6   7
ATOM      7  C   UNL     1      61.098   7.770  95.371  1.00  0.00     0.000 C 
BRANCH   7   8
ATOM      8  C   UNL     1      61.125   6.853  94.136  1.00  0.00     0.000 C 
BRANCH   8   9
ATOM      9  C   UNL     1      60.891   7.617  92.814  1.00  0.00     0.000 C 
BRANCH   9  10
ATOM     10  C   UNL     1      59.566   7.261  92.114  1.00  0.00     0.006 C 
BRANCH  10  11
ATOM     11  C   UNL     1      58.548   6.550  93.023  1.00  0.00     0.053 C 
BRANCH  11  12
ATOM     12  C   UNL     1      57.334   7.384  93.315  1.00  0.00     0.041 C 
ATOM     13  O   UNL     1      56.816   7.379  94.462  1.00  0.00    -0.550 OA
ATOM     14  O   UNL     1      56.821   8.226  92.337  1.00  0.00    -0.550 OA
ENDBRANCH  11  12
ENDBRANCH  10  11
ENDBRANCH   9  10
ENDBRANCH   8   9
ENDBRANCH   7   8
ENDBRANCH   6   7
ENDBRANCH   5   6
ENDBRANCH   4   5
ENDBRANCH   3   4
ENDBRANCH   2   3
ENDBRANCH   1   2
BRANCH   1  15
ATOM     15  C   UNL     1      58.501   1.618  95.683  1.00  0.00     0.000 C 
BRANCH  15  16
ATOM     16  C   UNL     1      59.674   1.097  96.528  1.00  0.00     0.000 C 
BRANCH  16  17
ATOM     17  C   UNL     1      59.901  -0.416  96.363  1.00  0.00     0.000 C 
BRANCH  17  18
ATOM     18  C   UNL     1      61.122  -0.727  95.471  1.00  0.00    -0.000 C 
BRANCH  18  19
ATOM     19  C   UNL     1      60.757  -1.032  94.008  1.00  0.00    -0.000 C 
BRANCH  19  20
ATOM     20  C   UNL     1      60.660  -2.538  93.720  1.00  0.00    -0.000 C 
BRANCH  20  21
ATOM     21  C   UNL     1      59.396  -2.906  92.923  1.00  0.00    -0.000 C 
BRANCH  21  22
ATOM     22  C   UNL     1      58.120  -2.305  93.538  1.00  0.00    -0.000 C 
BRANCH  22  23
ATOM     23  C   UNL     1      57.037  -2.010  92.487  1.00  0.00    -0.000 C 
BRANCH  23  24
ATOM     24  C   UNL     1      56.722  -0.508  92.366  1.00  0.00    -0.000 C 
BRANCH  24  25
ATOM     25  C   UNL     1      57.992   0.357  92.326  1.00  0.00    -0.003 C 
ATOM     26  C   UNL     1      58.531   0.555  90.909  1.00  0.00     0.004 C 
ENDBRANCH  24  25
ENDBRANCH  23  24
ENDBRANCH  22  23
ENDBRANCH  21  22
ENDBRANCH  20  21
ENDBRANCH  19  20
ENDBRANCH  18  19
ENDBRANCH  17  18
ENDBRANCH  16  17
ENDBRANCH  15  16
ENDBRANCH   1  15
TORSDOF 22
ENDMDL
