MODEL 1
REMARK VINA RESULT:    -2.535      0.000      0.000
REMARK INTER + INTRA:          -6.796
REMARK INTER:                  -4.609
REMARK INTRA:                  -2.187
REMARK UNBOUND:                -2.187
REMARK SMILES CCCCCCCCCCCCCCCC(=O)[O-]
REMARK SMILES IDX 9 1 10 2 11 3 12 4 13 5 14 6 15 7 16 8 17 9 18 10 8 11 7 12
REMARK SMILES IDX 6 13 5 14 4 15 3 16 2 17 1 18
REMARK H PARENT
REMARK Flexibility Score: inf
ROOT
ATOM      1  C   UNL     1     143.613 146.922 143.312  1.00  0.00     0.000 C 
ENDROOT
BRANCH   1   2
ATOM      2  C   UNL     1     143.094 148.210 143.973  1.00  0.00     0.000 C 
BRANCH   2   3
ATOM      3  C   UNL     1     144.168 148.908 144.825  1.00  0.00     0.000 C 
BRANCH   3   4
ATOM      4  C   UNL     1     144.443 150.348 144.365  1.00  0.00     0.000 C 
BRANCH   4   5
ATOM      5  C   UNL     1     143.398 151.349 144.887  1.00  0.00     0.000 C 
BRANCH   5   6
ATOM      6  C   UNL     1     143.255 151.311 146.417  1.00  0.00     0.006 C 
BRANCH   6   7
ATOM      7  C   UNL     1     144.390 152.054 147.134  1.00  0.00     0.053 C 
BRANCH   7   8
ATOM      8  C   UNL     1     145.259 151.087 147.873  1.00  0.00     0.041 C 
ATOM      9  O   UNL     1     144.833 149.936 148.151  1.00  0.00    -0.550 OA
ATOM     10  O   UNL     1     146.522 151.476 148.305  1.00  0.00    -0.550 OA
ENDBRANCH   7   8
ENDBRANCH   6   7
ENDBRANCH   5   6
ENDBRANCH   4   5
ENDBRANCH   3   4
ENDBRANCH   2   3
ENDBRANCH   1   2
BRANCH   1  11
ATOM     11  C   UNL     1     144.788 146.295 144.079  1.00  0.00     0.000 C 
BRANCH  11  12
ATOM     12  C   UNL     1     145.806 145.675 143.110  1.00  0.00    -0.000 C 
BRANCH  12  13
ATOM     13  C   UNL     1     147.249 146.121 143.397  1.00  0.00    -0.000 C 
BRANCH  13  14
ATOM     14  C   UNL     1     147.739 147.205 142.424  1.00  0.00    -0.000 C 
BRANCH  14  15
ATOM     15  C   UNL     1     147.261 148.595 142.865  1.00  0.00    -0.000 C 
BRANCH  15  16
ATOM     16  C   UNL     1     146.826 149.435 141.655  1.00  0.00    -0.000 C 
BRANCH  16  17
ATOM     17  C   UNL     1     145.533 148.915 141.010  1.00  0.00    -0.003 C 
ATOM     18  C   UNL     1     144.537 150.032 140.700  1.00  0.00     0.004 C 
ENDBRANCH  16  17
ENDBRANCH  15  16
ENDBRANCH  14  15
ENDBRANCH  13  14
ENDBRANCH  12  13
ENDBRANCH  11  12
ENDBRANCH   1  11
TORSDOF 14
ENDMDL
MODEL 2
REMARK VINA RESULT:    -2.506      3.605      6.035
REMARK INTER + INTRA:          -6.745
REMARK INTER:                  -4.446
REMARK INTRA:                  -2.299
REMARK UNBOUND:                -2.187
REMARK SMILES CCCCCCCCCCCCCCCC(=O)[O-]
REMARK SMILES IDX 9 1 10 2 11 3 12 4 13 5 14 6 15 7 16 8 17 9 18 10 8 11 7 12
REMARK SMILES IDX 6 13 5 14 4 15 3 16 2 17 1 18
REMARK H PARENT
REMARK Flexibility Score: inf
ROOT
ATOM      1  C   UNL     1     147.872 146.011 141.906  1.00  0.00     0.000 C 
ENDROOT
BRANCH   1   2
ATOM      2  C   UNL     1     146.754 146.159 140.860  1.00  0.00     0.000 C 
BRANCH   2   3
ATOM      3  C   UNL     1     147.063 147.249 139.819  1.00  0.00     0.000 C 
BRANCH   3   4
ATOM      4  C   UNL     1     145.830 147.643 138.991  1.00  0.00     0.000 C 
BRANCH   4   5
ATOM      5  C   UNL     1     144.514 147.493 139.775  1.00  0.00     0.000 C 
BRANCH   5   6
ATOM      6  C   UNL     1     143.398 148.402 139.237  1.00  0.00     0.006 C 
BRANCH   6   7
ATOM      7  C   UNL     1     143.875 149.307 138.094  1.00  0.00     0.053 C 
BRANCH   7   8
ATOM      8  C   UNL     1     143.834 150.742 138.514  1.00  0.00     0.041 C 
ATOM      9  O   UNL     1     143.653 151.648 137.660  1.00  0.00    -0.550 OA
ATOM     10  O   UNL     1     144.051 151.083 139.844  1.00  0.00    -0.550 OA
ENDBRANCH   7   8
ENDBRANCH   6   7
ENDBRANCH   5   6
ENDBRANCH   4   5
ENDBRANCH   3   4
ENDBRANCH   2   3
ENDBRANCH   1   2
BRANCH   1  11
ATOM     11  C   UNL     1     147.358 146.154 143.346  1.00  0.00     0.000 C 
BRANCH  11  12
ATOM     12  C   UNL     1     145.977 145.501 143.502  1.00  0.00    -0.000 C 
BRANCH  12  13
ATOM     13  C   UNL     1     144.989 146.379 144.288  1.00  0.00    -0.000 C 
BRANCH  13  14
ATOM     14  C   UNL     1     144.416 147.528 143.444  1.00  0.00    -0.000 C 
BRANCH  14  15
ATOM     15  C   UNL     1     144.316 148.818 144.269  1.00  0.00    -0.000 C 
BRANCH  15  16
ATOM     16  C   UNL     1     144.885 150.013 143.491  1.00  0.00    -0.000 C 
BRANCH  16  17
ATOM     17  C   UNL     1     145.922 149.592 142.438  1.00  0.00    -0.003 C 
ATOM     18  C   UNL     1     147.359 149.850 142.890  1.00  0.00     0.004 C 
ENDBRANCH  16  17
ENDBRANCH  15  16
ENDBRANCH  14  15
ENDBRANCH  13  14
ENDBRANCH  12  13
ENDBRANCH  11  12
ENDBRANCH   1  11
TORSDOF 14
ENDMDL
MODEL 3
REMARK VINA RESULT:    -2.503      1.514      3.373
REMARK INTER + INTRA:          -6.738
REMARK INTER:                  -4.153
REMARK INTRA:                  -2.585
REMARK UNBOUND:                -2.187
REMARK SMILES CCCCCCCCCCCCCCCC(=O)[O-]
REMARK SMILES IDX 9 1 10 2 11 3 12 4 13 5 14 6 15 7 16 8 17 9 18 10 8 11 7 12
REMARK SMILES IDX 6 13 5 14 4 15 3 16 2 17 1 18
REMARK H PARENT
REMARK Flexibility Score: inf
ROOT
ATOM      1  C   UNL     1     146.913 147.036 142.537  1.00  0.00     0.000 C 
ENDROOT
BRANCH   1   2
ATOM      2  C   UNL     1     145.922 146.390 143.520  1.00  0.00     0.000 C 
BRANCH   2   3
ATOM      3  C   UNL     1     144.505 146.271 142.933  1.00  0.00     0.000 C 
BRANCH   3   4
ATOM      4  C   UNL     1     143.508 147.236 143.595  1.00  0.00     0.000 C 
BRANCH   4   5
ATOM      5  C   UNL     1     144.025 147.802 144.929  1.00  0.00     0.000 C 
BRANCH   5   6
ATOM      6  C   UNL     1     143.509 149.222 145.209  1.00  0.00     0.006 C 
BRANCH   6   7
ATOM      7  C   UNL     1     144.644 150.227 145.444  1.00  0.00     0.053 C 
BRANCH   7   8
ATOM      8  C   UNL     1     144.632 150.703 146.862  1.00  0.00     0.041 C 
ATOM      9  O   UNL     1     144.731 149.879 147.808  1.00  0.00    -0.550 OA
ATOM     10  O   UNL     1     144.456 152.054 147.140  1.00  0.00    -0.550 OA
ENDBRANCH   7   8
ENDBRANCH   6   7
ENDBRANCH   5   6
ENDBRANCH   4   5
ENDBRANCH   3   4
ENDBRANCH   2   3
ENDBRANCH   1   2
BRANCH   1  11
ATOM     11  C   UNL     1     147.268 148.481 142.919  1.00  0.00     0.000 C 
BRANCH  11  12
ATOM     12  C   UNL     1     146.825 149.461 141.823  1.00  0.00    -0.000 C 
BRANCH  12  13
ATOM     13  C   UNL     1     145.338 149.837 141.927  1.00  0.00    -0.000 C 
BRANCH  13  14
ATOM     14  C   UNL     1     144.666 149.986 140.552  1.00  0.00    -0.000 C 
BRANCH  14  15
ATOM     15  C   UNL     1     144.033 148.662 140.105  1.00  0.00    -0.000 C 
BRANCH  15  16
ATOM     16  C   UNL     1     144.727 148.118 138.848  1.00  0.00    -0.000 C 
BRANCH  16  17
ATOM     17  C   UNL     1     145.636 146.917 139.149  1.00  0.00    -0.003 C 
ATOM     18  C   UNL     1     147.108 147.203 138.856  1.00  0.00     0.004 C 
ENDBRANCH  16  17
ENDBRANCH  15  16
ENDBRANCH  14  15
ENDBRANCH  13  14
ENDBRANCH  12  13
ENDBRANCH  11  12
ENDBRANCH   1  11
TORSDOF 14
ENDMDL
MODEL 4
REMARK VINA RESULT:    -2.419      1.399      2.490
REMARK INTER + INTRA:          -6.585
REMARK INTER:                  -4.607
REMARK INTRA:                  -1.978
REMARK UNBOUND:                -2.187
REMARK SMILES CCCCCCCCCCCCCCCC(=O)[O-]
REMARK SMILES IDX 9 1 10 2 11 3 12 4 13 5 14 6 15 7 16 8 17 9 18 10 8 11 7 12
REMARK SMILES IDX 6 13 5 14 4 15 3 16 2 17 1 18
REMARK H PARENT
REMARK Flexibility Score: inf
ROOT
ATOM      1  C   UNL     1     147.110 148.921 142.587  1.00  0.00     0.000 C 
ENDROOT
BRANCH   1   2
ATOM      2  C   UNL     1     145.932 149.659 143.245  1.00  0.00     0.000 C 
BRANCH   2   3
ATOM      3  C   UNL     1     144.886 148.693 143.829  1.00  0.00     0.000 C 
BRANCH   3   4
ATOM      4  C   UNL     1     143.688 149.426 144.453  1.00  0.00     0.000 C 
BRANCH   4   5
ATOM      5  C   UNL     1     144.050 150.833 144.961  1.00  0.00     0.000 C 
BRANCH   5   6
ATOM      6  C   UNL     1     143.753 151.016 146.457  1.00  0.00     0.006 C 
BRANCH   6   7
ATOM      7  C   UNL     1     144.303 149.867 147.313  1.00  0.00     0.053 C 
BRANCH   7   8
ATOM      8  C   UNL     1     145.295 150.387 148.305  1.00  0.00     0.041 C 
ATOM      9  O   UNL     1     145.937 151.442 148.066  1.00  0.00    -0.550 OA
ATOM     10  O   UNL     1     145.550 149.674 149.471  1.00  0.00    -0.550 OA
ENDBRANCH   7   8
ENDBRANCH   6   7
ENDBRANCH   5   6
ENDBRANCH   4   5
ENDBRANCH   3   4
ENDBRANCH   2   3
ENDBRANCH   1   2
BRANCH   1  11
ATOM     11  C   UNL     1     147.207 147.451 143.025  1.00  0.00     0.000 C 
BRANCH  11  12
ATOM     12  C   UNL     1     147.466 146.536 141.819  1.00  0.00    -0.000 C 
BRANCH  12  13
ATOM     13  C   UNL     1     146.539 146.843 140.631  1.00  0.00    -0.000 C 
BRANCH  13  14
ATOM     14  C   UNL     1     145.103 146.342 140.854  1.00  0.00    -0.000 C 
BRANCH  14  15
ATOM     15  C   UNL     1     144.079 147.404 140.433  1.00  0.00    -0.000 C 
BRANCH  15  16
ATOM     16  C   UNL     1     144.759 148.551 139.671  1.00  0.00    -0.000 C 
BRANCH  16  17
ATOM     17  C   UNL     1     143.839 149.768 139.493  1.00  0.00    -0.003 C 
ATOM     18  C   UNL     1     144.194 150.919 140.434  1.00  0.00     0.004 C 
ENDBRANCH  16  17
ENDBRANCH  15  16
ENDBRANCH  14  15
ENDBRANCH  13  14
ENDBRANCH  12  13
ENDBRANCH  11  12
ENDBRANCH   1  11
TORSDOF 14
ENDMDL
MODEL 5
REMARK VINA RESULT:    -2.416      4.048      6.357
REMARK INTER + INTRA:          -6.580
REMARK INTER:                  -4.371
REMARK INTRA:                  -2.209
REMARK UNBOUND:                -2.187
REMARK SMILES CCCCCCCCCCCCCCCC(=O)[O-]
REMARK SMILES IDX 9 1 10 2 11 3 12 4 13 5 14 6 15 7 16 8 17 9 18 10 8 11 7 12
REMARK SMILES IDX 6 13 5 14 4 15 3 16 2 17 1 18
REMARK H PARENT
REMARK Flexibility Score: inf
ROOT
ATOM      1  C   UNL     1     147.371 147.700 142.961  1.00  0.00     0.000 C 
ENDROOT
BRANCH   1   2
ATOM      2  C   UNL     1     146.855 148.366 141.673  1.00  0.00     0.000 C 
BRANCH   2   3
ATOM      3  C   UNL     1     146.474 149.841 141.886  1.00  0.00     0.000 C 
BRANCH   3   4
ATOM      4  C   UNL     1     145.051 150.160 141.399  1.00  0.00     0.000 C 
BRANCH   4   5
ATOM      5  C   UNL     1     144.635 149.313 140.184  1.00  0.00     0.000 C 
BRANCH   5   6
ATOM      6  C   UNL     1     143.304 149.774 139.570  1.00  0.00     0.006 C 
BRANCH   6   7
ATOM      7  C   UNL     1     143.177 149.400 138.087  1.00  0.00     0.053 C 
BRANCH   7   8
ATOM      8  C   UNL     1     143.812 150.448 137.230  1.00  0.00     0.041 C 
ATOM      9  O   UNL     1     143.723 151.664 137.544  1.00  0.00    -0.550 OA
ATOM     10  O   UNL     1     144.457 150.086 136.053  1.00  0.00    -0.550 OA
ENDBRANCH   7   8
ENDBRANCH   6   7
ENDBRANCH   5   6
ENDBRANCH   4   5
ENDBRANCH   3   4
ENDBRANCH   2   3
ENDBRANCH   1   2
BRANCH   1  11
ATOM     11  C   UNL     1     146.893 146.247 143.108  1.00  0.00     0.000 C 
BRANCH  11  12
ATOM     12  C   UNL     1     145.457 146.088 142.588  1.00  0.00    -0.000 C 
BRANCH  12  13
ATOM     13  C   UNL     1     144.399 146.414 143.655  1.00  0.00    -0.000 C 
BRANCH  13  14
ATOM     14  C   UNL     1     143.305 147.361 143.135  1.00  0.00    -0.000 C 
BRANCH  14  15
ATOM     15  C   UNL     1     143.068 148.517 144.116  1.00  0.00    -0.000 C 
BRANCH  15  16
ATOM     16  C   UNL     1     144.377 148.930 144.805  1.00  0.00    -0.000 C 
BRANCH  16  17
ATOM     17  C   UNL     1     144.245 150.249 145.580  1.00  0.00    -0.003 C 
ATOM     18  C   UNL     1     143.647 151.373 144.734  1.00  0.00     0.004 C 
ENDBRANCH  16  17
ENDBRANCH  15  16
ENDBRANCH  14  15
ENDBRANCH  13  14
ENDBRANCH  12  13
ENDBRANCH  11  12
ENDBRANCH   1  11
TORSDOF 14
ENDMDL
MODEL 6
REMARK VINA RESULT:    -2.405      1.368      2.995
REMARK INTER + INTRA:          -6.560
REMARK INTER:                  -4.055
REMARK INTRA:                  -2.505
REMARK UNBOUND:                -2.187
REMARK SMILES CCCCCCCCCCCCCCCC(=O)[O-]
REMARK SMILES IDX 9 1 10 2 11 3 12 4 13 5 14 6 15 7 16 8 17 9 18 10 8 11 7 12
REMARK SMILES IDX 6 13 5 14 4 15 3 16 2 17 1 18
REMARK H PARENT
REMARK Flexibility Score: inf
ROOT
ATOM      1  C   UNL     1     147.533 146.895 142.351  1.00  0.00     0.000 C 
ENDROOT
BRANCH   1   2
ATOM      2  C   UNL     1     147.388 148.308 142.944  1.00  0.00     0.000 C 
BRANCH   2   3
ATOM      3  C   UNL     1     146.732 149.293 141.961  1.00  0.00     0.000 C 
BRANCH   3   4
ATOM      4  C   UNL     1     145.504 149.996 142.561  1.00  0.00     0.000 C 
BRANCH   4   5
ATOM      5  C   UNL     1     145.199 149.538 143.998  1.00  0.00     0.000 C 
BRANCH   5   6
ATOM      6  C   UNL     1     143.841 150.047 144.505  1.00  0.00     0.006 C 
BRANCH   6   7
ATOM      7  C   UNL     1     143.980 151.219 145.486  1.00  0.00     0.053 C 
BRANCH   7   8
ATOM      8  C   UNL     1     144.529 150.742 146.793  1.00  0.00     0.041 C 
ATOM      9  O   UNL     1     145.416 151.408 147.388  1.00  0.00    -0.550 OA
ATOM     10  O   UNL     1     144.101 149.532 147.326  1.00  0.00    -0.550 OA
ENDBRANCH   7   8
ENDBRANCH   6   7
ENDBRANCH   5   6
ENDBRANCH   4   5
ENDBRANCH   3   4
ENDBRANCH   2   3
ENDBRANCH   1   2
BRANCH   1  11
ATOM     11  C   UNL     1     147.078 145.796 143.324  1.00  0.00     0.000 C 
BRANCH  11  12
ATOM     12  C   UNL     1     145.588 145.948 143.662  1.00  0.00    -0.000 C 
BRANCH  12  13
ATOM     13  C   UNL     1     144.674 145.684 142.455  1.00  0.00    -0.000 C 
BRANCH  13  14
ATOM     14  C   UNL     1     143.460 146.626 142.412  1.00  0.00    -0.000 C 
BRANCH  14  15
ATOM     15  C   UNL     1     143.443 147.442 141.113  1.00  0.00    -0.000 C 
BRANCH  15  16
ATOM     16  C   UNL     1     144.530 146.954 140.144  1.00  0.00    -0.000 C 
BRANCH  16  17
ATOM     17  C   UNL     1     144.757 147.925 138.975  1.00  0.00    -0.003 C 
ATOM     18  C   UNL     1     144.104 149.288 139.205  1.00  0.00     0.004 C 
ENDBRANCH  16  17
ENDBRANCH  15  16
ENDBRANCH  14  15
ENDBRANCH  13  14
ENDBRANCH  12  13
ENDBRANCH  11  12
ENDBRANCH   1  11
TORSDOF 14
ENDMDL
MODEL 7
REMARK VINA RESULT:    -2.402      1.995      3.474
REMARK INTER + INTRA:          -6.555
REMARK INTER:                  -4.280
REMARK INTRA:                  -2.275
REMARK UNBOUND:                -2.187
REMARK SMILES CCCCCCCCCCCCCCCC(=O)[O-]
REMARK SMILES IDX 9 1 10 2 11 3 12 4 13 5 14 6 15 7 16 8 17 9 18 10 8 11 7 12
REMARK SMILES IDX 6 13 5 14 4 15 3 16 2 17 1 18
REMARK H PARENT
REMARK Flexibility Score: inf
ROOT
ATOM      1  C   UNL     1     147.166 148.823 142.966  1.00  0.00     0.000 C 
ENDROOT
BRANCH   1   2
ATOM      2  C   UNL     1     146.675 149.890 141.973  1.00  0.00     0.000 C 
BRANCH   2   3
ATOM      3  C   UNL     1     145.543 149.373 141.068  1.00  0.00     0.000 C 
BRANCH   3   4
ATOM      4  C   UNL     1     144.289 150.260 141.125  1.00  0.00     0.000 C 
BRANCH   4   5
ATOM      5  C   UNL     1     143.067 149.526 141.706  1.00  0.00     0.000 C 
BRANCH   5   6
ATOM      6  C   UNL     1     142.996 149.617 143.238  1.00  0.00     0.006 C 
BRANCH   6   7
ATOM      7  C   UNL     1     143.239 151.041 143.756  1.00  0.00     0.053 C 
BRANCH   7   8
ATOM      8  C   UNL     1     144.028 151.004 145.027  1.00  0.00     0.041 C 
ATOM      9  O   UNL     1     144.666 149.967 145.347  1.00  0.00    -0.550 OA
ATOM     10  O   UNL     1     144.013 152.097 145.886  1.00  0.00    -0.550 OA
ENDBRANCH   7   8
ENDBRANCH   6   7
ENDBRANCH   5   6
ENDBRANCH   4   5
ENDBRANCH   3   4
ENDBRANCH   2   3
ENDBRANCH   1   2
BRANCH   1  11
ATOM     11  C   UNL     1     146.136 147.705 143.191  1.00  0.00     0.000 C 
BRANCH  11  12
ATOM     12  C   UNL     1     146.834 146.355 143.414  1.00  0.00    -0.000 C 
BRANCH  12  13
ATOM     13  C   UNL     1     148.017 146.132 142.457  1.00  0.00    -0.000 C 
BRANCH  13  14
ATOM     14  C   UNL     1     148.060 144.705 141.890  1.00  0.00    -0.000 C 
BRANCH  14  15
ATOM     15  C   UNL     1     146.871 144.450 140.954  1.00  0.00    -0.000 C 
BRANCH  15  16
ATOM     16  C   UNL     1     146.834 145.485 139.819  1.00  0.00    -0.000 C 
BRANCH  16  17
ATOM     17  C   UNL     1     145.431 146.071 139.602  1.00  0.00    -0.003 C 
ATOM     18  C   UNL     1     144.424 145.596 140.650  1.00  0.00     0.004 C 
ENDBRANCH  16  17
ENDBRANCH  15  16
ENDBRANCH  14  15
ENDBRANCH  13  14
ENDBRANCH  12  13
ENDBRANCH  11  12
ENDBRANCH   1  11
TORSDOF 14
ENDMDL
MODEL 8
REMARK VINA RESULT:    -2.361      1.600      3.189
REMARK INTER + INTRA:          -6.480
REMARK INTER:                  -4.698
REMARK INTRA:                  -1.782
REMARK UNBOUND:                -2.187
REMARK SMILES CCCCCCCCCCCCCCCC(=O)[O-]
REMARK SMILES IDX 9 1 10 2 11 3 12 4 13 5 14 6 15 7 16 8 17 9 18 10 8 11 7 12
REMARK SMILES IDX 6 13 5 14 4 15 3 16 2 17 1 18
REMARK H PARENT
REMARK Flexibility Score: inf
ROOT
ATOM      1  C   UNL     1     143.479 148.963 143.746  1.00  0.00     0.000 C 
ENDROOT
BRANCH   1   2
ATOM      2  C   UNL     1     144.068 148.751 145.152  1.00  0.00     0.000 C 
BRANCH   2   3
ATOM      3  C   UNL     1     143.025 148.963 146.263  1.00  0.00     0.000 C 
BRANCH   3   4
ATOM      4  C   UNL     1     143.189 150.315 146.976  1.00  0.00     0.000 C 
BRANCH   4   5
ATOM      5  C   UNL     1     144.582 150.933 146.767  1.00  0.00     0.000 C 
BRANCH   5   6
ATOM      6  C   UNL     1     145.293 151.250 148.092  1.00  0.00     0.006 C 
BRANCH   6   7
ATOM      7  C   UNL     1     145.517 150.001 148.955  1.00  0.00     0.053 C 
BRANCH   7   8
ATOM      8  C   UNL     1     145.299 150.321 150.399  1.00  0.00     0.041 C 
ATOM      9  O   UNL     1     145.042 149.402 151.220  1.00  0.00    -0.550 OA
ATOM     10  O   UNL     1     145.326 151.642 150.830  1.00  0.00    -0.550 OA
ENDBRANCH   7   8
ENDBRANCH   6   7
ENDBRANCH   5   6
ENDBRANCH   4   5
ENDBRANCH   3   4
ENDBRANCH   2   3
ENDBRANCH   1   2
BRANCH   1  11
ATOM     11  C   UNL     1     144.473 149.631 142.783  1.00  0.00     0.000 C 
BRANCH  11  12
ATOM     12  C   UNL     1     145.853 149.783 143.440  1.00  0.00    -0.000 C 
BRANCH  12  13
ATOM     13  C   UNL     1     147.005 149.394 142.499  1.00  0.00    -0.000 C 
BRANCH  13  14
ATOM     14  C   UNL     1     146.932 147.927 142.046  1.00  0.00    -0.000 C 
BRANCH  14  15
ATOM     15  C   UNL     1     147.702 147.016 143.010  1.00  0.00    -0.000 C 
BRANCH  15  16
ATOM     16  C   UNL     1     147.026 145.641 143.125  1.00  0.00    -0.000 C 
BRANCH  16  17
ATOM     17  C   UNL     1     145.534 145.745 143.476  1.00  0.00    -0.003 C 
ATOM     18  C   UNL     1     145.232 145.294 144.905  1.00  0.00     0.004 C 
ENDBRANCH  16  17
ENDBRANCH  15  16
ENDBRANCH  14  15
ENDBRANCH  13  14
ENDBRANCH  12  13
ENDBRANCH  11  12
ENDBRANCH   1  11
TORSDOF 14
ENDMDL
MODEL 9
REMARK VINA RESULT:    -2.313      1.264      3.200
REMARK INTER + INTRA:          -6.393
REMARK INTER:                  -4.173
REMARK INTRA:                  -2.220
REMARK UNBOUND:                -2.187
REMARK SMILES CCCCCCCCCCCCCCCC(=O)[O-]
REMARK SMILES IDX 9 1 10 2 11 3 12 4 13 5 14 6 15 7 16 8 17 9 18 10 8 11 7 12
REMARK SMILES IDX 6 13 5 14 4 15 3 16 2 17 1 18
REMARK H PARENT
REMARK Flexibility Score: inf
ROOT
ATOM      1  C   UNL     1     147.395 148.263 142.943  1.00  0.00     0.000 C 
ENDROOT
BRANCH   1   2
ATOM      2  C   UNL     1     146.929 149.499 142.155  1.00  0.00     0.000 C 
BRANCH   2   3
ATOM      3  C   UNL     1     145.441 149.816 142.385  1.00  0.00     0.000 C 
BRANCH   3   4
ATOM      4  C   UNL     1     145.083 149.921 143.876  1.00  0.00     0.000 C 
BRANCH   4   5
ATOM      5  C   UNL     1     143.617 150.324 144.109  1.00  0.00     0.000 C 
BRANCH   5   6
ATOM      6  C   UNL     1     143.224 150.295 145.594  1.00  0.00     0.006 C 
BRANCH   6   7
ATOM      7  C   UNL     1     144.425 150.050 146.517  1.00  0.00     0.053 C 
BRANCH   7   8
ATOM      8  C   UNL     1     144.676 151.250 147.373  1.00  0.00     0.041 C 
ATOM      9  O   UNL     1     145.832 151.484 147.813  1.00  0.00    -0.550 OA
ATOM     10  O   UNL     1     143.622 152.082 147.732  1.00  0.00    -0.550 OA
ENDBRANCH   7   8
ENDBRANCH   6   7
ENDBRANCH   5   6
ENDBRANCH   4   5
ENDBRANCH   3   4
ENDBRANCH   2   3
ENDBRANCH   1   2
BRANCH   1  11
ATOM     11  C   UNL     1     147.437 146.992 142.081  1.00  0.00     0.000 C 
BRANCH  11  12
ATOM     12  C   UNL     1     147.770 145.761 142.936  1.00  0.00    -0.000 C 
BRANCH  12  13
ATOM     13  C   UNL     1     146.804 144.590 142.693  1.00  0.00    -0.000 C 
BRANCH  13  14
ATOM     14  C   UNL     1     145.756 144.899 141.612  1.00  0.00    -0.000 C 
BRANCH  14  15
ATOM     15  C   UNL     1     144.343 144.928 142.209  1.00  0.00    -0.000 C 
BRANCH  15  16
ATOM     16  C   UNL     1     143.859 146.372 142.406  1.00  0.00    -0.000 C 
BRANCH  16  17
ATOM     17  C   UNL     1     143.334 146.629 143.826  1.00  0.00    -0.003 C 
ATOM     18  C   UNL     1     144.405 146.428 144.897  1.00  0.00     0.004 C 
ENDBRANCH  16  17
ENDBRANCH  15  16
ENDBRANCH  14  15
ENDBRANCH  13  14
ENDBRANCH  12  13
ENDBRANCH  11  12
ENDBRANCH   1  11
TORSDOF 14
ENDMDL
