MODEL 1
REMARK VINA RESULT:    -3.475      0.000      0.000
REMARK INTER + INTRA:          -5.232
REMARK INTER:                  -5.304
REMARK INTRA:                   0.072
REMARK UNBOUND:                 0.072
REMARK SMILES CC1=CCC[C@@H](C)C(=O)C[C@@H](C(C)C)C(=O)C1
REMARK SMILES IDX 8 1 9 2 6 3 7 4 5 5 4 6 3 7 2 8 1 9 10 11 11 12 15 13 16 14
REMARK SMILES IDX 17 15 12 17 13 18 14 19
REMARK H PARENT
REMARK Flexibility Score: 70.00
ROOT
ATOM      1  C   UNL     1     -11.853   5.143 -15.543  1.00  0.00     0.136 C 
ATOM      2  O   UNL     1     -11.958   6.162 -16.212  1.00  0.00    -0.299 OA
ENDROOT
BRANCH   1   3
ATOM      3  C   UNL     1     -12.260   3.802 -16.135  1.00  0.00     0.053 C 
ATOM      4  C   UNL     1     -12.072   3.801 -17.660  1.00  0.00     0.016 C 
BRANCH   3   5
ATOM      5  C   UNL     1     -13.722   3.457 -15.760  1.00  0.00     0.015 C 
BRANCH   5   6
ATOM      6  C   UNL     1     -13.832   2.136 -14.970  1.00  0.00     0.028 C 
BRANCH   6   7
ATOM      7  C   UNL     1     -14.598   2.326 -13.686  1.00  0.00    -0.028 C 
ATOM      8  C   UNL     1     -14.034   2.403 -12.456  1.00  0.00    -0.070 CG0
ATOM      9  C   UNL     1     -14.940   2.647 -11.277  1.00  0.00     0.039 C 
ATOM     10  G   UNL     1     -12.537   2.256 -12.221  1.00  0.00     0.000 G0
ENDBRANCH   6   7
ENDBRANCH   5   6
ENDBRANCH   3   5
ENDBRANCH   1   3
BRANCH   1  11
ATOM     11  C   UNL     1     -11.336   5.241 -14.126  1.00  0.00     0.087 C 
BRANCH  11  12
ATOM     12  C   UNL     1     -10.914   3.877 -13.506  1.00  0.00     0.066 C 
BRANCH  12  13
ATOM     13  C   UNL     1     -11.783   3.552 -12.299  1.00  0.00     0.140 C 
ATOM     14  O   UNL     1     -11.831   4.333 -11.357  1.00  0.00    -0.299 OA
BRANCH  13  15
ATOM     15  C   UNL     1     -12.534   2.247 -12.218  1.00  0.00     0.106 CG0
ATOM     16  G   UNL     1     -14.027   2.425 -12.453  1.00  0.00     0.000 G0
ENDBRANCH  13  15
ENDBRANCH  12  13
BRANCH  12  17
ATOM     17  C   UNL     1      -9.391   3.761 -13.163  1.00  0.00    -0.006 C 
ATOM     18  C   UNL     1      -9.060   2.501 -12.343  1.00  0.00     0.008 C 
ATOM     19  C   UNL     1      -8.911   4.999 -12.381  1.00  0.00     0.008 C 
ENDBRANCH  12  17
ENDBRANCH  11  12
ENDBRANCH   1  11
TORSDOF 1
ENDMDL
MODEL 2
REMARK VINA RESULT:    -3.466      3.123      4.799
REMARK INTER + INTRA:          -5.218
REMARK INTER:                  -5.273
REMARK INTRA:                   0.055
REMARK UNBOUND:                 0.072
REMARK SMILES CC1=CCC[C@@H](C)C(=O)C[C@@H](C(C)C)C(=O)C1
REMARK SMILES IDX 8 1 9 2 6 3 7 4 5 5 4 6 3 7 2 8 1 9 10 11 11 12 15 13 16 14
REMARK SMILES IDX 17 15 12 17 13 18 14 19
REMARK H PARENT
REMARK Flexibility Score: 70.00
ROOT
ATOM      1  C   UNL     1     -12.407   5.345 -16.135  1.00  0.00     0.136 C 
ATOM      2  O   UNL     1     -12.862   4.539 -16.935  1.00  0.00    -0.299 OA
ENDROOT
BRANCH   1   3
ATOM      3  C   UNL     1     -13.157   6.637 -15.851  1.00  0.00     0.053 C 
ATOM      4  C   UNL     1     -14.228   6.892 -16.923  1.00  0.00     0.016 C 
BRANCH   3   5
ATOM      5  C   UNL     1     -12.176   7.832 -15.757  1.00  0.00     0.015 C 
BRANCH   5   6
ATOM      6  C   UNL     1     -12.449   8.723 -14.527  1.00  0.00     0.028 C 
BRANCH   6   7
ATOM      7  C   UNL     1     -11.166   9.215 -13.910  1.00  0.00    -0.028 C 
ATOM      8  C   UNL     1     -10.424   8.519 -13.014  1.00  0.00    -0.070 CG0
ATOM      9  C   UNL     1      -9.136   9.134 -12.531  1.00  0.00     0.039 C 
ATOM     10  G   UNL     1     -10.836   7.152 -12.484  1.00  0.00     0.000 G0
ENDBRANCH   6   7
ENDBRANCH   5   6
ENDBRANCH   3   5
ENDBRANCH   1   3
BRANCH   1  11
ATOM     11  C   UNL     1     -11.091   5.046 -15.454  1.00  0.00     0.087 C 
BRANCH  11  12
ATOM     12  C   UNL     1     -11.176   4.981 -13.902  1.00  0.00     0.066 C 
BRANCH  12  13
ATOM     13  C   UNL     1     -10.256   6.019 -13.275  1.00  0.00     0.140 C 
ATOM     14  O   UNL     1      -9.042   5.899 -13.385  1.00  0.00    -0.299 OA
BRANCH  13  15
ATOM     15  C   UNL     1     -10.817   7.156 -12.460  1.00  0.00     0.106 CG0
ATOM     16  G   UNL     1     -10.419   8.516 -13.019  1.00  0.00     0.000 G0
ENDBRANCH  13  15
ENDBRANCH  12  13
BRANCH  12  17
ATOM     17  C   UNL     1     -10.932   3.557 -13.295  1.00  0.00    -0.006 C 
ATOM     18  C   UNL     1     -10.244   2.599 -14.284  1.00  0.00     0.008 C 
ATOM     19  C   UNL     1     -12.260   2.925 -12.836  1.00  0.00     0.008 C 
ENDBRANCH  12  17
ENDBRANCH  11  12
ENDBRANCH   1  11
TORSDOF 1
ENDMDL
MODEL 3
REMARK VINA RESULT:    -3.420      2.252      3.829
REMARK INTER + INTRA:          -5.148
REMARK INTER:                  -5.044
REMARK INTRA:                  -0.103
REMARK UNBOUND:                 0.072
REMARK SMILES CC1=CCC[C@@H](C)C(=O)C[C@@H](C(C)C)C(=O)C1
REMARK SMILES IDX 8 1 9 2 6 3 7 4 5 5 4 6 3 7 2 8 1 9 10 11 11 12 15 13 16 14
REMARK SMILES IDX 17 15 12 17 13 18 14 19
REMARK H PARENT
REMARK Flexibility Score: 70.00
ROOT
ATOM      1  C   UNL     1     -13.716   2.947 -15.193  1.00  0.00     0.136 C 
ATOM      2  O   UNL     1     -14.877   2.849 -14.816  1.00  0.00    -0.299 OA
ENDROOT
BRANCH   1   3
ATOM      3  C   UNL     1     -13.405   3.607 -16.527  1.00  0.00     0.053 C 
ATOM      4  C   UNL     1     -11.989   3.243 -16.997  1.00  0.00     0.016 C 
BRANCH   3   5
ATOM      5  C   UNL     1     -13.578   5.142 -16.435  1.00  0.00     0.015 C 
BRANCH   5   6
ATOM      6  C   UNL     1     -12.237   5.895 -16.559  1.00  0.00     0.028 C 
BRANCH   6   7
ATOM      7  C   UNL     1     -11.866   6.574 -15.265  1.00  0.00    -0.028 C 
ATOM      8  C   UNL     1     -10.978   6.086 -14.365  1.00  0.00    -0.070 CG0
ATOM      9  C   UNL     1     -10.680   6.916 -13.143  1.00  0.00     0.039 C 
ATOM     10  G   UNL     1     -10.275   4.747 -14.539  1.00  0.00     0.000 G0
ENDBRANCH   6   7
ENDBRANCH   5   6
ENDBRANCH   3   5
ENDBRANCH   1   3
BRANCH   1  11
ATOM     11  C   UNL     1     -12.611   2.390 -14.325  1.00  0.00     0.087 C 
BRANCH  11  12
ATOM     12  C   UNL     1     -12.092   3.379 -13.241  1.00  0.00     0.066 C 
BRANCH  12  13
ATOM     13  C   UNL     1     -10.629   3.722 -13.491  1.00  0.00     0.140 C 
ATOM     14  O   UNL     1      -9.758   3.203 -12.803  1.00  0.00    -0.299 OA
BRANCH  13  15
ATOM     15  C   UNL     1     -10.242   4.744 -14.530  1.00  0.00     0.106 CG0
ATOM     16  G   UNL     1     -10.978   6.063 -14.342  1.00  0.00     0.000 G0
ENDBRANCH  13  15
ENDBRANCH  12  13
BRANCH  12  17
ATOM     17  C   UNL     1     -12.326   2.910 -11.765  1.00  0.00    -0.006 C 
ATOM     18  C   UNL     1     -13.653   2.152 -11.586  1.00  0.00     0.008 C 
ATOM     19  C   UNL     1     -12.310   4.113 -10.802  1.00  0.00     0.008 C 
ENDBRANCH  12  17
ENDBRANCH  11  12
ENDBRANCH   1  11
TORSDOF 1
ENDMDL
MODEL 4
REMARK VINA RESULT:    -3.341      1.821      4.240
REMARK INTER + INTRA:          -5.026
REMARK INTER:                  -5.085
REMARK INTRA:                   0.059
REMARK UNBOUND:                 0.072
REMARK SMILES CC1=CCC[C@@H](C)C(=O)C[C@@H](C(C)C)C(=O)C1
REMARK SMILES IDX 8 1 9 2 6 3 7 4 5 5 4 6 3 7 2 8 1 9 10 11 11 12 15 13 16 14
REMARK SMILES IDX 17 15 12 17 13 18 14 19
REMARK H PARENT
REMARK Flexibility Score: 70.00
ROOT
ATOM      1  C   UNL     1     -10.892   6.114 -14.014  1.00  0.00     0.136 C 
ATOM      2  O   UNL     1     -11.232   7.230 -14.385  1.00  0.00    -0.299 OA
ENDROOT
BRANCH   1   3
ATOM      3  C   UNL     1     -10.408   5.904 -12.588  1.00  0.00     0.053 C 
ATOM      4  C   UNL     1     -10.441   7.224 -11.802  1.00  0.00     0.016 C 
BRANCH   3   5
ATOM      5  C   UNL     1      -8.988   5.290 -12.575  1.00  0.00     0.015 C 
BRANCH   5   6
ATOM      6  C   UNL     1      -9.005   3.770 -12.306  1.00  0.00     0.028 C 
BRANCH   6   7
ATOM      7  C   UNL     1     -10.319   3.332 -11.711  1.00  0.00    -0.028 C 
ATOM      8  C   UNL     1     -11.287   2.667 -12.387  1.00  0.00    -0.070 CG0
ATOM      9  C   UNL     1     -12.523   2.256 -11.630  1.00  0.00     0.039 C 
ATOM     10  G   UNL     1     -11.177   2.322 -13.866  1.00  0.00     0.000 G0
ENDBRANCH   6   7
ENDBRANCH   5   6
ENDBRANCH   3   5
ENDBRANCH   1   3
BRANCH   1  11
ATOM     11  C   UNL     1     -10.943   4.965 -14.994  1.00  0.00     0.087 C 
BRANCH  11  12
ATOM     12  C   UNL     1     -12.348   4.312 -15.139  1.00  0.00     0.066 C 
BRANCH  12  13
ATOM     13  C   UNL     1     -12.301   2.849 -14.719  1.00  0.00     0.140 C 
ATOM     14  O   UNL     1     -13.222   2.101 -15.019  1.00  0.00    -0.299 OA
BRANCH  13  15
ATOM     15  C   UNL     1     -11.165   2.325 -13.878  1.00  0.00     0.106 CG0
ATOM     16  G   UNL     1     -11.328   2.675 -12.405  1.00  0.00     0.000 G0
ENDBRANCH  13  15
ENDBRANCH  12  13
BRANCH  12  17
ATOM     17  C   UNL     1     -13.003   4.481 -16.552  1.00  0.00    -0.006 C 
ATOM     18  C   UNL     1     -11.982   4.371 -17.698  1.00  0.00     0.008 C 
ATOM     19  C   UNL     1     -13.723   5.839 -16.661  1.00  0.00     0.008 C 
ENDBRANCH  12  17
ENDBRANCH  11  12
ENDBRANCH   1  11
TORSDOF 1
ENDMDL
MODEL 5
REMARK VINA RESULT:    -3.236      2.599      4.773
REMARK INTER + INTRA:          -4.866
REMARK INTER:                  -4.583
REMARK INTRA:                  -0.283
REMARK UNBOUND:                 0.072
REMARK SMILES CC1=CCC[C@@H](C)C(=O)C[C@@H](C(C)C)C(=O)C1
REMARK SMILES IDX 8 1 9 2 6 3 7 4 5 5 4 6 3 7 2 8 1 9 10 11 11 12 15 13 16 14
REMARK SMILES IDX 17 15 12 17 13 18 14 19
REMARK H PARENT
REMARK Flexibility Score: 70.00
ROOT
ATOM      1  C   UNL     1     -13.373   3.379 -10.773  1.00  0.00     0.136 C 
ATOM      2  O   UNL     1     -13.924   4.264 -10.132  1.00  0.00    -0.299 OA
ENDROOT
BRANCH   1   3
ATOM      3  C   UNL     1     -14.040   2.020 -10.917  1.00  0.00     0.053 C 
ATOM      4  C   UNL     1     -15.311   2.125 -11.773  1.00  0.00     0.016 C 
BRANCH   3   5
ATOM      5  C   UNL     1     -14.358   1.414  -9.529  1.00  0.00     0.015 C 
BRANCH   5   6
ATOM      6  C   UNL     1     -13.086   1.139  -8.700  1.00  0.00     0.028 C 
BRANCH   6   7
ATOM      7  C   UNL     1     -12.291  -0.005  -9.276  1.00  0.00    -0.028 C 
ATOM      8  C   UNL     1     -11.070   0.118  -9.851  1.00  0.00    -0.070 CG0
ATOM      9  C   UNL     1     -10.386  -1.135 -10.332  1.00  0.00     0.039 C 
ATOM     10  G   UNL     1     -10.368   1.458 -10.026  1.00  0.00     0.000 G0
ENDBRANCH   6   7
ENDBRANCH   5   6
ENDBRANCH   3   5
ENDBRANCH   1   3
BRANCH   1  11
ATOM     11  C   UNL     1     -12.024   3.653 -11.398  1.00  0.00     0.087 C 
BRANCH  11  12
ATOM     12  C   UNL     1     -11.457   2.468 -12.233  1.00  0.00     0.066 C 
BRANCH  12  13
ATOM     13  C   UNL     1     -10.277   1.828 -11.513  1.00  0.00     0.140 C 
ATOM     14  O   UNL     1      -9.260   1.556 -12.138  1.00  0.00    -0.299 OA
BRANCH  13  15
ATOM     15  C   UNL     1     -10.370   1.462 -10.054  1.00  0.00     0.106 CG0
ATOM     16  G   UNL     1     -11.082   0.134  -9.837  1.00  0.00     0.000 G0
ENDBRANCH  13  15
ENDBRANCH  12  13
BRANCH  12  17
ATOM     17  C   UNL     1     -11.096   2.829 -13.714  1.00  0.00    -0.006 C 
ATOM     18  C   UNL     1     -10.285   4.132 -13.829  1.00  0.00     0.008 C 
ATOM     19  C   UNL     1     -12.372   2.964 -14.568  1.00  0.00     0.008 C 
ENDBRANCH  12  17
ENDBRANCH  11  12
ENDBRANCH   1  11
TORSDOF 1
ENDMDL
MODEL 6
REMARK VINA RESULT:    -3.202      1.635      4.102
REMARK INTER + INTRA:          -4.814
REMARK INTER:                  -4.932
REMARK INTRA:                   0.117
REMARK UNBOUND:                 0.072
REMARK SMILES CC1=CCC[C@@H](C)C(=O)C[C@@H](C(C)C)C(=O)C1
REMARK SMILES IDX 8 1 9 2 6 3 7 4 5 5 4 6 3 7 2 8 1 9 10 11 11 12 15 13 16 14
REMARK SMILES IDX 17 15 12 17 13 18 14 19
REMARK H PARENT
REMARK Flexibility Score: 70.00
ROOT
ATOM      1  C   UNL     1     -13.532   3.117 -15.206  1.00  0.00     0.136 C 
ATOM      2  O   UNL     1     -14.624   3.293 -15.729  1.00  0.00    -0.299 OA
ENDROOT
BRANCH   1   3
ATOM      3  C   UNL     1     -12.310   3.854 -15.734  1.00  0.00     0.053 C 
ATOM      4  C   UNL     1     -12.237   3.758 -17.265  1.00  0.00     0.016 C 
BRANCH   3   5
ATOM      5  C   UNL     1     -11.016   3.308 -15.084  1.00  0.00     0.015 C 
BRANCH   5   6
ATOM      6  C   UNL     1     -10.307   4.361 -14.205  1.00  0.00     0.028 C 
BRANCH   6   7
ATOM      7  C   UNL     1      -9.648   3.724 -13.009  1.00  0.00    -0.028 C 
ATOM      8  C   UNL     1     -10.272   3.459 -11.835  1.00  0.00    -0.070 CG0
ATOM      9  C   UNL     1      -9.481   2.770 -10.753  1.00  0.00     0.039 C 
ATOM     10  G   UNL     1     -11.726   3.824 -11.570  1.00  0.00     0.000 G0
ENDBRANCH   6   7
ENDBRANCH   5   6
ENDBRANCH   3   5
ENDBRANCH   1   3
BRANCH   1  11
ATOM     11  C   UNL     1     -13.415   2.151 -14.049  1.00  0.00     0.087 C 
BRANCH  11  12
ATOM     12  C   UNL     1     -13.844   2.745 -12.676  1.00  0.00     0.066 C 
BRANCH  12  13
ATOM     13  C   UNL     1     -12.689   2.682 -11.686  1.00  0.00     0.140 C 
ATOM     14  O   UNL     1     -12.564   1.704 -10.960  1.00  0.00    -0.299 OA
BRANCH  13  15
ATOM     15  C   UNL     1     -11.735   3.840 -11.539  1.00  0.00     0.106 CG0
ATOM     16  G   UNL     1     -10.298   3.446 -11.851  1.00  0.00     0.000 G0
ENDBRANCH  13  15
ENDBRANCH  12  13
BRANCH  12  17
ATOM     17  C   UNL     1     -15.149   2.120 -12.075  1.00  0.00    -0.006 C 
ATOM     18  C   UNL     1     -16.306   2.069 -13.089  1.00  0.00     0.008 C 
ATOM     19  C   UNL     1     -15.612   2.912 -10.837  1.00  0.00     0.008 C 
ENDBRANCH  12  17
ENDBRANCH  11  12
ENDBRANCH   1  11
TORSDOF 1
ENDMDL
MODEL 7
REMARK VINA RESULT:    -3.027      2.617      4.156
REMARK INTER + INTRA:          -4.547
REMARK INTER:                  -4.882
REMARK INTRA:                   0.335
REMARK UNBOUND:                 0.072
REMARK SMILES CC1=CCC[C@@H](C)C(=O)C[C@@H](C(C)C)C(=O)C1
REMARK SMILES IDX 8 1 9 2 6 3 7 4 5 5 4 6 3 7 2 8 1 9 10 11 11 12 15 13 16 14
REMARK SMILES IDX 17 15 12 17 13 18 14 19
REMARK H PARENT
REMARK Flexibility Score: 70.00
ROOT
ATOM      1  C   UNL     1     -13.298   2.509 -12.585  1.00  0.00     0.136 C 
ATOM      2  O   UNL     1     -13.504   2.300 -13.773  1.00  0.00    -0.299 OA
ENDROOT
BRANCH   1   3
ATOM      3  C   UNL     1     -14.329   2.087 -11.550  1.00  0.00     0.053 C 
ATOM      4  C   UNL     1     -15.714   1.927 -12.195  1.00  0.00     0.016 C 
BRANCH   3   5
ATOM      5  C   UNL     1     -14.379   3.099 -10.380  1.00  0.00     0.015 C 
BRANCH   5   6
ATOM      6  C   UNL     1     -13.791   2.522  -9.075  1.00  0.00     0.028 C 
BRANCH   6   7
ATOM      7  C   UNL     1     -13.246   1.132  -9.285  1.00  0.00    -0.028 C 
ATOM      8  C   UNL     1     -11.962   0.849  -9.613  1.00  0.00    -0.070 CG0
ATOM      9  C   UNL     1     -11.566  -0.600  -9.736  1.00  0.00     0.039 C 
ATOM     10  G   UNL     1     -10.913   1.926  -9.857  1.00  0.00     0.000 G0
ENDBRANCH   6   7
ENDBRANCH   5   6
ENDBRANCH   3   5
ENDBRANCH   1   3
BRANCH   1  11
ATOM     11  C   UNL     1     -12.021   3.205 -12.171  1.00  0.00     0.087 C 
BRANCH  11  12
ATOM     12  C   UNL     1     -10.728   2.390 -12.463  1.00  0.00     0.066 C 
BRANCH  12  13
ATOM     13  C   UNL     1     -10.195   1.761 -11.183  1.00  0.00     0.140 C 
ATOM     14  O   UNL     1      -9.198   1.051 -11.224  1.00  0.00    -0.299 OA
BRANCH  13  15
ATOM     15  C   UNL     1     -10.918   1.947  -9.873  1.00  0.00     0.106 CG0
ATOM     16  G   UNL     1     -11.935   0.844  -9.615  1.00  0.00     0.000 G0
ENDBRANCH  13  15
ENDBRANCH  12  13
BRANCH  12  17
ATOM     17  C   UNL     1      -9.611   3.190 -13.216  1.00  0.00    -0.006 C 
ATOM     18  C   UNL     1     -10.003   4.654 -13.482  1.00  0.00     0.008 C 
ATOM     19  C   UNL     1      -9.271   2.517 -14.560  1.00  0.00     0.008 C 
ENDBRANCH  12  17
ENDBRANCH  11  12
ENDBRANCH   1  11
TORSDOF 1
ENDMDL
MODEL 8
REMARK VINA RESULT:    -3.001      2.825      4.848
REMARK INTER + INTRA:          -4.507
REMARK INTER:                  -4.452
REMARK INTRA:                  -0.055
REMARK UNBOUND:                 0.072
REMARK SMILES CC1=CCC[C@@H](C)C(=O)C[C@@H](C(C)C)C(=O)C1
REMARK SMILES IDX 8 1 9 2 6 3 7 4 5 5 4 6 3 7 2 8 1 9 10 11 11 12 15 13 16 14
REMARK SMILES IDX 17 15 12 17 13 18 14 19
REMARK H PARENT
REMARK Flexibility Score: 70.00
ROOT
ATOM      1  C   UNL     1     -12.926   2.544 -12.195  1.00  0.00     0.136 C 
ATOM      2  O   UNL     1     -13.935   2.120 -12.742  1.00  0.00    -0.299 OA
ENDROOT
BRANCH   1   3
ATOM      3  C   UNL     1     -12.765   2.406 -10.689  1.00  0.00     0.053 C 
ATOM      4  C   UNL     1     -13.597   1.228 -10.159  1.00  0.00     0.016 C 
BRANCH   3   5
ATOM      5  C   UNL     1     -13.152   3.722  -9.972  1.00  0.00     0.015 C 
BRANCH   5   6
ATOM      6  C   UNL     1     -11.977   4.329  -9.178  1.00  0.00     0.028 C 
BRANCH   6   7
ATOM      7  C   UNL     1     -11.872   5.816  -9.401  1.00  0.00    -0.028 C 
ATOM      8  C   UNL     1     -10.937   6.415 -10.177  1.00  0.00    -0.070 CG0
ATOM      9  C   UNL     1     -11.003   7.912 -10.335  1.00  0.00     0.039 C 
ATOM     10  G   UNL     1      -9.834   5.644 -10.889  1.00  0.00     0.000 G0
ENDBRANCH   6   7
ENDBRANCH   5   6
ENDBRANCH   3   5
ENDBRANCH   1   3
BRANCH   1  11
ATOM     11  C   UNL     1     -11.863   3.218 -13.031  1.00  0.00     0.087 C 
BRANCH  11  12
ATOM     12  C   UNL     1     -10.542   3.516 -12.264  1.00  0.00     0.066 C 
BRANCH  12  13
ATOM     13  C   UNL     1     -10.304   5.017 -12.178  1.00  0.00     0.140 C 
ATOM     14  O   UNL     1     -10.453   5.714 -13.174  1.00  0.00    -0.299 OA
BRANCH  13  15
ATOM     15  C   UNL     1      -9.821   5.650 -10.897  1.00  0.00     0.106 CG0
ATOM     16  G   UNL     1     -10.928   6.403 -10.173  1.00  0.00     0.000 G0
ENDBRANCH  13  15
ENDBRANCH  12  13
BRANCH  12  17
ATOM     17  C   UNL     1      -9.283   2.767 -12.819  1.00  0.00    -0.006 C 
ATOM     18  C   UNL     1      -9.279   2.666 -14.355  1.00  0.00     0.008 C 
ATOM     19  C   UNL     1      -9.189   1.346 -12.230  1.00  0.00     0.008 C 
ENDBRANCH  12  17
ENDBRANCH  11  12
ENDBRANCH   1  11
TORSDOF 1
ENDMDL
MODEL 9
REMARK VINA RESULT:    -2.999      2.046      4.347
REMARK INTER + INTRA:          -4.505
REMARK INTER:                  -4.818
REMARK INTRA:                   0.313
REMARK UNBOUND:                 0.072
REMARK SMILES CC1=CCC[C@@H](C)C(=O)C[C@@H](C(C)C)C(=O)C1
REMARK SMILES IDX 8 1 9 2 6 3 7 4 5 5 4 6 3 7 2 8 1 9 10 11 11 12 15 13 16 14
REMARK SMILES IDX 17 15 12 17 13 18 14 19
REMARK H PARENT
REMARK Flexibility Score: 70.00
ROOT
ATOM      1  C   UNL     1     -11.769   6.727 -15.004  1.00  0.00     0.136 C 
ATOM      2  O   UNL     1     -12.639   7.193 -15.727  1.00  0.00    -0.299 OA
ENDROOT
BRANCH   1   3
ATOM      3  C   UNL     1     -11.342   7.476 -13.751  1.00  0.00     0.053 C 
ATOM      4  C   UNL     1     -11.483   8.993 -13.949  1.00  0.00     0.016 C 
BRANCH   3   5
ATOM      5  C   UNL     1      -9.891   7.104 -13.356  1.00  0.00     0.015 C 
BRANCH   5   6
ATOM      6  C   UNL     1      -9.731   6.890 -11.837  1.00  0.00     0.028 C 
BRANCH   6   7
ATOM      7  C   UNL     1     -10.748   5.911 -11.309  1.00  0.00    -0.028 C 
ATOM      8  C   UNL     1     -10.888   4.635 -11.743  1.00  0.00    -0.070 CG0
ATOM      9  C   UNL     1     -11.924   3.770 -11.073  1.00  0.00     0.039 C 
ATOM     10  G   UNL     1     -10.049   4.047 -12.869  1.00  0.00     0.000 G0
ENDBRANCH   6   7
ENDBRANCH   5   6
ENDBRANCH   3   5
ENDBRANCH   1   3
BRANCH   1  11
ATOM     11  C   UNL     1     -11.118   5.416 -15.384  1.00  0.00     0.087 C 
BRANCH  11  12
ATOM     12  C   UNL     1     -11.837   4.159 -14.814  1.00  0.00     0.066 C 
BRANCH  12  13
ATOM     13  C   UNL     1     -10.890   3.361 -13.929  1.00  0.00     0.140 C 
ATOM     14  O   UNL     1     -10.854   2.140 -14.023  1.00  0.00    -0.299 OA
BRANCH  13  15
ATOM     15  C   UNL     1     -10.043   4.048 -12.888  1.00  0.00     0.106 CG0
ATOM     16  G   UNL     1     -10.881   4.640 -11.763  1.00  0.00     0.000 G0
ENDBRANCH  13  15
ENDBRANCH  12  13
BRANCH  12  17
ATOM     17  C   UNL     1     -12.514   3.249 -15.895  1.00  0.00    -0.006 C 
ATOM     18  C   UNL     1     -12.568   3.913 -17.282  1.00  0.00     0.008 C 
ATOM     19  C   UNL     1     -13.947   2.872 -15.471  1.00  0.00     0.008 C 
ENDBRANCH  12  17
ENDBRANCH  11  12
ENDBRANCH   1  11
TORSDOF 1
ENDMDL
