MODEL 1
REMARK VINA RESULT:    -3.907      0.000      0.000
REMARK INTER + INTRA:          -5.153
REMARK INTER:                  -5.049
REMARK INTRA:                  -0.104
REMARK UNBOUND:                -0.104
REMARK SMILES CCCCCCC(C)=O
REMARK SMILES IDX 4 1 3 2 2 3 1 4 5 5 6 6 7 7 9 8 8 9
REMARK H PARENT
REMARK Flexibility Score: inf
ROOT
ATOM      1  C   UNL     1      25.412  57.982  -8.941  1.00  0.00     0.000 C 
ENDROOT
BRANCH   1   2
ATOM      2  C   UNL     1      25.506  56.485  -8.599  1.00  0.00    -0.000 C 
BRANCH   2   3
ATOM      3  C   UNL     1      24.166  55.756  -8.781  1.00  0.00    -0.003 C 
ATOM      4  C   UNL     1      23.513  55.382  -7.450  1.00  0.00     0.004 C 
ENDBRANCH   2   3
ENDBRANCH   1   2
BRANCH   1   5
ATOM      5  C   UNL     1      26.660  58.493  -9.690  1.00  0.00     0.008 C 
BRANCH   5   6
ATOM      6  C   UNL     1      26.753  60.027  -9.743  1.00  0.00     0.075 C 
BRANCH   6   7
ATOM      7  C   UNL     1      28.107  60.506 -10.197  1.00  0.00     0.129 C 
ATOM      8  O   UNL     1      28.433  61.666  -9.996  1.00  0.00    -0.300 OA
ATOM      9  C   UNL     1      29.059  59.591 -10.909  1.00  0.00     0.087 C 
ENDBRANCH   6   7
ENDBRANCH   5   6
ENDBRANCH   1   5
TORSDOF 5
ENDMDL
MODEL 2
REMARK VINA RESULT:    -3.718      2.610      5.510
REMARK INTER + INTRA:          -4.908
REMARK INTER:                  -4.716
REMARK INTRA:                  -0.193
REMARK UNBOUND:                -0.104
REMARK SMILES CCCCCCC(C)=O
REMARK SMILES IDX 4 1 3 2 2 3 1 4 5 5 6 6 7 7 9 8 8 9
REMARK H PARENT
REMARK Flexibility Score: inf
ROOT
ATOM      1  C   UNL     1      26.392  59.384  -9.433  1.00  0.00     0.000 C 
ENDROOT
BRANCH   1   2
ATOM      2  C   UNL     1      27.355  58.896 -10.529  1.00  0.00    -0.000 C 
BRANCH   2   3
ATOM      3  C   UNL     1      28.602  59.785 -10.654  1.00  0.00    -0.003 C 
ATOM      4  C   UNL     1      28.363  61.209 -10.153  1.00  0.00     0.004 C 
ENDBRANCH   2   3
ENDBRANCH   1   2
BRANCH   1   5
ATOM      5  C   UNL     1      25.390  58.293  -9.003  1.00  0.00     0.008 C 
BRANCH   5   6
ATOM      6  C   UNL     1      25.920  56.864  -9.210  1.00  0.00     0.075 C 
BRANCH   6   7
ATOM      7  C   UNL     1      25.172  55.848  -8.387  1.00  0.00     0.129 C 
ATOM      8  O   UNL     1      25.793  54.972  -7.804  1.00  0.00    -0.300 OA
ATOM      9  C   UNL     1      23.677  55.879  -8.280  1.00  0.00     0.087 C 
ENDBRANCH   6   7
ENDBRANCH   5   6
ENDBRANCH   1   5
TORSDOF 5
ENDMDL
MODEL 3
REMARK VINA RESULT:    -3.709      3.274      6.583
REMARK INTER + INTRA:          -4.898
REMARK INTER:                  -4.631
REMARK INTRA:                  -0.267
REMARK UNBOUND:                -0.104
REMARK SMILES CCCCCCC(C)=O
REMARK SMILES IDX 4 1 3 2 2 3 1 4 5 5 6 6 7 7 9 8 8 9
REMARK H PARENT
REMARK Flexibility Score: inf
ROOT
ATOM      1  C   UNL     1      30.083  57.730 -13.140  1.00  0.00     0.000 C 
ENDROOT
BRANCH   1   2
ATOM      2  C   UNL     1      31.386  56.976 -13.457  1.00  0.00    -0.000 C 
BRANCH   2   3
ATOM      3  C   UNL     1      32.477  57.899 -14.022  1.00  0.00    -0.003 C 
ATOM      4  C   UNL     1      33.882  57.491 -13.578  1.00  0.00     0.004 C 
ENDBRANCH   2   3
ENDBRANCH   1   2
BRANCH   1   5
ATOM      5  C   UNL     1      30.342  59.175 -12.664  1.00  0.00     0.008 C 
BRANCH   5   6
ATOM      6  C   UNL     1      30.143  59.362 -11.151  1.00  0.00     0.075 C 
BRANCH   6   7
ATOM      7  C   UNL     1      28.783  59.916 -10.814  1.00  0.00     0.129 C 
ATOM      8  O   UNL     1      28.625  61.126 -10.757  1.00  0.00    -0.300 OA
ATOM      9  C   UNL     1      27.621  59.013 -10.529  1.00  0.00     0.087 C 
ENDBRANCH   6   7
ENDBRANCH   5   6
ENDBRANCH   1   5
TORSDOF 5
ENDMDL
MODEL 4
REMARK VINA RESULT:    -3.683     15.506     17.148
REMARK INTER + INTRA:          -4.863
REMARK INTER:                  -4.657
REMARK INTRA:                  -0.206
REMARK UNBOUND:                -0.104
REMARK SMILES CCCCCCC(C)=O
REMARK SMILES IDX 4 1 3 2 2 3 1 4 5 5 6 6 7 7 9 8 8 9
REMARK H PARENT
REMARK Flexibility Score: inf
ROOT
ATOM      1  C   UNL     1      31.390  45.411   0.517  1.00  0.00     0.000 C 
ENDROOT
BRANCH   1   2
ATOM      2  C   UNL     1      29.900  45.603   0.848  1.00  0.00    -0.000 C 
BRANCH   2   3
ATOM      3  C   UNL     1      28.982  45.176  -0.308  1.00  0.00    -0.003 C 
ATOM      4  C   UNL     1      27.986  46.266  -0.702  1.00  0.00     0.004 C 
ENDBRANCH   2   3
ENDBRANCH   1   2
BRANCH   1   5
ATOM      5  C   UNL     1      32.266  45.323   1.784  1.00  0.00     0.008 C 
BRANCH   5   6
ATOM      6  C   UNL     1      33.471  46.278   1.760  1.00  0.00     0.075 C 
BRANCH   6   7
ATOM      7  C   UNL     1      33.227  47.532   2.557  1.00  0.00     0.129 C 
ATOM      8  O   UNL     1      33.842  48.550   2.279  1.00  0.00    -0.300 OA
ATOM      9  C   UNL     1      32.255  47.554   3.699  1.00  0.00     0.087 C 
ENDBRANCH   6   7
ENDBRANCH   5   6
ENDBRANCH   1   5
TORSDOF 5
ENDMDL
MODEL 5
REMARK VINA RESULT:    -3.679     16.091     17.729
REMARK INTER + INTRA:          -4.859
REMARK INTER:                  -4.704
REMARK INTRA:                  -0.155
REMARK UNBOUND:                -0.104
REMARK SMILES CCCCCCC(C)=O
REMARK SMILES IDX 4 1 3 2 2 3 1 4 5 5 6 6 7 7 9 8 8 9
REMARK H PARENT
REMARK Flexibility Score: inf
ROOT
ATOM      1  C   UNL     1      32.741  46.370   1.384  1.00  0.00     0.000 C 
ENDROOT
BRANCH   1   2
ATOM      2  C   UNL     1      33.230  46.711   2.803  1.00  0.00    -0.000 C 
BRANCH   2   3
ATOM      3  C   UNL     1      32.208  47.542   3.593  1.00  0.00    -0.003 C 
ATOM      4  C   UNL     1      32.647  48.995   3.777  1.00  0.00     0.004 C 
ENDBRANCH   2   3
ENDBRANCH   1   2
BRANCH   1   5
ATOM      5  C   UNL     1      31.754  45.185   1.372  1.00  0.00     0.008 C 
BRANCH   5   6
ATOM      6  C   UNL     1      30.284  45.618   1.246  1.00  0.00     0.075 C 
BRANCH   6   7
ATOM      7  C   UNL     1      29.625  45.064   0.010  1.00  0.00     0.129 C 
ATOM      8  O   UNL     1      30.119  44.099  -0.554  1.00  0.00    -0.300 OA
ATOM      9  C   UNL     1      28.381  45.682  -0.555  1.00  0.00     0.087 C 
ENDBRANCH   6   7
ENDBRANCH   5   6
ENDBRANCH   1   5
TORSDOF 5
ENDMDL
MODEL 6
REMARK VINA RESULT:    -3.649     18.057     20.132
REMARK INTER + INTRA:          -4.820
REMARK INTER:                  -4.296
REMARK INTRA:                  -0.524
REMARK UNBOUND:                -0.104
REMARK SMILES CCCCCCC(C)=O
REMARK SMILES IDX 4 1 3 2 2 3 1 4 5 5 6 6 7 7 9 8 8 9
REMARK H PARENT
REMARK Flexibility Score: inf
ROOT
ATOM      1  C   UNL     1      17.064  42.050   1.410  1.00  0.00     0.000 C 
ENDROOT
BRANCH   1   2
ATOM      2  C   UNL     1      15.770  42.882   1.431  1.00  0.00    -0.000 C 
BRANCH   2   3
ATOM      3  C   UNL     1      16.014  44.338   1.857  1.00  0.00    -0.003 C 
ATOM      4  C   UNL     1      15.515  45.346   0.821  1.00  0.00     0.004 C 
ENDBRANCH   2   3
ENDBRANCH   1   2
BRANCH   1   5
ATOM      5  C   UNL     1      17.897  42.293   0.134  1.00  0.00     0.008 C 
BRANCH   5   6
ATOM      6  C   UNL     1      19.343  42.729   0.423  1.00  0.00     0.075 C 
BRANCH   6   7
ATOM      7  C   UNL     1      19.434  44.168   0.857  1.00  0.00     0.129 C 
ATOM      8  O   UNL     1      19.680  44.431   2.024  1.00  0.00    -0.300 OA
ATOM      9  C   UNL     1      19.212  45.290  -0.113  1.00  0.00     0.087 C 
ENDBRANCH   6   7
ENDBRANCH   5   6
ENDBRANCH   1   5
TORSDOF 5
ENDMDL
MODEL 7
REMARK VINA RESULT:    -3.617     18.274     19.708
REMARK INTER + INTRA:          -4.779
REMARK INTER:                  -4.351
REMARK INTRA:                  -0.427
REMARK UNBOUND:                -0.104
REMARK SMILES CCCCCCC(C)=O
REMARK SMILES IDX 4 1 3 2 2 3 1 4 5 5 6 6 7 7 9 8 8 9
REMARK H PARENT
REMARK Flexibility Score: inf
ROOT
ATOM      1  C   UNL     1      15.600  44.834   2.025  1.00  0.00     0.000 C 
ENDROOT
BRANCH   1   2
ATOM      2  C   UNL     1      14.899  45.608   0.895  1.00  0.00    -0.000 C 
BRANCH   2   3
ATOM      3  C   UNL     1      15.229  45.046  -0.496  1.00  0.00    -0.003 C 
ATOM      4  C   UNL     1      15.720  46.121  -1.464  1.00  0.00     0.004 C 
ENDBRANCH   2   3
ENDBRANCH   1   2
BRANCH   1   5
ATOM      5  C   UNL     1      16.703  43.894   1.495  1.00  0.00     0.008 C 
BRANCH   5   6
ATOM      6  C   UNL     1      18.072  44.131   2.154  1.00  0.00     0.075 C 
BRANCH   6   7
ATOM      7  C   UNL     1      19.197  44.146   1.153  1.00  0.00     0.129 C 
ATOM      8  O   UNL     1      20.144  43.387   1.300  1.00  0.00    -0.300 OA
ATOM      9  C   UNL     1      19.190  45.086  -0.015  1.00  0.00     0.087 C 
ENDBRANCH   6   7
ENDBRANCH   5   6
ENDBRANCH   1   5
TORSDOF 5
ENDMDL
MODEL 8
REMARK VINA RESULT:    -3.608      3.736      5.536
REMARK INTER + INTRA:          -4.766
REMARK INTER:                  -4.502
REMARK INTRA:                  -0.264
REMARK UNBOUND:                -0.104
REMARK SMILES CCCCCCC(C)=O
REMARK SMILES IDX 4 1 3 2 2 3 1 4 5 5 6 6 7 7 9 8 8 9
REMARK H PARENT
REMARK Flexibility Score: inf
ROOT
ATOM      1  C   UNL     1      30.028  59.593 -10.475  1.00  0.00     0.000 C 
ENDROOT
BRANCH   1   2
ATOM      2  C   UNL     1      29.007  60.738 -10.591  1.00  0.00    -0.000 C 
BRANCH   2   3
ATOM      3  C   UNL     1      27.606  60.328 -10.114  1.00  0.00    -0.003 C 
ATOM      4  C   UNL     1      27.291  58.861 -10.405  1.00  0.00     0.004 C 
ENDBRANCH   2   3
ENDBRANCH   1   2
BRANCH   1   5
ATOM      5  C   UNL     1      30.846  59.401 -11.769  1.00  0.00     0.008 C 
BRANCH   5   6
ATOM      6  C   UNL     1      30.209  58.402 -12.749  1.00  0.00     0.075 C 
BRANCH   6   7
ATOM      7  C   UNL     1      31.214  57.440 -13.325  1.00  0.00     0.129 C 
ATOM      8  O   UNL     1      31.034  56.238 -13.203  1.00  0.00    -0.300 OA
ATOM      9  C   UNL     1      32.443  57.927 -14.033  1.00  0.00     0.087 C 
ENDBRANCH   6   7
ENDBRANCH   5   6
ENDBRANCH   1   5
TORSDOF 5
ENDMDL
