MODEL 1
REMARK VINA RESULT:    -6.075      0.000      0.000
REMARK INTER + INTRA:          -7.940
REMARK INTER:                  -8.206
REMARK INTRA:                   0.266
REMARK UNBOUND:                 0.266
REMARK SMILES O=c1c(-c2ccc(O)cc2)coc2c([C@@H]3O[C@@H](CO)[C@H](O)[C@@H](O)[C@H]3O)c(O)ccc12
REMARK SMILES IDX 3 1 11 2 12 3 13 4 30 5 2 6 1 7 29 8 28 9 26 10 14 11 4 12
REMARK SMILES IDX 5 13 6 14 7 15 10 16 9 17 8 18 15 20 24 21 16 22 22 23 17 24
REMARK SMILES IDX 20 25 25 26 23 28 18 30 19 31 21 33 27 35
REMARK H PARENT 8 19 25 27 23 29 19 32 21 34 27 36
REMARK Flexibility Score: inf
ROOT
ATOM      1  C   UNL     1     -11.534  23.602  -8.771  1.00  0.00     0.065 A 
ATOM      2  C   UNL     1     -11.261  22.230  -8.697  1.00  0.00     0.208 A 
ATOM      3  O   UNL     1     -10.013  21.782  -8.705  1.00  0.00    -0.463 OA
ATOM      4  C   UNL     1      -8.948  22.579  -8.781  1.00  0.00     0.147 A 
ATOM      5  C   UNL     1      -9.134  23.977  -8.875  1.00  0.00     0.066 A 
ATOM      6  C   UNL     1     -10.445  24.488  -8.872  1.00  0.00     0.200 A 
ATOM      7  O   UNL     1     -10.647  25.729  -8.980  1.00  0.00    -0.288 OA
ATOM      8  C   UNL     1      -8.020  24.817  -8.980  1.00  0.00     0.020 A 
ATOM      9  C   UNL     1      -6.741  24.278  -9.009  1.00  0.00     0.047 A 
ATOM     10  C   UNL     1      -6.534  22.895  -8.919  1.00  0.00     0.125 A 
ATOM     11  C   UNL     1      -7.643  22.014  -8.767  1.00  0.00     0.069 A 
ENDROOT
BRANCH   1  12
ATOM     12  C   UNL     1     -12.938  24.082  -8.750  1.00  0.00    -0.011 A 
ATOM     13  C   UNL     1     -13.534  24.479  -7.539  1.00  0.00     0.013 A 
ATOM     14  C   UNL     1     -14.854  24.937  -7.516  1.00  0.00     0.047 A 
ATOM     15  C   UNL     1     -15.594  25.012  -8.700  1.00  0.00     0.115 A 
ATOM     16  C   UNL     1     -13.686  24.165  -9.938  1.00  0.00     0.013 A 
ATOM     17  C   UNL     1     -15.007  24.625  -9.912  1.00  0.00     0.047 A 
BRANCH  15  18
ATOM     18  O   UNL     1     -16.909  25.470  -8.662  1.00  0.00    -0.508 OA
ATOM     19  H   UNL     1     -17.431  25.653  -9.511  1.00  0.00     0.293 HD
ENDBRANCH  15  18
ENDBRANCH   1  12
BRANCH  11  20
ATOM     20  C   UNL     1      -7.551  20.477  -8.629  1.00  0.00     0.188 C 
ATOM     21  C   UNL     1      -6.195  19.793  -8.278  1.00  0.00     0.179 C 
ATOM     22  O   UNL     1      -8.577  19.981  -7.778  1.00  0.00    -0.362 OA
ATOM     23  C   UNL     1      -5.858  19.941  -6.776  1.00  0.00     0.177 C 
ATOM     24  C   UNL     1      -8.335  20.304  -6.417  1.00  0.00     0.176 C 
ATOM     25  C   UNL     1      -7.072  19.572  -5.900  1.00  0.00     0.177 C 
BRANCH  21  26
ATOM     26  O   UNL     1      -6.226  18.432  -8.640  1.00  0.00    -0.387 OA
ATOM     27  H   UNL     1      -5.363  18.015  -8.386  1.00  0.00     0.211 HD
ENDBRANCH  21  26
BRANCH  23  28
ATOM     28  O   UNL     1      -4.762  19.120  -6.459  1.00  0.00    -0.387 OA
ATOM     29  H   UNL     1      -3.960  19.537  -6.869  1.00  0.00     0.211 HD
ENDBRANCH  23  28
BRANCH  24  30
ATOM     30  C   UNL     1      -9.580  19.930  -5.597  1.00  0.00     0.191 C 
BRANCH  30  31
ATOM     31  O   UNL     1      -9.554  18.579  -5.220  1.00  0.00    -0.394 OA
ATOM     32  H   UNL     1      -8.971  18.518  -4.418  1.00  0.00     0.210 HD
ENDBRANCH  30  31
ENDBRANCH  24  30
BRANCH  25  33
ATOM     33  O   UNL     1      -6.821  19.882  -4.551  1.00  0.00    -0.388 OA
ATOM     34  H   UNL     1      -7.633  19.646  -4.029  1.00  0.00     0.211 HD
ENDBRANCH  25  33
ENDBRANCH  11  20
BRANCH  10  35
ATOM     35  O   UNL     1      -5.225  22.431  -8.996  1.00  0.00    -0.507 OA
ATOM     36  H   UNL     1      -4.822  21.832  -8.285  1.00  0.00     0.293 HD
ENDBRANCH  10  35
TORSDOF 9
ENDMDL
MODEL 2
REMARK VINA RESULT:    -5.829      2.549      5.071
REMARK INTER + INTRA:          -7.608
REMARK INTER:                  -7.705
REMARK INTRA:                   0.097
REMARK UNBOUND:                 0.266
REMARK SMILES O=c1c(-c2ccc(O)cc2)coc2c([C@@H]3O[C@@H](CO)[C@H](O)[C@@H](O)[C@H]3O)c(O)ccc12
REMARK SMILES IDX 3 1 11 2 12 3 13 4 30 5 2 6 1 7 29 8 28 9 26 10 14 11 4 12
REMARK SMILES IDX 5 13 6 14 7 15 10 16 9 17 8 18 15 20 24 21 16 22 22 23 17 24
REMARK SMILES IDX 20 25 25 26 23 28 18 30 19 31 21 33 27 35
REMARK H PARENT 8 19 25 27 23 29 19 32 21 34 27 36
REMARK Flexibility Score: inf
ROOT
ATOM      1  C   UNL     1      -8.824  21.229  -7.800  1.00  0.00     0.065 A 
ATOM      2  C   UNL     1      -8.853  20.814  -6.462  1.00  0.00     0.208 A 
ATOM      3  O   UNL     1      -8.232  19.707  -6.078  1.00  0.00    -0.463 OA
ATOM      4  C   UNL     1      -7.547  18.923  -6.911  1.00  0.00     0.147 A 
ATOM      5  C   UNL     1      -7.481  19.261  -8.283  1.00  0.00     0.066 A 
ATOM      6  C   UNL     1      -8.131  20.427  -8.726  1.00  0.00     0.200 A 
ATOM      7  O   UNL     1      -8.113  20.742  -9.948  1.00  0.00    -0.288 OA
ATOM      8  C   UNL     1      -6.786  18.428  -9.166  1.00  0.00     0.020 A 
ATOM      9  C   UNL     1      -6.178  17.269  -8.700  1.00  0.00     0.047 A 
ATOM     10  C   UNL     1      -6.234  16.915  -7.346  1.00  0.00     0.125 A 
ATOM     11  C   UNL     1      -6.896  17.763  -6.411  1.00  0.00     0.069 A 
ENDROOT
BRANCH   1  12
ATOM     12  C   UNL     1      -9.519  22.476  -8.206  1.00  0.00    -0.011 A 
ATOM     13  C   UNL     1     -10.883  22.449  -8.549  1.00  0.00     0.013 A 
ATOM     14  C   UNL     1     -11.541  23.623  -8.925  1.00  0.00     0.047 A 
ATOM     15  C   UNL     1     -10.851  24.839  -8.957  1.00  0.00     0.115 A 
ATOM     16  C   UNL     1      -8.832  23.703  -8.234  1.00  0.00     0.013 A 
ATOM     17  C   UNL     1      -9.494  24.876  -8.609  1.00  0.00     0.047 A 
BRANCH  15  18
ATOM     18  O   UNL     1     -11.520  26.001  -9.334  1.00  0.00    -0.508 OA
ATOM     19  H   UNL     1     -12.373  26.294  -8.872  1.00  0.00     0.293 HD
ENDBRANCH  15  18
ENDBRANCH   1  12
BRANCH  11  20
ATOM     20  C   UNL     1      -7.005  17.503  -4.891  1.00  0.00     0.188 C 
ATOM     21  C   UNL     1      -6.411  16.206  -4.264  1.00  0.00     0.179 C 
ATOM     22  O   UNL     1      -6.575  18.639  -4.150  1.00  0.00    -0.362 OA
ATOM     23  C   UNL     1      -4.873  16.293  -4.132  1.00  0.00     0.177 C 
ATOM     24  C   UNL     1      -5.166  18.804  -4.210  1.00  0.00     0.176 C 
ATOM     25  C   UNL     1      -4.450  17.633  -3.495  1.00  0.00     0.177 C 
BRANCH  21  26
ATOM     26  O   UNL     1      -6.996  15.958  -3.006  1.00  0.00    -0.387 OA
ATOM     27  H   UNL     1      -6.883  16.763  -2.438  1.00  0.00     0.211 HD
ENDBRANCH  21  26
BRANCH  23  28
ATOM     28  O   UNL     1      -4.408  15.217  -3.356  1.00  0.00    -0.387 OA
ATOM     29  H   UNL     1      -5.092  14.500  -3.416  1.00  0.00     0.211 HD
ENDBRANCH  23  28
BRANCH  24  30
ATOM     30  C   UNL     1      -4.805  20.157  -3.577  1.00  0.00     0.191 C 
BRANCH  30  31
ATOM     31  O   UNL     1      -4.092  19.986  -2.381  1.00  0.00    -0.394 OA
ATOM     32  H   UNL     1      -3.148  19.809  -2.634  1.00  0.00     0.210 HD
ENDBRANCH  30  31
ENDBRANCH  24  30
BRANCH  25  33
ATOM     33  O   UNL     1      -3.052  17.784  -3.545  1.00  0.00    -0.388 OA
ATOM     34  H   UNL     1      -2.799  17.951  -4.491  1.00  0.00     0.211 HD
ENDBRANCH  25  33
ENDBRANCH  11  20
BRANCH  10  35
ATOM     35  O   UNL     1      -5.636  15.718  -6.965  1.00  0.00    -0.507 OA
ATOM     36  H   UNL     1      -4.652  15.532  -7.124  1.00  0.00     0.293 HD
ENDBRANCH  10  35
TORSDOF 9
ENDMDL
MODEL 3
REMARK VINA RESULT:    -5.602      4.064     11.640
REMARK INTER + INTRA:          -7.300
REMARK INTER:                  -7.397
REMARK INTRA:                   0.096
REMARK UNBOUND:                 0.266
REMARK SMILES O=c1c(-c2ccc(O)cc2)coc2c([C@@H]3O[C@@H](CO)[C@H](O)[C@@H](O)[C@H]3O)c(O)ccc12
REMARK SMILES IDX 3 1 11 2 12 3 13 4 30 5 2 6 1 7 29 8 28 9 26 10 14 11 4 12
REMARK SMILES IDX 5 13 6 14 7 15 10 16 9 17 8 18 15 20 24 21 16 22 22 23 17 24
REMARK SMILES IDX 20 25 25 26 23 28 18 30 19 31 21 33 27 35
REMARK H PARENT 8 19 25 27 23 29 19 32 21 34 27 36
REMARK Flexibility Score: inf
ROOT
ATOM      1  C   UNL     1     -15.813  23.362  -8.936  1.00  0.00     0.065 A 
ATOM      2  C   UNL     1     -16.157  24.720  -8.898  1.00  0.00     0.208 A 
ATOM      3  O   UNL     1     -17.427  25.102  -8.899  1.00  0.00    -0.463 OA
ATOM      4  C   UNL     1     -18.450  24.248  -8.934  1.00  0.00     0.147 A 
ATOM      5  C   UNL     1     -18.191  22.859  -8.990  1.00  0.00     0.066 A 
ATOM      6  C   UNL     1     -16.855  22.418  -8.993  1.00  0.00     0.200 A 
ATOM      7  O   UNL     1     -16.590  21.186  -9.068  1.00  0.00    -0.288 OA
ATOM      8  C   UNL     1     -19.261  21.960  -9.053  1.00  0.00     0.020 A 
ATOM      9  C   UNL     1     -20.567  22.430  -9.076  1.00  0.00     0.047 A 
ATOM     10  C   UNL     1     -20.845  23.802  -9.024  1.00  0.00     0.125 A 
ATOM     11  C   UNL     1     -19.782  24.744  -8.916  1.00  0.00     0.069 A 
ENDROOT
BRANCH   1  12
ATOM     12  C   UNL     1     -14.385  22.957  -8.923  1.00  0.00    -0.011 A 
ATOM     13  C   UNL     1     -13.657  22.888 -10.125  1.00  0.00     0.013 A 
ATOM     14  C   UNL     1     -12.311  22.514 -10.116  1.00  0.00     0.047 A 
ATOM     15  C   UNL     1     -11.672  22.210  -8.910  1.00  0.00     0.115 A 
ATOM     16  C   UNL     1     -13.735  22.657  -7.713  1.00  0.00     0.013 A 
ATOM     17  C   UNL     1     -12.388  22.283  -7.707  1.00  0.00     0.047 A 
BRANCH  15  18
ATOM     18  O   UNL     1     -10.330  21.838  -8.916  1.00  0.00    -0.508 OA
ATOM     19  H   UNL     1      -9.602  22.474  -8.612  1.00  0.00     0.293 HD
ENDBRANCH  15  18
ENDBRANCH   1  12
BRANCH  11  20
ATOM     20  C   UNL     1     -19.953  26.277  -8.821  1.00  0.00     0.188 C 
ATOM     21  C   UNL     1     -21.363  26.905  -8.606  1.00  0.00     0.179 C 
ATOM     22  O   UNL     1     -19.029  26.835  -7.895  1.00  0.00    -0.362 OA
ATOM     23  C   UNL     1     -21.825  26.771  -7.136  1.00  0.00     0.177 C 
ATOM     24  C   UNL     1     -19.376  26.527  -6.554  1.00  0.00     0.176 C 
ATOM     25  C   UNL     1     -20.710  27.211  -6.166  1.00  0.00     0.177 C 
BRANCH  21  26
ATOM     26  O   UNL     1     -21.360  28.260  -8.995  1.00  0.00    -0.387 OA
ATOM     27  H   UNL     1     -22.171  28.699  -8.629  1.00  0.00     0.211 HD
ENDBRANCH  21  26
BRANCH  23  28
ATOM     28  O   UNL     1     -22.980  27.547  -6.936  1.00  0.00    -0.387 OA
ATOM     29  H   UNL     1     -22.682  28.490  -6.842  1.00  0.00     0.211 HD
ENDBRANCH  23  28
BRANCH  24  30
ATOM     30  C   UNL     1     -18.227  26.973  -5.637  1.00  0.00     0.191 C 
BRANCH  30  31
ATOM     31  O   UNL     1     -16.988  26.523  -6.118  1.00  0.00    -0.394 OA
ATOM     32  H   UNL     1     -17.165  25.690  -6.628  1.00  0.00     0.210 HD
ENDBRANCH  30  31
ENDBRANCH  24  30
BRANCH  25  33
ATOM     33  O   UNL     1     -21.067  26.915  -4.838  1.00  0.00    -0.388 OA
ATOM     34  H   UNL     1     -20.772  27.675  -4.269  1.00  0.00     0.211 HD
ENDBRANCH  25  33
ENDBRANCH  11  20
BRANCH  10  35
ATOM     35  O   UNL     1     -22.178  24.194  -9.094  1.00  0.00    -0.507 OA
ATOM     36  H   UNL     1     -22.744  24.039  -9.920  1.00  0.00     0.293 HD
ENDBRANCH  10  35
TORSDOF 9
ENDMDL
MODEL 4
REMARK VINA RESULT:    -5.392      2.627      5.459
REMARK INTER + INTRA:          -7.017
REMARK INTER:                  -7.481
REMARK INTRA:                   0.464
REMARK UNBOUND:                 0.266
REMARK SMILES O=c1c(-c2ccc(O)cc2)coc2c([C@@H]3O[C@@H](CO)[C@H](O)[C@@H](O)[C@H]3O)c(O)ccc12
REMARK SMILES IDX 3 1 11 2 12 3 13 4 30 5 2 6 1 7 29 8 28 9 26 10 14 11 4 12
REMARK SMILES IDX 5 13 6 14 7 15 10 16 9 17 8 18 15 20 24 21 16 22 22 23 17 24
REMARK SMILES IDX 20 25 25 26 23 28 18 30 19 31 21 33 27 35
REMARK H PARENT 8 19 25 27 23 29 19 32 21 34 27 36
REMARK Flexibility Score: inf
ROOT
ATOM      1  C   UNL     1      -8.652  21.066  -7.296  1.00  0.00     0.065 A 
ATOM      2  C   UNL     1      -7.356  20.614  -7.578  1.00  0.00     0.208 A 
ATOM      3  O   UNL     1      -6.870  19.528  -6.992  1.00  0.00    -0.463 OA
ATOM      4  C   UNL     1      -7.557  18.800  -6.112  1.00  0.00     0.147 A 
ATOM      5  C   UNL     1      -8.868  19.195  -5.758  1.00  0.00     0.066 A 
ATOM      6  C   UNL     1      -9.414  20.344  -6.360  1.00  0.00     0.200 A 
ATOM      7  O   UNL     1     -10.572  20.738  -6.046  1.00  0.00    -0.288 OA
ATOM      8  C   UNL     1      -9.584  18.449  -4.817  1.00  0.00     0.020 A 
ATOM      9  C   UNL     1      -9.004  17.335  -4.222  1.00  0.00     0.047 A 
ATOM     10  C   UNL     1      -7.706  16.928  -4.556  1.00  0.00     0.125 A 
ATOM     11  C   UNL     1      -6.965  17.639  -5.543  1.00  0.00     0.069 A 
ENDROOT
BRANCH   1  12
ATOM     12  C   UNL     1      -9.178  22.278  -7.972  1.00  0.00    -0.011 A 
ATOM     13  C   UNL     1      -8.447  23.479  -7.946  1.00  0.00     0.013 A 
ATOM     14  C   UNL     1      -8.937  24.620  -8.587  1.00  0.00     0.047 A 
ATOM     15  C   UNL     1     -10.158  24.577  -9.267  1.00  0.00     0.115 A 
ATOM     16  C   UNL     1     -10.402  22.239  -8.664  1.00  0.00     0.013 A 
ATOM     17  C   UNL     1     -10.889  23.382  -9.305  1.00  0.00     0.047 A 
BRANCH  15  18
ATOM     18  O   UNL     1     -10.634  25.722  -9.900  1.00  0.00    -0.508 OA
ATOM     19  H   UNL     1     -10.264  26.640  -9.681  1.00  0.00     0.293 HD
ENDBRANCH  15  18
ENDBRANCH   1  12
BRANCH  11  20
ATOM     20  C   UNL     1      -5.540  17.278  -6.023  1.00  0.00     0.188 C 
ATOM     21  C   UNL     1      -4.550  18.392  -6.477  1.00  0.00     0.179 C 
ATOM     22  O   UNL     1      -4.898  16.409  -5.097  1.00  0.00    -0.362 OA
ATOM     23  C   UNL     1      -3.945  19.140  -5.266  1.00  0.00     0.177 C 
ATOM     24  C   UNL     1      -4.527  17.088  -3.907  1.00  0.00     0.176 C 
ATOM     25  C   UNL     1      -3.436  18.146  -4.203  1.00  0.00     0.177 C 
BRANCH  21  26
ATOM     26  O   UNL     1      -3.525  17.842  -7.273  1.00  0.00    -0.387 OA
ATOM     27  H   UNL     1      -3.533  16.857  -7.166  1.00  0.00     0.211 HD
ENDBRANCH  21  26
BRANCH  23  28
ATOM     28  O   UNL     1      -2.894  19.966  -5.703  1.00  0.00    -0.387 OA
ATOM     29  H   UNL     1      -3.261  20.886  -5.778  1.00  0.00     0.211 HD
ENDBRANCH  23  28
BRANCH  24  30
ATOM     30  C   UNL     1      -4.043  16.050  -2.883  1.00  0.00     0.191 C 
BRANCH  30  31
ATOM     31  O   UNL     1      -5.018  15.808  -1.904  1.00  0.00    -0.394 OA
ATOM     32  H   UNL     1      -5.022  16.599  -1.303  1.00  0.00     0.210 HD
ENDBRANCH  30  31
ENDBRANCH  24  30
BRANCH  25  33
ATOM     33  O   UNL     1      -3.056  18.827  -3.031  1.00  0.00    -0.388 OA
ATOM     34  H   UNL     1      -2.476  19.588  -3.297  1.00  0.00     0.211 HD
ENDBRANCH  25  33
ENDBRANCH  11  20
BRANCH  10  35
ATOM     35  O   UNL     1      -7.182  15.827  -3.886  1.00  0.00    -0.507 OA
ATOM     36  H   UNL     1      -7.533  15.526  -2.984  1.00  0.00     0.293 HD
ENDBRANCH  10  35
TORSDOF 9
ENDMDL
MODEL 5
REMARK VINA RESULT:    -5.330      6.751     10.457
REMARK INTER + INTRA:          -6.933
REMARK INTER:                  -7.017
REMARK INTRA:                   0.085
REMARK UNBOUND:                 0.266
REMARK SMILES O=c1c(-c2ccc(O)cc2)coc2c([C@@H]3O[C@@H](CO)[C@H](O)[C@@H](O)[C@H]3O)c(O)ccc12
REMARK SMILES IDX 3 1 11 2 12 3 13 4 30 5 2 6 1 7 29 8 28 9 26 10 14 11 4 12
REMARK SMILES IDX 5 13 6 14 7 15 10 16 9 17 8 18 15 20 24 21 16 22 22 23 17 24
REMARK SMILES IDX 20 25 25 26 23 28 18 30 19 31 21 33 27 35
REMARK H PARENT 8 19 25 27 23 29 19 32 21 34 27 36
REMARK Flexibility Score: inf
ROOT
ATOM      1  C   UNL     1     -19.371  28.137  -6.469  1.00  0.00     0.065 A 
ATOM      2  C   UNL     1     -18.587  27.109  -5.930  1.00  0.00     0.208 A 
ATOM      3  O   UNL     1     -18.473  25.942  -6.549  1.00  0.00    -0.463 OA
ATOM      4  C   UNL     1     -19.079  25.661  -7.702  1.00  0.00     0.147 A 
ATOM      5  C   UNL     1     -19.903  26.638  -8.307  1.00  0.00     0.066 A 
ATOM      6  C   UNL     1     -20.048  27.887  -7.677  1.00  0.00     0.200 A 
ATOM      7  O   UNL     1     -20.797  28.771  -8.178  1.00  0.00    -0.288 OA
ATOM      8  C   UNL     1     -20.561  26.340  -9.505  1.00  0.00     0.020 A 
ATOM      9  C   UNL     1     -20.418  25.087 -10.087  1.00  0.00     0.047 A 
ATOM     10  C   UNL     1     -19.608  24.104  -9.502  1.00  0.00     0.125 A 
ATOM     11  C   UNL     1     -18.889  24.388  -8.306  1.00  0.00     0.069 A 
ENDROOT
BRANCH   1  12
ATOM     12  C   UNL     1     -19.476  29.439  -5.764  1.00  0.00    -0.011 A 
ATOM     13  C   UNL     1     -20.463  29.637  -4.782  1.00  0.00     0.013 A 
ATOM     14  C   UNL     1     -20.560  30.859  -4.112  1.00  0.00     0.047 A 
ATOM     15  C   UNL     1     -19.671  31.897  -4.407  1.00  0.00     0.115 A 
ATOM     16  C   UNL     1     -18.580  30.485  -6.052  1.00  0.00     0.013 A 
ATOM     17  C   UNL     1     -18.679  31.706  -5.379  1.00  0.00     0.047 A 
BRANCH  15  18
ATOM     18  O   UNL     1     -19.780  33.110  -3.732  1.00  0.00    -0.508 OA
ATOM     19  H   UNL     1     -19.012  33.771  -3.703  1.00  0.00     0.293 HD
ENDBRANCH  15  18
ENDBRANCH   1  12
BRANCH  11  20
ATOM     20  C   UNL     1     -17.942  23.406  -7.578  1.00  0.00     0.188 C 
ATOM     21  C   UNL     1     -17.629  22.007  -8.189  1.00  0.00     0.179 C 
ATOM     22  O   UNL     1     -16.732  24.051  -7.203  1.00  0.00    -0.362 OA
ATOM     23  C   UNL     1     -16.615  22.111  -9.352  1.00  0.00     0.177 C 
ATOM     24  C   UNL     1     -15.902  24.310  -8.326  1.00  0.00     0.176 C 
ATOM     25  C   UNL     1     -15.408  22.984  -8.953  1.00  0.00     0.177 C 
BRANCH  21  26
ATOM     26  O   UNL     1     -17.144  21.136  -7.194  1.00  0.00    -0.387 OA
ATOM     27  H   UNL     1     -16.279  21.485  -6.859  1.00  0.00     0.211 HD
ENDBRANCH  21  26
BRANCH  23  28
ATOM     28  O   UNL     1     -16.185  20.822  -9.715  1.00  0.00    -0.387 OA
ATOM     29  H   UNL     1     -15.935  20.860 -10.675  1.00  0.00     0.211 HD
ENDBRANCH  23  28
BRANCH  24  30
ATOM     30  C   UNL     1     -14.728  25.192  -7.874  1.00  0.00     0.191 C 
BRANCH  30  31
ATOM     31  O   UNL     1     -13.708  24.424  -7.293  1.00  0.00    -0.394 OA
ATOM     32  H   UNL     1     -14.146  23.638  -6.872  1.00  0.00     0.210 HD
ENDBRANCH  30  31
ENDBRANCH  24  30
BRANCH  25  33
ATOM     33  O   UNL     1     -14.583  23.224 -10.067  1.00  0.00    -0.388 OA
ATOM     34  H   UNL     1     -14.091  22.385 -10.268  1.00  0.00     0.211 HD
ENDBRANCH  25  33
ENDBRANCH  11  20
BRANCH  10  35
ATOM     35  O   UNL     1     -19.549  22.861 -10.124  1.00  0.00    -0.507 OA
ATOM     36  H   UNL     1     -20.018  22.045  -9.747  1.00  0.00     0.293 HD
ENDBRANCH  10  35
TORSDOF 9
ENDMDL
MODEL 6
REMARK VINA RESULT:    -5.324      2.402      4.820
REMARK INTER + INTRA:          -6.925
REMARK INTER:                  -7.134
REMARK INTRA:                   0.209
REMARK UNBOUND:                 0.266
REMARK SMILES O=c1c(-c2ccc(O)cc2)coc2c([C@@H]3O[C@@H](CO)[C@H](O)[C@@H](O)[C@H]3O)c(O)ccc12
REMARK SMILES IDX 3 1 11 2 12 3 13 4 30 5 2 6 1 7 29 8 28 9 26 10 14 11 4 12
REMARK SMILES IDX 5 13 6 14 7 15 10 16 9 17 8 18 15 20 24 21 16 22 22 23 17 24
REMARK SMILES IDX 20 25 25 26 23 28 18 30 19 31 21 33 27 35
REMARK H PARENT 8 19 25 27 23 29 19 32 21 34 27 36
REMARK Flexibility Score: inf
ROOT
ATOM      1  C   UNL     1      -8.461  21.552  -8.007  1.00  0.00     0.065 A 
ATOM      2  C   UNL     1      -8.496  20.890  -6.773  1.00  0.00     0.208 A 
ATOM      3  O   UNL     1      -7.698  19.860  -6.528  1.00  0.00    -0.463 OA
ATOM      4  C   UNL     1      -6.822  19.385  -7.413  1.00  0.00     0.147 A 
ATOM      5  C   UNL     1      -6.733  19.984  -8.690  1.00  0.00     0.066 A 
ATOM      6  C   UNL     1      -7.566  21.078  -8.985  1.00  0.00     0.200 A 
ATOM      7  O   UNL     1      -7.529  21.620 -10.125  1.00  0.00    -0.288 OA
ATOM      8  C   UNL     1      -5.832  19.473  -9.631  1.00  0.00     0.020 A 
ATOM      9  C   UNL     1      -5.043  18.374  -9.317  1.00  0.00     0.047 A 
ATOM     10  C   UNL     1      -5.118  17.764  -8.059  1.00  0.00     0.125 A 
ATOM     11  C   UNL     1      -5.992  18.285  -7.061  1.00  0.00     0.069 A 
ENDROOT
BRANCH   1  12
ATOM     12  C   UNL     1      -9.356  22.709  -8.255  1.00  0.00    -0.011 A 
ATOM     13  C   UNL     1      -8.841  24.019  -8.247  1.00  0.00     0.013 A 
ATOM     14  C   UNL     1      -9.680  25.110  -8.487  1.00  0.00     0.047 A 
ATOM     15  C   UNL     1     -11.040  24.911  -8.743  1.00  0.00     0.115 A 
ATOM     16  C   UNL     1     -10.723  22.515  -8.520  1.00  0.00     0.013 A 
ATOM     17  C   UNL     1     -11.560  23.610  -8.760  1.00  0.00     0.047 A 
BRANCH  15  18
ATOM     18  O   UNL     1     -11.864  26.009  -8.979  1.00  0.00    -0.508 OA
ATOM     19  H   UNL     1     -12.750  26.118  -8.499  1.00  0.00     0.293 HD
ENDBRANCH  15  18
ENDBRANCH   1  12
BRANCH  11  20
ATOM     20  C   UNL     1      -6.147  17.725  -5.629  1.00  0.00     0.188 C 
ATOM     21  C   UNL     1      -7.331  18.181  -4.723  1.00  0.00     0.179 C 
ATOM     22  O   UNL     1      -6.056  16.306  -5.626  1.00  0.00    -0.362 OA
ATOM     23  C   UNL     1      -8.654  17.489  -5.129  1.00  0.00     0.177 C 
ATOM     24  C   UNL     1      -7.211  15.702  -6.187  1.00  0.00     0.176 C 
ATOM     25  C   UNL     1      -8.451  15.971  -5.300  1.00  0.00     0.177 C 
BRANCH  21  26
ATOM     26  O   UNL     1      -7.040  17.921  -3.369  1.00  0.00    -0.387 OA
ATOM     27  H   UNL     1      -6.979  18.785  -2.885  1.00  0.00     0.211 HD
ENDBRANCH  21  26
BRANCH  23  28
ATOM     28  O   UNL     1      -9.633  17.744  -4.153  1.00  0.00    -0.387 OA
ATOM     29  H   UNL     1      -9.356  18.567  -3.673  1.00  0.00     0.211 HD
ENDBRANCH  23  28
BRANCH  24  30
ATOM     30  C   UNL     1      -6.948  14.196  -6.347  1.00  0.00     0.191 C 
BRANCH  30  31
ATOM     31  O   UNL     1      -7.526  13.464  -5.300  1.00  0.00    -0.394 OA
ATOM     32  H   UNL     1      -6.777  13.056  -4.789  1.00  0.00     0.210 HD
ENDBRANCH  30  31
ENDBRANCH  24  30
BRANCH  25  33
ATOM     33  O   UNL     1      -9.605  15.376  -5.843  1.00  0.00    -0.388 OA
ATOM     34  H   UNL     1     -10.321  15.419  -5.156  1.00  0.00     0.211 HD
ENDBRANCH  25  33
ENDBRANCH  11  20
BRANCH  10  35
ATOM     35  O   UNL     1      -4.325  16.643  -7.836  1.00  0.00    -0.507 OA
ATOM     36  H   UNL     1      -3.366  16.715  -7.516  1.00  0.00     0.293 HD
ENDBRANCH  10  35
TORSDOF 9
ENDMDL
MODEL 7
REMARK VINA RESULT:    -5.126      3.206      5.770
REMARK INTER + INTRA:          -6.657
REMARK INTER:                  -7.483
REMARK INTRA:                   0.825
REMARK UNBOUND:                 0.266
REMARK SMILES O=c1c(-c2ccc(O)cc2)coc2c([C@@H]3O[C@@H](CO)[C@H](O)[C@@H](O)[C@H]3O)c(O)ccc12
REMARK SMILES IDX 3 1 11 2 12 3 13 4 30 5 2 6 1 7 29 8 28 9 26 10 14 11 4 12
REMARK SMILES IDX 5 13 6 14 7 15 10 16 9 17 8 18 15 20 24 21 16 22 22 23 17 24
REMARK SMILES IDX 20 25 25 26 23 28 18 30 19 31 21 33 27 35
REMARK H PARENT 8 19 25 27 23 29 19 32 21 34 27 36
REMARK Flexibility Score: inf
ROOT
ATOM      1  C   UNL     1      -8.732  21.022  -7.648  1.00  0.00     0.065 A 
ATOM      2  C   UNL     1      -9.084  20.553  -6.376  1.00  0.00     0.208 A 
ATOM      3  O   UNL     1      -8.595  19.411  -5.910  1.00  0.00    -0.463 OA
ATOM      4  C   UNL     1      -7.753  18.640  -6.597  1.00  0.00     0.147 A 
ATOM      5  C   UNL     1      -7.358  19.031  -7.897  1.00  0.00     0.066 A 
ATOM      6  C   UNL     1      -7.860  20.236  -8.424  1.00  0.00     0.200 A 
ATOM      7  O   UNL     1      -7.547  20.601  -9.591  1.00  0.00    -0.288 OA
ATOM      8  C   UNL     1      -6.494  18.213  -8.632  1.00  0.00     0.020 A 
ATOM      9  C   UNL     1      -6.039  17.017  -8.093  1.00  0.00     0.047 A 
ATOM     10  C   UNL     1      -6.420  16.609  -6.808  1.00  0.00     0.125 A 
ATOM     11  C   UNL     1      -7.264  17.439  -6.015  1.00  0.00     0.069 A 
ENDROOT
BRANCH   1  12
ATOM     12  C   UNL     1      -9.284  22.307  -8.144  1.00  0.00    -0.011 A 
ATOM     13  C   UNL     1     -10.604  22.374  -8.625  1.00  0.00     0.013 A 
ATOM     14  C   UNL     1     -11.128  23.585  -9.086  1.00  0.00     0.047 A 
ATOM     15  C   UNL     1     -10.346  24.744  -9.069  1.00  0.00     0.115 A 
ATOM     16  C   UNL     1      -8.505  23.478  -8.123  1.00  0.00     0.013 A 
ATOM     17  C   UNL     1      -9.033  24.687  -8.585  1.00  0.00     0.047 A 
BRANCH  15  18
ATOM     18  O   UNL     1     -10.882  25.943  -9.533  1.00  0.00    -0.508 OA
ATOM     19  H   UNL     1     -10.923  26.155 -10.523  1.00  0.00     0.293 HD
ENDBRANCH  15  18
ENDBRANCH   1  12
BRANCH  11  20
ATOM     20  C   UNL     1      -7.732  17.121  -4.576  1.00  0.00     0.188 C 
ATOM     21  C   UNL     1      -8.712  15.940  -4.305  1.00  0.00     0.179 C 
ATOM     22  O   UNL     1      -6.625  17.044  -3.687  1.00  0.00    -0.362 OA
ATOM     23  C   UNL     1      -7.985  14.576  -4.361  1.00  0.00     0.177 C 
ATOM     24  C   UNL     1      -5.860  15.867  -3.897  1.00  0.00     0.176 C 
ATOM     25  C   UNL     1      -6.686  14.610  -3.531  1.00  0.00     0.177 C 
BRANCH  21  26
ATOM     26  O   UNL     1      -9.343  16.105  -3.055  1.00  0.00    -0.387 OA
ATOM     27  H   UNL     1      -9.974  15.353  -2.915  1.00  0.00     0.211 HD
ENDBRANCH  21  26
BRANCH  23  28
ATOM     28  O   UNL     1      -8.842  13.569  -3.884  1.00  0.00    -0.387 OA
ATOM     29  H   UNL     1      -9.415  13.292  -4.646  1.00  0.00     0.211 HD
ENDBRANCH  23  28
BRANCH  24  30
ATOM     30  C   UNL     1      -4.575  15.962  -3.060  1.00  0.00     0.191 C 
BRANCH  30  31
ATOM     31  O   UNL     1      -4.776  15.471  -1.761  1.00  0.00    -0.394 OA
ATOM     32  H   UNL     1      -5.065  16.242  -1.205  1.00  0.00     0.210 HD
ENDBRANCH  30  31
ENDBRANCH  24  30
BRANCH  25  33
ATOM     33  O   UNL     1      -5.940  13.434  -3.734  1.00  0.00    -0.388 OA
ATOM     34  H   UNL     1      -6.103  12.834  -2.959  1.00  0.00     0.211 HD
ENDBRANCH  25  33
ENDBRANCH  11  20
BRANCH  10  35
ATOM     35  O   UNL     1      -5.955  15.378  -6.356  1.00  0.00    -0.507 OA
ATOM     36  H   UNL     1      -5.693  14.633  -6.992  1.00  0.00     0.293 HD
ENDBRANCH  10  35
TORSDOF 9
ENDMDL
MODEL 8
REMARK VINA RESULT:    -5.070      3.642      8.140
REMARK INTER + INTRA:          -6.582
REMARK INTER:                  -7.387
REMARK INTRA:                   0.805
REMARK UNBOUND:                 0.266
REMARK SMILES O=c1c(-c2ccc(O)cc2)coc2c([C@@H]3O[C@@H](CO)[C@H](O)[C@@H](O)[C@H]3O)c(O)ccc12
REMARK SMILES IDX 3 1 11 2 12 3 13 4 30 5 2 6 1 7 29 8 28 9 26 10 14 11 4 12
REMARK SMILES IDX 5 13 6 14 7 15 10 16 9 17 8 18 15 20 24 21 16 22 22 23 17 24
REMARK SMILES IDX 20 25 25 26 23 28 18 30 19 31 21 33 27 35
REMARK H PARENT 8 19 25 27 23 29 19 32 21 34 27 36
REMARK Flexibility Score: inf
ROOT
ATOM      1  C   UNL     1      -6.584  17.739  -4.861  1.00  0.00     0.065 A 
ATOM      2  C   UNL     1      -7.416  18.072  -5.937  1.00  0.00     0.208 A 
ATOM      3  O   UNL     1      -7.014  18.922  -6.873  1.00  0.00    -0.463 OA
ATOM      4  C   UNL     1      -5.818  19.509  -6.865  1.00  0.00     0.147 A 
ATOM      5  C   UNL     1      -4.921  19.241  -5.805  1.00  0.00     0.066 A 
ATOM      6  C   UNL     1      -5.316  18.346  -4.794  1.00  0.00     0.200 A 
ATOM      7  O   UNL     1      -4.549  18.105  -3.820  1.00  0.00    -0.288 OA
ATOM      8  C   UNL     1      -3.674  19.875  -5.778  1.00  0.00     0.020 A 
ATOM      9  C   UNL     1      -3.327  20.774  -6.778  1.00  0.00     0.047 A 
ATOM     10  C   UNL     1      -4.202  21.056  -7.835  1.00  0.00     0.125 A 
ATOM     11  C   UNL     1      -5.462  20.396  -7.918  1.00  0.00     0.069 A 
ENDROOT
BRANCH   1  12
ATOM     12  C   UNL     1      -7.051  16.778  -3.831  1.00  0.00    -0.011 A 
ATOM     13  C   UNL     1      -8.401  16.385  -3.787  1.00  0.00     0.013 A 
ATOM     14  C   UNL     1      -8.842  15.476  -2.823  1.00  0.00     0.047 A 
ATOM     15  C   UNL     1      -7.944  14.941  -1.895  1.00  0.00     0.115 A 
ATOM     16  C   UNL     1      -6.151  16.232  -2.898  1.00  0.00     0.013 A 
ATOM     17  C   UNL     1      -6.596  15.321  -1.935  1.00  0.00     0.047 A 
BRANCH  15  18
ATOM     18  O   UNL     1      -8.399  14.036  -0.939  1.00  0.00    -0.508 OA
ATOM     19  H   UNL     1      -7.759  13.443  -0.424  1.00  0.00     0.293 HD
ENDBRANCH  15  18
ENDBRANCH   1  12
BRANCH  11  20
ATOM     20  C   UNL     1      -6.502  20.594  -9.044  1.00  0.00     0.188 C 
ATOM     21  C   UNL     1      -8.015  20.324  -8.781  1.00  0.00     0.179 C 
ATOM     22  O   UNL     1      -6.339  21.861  -9.668  1.00  0.00    -0.362 OA
ATOM     23  C   UNL     1      -8.667  21.479  -7.985  1.00  0.00     0.177 C 
ATOM     24  C   UNL     1      -6.769  22.922  -8.829  1.00  0.00     0.176 C 
ATOM     25  C   UNL     1      -8.298  22.846  -8.596  1.00  0.00     0.177 C 
BRANCH  21  26
ATOM     26  O   UNL     1      -8.695  20.126 -10.000  1.00  0.00    -0.387 OA
ATOM     27  H   UNL     1      -8.768  20.996 -10.469  1.00  0.00     0.211 HD
ENDBRANCH  21  26
BRANCH  23  28
ATOM     28  O   UNL     1     -10.062  21.310  -7.975  1.00  0.00    -0.387 OA
ATOM     29  H   UNL     1     -10.332  21.187  -7.028  1.00  0.00     0.211 HD
ENDBRANCH  23  28
BRANCH  24  30
ATOM     30  C   UNL     1      -6.364  24.255  -9.478  1.00  0.00     0.191 C 
BRANCH  30  31
ATOM     31  O   UNL     1      -6.292  25.284  -8.527  1.00  0.00    -0.394 OA
ATOM     32  H   UNL     1      -7.169  25.750  -8.544  1.00  0.00     0.210 HD
ENDBRANCH  30  31
ENDBRANCH  24  30
BRANCH  25  33
ATOM     33  O   UNL     1      -8.739  23.893  -7.766  1.00  0.00    -0.388 OA
ATOM     34  H   UNL     1      -9.006  24.651  -8.350  1.00  0.00     0.211 HD
ENDBRANCH  25  33
ENDBRANCH  11  20
BRANCH  10  35
ATOM     35  O   UNL     1      -3.797  21.998  -8.775  1.00  0.00    -0.507 OA
ATOM     36  H   UNL     1      -2.913  21.927  -9.265  1.00  0.00     0.293 HD
ENDBRANCH  10  35
TORSDOF 9
ENDMDL
MODEL 9
REMARK VINA RESULT:    -5.041      4.615     11.981
REMARK INTER + INTRA:          -6.543
REMARK INTER:                  -7.499
REMARK INTRA:                   0.956
REMARK UNBOUND:                 0.266
REMARK SMILES O=c1c(-c2ccc(O)cc2)coc2c([C@@H]3O[C@@H](CO)[C@H](O)[C@@H](O)[C@H]3O)c(O)ccc12
REMARK SMILES IDX 3 1 11 2 12 3 13 4 30 5 2 6 1 7 29 8 28 9 26 10 14 11 4 12
REMARK SMILES IDX 5 13 6 14 7 15 10 16 9 17 8 18 15 20 24 21 16 22 22 23 17 24
REMARK SMILES IDX 20 25 25 26 23 28 18 30 19 31 21 33 27 35
REMARK H PARENT 8 19 25 27 23 29 19 32 21 34 27 36
REMARK Flexibility Score: inf
ROOT
ATOM      1  C   UNL     1     -15.475  24.553  -8.004  1.00  0.00     0.065 A 
ATOM      2  C   UNL     1     -15.617  25.515  -6.995  1.00  0.00     0.208 A 
ATOM      3  O   UNL     1     -16.797  26.063  -6.738  1.00  0.00    -0.463 OA
ATOM      4  C   UNL     1     -17.911  25.751  -7.399  1.00  0.00     0.147 A 
ATOM      5  C   UNL     1     -17.853  24.801  -8.445  1.00  0.00     0.066 A 
ATOM      6  C   UNL     1     -16.617  24.200  -8.746  1.00  0.00     0.200 A 
ATOM      7  O   UNL     1     -16.526  23.367  -9.690  1.00  0.00    -0.288 OA
ATOM      8  C   UNL     1     -19.014  24.488  -9.159  1.00  0.00     0.020 A 
ATOM      9  C   UNL     1     -20.213  25.119  -8.854  1.00  0.00     0.047 A 
ATOM     10  C   UNL     1     -20.291  26.066  -7.824  1.00  0.00     0.125 A 
ATOM     11  C   UNL     1     -19.138  26.376  -7.047  1.00  0.00     0.069 A 
ENDROOT
BRANCH   1  12
ATOM     12  C   UNL     1     -14.147  23.945  -8.267  1.00  0.00    -0.011 A 
ATOM     13  C   UNL     1     -13.244  24.567  -9.149  1.00  0.00     0.013 A 
ATOM     14  C   UNL     1     -11.991  24.000  -9.394  1.00  0.00     0.047 A 
ATOM     15  C   UNL     1     -11.618  22.812  -8.759  1.00  0.00     0.115 A 
ATOM     16  C   UNL     1     -13.764  22.753  -7.627  1.00  0.00     0.013 A 
ATOM     17  C   UNL     1     -12.508  22.189  -7.873  1.00  0.00     0.047 A 
BRANCH  15  18
ATOM     18  O   UNL     1     -10.365  22.259  -9.014  1.00  0.00    -0.508 OA
ATOM     19  H   UNL     1      -9.856  22.471  -9.864  1.00  0.00     0.293 HD
ENDBRANCH  15  18
ENDBRANCH   1  12
BRANCH  11  20
ATOM     20  C   UNL     1     -19.098  27.376  -5.869  1.00  0.00     0.188 C 
ATOM     21  C   UNL     1     -19.310  28.901  -6.115  1.00  0.00     0.179 C 
ATOM     22  O   UNL     1     -19.931  26.939  -4.802  1.00  0.00    -0.362 OA
ATOM     23  C   UNL     1     -20.803  29.236  -6.339  1.00  0.00     0.177 C 
ATOM     24  C   UNL     1     -21.308  27.080  -5.117  1.00  0.00     0.176 C 
ATOM     25  C   UNL     1     -21.683  28.575  -5.259  1.00  0.00     0.177 C 
BRANCH  21  26
ATOM     26  O   UNL     1     -18.798  29.647  -5.035  1.00  0.00    -0.387 OA
ATOM     27  H   UNL     1     -19.550  30.105  -4.580  1.00  0.00     0.211 HD
ENDBRANCH  21  26
BRANCH  23  28
ATOM     28  O   UNL     1     -20.977  30.631  -6.322  1.00  0.00    -0.387 OA
ATOM     29  H   UNL     1     -20.217  31.011  -5.808  1.00  0.00     0.211 HD
ENDBRANCH  23  28
BRANCH  24  30
ATOM     30  C   UNL     1     -22.133  26.392  -4.018  1.00  0.00     0.191 C 
BRANCH  30  31
ATOM     31  O   UNL     1     -21.344  25.510  -3.265  1.00  0.00    -0.394 OA
ATOM     32  H   UNL     1     -21.947  24.787  -2.949  1.00  0.00     0.210 HD
ENDBRANCH  30  31
ENDBRANCH  24  30
BRANCH  25  33
ATOM     33  O   UNL     1     -23.047  28.730  -5.570  1.00  0.00    -0.388 OA
ATOM     34  H   UNL     1     -23.481  29.191  -4.805  1.00  0.00     0.211 HD
ENDBRANCH  25  33
ENDBRANCH  11  20
BRANCH  10  35
ATOM     35  O   UNL     1     -21.519  26.684  -7.607  1.00  0.00    -0.507 OA
ATOM     36  H   UNL     1     -22.082  27.049  -8.367  1.00  0.00     0.293 HD
ENDBRANCH  10  35
TORSDOF 9
ENDMDL
