MODEL 1
REMARK VINA RESULT:    -5.076      0.000      0.000
REMARK INTER + INTRA:          -5.958
REMARK INTER:                  -5.817
REMARK INTRA:                  -0.141
REMARK UNBOUND:                -0.141
REMARK SMILES O=C([O-])C=Cc1ccc(O)cc1
REMARK SMILES IDX 6 1 7 2 12 3 8 4 11 5 9 6 5 7 4 8 2 9 1 10 3 11 10 12
REMARK H PARENT 10 13
REMARK Flexibility Score: inf
ROOT
ATOM      1  C   UNL     1      46.000   7.408  18.586  1.00  0.00    -0.025 A 
ATOM      2  C   UNL     1      46.360   6.641  17.465  1.00  0.00     0.012 A 
ATOM      3  C   UNL     1      44.839   8.206  18.518  1.00  0.00     0.012 A 
ATOM      4  C   UNL     1      45.597   6.688  16.294  1.00  0.00     0.047 A 
ATOM      5  C   UNL     1      44.079   8.250  17.346  1.00  0.00     0.047 A 
ATOM      6  C   UNL     1      44.455   7.495  16.231  1.00  0.00     0.115 A 
ENDROOT
BRANCH   1   7
ATOM      7  C   UNL     1      46.837   7.316  19.808  1.00  0.00     0.010 C 
ATOM      8  C   UNL     1      46.462   7.788  21.005  1.00  0.00     0.025 C 
BRANCH   8   9
ATOM      9  C   UNL     1      47.324   7.689  22.194  1.00  0.00     0.064 C 
ATOM     10  O   UNL     1      47.264   8.545  23.117  1.00  0.00    -0.545 OA
ATOM     11  O   UNL     1      48.222   6.635  22.300  1.00  0.00    -0.545 OA
ENDBRANCH   8   9
ENDBRANCH   1   7
BRANCH   6  12
ATOM     12  O   UNL     1      43.686   7.552  15.071  1.00  0.00    -0.508 OA
ATOM     13  H   UNL     1      42.941   6.886  14.897  1.00  0.00     0.293 HD
ENDBRANCH   6  12
TORSDOF 3
ENDMDL
MODEL 2
REMARK VINA RESULT:    -5.051      0.130      1.404
REMARK INTER + INTRA:          -5.930
REMARK INTER:                  -5.777
REMARK INTRA:                  -0.152
REMARK UNBOUND:                -0.141
REMARK SMILES O=C([O-])C=Cc1ccc(O)cc1
REMARK SMILES IDX 6 1 7 2 12 3 8 4 11 5 9 6 5 7 4 8 2 9 1 10 3 11 10 12
REMARK H PARENT 10 13
REMARK Flexibility Score: inf
ROOT
ATOM      1  C   UNL     1      46.090   7.331  18.593  1.00  0.00    -0.025 A 
ATOM      2  C   UNL     1      44.969   8.177  18.535  1.00  0.00     0.012 A 
ATOM      3  C   UNL     1      46.456   6.607  17.441  1.00  0.00     0.012 A 
ATOM      4  C   UNL     1      44.214   8.278  17.362  1.00  0.00     0.047 A 
ATOM      5  C   UNL     1      45.698   6.711  16.270  1.00  0.00     0.047 A 
ATOM      6  C   UNL     1      44.576   7.543  16.227  1.00  0.00     0.115 A 
ENDROOT
BRANCH   1   7
ATOM      7  C   UNL     1      46.865   7.266  19.858  1.00  0.00     0.010 C 
ATOM      8  C   UNL     1      46.480   7.857  20.998  1.00  0.00     0.025 C 
BRANCH   8   9
ATOM      9  C   UNL     1      47.281   7.781  22.231  1.00  0.00     0.064 C 
ATOM     10  O   UNL     1      47.104   8.598  23.175  1.00  0.00    -0.545 OA
ATOM     11  O   UNL     1      48.250   6.793  22.356  1.00  0.00    -0.545 OA
ENDBRANCH   8   9
ENDBRANCH   1   7
BRANCH   6  12
ATOM     12  O   UNL     1      43.832   7.635  15.052  1.00  0.00    -0.508 OA
ATOM     13  H   UNL     1      44.232   8.014  14.201  1.00  0.00     0.293 HD
ENDBRANCH   6  12
TORSDOF 3
ENDMDL
MODEL 3
REMARK VINA RESULT:    -5.025      2.352      5.669
REMARK INTER + INTRA:          -5.901
REMARK INTER:                  -5.756
REMARK INTRA:                  -0.144
REMARK UNBOUND:                -0.141
REMARK SMILES O=C([O-])C=Cc1ccc(O)cc1
REMARK SMILES IDX 6 1 7 2 12 3 8 4 11 5 9 6 5 7 4 8 2 9 1 10 3 11 10 12
REMARK H PARENT 10 13
REMARK Flexibility Score: inf
ROOT
ATOM      1  C   UNL     1      45.739   8.259  20.862  1.00  0.00    -0.025 A 
ATOM      2  C   UNL     1      46.804   8.063  21.758  1.00  0.00     0.012 A 
ATOM      3  C   UNL     1      44.481   8.637  21.374  1.00  0.00     0.012 A 
ATOM      4  C   UNL     1      46.613   8.213  23.136  1.00  0.00     0.047 A 
ATOM      5  C   UNL     1      44.294   8.786  22.752  1.00  0.00     0.047 A 
ATOM      6  C   UNL     1      45.356   8.573  23.636  1.00  0.00     0.115 A 
ENDROOT
BRANCH   1   7
ATOM      7  C   UNL     1      45.995   8.098  19.409  1.00  0.00     0.010 C 
ATOM      8  C   UNL     1      46.677   7.071  18.883  1.00  0.00     0.025 C 
BRANCH   8   9
ATOM      9  C   UNL     1      46.922   6.950  17.436  1.00  0.00     0.064 C 
ATOM     10  O   UNL     1      47.197   5.838  16.912  1.00  0.00    -0.545 OA
ATOM     11  O   UNL     1      46.852   8.083  16.635  1.00  0.00    -0.545 OA
ENDBRANCH   8   9
ENDBRANCH   1   7
BRANCH   6  12
ATOM     12  O   UNL     1      45.152   8.725  25.006  1.00  0.00    -0.508 OA
ATOM     13  H   UNL     1      45.448   8.016  25.667  1.00  0.00     0.293 HD
ENDBRANCH   6  12
TORSDOF 3
ENDMDL
MODEL 4
REMARK VINA RESULT:    -4.845      1.889      5.742
REMARK INTER + INTRA:          -5.694
REMARK INTER:                  -5.550
REMARK INTRA:                  -0.144
REMARK UNBOUND:                -0.141
REMARK SMILES O=C([O-])C=Cc1ccc(O)cc1
REMARK SMILES IDX 6 1 7 2 12 3 8 4 11 5 9 6 5 7 4 8 2 9 1 10 3 11 10 12
REMARK H PARENT 10 13
REMARK Flexibility Score: inf
ROOT
ATOM      1  C   UNL     1      46.680   7.342  20.254  1.00  0.00    -0.025 A 
ATOM      2  C   UNL     1      45.834   8.457  20.384  1.00  0.00     0.012 A 
ATOM      3  C   UNL     1      47.463   6.952  21.359  1.00  0.00     0.012 A 
ATOM      4  C   UNL     1      45.789   9.182  21.579  1.00  0.00     0.047 A 
ATOM      5  C   UNL     1      47.416   7.679  22.552  1.00  0.00     0.047 A 
ATOM      6  C   UNL     1      46.583   8.796  22.666  1.00  0.00     0.115 A 
ENDROOT
BRANCH   1   7
ATOM      7  C   UNL     1      46.683   6.600  18.969  1.00  0.00     0.010 C 
ATOM      8  C   UNL     1      46.650   7.192  17.766  1.00  0.00     0.025 C 
BRANCH   8   9
ATOM      9  C   UNL     1      46.642   6.422  16.511  1.00  0.00     0.064 C 
ATOM     10  O   UNL     1      47.571   5.618  16.234  1.00  0.00    -0.545 OA
ATOM     11  O   UNL     1      45.592   6.586  15.617  1.00  0.00    -0.545 OA
ENDBRANCH   8   9
ENDBRANCH   1   7
BRANCH   6  12
ATOM     12  O   UNL     1      46.549   9.510  23.862  1.00  0.00    -0.508 OA
ATOM     13  H   UNL     1      47.129  10.328  24.006  1.00  0.00     0.293 HD
ENDBRANCH   6  12
TORSDOF 3
ENDMDL
MODEL 5
REMARK VINA RESULT:    -4.792      2.015      5.396
REMARK INTER + INTRA:          -5.633
REMARK INTER:                  -5.480
REMARK INTRA:                  -0.153
REMARK UNBOUND:                -0.141
REMARK SMILES O=C([O-])C=Cc1ccc(O)cc1
REMARK SMILES IDX 6 1 7 2 12 3 8 4 11 5 9 6 5 7 4 8 2 9 1 10 3 11 10 12
REMARK H PARENT 10 13
REMARK Flexibility Score: inf
ROOT
ATOM      1  C   UNL     1      45.945   7.571  18.636  1.00  0.00    -0.025 A 
ATOM      2  C   UNL     1      46.788   7.027  19.621  1.00  0.00     0.012 A 
ATOM      3  C   UNL     1      44.996   8.541  19.016  1.00  0.00     0.012 A 
ATOM      4  C   UNL     1      46.670   7.421  20.957  1.00  0.00     0.047 A 
ATOM      5  C   UNL     1      44.881   8.933  20.353  1.00  0.00     0.047 A 
ATOM      6  C   UNL     1      45.714   8.375  21.327  1.00  0.00     0.115 A 
ENDROOT
BRANCH   1   7
ATOM      7  C   UNL     1      46.117   7.127  17.231  1.00  0.00     0.010 C 
ATOM      8  C   UNL     1      47.037   6.233  16.839  1.00  0.00     0.025 C 
BRANCH   8   9
ATOM      9  C   UNL     1      47.186   5.825  15.432  1.00  0.00     0.064 C 
ATOM     10  O   UNL     1      47.891   4.831  15.113  1.00  0.00    -0.545 OA
ATOM     11  O   UNL     1      46.540   6.551  14.439  1.00  0.00    -0.545 OA
ENDBRANCH   8   9
ENDBRANCH   1   7
BRANCH   6  12
ATOM     12  O   UNL     1      45.586   8.776  22.655  1.00  0.00    -0.508 OA
ATOM     13  H   UNL     1      44.781   8.513  23.212  1.00  0.00     0.293 HD
ENDBRANCH   6  12
TORSDOF 3
ENDMDL
MODEL 6
REMARK VINA RESULT:    -4.774      1.945      2.501
REMARK INTER + INTRA:          -5.613
REMARK INTER:                  -5.476
REMARK INTRA:                  -0.137
REMARK UNBOUND:                -0.141
REMARK SMILES O=C([O-])C=Cc1ccc(O)cc1
REMARK SMILES IDX 6 1 7 2 12 3 8 4 11 5 9 6 5 7 4 8 2 9 1 10 3 11 10 12
REMARK H PARENT 10 13
REMARK Flexibility Score: inf
ROOT
ATOM      1  C   UNL     1      45.567   8.078  19.585  1.00  0.00    -0.025 A 
ATOM      2  C   UNL     1      46.604   7.218  19.183  1.00  0.00     0.012 A 
ATOM      3  C   UNL     1      44.576   8.431  18.648  1.00  0.00     0.012 A 
ATOM      4  C   UNL     1      46.666   6.742  17.869  1.00  0.00     0.047 A 
ATOM      5  C   UNL     1      44.641   7.953  17.335  1.00  0.00     0.047 A 
ATOM      6  C   UNL     1      45.684   7.111  16.941  1.00  0.00     0.115 A 
ENDROOT
BRANCH   1   7
ATOM      7  C   UNL     1      45.540   8.547  20.993  1.00  0.00     0.010 C 
ATOM      8  C   UNL     1      44.483   8.406  21.805  1.00  0.00     0.025 C 
BRANCH   8   9
ATOM      9  C   UNL     1      44.488   8.895  23.194  1.00  0.00     0.064 C 
ATOM     10  O   UNL     1      45.329   8.471  24.031  1.00  0.00    -0.545 OA
ATOM     11  O   UNL     1      43.548   9.838  23.589  1.00  0.00    -0.545 OA
ENDBRANCH   8   9
ENDBRANCH   1   7
BRANCH   6  12
ATOM     12  O   UNL     1      45.734   6.645  15.630  1.00  0.00    -0.508 OA
ATOM     13  H   UNL     1      45.967   5.681  15.420  1.00  0.00     0.293 HD
ENDBRANCH   6  12
TORSDOF 3
ENDMDL
MODEL 7
REMARK VINA RESULT:    -4.774      3.001      4.600
REMARK INTER + INTRA:          -5.613
REMARK INTER:                  -5.476
REMARK INTRA:                  -0.137
REMARK UNBOUND:                -0.141
REMARK SMILES O=C([O-])C=Cc1ccc(O)cc1
REMARK SMILES IDX 6 1 7 2 12 3 8 4 11 5 9 6 5 7 4 8 2 9 1 10 3 11 10 12
REMARK H PARENT 10 13
REMARK Flexibility Score: inf
ROOT
ATOM      1  C   UNL     1      46.105   8.594  22.290  1.00  0.00    -0.025 A 
ATOM      2  C   UNL     1      45.463   8.982  21.101  1.00  0.00     0.012 A 
ATOM      3  C   UNL     1      47.055   7.553  22.241  1.00  0.00     0.012 A 
ATOM      4  C   UNL     1      45.742   8.329  19.895  1.00  0.00     0.047 A 
ATOM      5  C   UNL     1      47.330   6.903  21.033  1.00  0.00     0.047 A 
ATOM      6  C   UNL     1      46.675   7.286  19.860  1.00  0.00     0.115 A 
ENDROOT
BRANCH   1   7
ATOM      7  C   UNL     1      45.783   9.324  23.541  1.00  0.00     0.010 C 
ATOM      8  C   UNL     1      45.233   8.748  24.619  1.00  0.00     0.025 C 
BRANCH   8   9
ATOM      9  C   UNL     1      44.916   9.507  25.840  1.00  0.00     0.064 C 
ATOM     10  O   UNL     1      45.290  10.702  25.981  1.00  0.00    -0.545 OA
ATOM     11  O   UNL     1      44.193   8.895  26.856  1.00  0.00    -0.545 OA
ENDBRANCH   8   9
ENDBRANCH   1   7
BRANCH   6  12
ATOM     12  O   UNL     1      46.961   6.629  18.665  1.00  0.00    -0.508 OA
ATOM     13  H   UNL     1      47.021   7.130  17.787  1.00  0.00     0.293 HD
ENDBRANCH   6  12
TORSDOF 3
ENDMDL
MODEL 8
REMARK VINA RESULT:    -4.651      1.312      5.894
REMARK INTER + INTRA:          -5.471
REMARK INTER:                  -5.329
REMARK INTRA:                  -0.143
REMARK UNBOUND:                -0.141
REMARK SMILES O=C([O-])C=Cc1ccc(O)cc1
REMARK SMILES IDX 6 1 7 2 12 3 8 4 11 5 9 6 5 7 4 8 2 9 1 10 3 11 10 12
REMARK H PARENT 10 13
REMARK Flexibility Score: inf
ROOT
ATOM      1  C   UNL     1      45.815   7.700  18.450  1.00  0.00    -0.025 A 
ATOM      2  C   UNL     1      44.894   8.530  19.113  1.00  0.00     0.012 A 
ATOM      3  C   UNL     1      46.765   6.993  19.214  1.00  0.00     0.012 A 
ATOM      4  C   UNL     1      44.936   8.671  20.503  1.00  0.00     0.047 A 
ATOM      5  C   UNL     1      46.803   7.137  20.604  1.00  0.00     0.047 A 
ATOM      6  C   UNL     1      45.893   7.977  21.253  1.00  0.00     0.115 A 
ENDROOT
BRANCH   1   7
ATOM      7  C   UNL     1      45.722   7.575  16.974  1.00  0.00     0.010 C 
ATOM      8  C   UNL     1      44.622   7.161  16.328  1.00  0.00     0.025 C 
BRANCH   8   9
ATOM      9  C   UNL     1      44.571   7.038  14.862  1.00  0.00     0.064 C 
ATOM     10  O   UNL     1      45.626   6.982  14.176  1.00  0.00    -0.545 OA
ATOM     11  O   UNL     1      43.338   6.984  14.225  1.00  0.00    -0.545 OA
ENDBRANCH   8   9
ENDBRANCH   1   7
BRANCH   6  12
ATOM     12  O   UNL     1      45.945   8.109  22.638  1.00  0.00    -0.508 OA
ATOM     13  H   UNL     1      45.175   8.512  23.161  1.00  0.00     0.293 HD
ENDBRANCH   6  12
TORSDOF 3
ENDMDL
MODEL 9
REMARK VINA RESULT:    -4.563      1.918      2.645
REMARK INTER + INTRA:          -5.371
REMARK INTER:                  -5.231
REMARK INTRA:                  -0.140
REMARK UNBOUND:                -0.141
REMARK SMILES O=C([O-])C=Cc1ccc(O)cc1
REMARK SMILES IDX 6 1 7 2 12 3 8 4 11 5 9 6 5 7 4 8 2 9 1 10 3 11 10 12
REMARK H PARENT 10 13
REMARK Flexibility Score: inf
ROOT
ATOM      1  C   UNL     1      45.799   7.507  17.673  1.00  0.00    -0.025 A 
ATOM      2  C   UNL     1      45.253   7.967  16.463  1.00  0.00     0.012 A 
ATOM      3  C   UNL     1      46.784   6.499  17.635  1.00  0.00     0.012 A 
ATOM      4  C   UNL     1      45.659   7.416  15.243  1.00  0.00     0.047 A 
ATOM      5  C   UNL     1      47.188   5.951  16.413  1.00  0.00     0.047 A 
ATOM      6  C   UNL     1      46.626   6.405  15.216  1.00  0.00     0.115 A 
ENDROOT
BRANCH   1   7
ATOM      7  C   UNL     1      45.343   8.131  18.940  1.00  0.00     0.010 C 
ATOM      8  C   UNL     1      46.029   8.069  20.091  1.00  0.00     0.025 C 
BRANCH   8   9
ATOM      9  C   UNL     1      45.539   8.690  21.332  1.00  0.00     0.064 C 
ATOM     10  O   UNL     1      44.385   8.442  21.774  1.00  0.00    -0.545 OA
ATOM     11  O   UNL     1      46.361   9.568  22.027  1.00  0.00    -0.545 OA
ENDBRANCH   8   9
ENDBRANCH   1   7
BRANCH   6  12
ATOM     12  O   UNL     1      47.040   5.848  14.008  1.00  0.00    -0.508 OA
ATOM     13  H   UNL     1      46.702   6.202  13.120  1.00  0.00     0.293 HD
ENDBRANCH   6  12
TORSDOF 3
ENDMDL
