MODEL 1
REMARK VINA RESULT:    -3.811      0.000      0.000
REMARK INTER + INTRA:          -5.837
REMARK INTER:                  -5.148
REMARK INTRA:                  -0.690
REMARK UNBOUND:                -0.690
REMARK SMILES CCCCCCC=CC(=O)[O-]
REMARK SMILES IDX 5 1 6 2 7 3 8 4 9 5 10 6 11 7 4 8 3 9 2 10 1 11
REMARK H PARENT
REMARK Flexibility Score: inf
ROOT
ATOM      1  C   UNL     1      95.279   6.087  24.070  1.00  0.00     0.004 C 
ENDROOT
BRANCH   1   2
ATOM      2  C   UNL     1      95.651   5.519  25.445  1.00  0.00     0.027 C 
BRANCH   2   3
ATOM      3  C   UNL     1      96.385   4.215  25.315  1.00  0.00    -0.025 C 
ATOM      4  C   UNL     1      96.059   3.319  24.376  1.00  0.00     0.020 C 
BRANCH   4   5
ATOM      5  C   UNL     1      96.755   2.031  24.240  1.00  0.00     0.064 C 
ATOM      6  O   UNL     1      96.296   1.118  23.504  1.00  0.00    -0.545 OA
ATOM      7  O   UNL     1      97.938   1.817  24.936  1.00  0.00    -0.545 OA
ENDBRANCH   4   5
ENDBRANCH   2   3
ENDBRANCH   1   2
BRANCH   1   8
ATOM      8  C   UNL     1      96.431   6.914  23.486  1.00  0.00     0.000 C 
BRANCH   8   9
ATOM      9  C   UNL     1      96.939   6.299  22.173  1.00  0.00    -0.000 C 
BRANCH   9  10
ATOM     10  C   UNL     1      98.471   6.196  22.124  1.00  0.00    -0.003 C 
ATOM     11  C   UNL     1      99.002   4.935  22.806  1.00  0.00     0.004 C 
ENDBRANCH   9  10
ENDBRANCH   8   9
ENDBRANCH   1   8
TORSDOF 6
ENDMDL
MODEL 2
REMARK VINA RESULT:    -3.738     10.205     12.348
REMARK INTER + INTRA:          -5.738
REMARK INTER:                  -5.361
REMARK INTRA:                  -0.378
REMARK UNBOUND:                -0.690
REMARK SMILES CCCCCCC=CC(=O)[O-]
REMARK SMILES IDX 5 1 6 2 7 3 8 4 9 5 10 6 11 7 4 8 3 9 2 10 1 11
REMARK H PARENT
REMARK Flexibility Score: inf
ROOT
ATOM      1  C   UNL     1     104.740  11.590  15.025  1.00  0.00     0.004 C 
ENDROOT
BRANCH   1   2
ATOM      2  C   UNL     1     103.825  11.924  16.210  1.00  0.00     0.027 C 
BRANCH   2   3
ATOM      3  C   UNL     1     102.574  11.094  16.183  1.00  0.00    -0.025 C 
ATOM      4  C   UNL     1     101.825  10.921  17.278  1.00  0.00     0.020 C 
BRANCH   4   5
ATOM      5  C   UNL     1     100.604  10.101  17.277  1.00  0.00     0.064 C 
ATOM      6  O   UNL     1     100.296   9.391  18.270  1.00  0.00    -0.545 OA
ATOM      7  O   UNL     1      99.776  10.110  16.161  1.00  0.00    -0.545 OA
ENDBRANCH   4   5
ENDBRANCH   2   3
ENDBRANCH   1   2
BRANCH   1   8
ATOM      8  C   UNL     1     106.206  11.520  15.464  1.00  0.00     0.000 C 
BRANCH   8   9
ATOM      9  C   UNL     1     106.339  11.761  16.976  1.00  0.00    -0.000 C 
BRANCH   9  10
ATOM     10  C   UNL     1     107.339  10.802  17.640  1.00  0.00    -0.003 C 
ATOM     11  C   UNL     1     107.776   9.667  16.714  1.00  0.00     0.004 C 
ENDBRANCH   9  10
ENDBRANCH   8   9
ENDBRANCH   1   8
TORSDOF 6
ENDMDL
MODEL 3
REMARK VINA RESULT:    -3.629      2.358      3.653
REMARK INTER + INTRA:          -5.591
REMARK INTER:                  -4.957
REMARK INTRA:                  -0.634
REMARK UNBOUND:                -0.690
REMARK SMILES CCCCCCC=CC(=O)[O-]
REMARK SMILES IDX 5 1 6 2 7 3 8 4 9 5 10 6 11 7 4 8 3 9 2 10 1 11
REMARK H PARENT
REMARK Flexibility Score: inf
ROOT
ATOM      1  C   UNL     1      96.262   5.459  22.862  1.00  0.00     0.004 C 
ENDROOT
BRANCH   1   2
ATOM      2  C   UNL     1      97.420   6.266  22.260  1.00  0.00     0.027 C 
BRANCH   2   3
ATOM      3  C   UNL     1      98.744   5.622  22.557  1.00  0.00    -0.025 C 
ATOM      4  C   UNL     1      98.840   4.561  23.367  1.00  0.00     0.020 C 
BRANCH   4   5
ATOM      5  C   UNL     1     100.128   3.925  23.683  1.00  0.00     0.064 C 
ATOM      6  O   UNL     1     100.654   3.094  22.896  1.00  0.00    -0.545 OA
ATOM      7  O   UNL     1     100.775   4.245  24.869  1.00  0.00    -0.545 OA
ENDBRANCH   4   5
ENDBRANCH   2   3
ENDBRANCH   1   2
BRANCH   1   8
ATOM      8  C   UNL     1      95.223   6.383  23.506  1.00  0.00     0.000 C 
BRANCH   8   9
ATOM      9  C   UNL     1      95.631   6.753  24.941  1.00  0.00    -0.000 C 
BRANCH   9  10
ATOM     10  C   UNL     1      95.637   5.540  25.883  1.00  0.00    -0.003 C 
ATOM     11  C   UNL     1      96.991   5.322  26.559  1.00  0.00     0.004 C 
ENDBRANCH   9  10
ENDBRANCH   8   9
ENDBRANCH   1   8
TORSDOF 6
ENDMDL
MODEL 4
REMARK VINA RESULT:    -3.561      2.842      4.621
REMARK INTER + INTRA:          -5.499
REMARK INTER:                  -4.756
REMARK INTRA:                  -0.743
REMARK UNBOUND:                -0.690
REMARK SMILES CCCCCCC=CC(=O)[O-]
REMARK SMILES IDX 5 1 6 2 7 3 8 4 9 5 10 6 11 7 4 8 3 9 2 10 1 11
REMARK H PARENT
REMARK Flexibility Score: inf
ROOT
ATOM      1  C   UNL     1      98.543   2.222  24.328  1.00  0.00     0.004 C 
ENDROOT
BRANCH   1   2
ATOM      2  C   UNL     1      97.047   1.886  24.322  1.00  0.00     0.027 C 
BRANCH   2   3
ATOM      3  C   UNL     1      96.221   3.086  23.955  1.00  0.00    -0.025 C 
ATOM      4  C   UNL     1      96.781   4.281  23.741  1.00  0.00     0.020 C 
BRANCH   4   5
ATOM      5  C   UNL     1      95.989   5.472  23.396  1.00  0.00     0.064 C 
ATOM      6  O   UNL     1      95.988   5.936  22.225  1.00  0.00    -0.545 OA
ATOM      7  O   UNL     1      95.230   6.095  24.378  1.00  0.00    -0.545 OA
ENDBRANCH   4   5
ENDBRANCH   2   3
ENDBRANCH   1   2
BRANCH   1   8
ATOM      8  C   UNL     1      99.135   2.072  25.734  1.00  0.00     0.000 C 
BRANCH   8   9
ATOM      9  C   UNL     1      99.247   3.436  26.432  1.00  0.00    -0.000 C 
BRANCH   9  10
ATOM     10  C   UNL     1      98.089   3.696  27.408  1.00  0.00    -0.003 C 
ATOM     11  C   UNL     1      97.477   5.087  27.242  1.00  0.00     0.004 C 
ENDBRANCH   9  10
ENDBRANCH   8   9
ENDBRANCH   1   8
TORSDOF 6
ENDMDL
MODEL 5
REMARK VINA RESULT:    -3.553      3.927      5.749
REMARK INTER + INTRA:          -5.489
REMARK INTER:                  -4.977
REMARK INTRA:                  -0.512
REMARK UNBOUND:                -0.690
REMARK SMILES CCCCCCC=CC(=O)[O-]
REMARK SMILES IDX 5 1 6 2 7 3 8 4 9 5 10 6 11 7 4 8 3 9 2 10 1 11
REMARK H PARENT
REMARK Flexibility Score: inf
ROOT
ATOM      1  C   UNL     1     100.845   0.546  23.333  1.00  0.00     0.004 C 
ENDROOT
BRANCH   1   2
ATOM      2  C   UNL     1     100.245   0.188  24.698  1.00  0.00     0.027 C 
BRANCH   2   3
ATOM      3  C   UNL     1      99.147   1.140  25.077  1.00  0.00    -0.025 C 
ATOM      4  C   UNL     1      98.071   1.311  24.300  1.00  0.00     0.020 C 
BRANCH   4   5
ATOM      5  C   UNL     1      96.991   2.248  24.644  1.00  0.00     0.064 C 
ATOM      6  O   UNL     1      96.951   2.810  25.770  1.00  0.00    -0.545 OA
ATOM      7  O   UNL     1      95.999   2.519  23.710  1.00  0.00    -0.545 OA
ENDBRANCH   4   5
ENDBRANCH   2   3
ENDBRANCH   1   2
BRANCH   1   8
ATOM      8  C   UNL     1     101.893   1.657  23.467  1.00  0.00     0.000 C 
BRANCH   8   9
ATOM      9  C   UNL     1     103.221   1.098  23.999  1.00  0.00    -0.000 C 
BRANCH   9  10
ATOM     10  C   UNL     1     103.810   1.954  25.130  1.00  0.00    -0.003 C 
ATOM     11  C   UNL     1     102.740   2.699  25.928  1.00  0.00     0.004 C 
ENDBRANCH   9  10
ENDBRANCH   8   9
ENDBRANCH   1   8
TORSDOF 6
ENDMDL
MODEL 6
REMARK VINA RESULT:    -3.541      1.433      2.958
REMARK INTER + INTRA:          -5.473
REMARK INTER:                  -4.735
REMARK INTRA:                  -0.738
REMARK UNBOUND:                -0.690
REMARK SMILES CCCCCCC=CC(=O)[O-]
REMARK SMILES IDX 5 1 6 2 7 3 8 4 9 5 10 6 11 7 4 8 3 9 2 10 1 11
REMARK H PARENT
REMARK Flexibility Score: inf
ROOT
ATOM      1  C   UNL     1      97.638   6.659  22.812  1.00  0.00     0.004 C 
ENDROOT
BRANCH   1   2
ATOM      2  C   UNL     1      98.656   5.553  22.504  1.00  0.00     0.027 C 
BRANCH   2   3
ATOM      3  C   UNL     1      98.879   4.671  23.699  1.00  0.00    -0.025 C 
ATOM      4  C   UNL     1      98.068   3.644  23.972  1.00  0.00     0.020 C 
BRANCH   4   5
ATOM      5  C   UNL     1      98.259   2.777  25.145  1.00  0.00     0.064 C 
ATOM      6  O   UNL     1      98.446   1.538  25.015  1.00  0.00    -0.545 OA
ATOM      7  O   UNL     1      98.235   3.334  26.417  1.00  0.00    -0.545 OA
ENDBRANCH   4   5
ENDBRANCH   2   3
ENDBRANCH   1   2
BRANCH   1   8
ATOM      8  C   UNL     1      96.267   6.327  22.212  1.00  0.00     0.000 C 
BRANCH   8   9
ATOM      9  C   UNL     1      95.174   6.355  23.291  1.00  0.00    -0.000 C 
BRANCH   9  10
ATOM     10  C   UNL     1      95.741   6.593  24.700  1.00  0.00    -0.003 C 
ATOM     11  C   UNL     1      95.361   5.488  25.685  1.00  0.00     0.004 C 
ENDBRANCH   9  10
ENDBRANCH   8   9
ENDBRANCH   1   8
TORSDOF 6
ENDMDL
MODEL 7
REMARK VINA RESULT:    -3.538      1.637      2.408
REMARK INTER + INTRA:          -5.469
REMARK INTER:                  -5.005
REMARK INTRA:                  -0.463
REMARK UNBOUND:                -0.690
REMARK SMILES CCCCCCC=CC(=O)[O-]
REMARK SMILES IDX 5 1 6 2 7 3 8 4 9 5 10 6 11 7 4 8 3 9 2 10 1 11
REMARK H PARENT
REMARK Flexibility Score: inf
ROOT
ATOM      1  C   UNL     1      96.374   6.982  24.748  1.00  0.00     0.004 C 
ENDROOT
BRANCH   1   2
ATOM      2  C   UNL     1      95.387   5.953  25.313  1.00  0.00     0.027 C 
BRANCH   2   3
ATOM      3  C   UNL     1      95.972   4.570  25.294  1.00  0.00    -0.025 C 
ATOM      4  C   UNL     1      96.188   3.917  24.147  1.00  0.00     0.020 C 
BRANCH   4   5
ATOM      5  C   UNL     1      96.746   2.557  24.106  1.00  0.00     0.064 C 
ATOM      6  O   UNL     1      97.884   2.306  24.583  1.00  0.00    -0.545 OA
ATOM      7  O   UNL     1      96.004   1.531  23.534  1.00  0.00    -0.545 OA
ENDBRANCH   4   5
ENDBRANCH   2   3
ENDBRANCH   1   2
BRANCH   1   8
ATOM      8  C   UNL     1      95.709   7.851  23.674  1.00  0.00     0.000 C 
BRANCH   8   9
ATOM      9  C   UNL     1      94.732   7.024  22.826  1.00  0.00    -0.000 C 
BRANCH   9  10
ATOM     10  C   UNL     1      95.320   6.632  21.462  1.00  0.00    -0.003 C 
ATOM     11  C   UNL     1      94.594   7.295  20.291  1.00  0.00     0.004 C 
ENDBRANCH   9  10
ENDBRANCH   8   9
ENDBRANCH   1   8
TORSDOF 6
ENDMDL
MODEL 8
REMARK VINA RESULT:    -3.535      3.595      5.555
REMARK INTER + INTRA:          -5.465
REMARK INTER:                  -4.805
REMARK INTRA:                  -0.661
REMARK UNBOUND:                -0.690
REMARK SMILES CCCCCCC=CC(=O)[O-]
REMARK SMILES IDX 5 1 6 2 7 3 8 4 9 5 10 6 11 7 4 8 3 9 2 10 1 11
REMARK H PARENT
REMARK Flexibility Score: inf
ROOT
ATOM      1  C   UNL     1     101.596   2.939  24.599  1.00  0.00     0.004 C 
ENDROOT
BRANCH   1   2
ATOM      2  C   UNL     1     100.741   2.949  23.326  1.00  0.00     0.027 C 
BRANCH   2   3
ATOM      3  C   UNL     1      99.293   3.190  23.645  1.00  0.00    -0.025 C 
ATOM      4  C   UNL     1      98.538   2.250  24.223  1.00  0.00     0.020 C 
BRANCH   4   5
ATOM      5  C   UNL     1      97.115   2.459  24.531  1.00  0.00     0.064 C 
ATOM      6  O   UNL     1      96.758   3.112  25.547  1.00  0.00    -0.545 OA
ATOM      7  O   UNL     1      96.149   1.928  23.686  1.00  0.00    -0.545 OA
ENDBRANCH   4   5
ENDBRANCH   2   3
ENDBRANCH   1   2
BRANCH   1   8
ATOM      8  C   UNL     1     102.300   1.589  24.778  1.00  0.00     0.000 C 
BRANCH   8   9
ATOM      9  C   UNL     1     102.289   0.786  23.468  1.00  0.00    -0.000 C 
BRANCH   9  10
ATOM     10  C   UNL     1     101.692  -0.619  23.642  1.00  0.00    -0.003 C 
ATOM     11  C   UNL     1     100.390  -0.810  22.863  1.00  0.00     0.004 C 
ENDBRANCH   9  10
ENDBRANCH   8   9
ENDBRANCH   1   8
TORSDOF 6
ENDMDL
MODEL 9
REMARK VINA RESULT:    -3.519      3.170      4.193
REMARK INTER + INTRA:          -5.443
REMARK INTER:                  -4.688
REMARK INTRA:                  -0.755
REMARK UNBOUND:                -0.690
REMARK SMILES CCCCCCC=CC(=O)[O-]
REMARK SMILES IDX 5 1 6 2 7 3 8 4 9 5 10 6 11 7 4 8 3 9 2 10 1 11
REMARK H PARENT
REMARK Flexibility Score: inf
ROOT
ATOM      1  C   UNL     1      96.812   4.602  26.040  1.00  0.00     0.004 C 
ENDROOT
BRANCH   1   2
ATOM      2  C   UNL     1      95.431   5.247  25.868  1.00  0.00     0.027 C 
BRANCH   2   3
ATOM      3  C   UNL     1      95.490   6.415  24.925  1.00  0.00    -0.025 C 
ATOM      4  C   UNL     1      95.234   6.274  23.620  1.00  0.00     0.020 C 
BRANCH   4   5
ATOM      5  C   UNL     1      95.300   7.400  22.677  1.00  0.00     0.064 C 
ATOM      6  O   UNL     1      94.307   7.716  21.970  1.00  0.00    -0.545 OA
ATOM      7  O   UNL     1      96.477   8.129  22.566  1.00  0.00    -0.545 OA
ENDBRANCH   4   5
ENDBRANCH   2   3
ENDBRANCH   1   2
BRANCH   1   8
ATOM      8  C   UNL     1      96.859   3.219  25.381  1.00  0.00     0.000 C 
BRANCH   8   9
ATOM      9  C   UNL     1      97.563   3.284  24.017  1.00  0.00    -0.000 C 
BRANCH   9  10
ATOM     10  C   UNL     1      98.776   4.227  24.024  1.00  0.00    -0.003 C 
ATOM     11  C   UNL     1      98.754   5.228  22.869  1.00  0.00     0.004 C 
ENDBRANCH   9  10
ENDBRANCH   8   9
ENDBRANCH   1   8
TORSDOF 6
ENDMDL
