MODEL 1
REMARK VINA RESULT:    -4.417      0.000      0.000
REMARK INTER + INTRA:          -5.430
REMARK INTER:                  -6.095
REMARK INTRA:                   0.665
REMARK UNBOUND:                 0.665
REMARK SMILES C[C@@H]1OC(=O)[C@@H](C)[C@H]1C[C@@H](O)[C@@](C)(O)[C@H]1CC[C@]2(O)C3=CC(=O)[C@@H]4C[C@H](O)[C@H](O)C[C@]4(C)[C@@H]3CC[C@]12C
REMARK SMILES IDX 12 1 13 2 10 3 9 4 8 5 7 6 6 7 4 8 2 9 3 10 5 11 1 12 11 13
REMARK SMILES IDX 15 15 16 16 36 17 17 18 18 19 35 20 37 21 20 22 34 23 33 24
REMARK SMILES IDX 21 25 31 26 22 27 24 28 30 29 32 30 23 31 25 32 28 33 26 34
REMARK SMILES IDX 19 35 29 37 27 39 14 41
REMARK H PARENT 11 14 19 36 29 38 27 40 14 42
REMARK Flexibility Score: inf
ROOT
ATOM      1  C   UNL     1      -1.915  32.593  62.923  1.00  0.00     0.091 C 
ATOM      2  C   UNL     1      -0.637  33.237  63.539  1.00  0.00     0.045 C 
ENDROOT
BRANCH   1   3
ATOM      3  C   UNL     1      -2.915  32.235  64.100  1.00  0.00     0.146 C 
BRANCH   3   4
ATOM      4  C   UNL     1      -3.916  33.371  64.459  1.00  0.00     0.043 C 
BRANCH   4   5
ATOM      5  C   UNL     1      -3.901  33.774  65.959  1.00  0.00     0.046 C 
ATOM      6  C   UNL     1      -3.720  36.235  65.045  1.00  0.00     0.020 C 
ATOM      7  C   UNL     1      -4.051  35.306  66.225  1.00  0.00     0.103 C 
ATOM      8  C   UNL     1      -3.071  35.527  67.313  1.00  0.00     0.309 C 
ATOM      9  C   UNL     1      -2.595  33.350  66.701  1.00  0.00     0.177 C 
ATOM     10  O   UNL     1      -2.266  34.437  67.546  1.00  0.00    -0.462 OA
ATOM     11  O   UNL     1      -2.976  36.596  67.971  1.00  0.00    -0.252 OA
ATOM     12  C   UNL     1      -2.769  32.092  67.554  1.00  0.00     0.053 C 
ENDBRANCH   4   5
ENDBRANCH   3   4
BRANCH   3  13
ATOM     13  O   UNL     1      -3.617  31.046  63.817  1.00  0.00    -0.390 OA
ATOM     14  H   UNL     1      -3.862  31.057  62.855  1.00  0.00     0.211 HD
ENDBRANCH   3  13
ENDBRANCH   1   3
BRANCH   1  15
ATOM     15  C   UNL     1      -2.592  33.564  61.855  1.00  0.00     0.032 C 
ATOM     16  C   UNL     1      -2.875  34.972  62.405  1.00  0.00     0.010 C 
ATOM     17  C   UNL     1      -1.936  33.805  60.430  1.00  0.00     0.006 C 
ATOM     18  C   UNL     1      -1.956  35.955  61.691  1.00  0.00     0.041 C 
ATOM     19  C   UNL     1      -1.225  35.215  60.538  1.00  0.00     0.092 C 
ATOM     20  C   UNL     1      -3.069  33.785  59.326  1.00  0.00     0.011 C 
ATOM     21  C   UNL     1      -0.926  32.705  59.989  1.00  0.00     0.015 C 
ATOM     22  C   UNL     1      -1.307  36.048  59.236  1.00  0.00    -0.031 C 
ATOM     23  C   UNL     1      -3.651  35.156  58.996  1.00  0.00     0.009 C 
ATOM     24  C   UNL     1      -2.548  36.023  58.363  1.00  0.00     0.025 C 
ATOM     25  C   UNL     1      -0.275  36.785  58.794  1.00  0.00     0.050 C 
ATOM     26  C   UNL     1      -2.990  37.463  57.885  1.00  0.00    -0.013 C 
ATOM     27  C   UNL     1      -0.415  37.631  57.601  1.00  0.00     0.159 C 
ATOM     28  C   UNL     1      -1.759  38.208  57.208  1.00  0.00     0.070 C 
ATOM     29  C   UNL     1      -3.520  38.317  59.073  1.00  0.00     0.042 C 
ATOM     30  C   UNL     1      -4.125  37.283  56.834  1.00  0.00     0.013 C 
ATOM     31  O   UNL     1       0.616  37.950  56.950  1.00  0.00    -0.295 OA
ATOM     32  C   UNL     1      -1.705  39.732  57.509  1.00  0.00     0.047 C 
ATOM     33  C   UNL     1      -4.001  39.727  58.658  1.00  0.00     0.143 C 
ATOM     34  C   UNL     1      -3.094  40.382  57.575  1.00  0.00     0.143 C 
BRANCH  19  35
ATOM     35  O   UNL     1       0.131  35.013  60.887  1.00  0.00    -0.385 OA
ATOM     36  H   UNL     1       0.302  35.372  61.798  1.00  0.00     0.211 HD
ENDBRANCH  19  35
BRANCH  33  37
ATOM     37  O   UNL     1      -4.070  40.524  59.813  1.00  0.00    -0.390 OA
ATOM     38  H   UNL     1      -4.180  41.464  59.515  1.00  0.00     0.211 HD
ENDBRANCH  33  37
BRANCH  34  39
ATOM     39  O   UNL     1      -2.989  41.775  57.758  1.00  0.00    -0.390 OA
ATOM     40  H   UNL     1      -2.161  42.081  57.303  1.00  0.00     0.211 HD
ENDBRANCH  34  39
ENDBRANCH   1  15
BRANCH   1  41
ATOM     41  O   UNL     1      -1.575  31.391  62.269  1.00  0.00    -0.387 OA
ATOM     42  H   UNL     1      -1.659  31.514  61.289  1.00  0.00     0.211 HD
ENDBRANCH   1  41
TORSDOF 9
ENDMDL
MODEL 2
REMARK VINA RESULT:    -3.464      3.346      7.198
REMARK INTER + INTRA:          -4.116
REMARK INTER:                  -4.845
REMARK INTRA:                   0.729
REMARK UNBOUND:                 0.665
REMARK SMILES C[C@@H]1OC(=O)[C@@H](C)[C@H]1C[C@@H](O)[C@@](C)(O)[C@H]1CC[C@]2(O)C3=CC(=O)[C@@H]4C[C@H](O)[C@H](O)C[C@]4(C)[C@@H]3CC[C@]12C
REMARK SMILES IDX 12 1 13 2 10 3 9 4 8 5 7 6 6 7 4 8 2 9 3 10 5 11 1 12 11 13
REMARK SMILES IDX 15 15 16 16 36 17 17 18 18 19 35 20 37 21 20 22 34 23 33 24
REMARK SMILES IDX 21 25 31 26 22 27 24 28 30 29 32 30 23 31 25 32 28 33 26 34
REMARK SMILES IDX 19 35 29 37 27 39 14 41
REMARK H PARENT 11 14 19 36 29 38 27 40 14 42
REMARK Flexibility Score: inf
ROOT
ATOM      1  C   UNL     1      -1.679  32.139  61.088  1.00  0.00     0.091 C 
ATOM      2  C   UNL     1      -0.280  31.463  61.197  1.00  0.00     0.045 C 
ENDROOT
BRANCH   1   3
ATOM      3  C   UNL     1      -2.777  31.004  60.954  1.00  0.00     0.146 C 
BRANCH   3   4
ATOM      4  C   UNL     1      -3.285  30.772  59.501  1.00  0.00     0.043 C 
BRANCH   4   5
ATOM      5  C   UNL     1      -2.215  30.172  58.548  1.00  0.00     0.046 C 
ATOM      6  C   UNL     1      -4.122  30.273  56.738  1.00  0.00     0.020 C 
ATOM      7  C   UNL     1      -2.618  30.158  57.039  1.00  0.00     0.103 C 
ATOM      8  C   UNL     1      -2.130  28.831  56.602  1.00  0.00     0.309 C 
ATOM      9  C   UNL     1      -1.839  28.696  58.890  1.00  0.00     0.177 C 
ATOM     10  O   UNL     1      -1.720  28.034  57.644  1.00  0.00    -0.462 OA
ATOM     11  O   UNL     1      -2.083  28.457  55.400  1.00  0.00    -0.252 OA
ATOM     12  C   UNL     1      -0.514  28.573  59.646  1.00  0.00     0.053 C 
ENDBRANCH   4   5
ENDBRANCH   3   4
BRANCH   3  13
ATOM     13  O   UNL     1      -2.315  29.791  61.503  1.00  0.00    -0.390 OA
ATOM     14  H   UNL     1      -1.352  29.900  61.719  1.00  0.00     0.211 HD
ENDBRANCH   3  13
ENDBRANCH   1   3
BRANCH   1  15
ATOM     15  C   UNL     1      -1.963  33.082  62.342  1.00  0.00     0.032 C 
ATOM     16  C   UNL     1      -0.700  33.774  62.882  1.00  0.00     0.010 C 
ATOM     17  C   UNL     1      -3.061  34.227  62.279  1.00  0.00     0.006 C 
ATOM     18  C   UNL     1      -0.820  35.268  62.605  1.00  0.00     0.041 C 
ATOM     19  C   UNL     1      -2.246  35.567  62.071  1.00  0.00     0.092 C 
ATOM     20  C   UNL     1      -3.888  34.228  63.628  1.00  0.00     0.011 C 
ATOM     21  C   UNL     1      -4.124  34.041  61.156  1.00  0.00     0.015 C 
ATOM     22  C   UNL     1      -2.852  36.778  62.821  1.00  0.00    -0.031 C 
ATOM     23  C   UNL     1      -3.348  35.172  64.697  1.00  0.00     0.009 C 
ATOM     24  C   UNL     1      -3.481  36.620  64.192  1.00  0.00     0.025 C 
ATOM     25  C   UNL     1      -2.893  38.006  62.278  1.00  0.00     0.050 C 
ATOM     26  C   UNL     1      -3.037  37.748  65.205  1.00  0.00    -0.013 C 
ATOM     27  C   UNL     1      -3.396  39.150  63.049  1.00  0.00     0.159 C 
ATOM     28  C   UNL     1      -3.284  39.180  64.560  1.00  0.00     0.070 C 
ATOM     29  C   UNL     1      -1.534  37.608  65.586  1.00  0.00     0.042 C 
ATOM     30  C   UNL     1      -3.909  37.602  66.486  1.00  0.00     0.013 C 
ATOM     31  O   UNL     1      -3.843  40.156  62.437  1.00  0.00    -0.295 OA
ATOM     32  C   UNL     1      -2.192  40.228  64.915  1.00  0.00     0.047 C 
ATOM     33  C   UNL     1      -1.050  38.666  66.605  1.00  0.00     0.143 C 
ATOM     34  C   UNL     1      -1.657  40.077  66.346  1.00  0.00     0.143 C 
BRANCH  19  35
ATOM     35  O   UNL     1      -2.186  35.849  60.685  1.00  0.00    -0.385 OA
ATOM     36  H   UNL     1      -2.222  35.002  60.167  1.00  0.00     0.211 HD
ENDBRANCH  19  35
BRANCH  33  37
ATOM     37  O   UNL     1       0.354  38.702  66.567  1.00  0.00    -0.390 OA
ATOM     38  H   UNL     1       0.613  39.461  65.983  1.00  0.00     0.211 HD
ENDBRANCH  33  37
BRANCH  34  39
ATOM     39  O   UNL     1      -0.739  41.102  66.649  1.00  0.00    -0.390 OA
ATOM     40  H   UNL     1      -1.118  41.643  67.390  1.00  0.00     0.211 HD
ENDBRANCH  34  39
ENDBRANCH   1  15
BRANCH   1  41
ATOM     41  O   UNL     1      -1.737  32.930  59.923  1.00  0.00    -0.387 OA
ATOM     42  H   UNL     1      -2.411  33.648  60.045  1.00  0.00     0.211 HD
ENDBRANCH   1  41
TORSDOF 9
ENDMDL
MODEL 3
REMARK VINA RESULT:    -2.026      3.736      6.864
REMARK INTER + INTRA:          -2.131
REMARK INTER:                  -2.688
REMARK INTRA:                   0.557
REMARK UNBOUND:                 0.665
REMARK SMILES C[C@@H]1OC(=O)[C@@H](C)[C@H]1C[C@@H](O)[C@@](C)(O)[C@H]1CC[C@]2(O)C3=CC(=O)[C@@H]4C[C@H](O)[C@H](O)C[C@]4(C)[C@@H]3CC[C@]12C
REMARK SMILES IDX 12 1 13 2 10 3 9 4 8 5 7 6 6 7 4 8 2 9 3 10 5 11 1 12 11 13
REMARK SMILES IDX 15 15 16 16 36 17 17 18 18 19 35 20 37 21 20 22 34 23 33 24
REMARK SMILES IDX 21 25 31 26 22 27 24 28 30 29 32 30 23 31 25 32 28 33 26 34
REMARK SMILES IDX 19 35 29 37 27 39 14 41
REMARK H PARENT 11 14 19 36 29 38 27 40 14 42
REMARK Flexibility Score: inf
ROOT
ATOM      1  C   UNL     1      -2.966  36.777  65.296  1.00  0.00     0.091 C 
ATOM      2  C   UNL     1      -1.460  36.661  65.676  1.00  0.00     0.045 C 
ENDROOT
BRANCH   1   3
ATOM      3  C   UNL     1      -3.183  38.132  64.502  1.00  0.00     0.146 C 
BRANCH   3   4
ATOM      4  C   UNL     1      -3.110  39.411  65.386  1.00  0.00     0.043 C 
BRANCH   4   5
ATOM      5  C   UNL     1      -1.897  40.328  65.069  1.00  0.00     0.046 C 
ATOM      6  C   UNL     1      -1.440  40.207  67.657  1.00  0.00     0.020 C 
ATOM      7  C   UNL     1      -0.897  40.520  66.253  1.00  0.00     0.103 C 
ATOM      8  C   UNL     1      -0.582  41.963  66.160  1.00  0.00     0.309 C 
ATOM      9  C   UNL     1      -2.308  41.770  64.635  1.00  0.00     0.177 C 
ATOM     10  O   UNL     1      -1.386  42.636  65.271  1.00  0.00    -0.462 OA
ATOM     11  O   UNL     1       0.331  42.530  66.816  1.00  0.00    -0.252 OA
ATOM     12  C   UNL     1      -2.231  41.988  63.122  1.00  0.00     0.053 C 
ENDBRANCH   4   5
ENDBRANCH   3   4
BRANCH   3  13
ATOM     13  O   UNL     1      -2.275  38.234  63.429  1.00  0.00    -0.390 OA
ATOM     14  H   UNL     1      -2.632  37.698  62.673  1.00  0.00     0.211 HD
ENDBRANCH   3  13
ENDBRANCH   1   3
BRANCH   1  15
ATOM     15  C   UNL     1      -3.445  35.517  64.445  1.00  0.00     0.032 C 
ATOM     16  C   UNL     1      -3.669  35.836  62.957  1.00  0.00     0.010 C 
ATOM     17  C   UNL     1      -2.622  34.159  64.452  1.00  0.00     0.006 C 
ATOM     18  C   UNL     1      -2.602  35.110  62.148  1.00  0.00     0.041 C 
ATOM     19  C   UNL     1      -1.815  34.160  63.091  1.00  0.00     0.092 C 
ATOM     20  C   UNL     1      -3.630  32.943  64.554  1.00  0.00     0.011 C 
ATOM     21  C   UNL     1      -1.664  33.990  65.667  1.00  0.00     0.015 C 
ATOM     22  C   UNL     1      -1.690  32.757  62.448  1.00  0.00    -0.031 C 
ATOM     23  C   UNL     1      -4.059  32.367  63.208  1.00  0.00     0.009 C 
ATOM     24  C   UNL     1      -2.828  31.756  62.515  1.00  0.00     0.025 C 
ATOM     25  C   UNL     1      -0.560  32.345  61.850  1.00  0.00     0.050 C 
ATOM     26  C   UNL     1      -3.098  31.042  61.131  1.00  0.00    -0.013 C 
ATOM     27  C   UNL     1      -0.502  31.041  61.176  1.00  0.00     0.159 C 
ATOM     28  C   UNL     1      -1.745  30.421  60.572  1.00  0.00     0.070 C 
ATOM     29  C   UNL     1      -3.680  32.035  60.084  1.00  0.00     0.042 C 
ATOM     30  C   UNL     1      -4.125  29.899  61.383  1.00  0.00     0.013 C 
ATOM     31  O   UNL     1       0.615  30.478  61.020  1.00  0.00    -0.295 OA
ATOM     32  C   UNL     1      -1.599  30.519  59.028  1.00  0.00     0.047 C 
ATOM     33  C   UNL     1      -3.998  31.383  58.719  1.00  0.00     0.143 C 
ATOM     34  C   UNL     1      -2.930  30.335  58.285  1.00  0.00     0.143 C 
BRANCH  19  35
ATOM     35  O   UNL     1      -0.525  34.689  63.331  1.00  0.00    -0.385 OA
ATOM     36  H   UNL     1      -0.466  35.611  62.966  1.00  0.00     0.211 HD
ENDBRANCH  19  35
BRANCH  33  37
ATOM     37  O   UNL     1      -4.125  32.404  57.763  1.00  0.00    -0.390 OA
ATOM     38  H   UNL     1      -5.012  32.295  57.332  1.00  0.00     0.211 HD
ENDBRANCH  33  37
BRANCH  34  39
ATOM     39  O   UNL     1      -2.732  30.341  56.891  1.00  0.00    -0.390 OA
ATOM     40  H   UNL     1      -2.375  31.232  56.636  1.00  0.00     0.211 HD
ENDBRANCH  34  39
ENDBRANCH   1  15
BRANCH   1  41
ATOM     41  O   UNL     1      -3.750  36.838  66.467  1.00  0.00    -0.387 OA
ATOM     42  H   UNL     1      -3.367  36.230  67.152  1.00  0.00     0.211 HD
ENDBRANCH   1  41
TORSDOF 9
ENDMDL
MODEL 4
REMARK VINA RESULT:    -1.528      4.596      9.537
REMARK INTER + INTRA:          -1.444
REMARK INTER:                  -1.241
REMARK INTRA:                  -0.203
REMARK UNBOUND:                 0.665
REMARK SMILES C[C@@H]1OC(=O)[C@@H](C)[C@H]1C[C@@H](O)[C@@](C)(O)[C@H]1CC[C@]2(O)C3=CC(=O)[C@@H]4C[C@H](O)[C@H](O)C[C@]4(C)[C@@H]3CC[C@]12C
REMARK SMILES IDX 12 1 13 2 10 3 9 4 8 5 7 6 6 7 4 8 2 9 3 10 5 11 1 12 11 13
REMARK SMILES IDX 15 15 16 16 36 17 17 18 18 19 35 20 37 21 20 22 34 23 33 24
REMARK SMILES IDX 21 25 31 26 22 27 24 28 30 29 32 30 23 31 25 32 28 33 26 34
REMARK SMILES IDX 19 35 29 37 27 39 14 41
REMARK H PARENT 11 14 19 36 29 38 27 40 14 42
REMARK Flexibility Score: inf
ROOT
ATOM      1  C   UNL     1      -2.003  29.685  58.071  1.00  0.00     0.091 C 
ATOM      2  C   UNL     1      -2.033  28.162  58.397  1.00  0.00     0.045 C 
ENDROOT
BRANCH   1   3
ATOM      3  C   UNL     1      -2.745  29.919  56.689  1.00  0.00     0.146 C 
BRANCH   3   4
ATOM      4  C   UNL     1      -2.574  28.759  55.666  1.00  0.00     0.043 C 
BRANCH   4   5
ATOM      5  C   UNL     1      -1.372  28.943  54.700  1.00  0.00     0.046 C 
ATOM      6  C   UNL     1      -3.126  30.116  53.129  1.00  0.00     0.020 C 
ATOM      7  C   UNL     1      -1.648  29.885  53.485  1.00  0.00     0.103 C 
ATOM      8  C   UNL     1      -0.985  29.161  52.377  1.00  0.00     0.309 C 
ATOM      9  C   UNL     1      -0.866  27.603  54.079  1.00  0.00     0.177 C 
ATOM     10  O   UNL     1      -0.576  27.895  52.725  1.00  0.00    -0.462 OA
ATOM     11  O   UNL     1      -0.800  29.644  51.229  1.00  0.00    -0.252 OA
ATOM     12  C   UNL     1       0.398  27.067  54.753  1.00  0.00     0.053 C 
ENDBRANCH   4   5
ENDBRANCH   3   4
BRANCH   3  13
ATOM     13  O   UNL     1      -4.114  30.183  56.894  1.00  0.00    -0.390 OA
ATOM     14  H   UNL     1      -4.617  29.814  56.122  1.00  0.00     0.211 HD
ENDBRANCH   3  13
ENDBRANCH   1   3
BRANCH   1  15
ATOM     15  C   UNL     1      -2.665  30.539  59.242  1.00  0.00     0.032 C 
ATOM     16  C   UNL     1      -2.959  29.714  60.507  1.00  0.00     0.010 C 
ATOM     17  C   UNL     1      -1.986  31.873  59.773  1.00  0.00     0.006 C 
ATOM     18  C   UNL     1      -2.031  30.194  61.615  1.00  0.00     0.041 C 
ATOM     19  C   UNL     1      -1.281  31.463  61.129  1.00  0.00     0.092 C 
ATOM     20  C   UNL     1      -3.102  32.974  59.984  1.00  0.00     0.011 C 
ATOM     21  C   UNL     1      -0.968  32.516  58.787  1.00  0.00     0.015 C 
ATOM     22  C   UNL     1      -1.344  32.566  62.214  1.00  0.00    -0.031 C 
ATOM     23  C   UNL     1      -3.681  33.022  61.394  1.00  0.00     0.009 C 
ATOM     24  C   UNL     1      -2.570  33.445  62.372  1.00  0.00     0.025 C 
ATOM     25  C   UNL     1      -0.306  32.828  63.026  1.00  0.00     0.050 C 
ATOM     26  C   UNL     1      -3.007  33.621  63.880  1.00  0.00    -0.013 C 
ATOM     27  C   UNL     1      -0.428  33.823  64.100  1.00  0.00     0.159 C 
ATOM     28  C   UNL     1      -1.768  34.108  64.748  1.00  0.00     0.070 C 
ATOM     29  C   UNL     1      -3.558  32.290  64.470  1.00  0.00     0.042 C 
ATOM     30  C   UNL     1      -4.125  34.704  63.923  1.00  0.00     0.013 C 
ATOM     31  O   UNL     1       0.612  34.377  64.546  1.00  0.00    -0.295 OA
ATOM     32  C   UNL     1      -1.721  33.498  66.177  1.00  0.00     0.047 C 
ATOM     33  C   UNL     1      -4.035  32.411  65.936  1.00  0.00     0.143 C 
ATOM     34  C   UNL     1      -3.112  33.320  66.800  1.00  0.00     0.143 C 
BRANCH  19  35
ATOM     35  O   UNL     1       0.071  31.142  60.857  1.00  0.00    -0.385 OA
ATOM     36  H   UNL     1       0.484  31.860  60.309  1.00  0.00     0.211 HD
ENDBRANCH  19  35
BRANCH  33  37
ATOM     37  O   UNL     1      -4.125  31.117  66.477  1.00  0.00    -0.390 OA
ATOM     38  H   UNL     1      -4.929  30.689  66.083  1.00  0.00     0.211 HD
ENDBRANCH  33  37
BRANCH  34  39
ATOM     39  O   UNL     1      -3.013  32.851  68.125  1.00  0.00    -0.390 OA
ATOM     40  H   UNL     1      -3.366  31.924  68.149  1.00  0.00     0.211 HD
ENDBRANCH  34  39
ENDBRANCH   1  15
BRANCH   1  41
ATOM     41  O   UNL     1      -0.668  30.113  57.916  1.00  0.00    -0.387 OA
ATOM     42  H   UNL     1      -0.511  30.367  56.970  1.00  0.00     0.211 HD
ENDBRANCH   1  41
TORSDOF 9
ENDMDL
