MODEL 1
REMARK VINA RESULT:    -2.808      0.000      0.000
REMARK INTER + INTRA:          -3.346
REMARK INTER:                  -3.300
REMARK INTRA:                  -0.046
REMARK UNBOUND:                -0.046
REMARK SMILES O=C([O-])CCC(=O)[O-]
REMARK SMILES IDX 4 1 2 2 1 3 3 4 5 5 6 6 7 7 8 8
REMARK H PARENT
REMARK Flexibility Score: inf
ROOT
ATOM      1  C   UNL     1      15.681  -9.451  13.836  1.00  0.00     0.059 C 
ENDROOT
BRANCH   1   2
ATOM      2  C   UNL     1      15.952  -9.344  15.304  1.00  0.00     0.042 C 
ATOM      3  O   UNL     1      15.046  -9.612  16.137  1.00  0.00    -0.550 OA
ATOM      4  O   UNL     1      17.218  -8.989  15.755  1.00  0.00    -0.550 OA
ENDBRANCH   1   2
BRANCH   1   5
ATOM      5  C   UNL     1      16.945  -9.827  13.054  1.00  0.00     0.059 C 
BRANCH   5   6
ATOM      6  C   UNL     1      17.061  -9.043  11.782  1.00  0.00     0.042 C 
ATOM      7  O   UNL     1      18.078  -8.335  11.564  1.00  0.00    -0.550 OA
ATOM      8  O   UNL     1      16.025  -9.063  10.857  1.00  0.00    -0.550 OA
ENDBRANCH   5   6
ENDBRANCH   1   5
TORSDOF 3
ENDMDL
MODEL 2
REMARK VINA RESULT:    -2.760      0.692      1.195
REMARK INTER + INTRA:          -3.290
REMARK INTER:                  -3.251
REMARK INTRA:                  -0.038
REMARK UNBOUND:                -0.046
REMARK SMILES O=C([O-])CCC(=O)[O-]
REMARK SMILES IDX 4 1 2 2 1 3 3 4 5 5 6 6 7 7 8 8
REMARK H PARENT
REMARK Flexibility Score: inf
ROOT
ATOM      1  C   UNL     1      15.909  -9.506  13.581  1.00  0.00     0.059 C 
ENDROOT
BRANCH   1   2
ATOM      2  C   UNL     1      16.131  -9.303  15.048  1.00  0.00     0.042 C 
ATOM      3  O   UNL     1      15.171  -9.415  15.855  1.00  0.00    -0.550 OA
ATOM      4  O   UNL     1      17.405  -9.030  15.528  1.00  0.00    -0.550 OA
ENDBRANCH   1   2
BRANCH   1   5
ATOM      5  C   UNL     1      17.213  -9.368  12.787  1.00  0.00     0.059 C 
BRANCH   5   6
ATOM      6  C   UNL     1      16.955  -9.270  11.315  1.00  0.00     0.042 C 
ATOM      7  O   UNL     1      15.799  -9.014  10.888  1.00  0.00    -0.550 OA
ATOM      8  O   UNL     1      17.985  -9.504  10.413  1.00  0.00    -0.550 OA
ENDBRANCH   5   6
ENDBRANCH   1   5
TORSDOF 3
ENDMDL
MODEL 3
REMARK VINA RESULT:    -2.509      1.808      4.464
REMARK INTER + INTRA:          -2.994
REMARK INTER:                  -2.931
REMARK INTRA:                  -0.063
REMARK UNBOUND:                -0.046
REMARK SMILES O=C([O-])CCC(=O)[O-]
REMARK SMILES IDX 4 1 2 2 1 3 3 4 5 5 6 6 7 7 8 8
REMARK H PARENT
REMARK Flexibility Score: inf
ROOT
ATOM      1  C   UNL     1      16.859 -10.040  10.979  1.00  0.00     0.059 C 
ENDROOT
BRANCH   1   2
ATOM      2  C   UNL     1      18.225  -9.749  10.441  1.00  0.00     0.042 C 
ATOM      3  O   UNL     1      19.089  -9.196  11.172  1.00  0.00    -0.550 OA
ATOM      4  O   UNL     1      18.559 -10.125   9.146  1.00  0.00    -0.550 OA
ENDBRANCH   1   2
BRANCH   1   5
ATOM      5  C   UNL     1      16.376  -8.934  11.925  1.00  0.00     0.059 C 
BRANCH   5   6
ATOM      6  C   UNL     1      16.401  -9.380  13.354  1.00  0.00     0.042 C 
ATOM      7  O   UNL     1      15.341  -9.395  14.033  1.00  0.00    -0.550 OA
ATOM      8  O   UNL     1      17.604  -9.741  13.949  1.00  0.00    -0.550 OA
ENDBRANCH   5   6
ENDBRANCH   1   5
TORSDOF 3
ENDMDL
MODEL 4
REMARK VINA RESULT:    -2.262     23.606     24.543
REMARK INTER + INTRA:          -2.705
REMARK INTER:                  -2.591
REMARK INTRA:                  -0.114
REMARK UNBOUND:                -0.046
REMARK SMILES O=C([O-])CCC(=O)[O-]
REMARK SMILES IDX 4 1 2 2 1 3 3 4 5 5 6 6 7 7 8 8
REMARK H PARENT
REMARK Flexibility Score: inf
ROOT
ATOM      1  C   UNL     1       0.824   5.301   4.502  1.00  0.00     0.059 C 
ENDROOT
BRANCH   1   2
ATOM      2  C   UNL     1      -0.452   4.683   4.019  1.00  0.00     0.042 C 
ATOM      3  O   UNL     1      -0.899   4.966   2.876  1.00  0.00    -0.550 OA
ATOM      4  O   UNL     1      -1.125   3.764   4.813  1.00  0.00    -0.550 OA
ENDBRANCH   1   2
BRANCH   1   5
ATOM      5  C   UNL     1       1.244   6.487   3.626  1.00  0.00     0.059 C 
BRANCH   5   6
ATOM      6  C   UNL     1       0.723   7.784   4.166  1.00  0.00     0.042 C 
ATOM      7  O   UNL     1      -0.265   8.345   3.626  1.00  0.00    -0.550 OA
ATOM      8  O   UNL     1       1.358   8.393   5.241  1.00  0.00    -0.550 OA
ENDBRANCH   5   6
ENDBRANCH   1   5
TORSDOF 3
ENDMDL
MODEL 5
REMARK VINA RESULT:    -2.144     22.892     23.830
REMARK INTER + INTRA:          -2.566
REMARK INTER:                  -2.532
REMARK INTRA:                  -0.034
REMARK UNBOUND:                -0.046
REMARK SMILES O=C([O-])CCC(=O)[O-]
REMARK SMILES IDX 4 1 2 2 1 3 3 4 5 5 6 6 7 7 8 8
REMARK H PARENT
REMARK Flexibility Score: inf
ROOT
ATOM      1  C   UNL     1       0.909   5.412   4.204  1.00  0.00     0.059 C 
ENDROOT
BRANCH   1   2
ATOM      2  C   UNL     1      -0.486   4.931   3.947  1.00  0.00     0.042 C 
ATOM      3  O   UNL     1      -1.070   5.228   2.872  1.00  0.00    -0.550 OA
ATOM      4  O   UNL     1      -1.125   4.120   4.877  1.00  0.00    -0.550 OA
ENDBRANCH   1   2
BRANCH   1   5
ATOM      5  C   UNL     1       1.347   6.454   3.168  1.00  0.00     0.059 C 
BRANCH   5   6
ATOM      6  C   UNL     1       2.768   6.877   3.377  1.00  0.00     0.042 C 
ATOM      7  O   UNL     1       3.054   8.095   3.515  1.00  0.00    -0.550 OA
ATOM      8  O   UNL     1       3.782   5.928   3.378  1.00  0.00    -0.550 OA
ENDBRANCH   5   6
ENDBRANCH   1   5
TORSDOF 3
ENDMDL
MODEL 6
REMARK VINA RESULT:    -2.116     21.829     22.839
REMARK INTER + INTRA:          -2.533
REMARK INTER:                  -2.412
REMARK INTRA:                  -0.121
REMARK UNBOUND:                -0.046
REMARK SMILES O=C([O-])CCC(=O)[O-]
REMARK SMILES IDX 4 1 2 2 1 3 3 4 5 5 6 6 7 7 8 8
REMARK H PARENT
REMARK Flexibility Score: inf
ROOT
ATOM      1  C   UNL     1       3.217   6.438   2.579  1.00  0.00     0.059 C 
ENDROOT
BRANCH   1   2
ATOM      2  C   UNL     1       1.984   6.728   3.376  1.00  0.00     0.042 C 
ATOM      3  O   UNL     1       1.013   5.925   3.356  1.00  0.00    -0.550 OA
ATOM      4  O   UNL     1       1.921   7.864   4.174  1.00  0.00    -0.550 OA
ENDBRANCH   1   2
BRANCH   1   5
ATOM      5  C   UNL     1       4.267   5.694   3.411  1.00  0.00     0.059 C 
BRANCH   5   6
ATOM      6  C   UNL     1       5.409   6.587   3.787  1.00  0.00     0.042 C 
ATOM      7  O   UNL     1       6.537   6.433   3.251  1.00  0.00    -0.550 OA
ATOM      8  O   UNL     1       5.236   7.564   4.759  1.00  0.00    -0.550 OA
ENDBRANCH   5   6
ENDBRANCH   1   5
TORSDOF 3
ENDMDL
MODEL 7
REMARK VINA RESULT:    -2.101     22.663     23.724
REMARK INTER + INTRA:          -2.516
REMARK INTER:                  -2.436
REMARK INTRA:                  -0.080
REMARK UNBOUND:                -0.046
REMARK SMILES O=C([O-])CCC(=O)[O-]
REMARK SMILES IDX 4 1 2 2 1 3 3 4 5 5 6 6 7 7 8 8
REMARK H PARENT
REMARK Flexibility Score: inf
ROOT
ATOM      1  C   UNL     1       1.897   6.620   2.771  1.00  0.00     0.059 C 
ENDROOT
BRANCH   1   2
ATOM      2  C   UNL     1       3.247   6.633   3.420  1.00  0.00     0.042 C 
ATOM      3  O   UNL     1       3.923   5.573   3.496  1.00  0.00    -0.550 OA
ATOM      4  O   UNL     1       3.776   7.823   3.904  1.00  0.00    -0.550 OA
ENDBRANCH   1   2
BRANCH   1   5
ATOM      5  C   UNL     1       0.771   6.700   3.807  1.00  0.00     0.059 C 
BRANCH   5   6
ATOM      6  C   UNL     1       0.042   5.397   3.931  1.00  0.00     0.042 C 
ATOM      7  O   UNL     1      -0.901   5.120   3.145  1.00  0.00    -0.550 OA
ATOM      8  O   UNL     1       0.379   4.507   4.943  1.00  0.00    -0.550 OA
ENDBRANCH   5   6
ENDBRANCH   1   5
TORSDOF 3
ENDMDL
