MODEL 1
REMARK VINA RESULT:    -3.113      0.000      0.000
REMARK INTER + INTRA:          -7.866
REMARK INTER:                  -5.842
REMARK INTRA:                  -2.024
REMARK UNBOUND:                -2.024
REMARK SMILES O=C([O-])CCCCCCCCCCCCCCC(=O)[O-]
REMARK SMILES IDX 10 1 9 2 8 3 7 4 6 5 5 6 4 7 2 8 1 9 3 10 11 11 12 12 13 13
REMARK SMILES IDX 14 14 15 15 16 16 17 17 18 18 19 19 20 20
REMARK H PARENT
REMARK Flexibility Score: inf
ROOT
ATOM      1  C   UNL     1     145.044 141.982 145.388  1.00  0.00     0.000 C 
ENDROOT
BRANCH   1   2
ATOM      2  C   UNL     1     144.747 143.469 145.649  1.00  0.00     0.000 C 
BRANCH   2   3
ATOM      3  C   UNL     1     143.710 144.047 144.672  1.00  0.00     0.000 C 
BRANCH   3   4
ATOM      4  C   UNL     1     144.332 144.991 143.633  1.00  0.00     0.000 C 
BRANCH   4   5
ATOM      5  C   UNL     1     144.278 144.377 142.229  1.00  0.00     0.000 C 
BRANCH   5   6
ATOM      6  C   UNL     1     145.663 144.380 141.572  1.00  0.00     0.006 C 
BRANCH   6   7
ATOM      7  C   UNL     1     146.583 143.343 142.223  1.00  0.00     0.053 C 
BRANCH   7   8
ATOM      8  C   UNL     1     147.573 142.824 141.228  1.00  0.00     0.041 C 
ATOM      9  O   UNL     1     148.365 141.899 141.546  1.00  0.00    -0.550 OA
ATOM     10  O   UNL     1     147.584 143.326 139.933  1.00  0.00    -0.550 OA
ENDBRANCH   7   8
ENDBRANCH   6   7
ENDBRANCH   5   6
ENDBRANCH   4   5
ENDBRANCH   3   4
ENDBRANCH   2   3
ENDBRANCH   1   2
BRANCH   1  11
ATOM     11  C   UNL     1     144.093 141.370 144.344  1.00  0.00     0.000 C 
BRANCH  11  12
ATOM     12  C   UNL     1     143.579 139.980 144.761  1.00  0.00     0.000 C 
BRANCH  12  13
ATOM     13  C   UNL     1     142.450 140.054 145.802  1.00  0.00     0.000 C 
BRANCH  13  14
ATOM     14  C   UNL     1     141.297 140.972 145.364  1.00  0.00     0.000 C 
BRANCH  14  15
ATOM     15  C   UNL     1     141.045 142.123 146.354  1.00  0.00     0.000 C 
BRANCH  15  16
ATOM     16  C   UNL     1     141.888 142.030 147.643  1.00  0.00     0.006 C 
BRANCH  16  17
ATOM     17  C   UNL     1     141.622 143.204 148.595  1.00  0.00     0.053 C 
BRANCH  17  18
ATOM     18  C   UNL     1     141.248 142.702 149.954  1.00  0.00     0.041 C 
ATOM     19  O   UNL     1     141.344 141.476 150.224  1.00  0.00    -0.550 OA
ATOM     20  O   UNL     1     140.837 143.593 150.937  1.00  0.00    -0.550 OA
ENDBRANCH  17  18
ENDBRANCH  16  17
ENDBRANCH  15  16
ENDBRANCH  14  15
ENDBRANCH  13  14
ENDBRANCH  12  13
ENDBRANCH  11  12
ENDBRANCH   1  11
TORSDOF 15
ENDMDL
MODEL 2
REMARK VINA RESULT:    -2.999     13.461     14.642
REMARK INTER + INTRA:          -7.654
REMARK INTER:                  -5.006
REMARK INTRA:                  -2.647
REMARK UNBOUND:                -2.024
REMARK SMILES O=C([O-])CCCCCCCCCCCCCCC(=O)[O-]
REMARK SMILES IDX 10 1 9 2 8 3 7 4 6 5 5 6 4 7 2 8 1 9 3 10 11 11 12 12 13 13
REMARK SMILES IDX 14 14 15 15 16 16 17 17 18 18 19 19 20 20
REMARK H PARENT
REMARK Flexibility Score: inf
ROOT
ATOM      1  C   UNL     1     155.641 143.827 153.442  1.00  0.00     0.000 C 
ENDROOT
BRANCH   1   2
ATOM      2  C   UNL     1     155.298 143.588 154.923  1.00  0.00     0.000 C 
BRANCH   2   3
ATOM      3  C   UNL     1     156.366 142.756 155.652  1.00  0.00     0.000 C 
BRANCH   3   4
ATOM      4  C   UNL     1     157.299 142.010 154.687  1.00  0.00     0.000 C 
BRANCH   4   5
ATOM      5  C   UNL     1     157.023 140.502 154.709  1.00  0.00     0.000 C 
BRANCH   5   6
ATOM      6  C   UNL     1     157.022 139.921 153.290  1.00  0.00     0.006 C 
BRANCH   6   7
ATOM      7  C   UNL     1     157.660 140.895 152.296  1.00  0.00     0.053 C 
BRANCH   7   8
ATOM      8  C   UNL     1     157.351 140.485 150.890  1.00  0.00     0.041 C 
ATOM      9  O   UNL     1     158.285 140.274 150.072  1.00  0.00    -0.550 OA
ATOM     10  O   UNL     1     156.034 140.285 150.499  1.00  0.00    -0.550 OA
ENDBRANCH   7   8
ENDBRANCH   6   7
ENDBRANCH   5   6
ENDBRANCH   4   5
ENDBRANCH   3   4
ENDBRANCH   2   3
ENDBRANCH   1   2
BRANCH   1  11
ATOM     11  C   UNL     1     154.643 143.144 152.491  1.00  0.00     0.000 C 
BRANCH  11  12
ATOM     12  C   UNL     1     153.562 142.349 153.246  1.00  0.00     0.000 C 
BRANCH  12  13
ATOM     13  C   UNL     1     153.353 140.938 152.671  1.00  0.00     0.000 C 
BRANCH  13  14
ATOM     14  C   UNL     1     153.152 139.875 153.763  1.00  0.00     0.000 C 
BRANCH  14  15
ATOM     15  C   UNL     1     153.490 140.397 155.171  1.00  0.00     0.000 C 
BRANCH  15  16
ATOM     16  C   UNL     1     152.258 140.543 156.090  1.00  0.00     0.006 C 
BRANCH  16  17
ATOM     17  C   UNL     1     152.024 142.000 156.515  1.00  0.00     0.053 C 
BRANCH  17  18
ATOM     18  C   UNL     1     152.540 142.231 157.900  1.00  0.00     0.041 C 
ATOM     19  O   UNL     1     153.744 142.554 158.080  1.00  0.00    -0.550 OA
ATOM     20  O   UNL     1     151.683 142.137 158.989  1.00  0.00    -0.550 OA
ENDBRANCH  17  18
ENDBRANCH  16  17
ENDBRANCH  15  16
ENDBRANCH  14  15
ENDBRANCH  13  14
ENDBRANCH  12  13
ENDBRANCH  11  12
ENDBRANCH   1  11
TORSDOF 15
ENDMDL
MODEL 3
REMARK VINA RESULT:    -2.992      3.550      5.670
REMARK INTER + INTRA:          -7.639
REMARK INTER:                  -5.945
REMARK INTRA:                  -1.694
REMARK UNBOUND:                -2.024
REMARK SMILES O=C([O-])CCCCCCCCCCCCCCC(=O)[O-]
REMARK SMILES IDX 10 1 9 2 8 3 7 4 6 5 5 6 4 7 2 8 1 9 3 10 11 11 12 12 13 13
REMARK SMILES IDX 14 14 15 15 16 16 17 17 18 18 19 19 20 20
REMARK H PARENT
REMARK Flexibility Score: inf
ROOT
ATOM      1  C   UNL     1     141.082 142.110 145.900  1.00  0.00     0.000 C 
ENDROOT
BRANCH   1   2
ATOM      2  C   UNL     1     141.768 140.813 145.437  1.00  0.00     0.000 C 
BRANCH   2   3
ATOM      3  C   UNL     1     143.284 140.820 145.698  1.00  0.00     0.000 C 
BRANCH   3   4
ATOM      4  C   UNL     1     144.107 140.996 144.413  1.00  0.00     0.000 C 
BRANCH   4   5
ATOM      5  C   UNL     1     144.875 142.324 144.428  1.00  0.00     0.000 C 
BRANCH   5   6
ATOM      6  C   UNL     1     144.458 143.214 143.252  1.00  0.00     0.006 C 
BRANCH   6   7
ATOM      7  C   UNL     1     145.634 144.060 142.757  1.00  0.00     0.053 C 
BRANCH   7   8
ATOM      8  C   UNL     1     145.905 143.785 141.311  1.00  0.00     0.041 C 
ATOM      9  O   UNL     1     145.369 144.496 140.420  1.00  0.00    -0.550 OA
ATOM     10  O   UNL     1     146.790 142.778 140.949  1.00  0.00    -0.550 OA
ENDBRANCH   7   8
ENDBRANCH   6   7
ENDBRANCH   5   6
ENDBRANCH   4   5
ENDBRANCH   3   4
ENDBRANCH   2   3
ENDBRANCH   1   2
BRANCH   1  11
ATOM     11  C   UNL     1     141.881 142.837 146.996  1.00  0.00     0.000 C 
BRANCH  11  12
ATOM     12  C   UNL     1     141.731 144.368 146.915  1.00  0.00     0.000 C 
BRANCH  12  13
ATOM     13  C   UNL     1     142.776 145.017 145.993  1.00  0.00     0.000 C 
BRANCH  13  14
ATOM     14  C   UNL     1     142.151 145.656 144.743  1.00  0.00     0.000 C 
BRANCH  14  15
ATOM     15  C   UNL     1     140.994 146.614 145.078  1.00  0.00     0.000 C 
BRANCH  15  16
ATOM     16  C   UNL     1     140.281 147.184 143.834  1.00  0.00     0.006 C 
BRANCH  16  17
ATOM     17  C   UNL     1     141.144 147.072 142.570  1.00  0.00     0.053 C 
BRANCH  17  18
ATOM     18  C   UNL     1     141.635 148.421 142.149  1.00  0.00     0.041 C 
ATOM     19  O   UNL     1     141.703 149.359 142.987  1.00  0.00    -0.550 OA
ATOM     20  O   UNL     1     142.061 148.633 140.844  1.00  0.00    -0.550 OA
ENDBRANCH  17  18
ENDBRANCH  16  17
ENDBRANCH  15  16
ENDBRANCH  14  15
ENDBRANCH  13  14
ENDBRANCH  12  13
ENDBRANCH  11  12
ENDBRANCH   1  11
TORSDOF 15
ENDMDL
MODEL 4
REMARK VINA RESULT:    -2.967      3.037      4.119
REMARK INTER + INTRA:          -7.592
REMARK INTER:                  -5.527
REMARK INTRA:                  -2.065
REMARK UNBOUND:                -2.024
REMARK SMILES O=C([O-])CCCCCCCCCCCCCCC(=O)[O-]
REMARK SMILES IDX 10 1 9 2 8 3 7 4 6 5 5 6 4 7 2 8 1 9 3 10 11 11 12 12 13 13
REMARK SMILES IDX 14 14 15 15 16 16 17 17 18 18 19 19 20 20
REMARK H PARENT
REMARK Flexibility Score: inf
ROOT
ATOM      1  C   UNL     1     144.659 141.198 145.394  1.00  0.00     0.000 C 
ENDROOT
BRANCH   1   2
ATOM      2  C   UNL     1     144.762 142.514 144.604  1.00  0.00     0.000 C 
BRANCH   2   3
ATOM      3  C   UNL     1     144.288 143.730 145.416  1.00  0.00     0.000 C 
BRANCH   3   4
ATOM      4  C   UNL     1     143.275 144.597 144.654  1.00  0.00     0.000 C 
BRANCH   4   5
ATOM      5  C   UNL     1     142.050 144.905 145.523  1.00  0.00     0.000 C 
BRANCH   5   6
ATOM      6  C   UNL     1     141.381 146.214 145.087  1.00  0.00     0.006 C 
BRANCH   6   7
ATOM      7  C   UNL     1     142.088 146.815 143.869  1.00  0.00     0.053 C 
BRANCH   7   8
ATOM      8  C   UNL     1     141.111 147.058 142.762  1.00  0.00     0.041 C 
ATOM      9  O   UNL     1     141.383 146.700 141.586  1.00  0.00    -0.550 OA
ATOM     10  O   UNL     1     139.876 147.630 143.040  1.00  0.00    -0.550 OA
ENDBRANCH   7   8
ENDBRANCH   6   7
ENDBRANCH   5   6
ENDBRANCH   4   5
ENDBRANCH   3   4
ENDBRANCH   2   3
ENDBRANCH   1   2
BRANCH   1  11
ATOM     11  C   UNL     1     143.690 140.197 144.740  1.00  0.00     0.000 C 
BRANCH  11  12
ATOM     12  C   UNL     1     142.412 139.986 145.573  1.00  0.00     0.000 C 
BRANCH  12  13
ATOM     13  C   UNL     1     141.381 141.108 145.369  1.00  0.00     0.000 C 
BRANCH  13  14
ATOM     14  C   UNL     1     140.982 141.795 146.685  1.00  0.00     0.000 C 
BRANCH  14  15
ATOM     15  C   UNL     1     141.927 141.446 147.849  1.00  0.00     0.000 C 
BRANCH  15  16
ATOM     16  C   UNL     1     142.539 142.682 148.542  1.00  0.00     0.006 C 
BRANCH  16  17
ATOM     17  C   UNL     1     141.465 143.671 149.015  1.00  0.00     0.053 C 
BRANCH  17  18
ATOM     18  C   UNL     1     141.211 143.510 150.480  1.00  0.00     0.041 C 
ATOM     19  O   UNL     1     141.506 144.438 151.279  1.00  0.00    -0.550 OA
ATOM     20  O   UNL     1     140.607 142.355 150.961  1.00  0.00    -0.550 OA
ENDBRANCH  17  18
ENDBRANCH  16  17
ENDBRANCH  15  16
ENDBRANCH  14  15
ENDBRANCH  13  14
ENDBRANCH  12  13
ENDBRANCH  11  12
ENDBRANCH   1  11
TORSDOF 15
ENDMDL
MODEL 5
REMARK VINA RESULT:    -2.938      2.484      7.738
REMARK INTER + INTRA:          -7.539
REMARK INTER:                  -5.373
REMARK INTRA:                  -2.166
REMARK UNBOUND:                -2.024
REMARK SMILES O=C([O-])CCCCCCCCCCCCCCC(=O)[O-]
REMARK SMILES IDX 10 1 9 2 8 3 7 4 6 5 5 6 4 7 2 8 1 9 3 10 11 11 12 12 13 13
REMARK SMILES IDX 14 14 15 15 16 16 17 17 18 18 19 19 20 20
REMARK H PARENT
REMARK Flexibility Score: inf
ROOT
ATOM      1  C   UNL     1     143.771 143.783 147.207  1.00  0.00     0.000 C 
ENDROOT
BRANCH   1   2
ATOM      2  C   UNL     1     143.785 142.865 148.442  1.00  0.00     0.000 C 
BRANCH   2   3
ATOM      3  C   UNL     1     144.533 141.546 148.190  1.00  0.00     0.000 C 
BRANCH   3   4
ATOM      4  C   UNL     1     143.894 140.352 148.917  1.00  0.00     0.000 C 
BRANCH   4   5
ATOM      5  C   UNL     1     144.652 140.024 150.209  1.00  0.00     0.000 C 
BRANCH   5   6
ATOM      6  C   UNL     1     143.739 140.161 151.432  1.00  0.00     0.006 C 
BRANCH   6   7
ATOM      7  C   UNL     1     143.776 141.586 151.991  1.00  0.00     0.053 C 
BRANCH   7   8
ATOM      8  C   UNL     1     142.412 142.008 152.439  1.00  0.00     0.041 C 
ATOM      9  O   UNL     1     142.232 142.425 153.614  1.00  0.00    -0.550 OA
ATOM     10  O   UNL     1     141.351 141.991 151.544  1.00  0.00    -0.550 OA
ENDBRANCH   7   8
ENDBRANCH   6   7
ENDBRANCH   5   6
ENDBRANCH   4   5
ENDBRANCH   3   4
ENDBRANCH   2   3
ENDBRANCH   1   2
BRANCH   1  11
ATOM     11  C   UNL     1     142.468 143.660 146.399  1.00  0.00     0.000 C 
BRANCH  11  12
ATOM     12  C   UNL     1     141.338 142.992 147.204  1.00  0.00     0.000 C 
BRANCH  12  13
ATOM     13  C   UNL     1     140.922 141.631 146.625  1.00  0.00     0.000 C 
BRANCH  13  14
ATOM     14  C   UNL     1     141.713 141.256 145.361  1.00  0.00     0.000 C 
BRANCH  14  15
ATOM     15  C   UNL     1     142.512 139.950 145.525  1.00  0.00     0.000 C 
BRANCH  15  16
ATOM     16  C   UNL     1     143.813 139.912 144.696  1.00  0.00     0.006 C 
BRANCH  16  17
ATOM     17  C   UNL     1     144.346 141.318 144.390  1.00  0.00     0.053 C 
BRANCH  17  18
ATOM     18  C   UNL     1     145.841 141.312 144.338  1.00  0.00     0.041 C 
ATOM     19  O   UNL     1     146.503 140.738 145.243  1.00  0.00    -0.550 OA
ATOM     20  O   UNL     1     146.505 141.901 143.269  1.00  0.00    -0.550 OA
ENDBRANCH  17  18
ENDBRANCH  16  17
ENDBRANCH  15  16
ENDBRANCH  14  15
ENDBRANCH  13  14
ENDBRANCH  12  13
ENDBRANCH  11  12
ENDBRANCH   1  11
TORSDOF 15
ENDMDL
MODEL 6
REMARK VINA RESULT:    -2.936      2.620      6.987
REMARK INTER + INTRA:          -7.534
REMARK INTER:                  -5.630
REMARK INTRA:                  -1.904
REMARK UNBOUND:                -2.024
REMARK SMILES O=C([O-])CCCCCCCCCCCCCCC(=O)[O-]
REMARK SMILES IDX 10 1 9 2 8 3 7 4 6 5 5 6 4 7 2 8 1 9 3 10 11 11 12 12 13 13
REMARK SMILES IDX 14 14 15 15 16 16 17 17 18 18 19 19 20 20
REMARK H PARENT
REMARK Flexibility Score: inf
ROOT
ATOM      1  C   UNL     1     143.517 140.163 146.536  1.00  0.00     0.000 C 
ENDROOT
BRANCH   1   2
ATOM      2  C   UNL     1     142.366 140.172 145.515  1.00  0.00     0.000 C 
BRANCH   2   3
ATOM      3  C   UNL     1     141.286 141.213 145.851  1.00  0.00     0.000 C 
BRANCH   3   4
ATOM      4  C   UNL     1     141.394 141.740 147.290  1.00  0.00     0.000 C 
BRANCH   4   5
ATOM      5  C   UNL     1     141.404 143.273 147.317  1.00  0.00     0.000 C 
BRANCH   5   6
ATOM      6  C   UNL     1     141.674 143.846 145.921  1.00  0.00     0.006 C 
BRANCH   6   7
ATOM      7  C   UNL     1     142.277 145.251 146.009  1.00  0.00     0.053 C 
BRANCH   7   8
ATOM      8  C   UNL     1     141.584 146.179 145.063  1.00  0.00     0.041 C 
ATOM      9  O   UNL     1     141.885 146.178 143.840  1.00  0.00    -0.550 OA
ATOM     10  O   UNL     1     140.567 147.006 145.522  1.00  0.00    -0.550 OA
ENDBRANCH   7   8
ENDBRANCH   6   7
ENDBRANCH   5   6
ENDBRANCH   4   5
ENDBRANCH   3   4
ENDBRANCH   2   3
ENDBRANCH   1   2
BRANCH   1  11
ATOM     11  C   UNL     1     144.896 140.288 145.865  1.00  0.00     0.000 C 
BRANCH  11  12
ATOM     12  C   UNL     1     145.344 141.754 145.712  1.00  0.00     0.000 C 
BRANCH  12  13
ATOM     13  C   UNL     1     145.537 142.164 144.243  1.00  0.00     0.000 C 
BRANCH  13  14
ATOM     14  C   UNL     1     144.328 142.925 143.675  1.00  0.00     0.000 C 
BRANCH  14  15
ATOM     15  C   UNL     1     144.703 144.313 143.125  1.00  0.00     0.000 C 
BRANCH  15  16
ATOM     16  C   UNL     1     144.854 144.350 141.589  1.00  0.00     0.006 C 
BRANCH  16  17
ATOM     17  C   UNL     1     146.220 144.900 141.155  1.00  0.00     0.053 C 
BRANCH  17  18
ATOM     18  C   UNL     1     147.283 143.861 141.329  1.00  0.00     0.041 C 
ATOM     19  O   UNL     1     147.059 142.666 141.001  1.00  0.00    -0.550 OA
ATOM     20  O   UNL     1     148.536 144.219 141.810  1.00  0.00    -0.550 OA
ENDBRANCH  17  18
ENDBRANCH  16  17
ENDBRANCH  15  16
ENDBRANCH  14  15
ENDBRANCH  13  14
ENDBRANCH  12  13
ENDBRANCH  11  12
ENDBRANCH   1  11
TORSDOF 15
ENDMDL
MODEL 7
REMARK VINA RESULT:    -2.898      2.570      7.205
REMARK INTER + INTRA:          -7.463
REMARK INTER:                  -5.392
REMARK INTRA:                  -2.071
REMARK UNBOUND:                -2.024
REMARK SMILES O=C([O-])CCCCCCCCCCCCCCC(=O)[O-]
REMARK SMILES IDX 10 1 9 2 8 3 7 4 6 5 5 6 4 7 2 8 1 9 3 10 11 11 12 12 13 13
REMARK SMILES IDX 14 14 15 15 16 16 17 17 18 18 19 19 20 20
REMARK H PARENT
REMARK Flexibility Score: inf
ROOT
ATOM      1  C   UNL     1     142.315 147.589 142.895  1.00  0.00     0.000 C 
ENDROOT
BRANCH   1   2
ATOM      2  C   UNL     1     140.992 147.508 143.676  1.00  0.00     0.000 C 
BRANCH   2   3
ATOM      3  C   UNL     1     141.035 146.467 144.807  1.00  0.00     0.000 C 
BRANCH   3   4
ATOM      4  C   UNL     1     142.382 146.445 145.544  1.00  0.00     0.000 C 
BRANCH   4   5
ATOM      5  C   UNL     1     142.559 145.140 146.330  1.00  0.00     0.000 C 
BRANCH   5   6
ATOM      6  C   UNL     1     141.880 143.969 145.611  1.00  0.00     0.006 C 
BRANCH   6   7
ATOM      7  C   UNL     1     142.250 142.633 146.262  1.00  0.00     0.053 C 
BRANCH   7   8
ATOM      8  C   UNL     1     141.453 141.519 145.661  1.00  0.00     0.041 C 
ATOM      9  O   UNL     1     142.023 140.454 145.304  1.00  0.00    -0.550 OA
ATOM     10  O   UNL     1     140.074 141.635 145.545  1.00  0.00    -0.550 OA
ENDBRANCH   7   8
ENDBRANCH   6   7
ENDBRANCH   5   6
ENDBRANCH   4   5
ENDBRANCH   3   4
ENDBRANCH   2   3
ENDBRANCH   1   2
BRANCH   1  11
ATOM     11  C   UNL     1     142.467 146.444 141.879  1.00  0.00     0.000 C 
BRANCH  11  12
ATOM     12  C   UNL     1     143.905 145.896 141.821  1.00  0.00     0.000 C 
BRANCH  12  13
ATOM     13  C   UNL     1     144.087 144.622 142.662  1.00  0.00     0.000 C 
BRANCH  13  14
ATOM     14  C   UNL     1     145.228 144.742 143.685  1.00  0.00     0.000 C 
BRANCH  14  15
ATOM     15  C   UNL     1     145.430 143.457 144.507  1.00  0.00     0.000 C 
BRANCH  15  16
ATOM     16  C   UNL     1     146.193 142.350 143.749  1.00  0.00     0.006 C 
BRANCH  16  17
ATOM     17  C   UNL     1     147.527 142.852 143.181  1.00  0.00     0.053 C 
BRANCH  17  18
ATOM     18  C   UNL     1     147.626 142.539 141.721  1.00  0.00     0.041 C 
ATOM     19  O   UNL     1     148.589 141.853 141.285  1.00  0.00    -0.550 OA
ATOM     20  O   UNL     1     146.633 142.963 140.847  1.00  0.00    -0.550 OA
ENDBRANCH  17  18
ENDBRANCH  16  17
ENDBRANCH  15  16
ENDBRANCH  14  15
ENDBRANCH  13  14
ENDBRANCH  12  13
ENDBRANCH  11  12
ENDBRANCH   1  11
TORSDOF 15
ENDMDL
MODEL 8
REMARK VINA RESULT:    -2.878     14.353     17.192
REMARK INTER + INTRA:          -7.425
REMARK INTER:                  -5.604
REMARK INTRA:                  -1.821
REMARK UNBOUND:                -2.024
REMARK SMILES O=C([O-])CCCCCCCCCCCCCCC(=O)[O-]
REMARK SMILES IDX 10 1 9 2 8 3 7 4 6 5 5 6 4 7 2 8 1 9 3 10 11 11 12 12 13 13
REMARK SMILES IDX 14 14 15 15 16 16 17 17 18 18 19 19 20 20
REMARK H PARENT
REMARK Flexibility Score: inf
ROOT
ATOM      1  C   UNL     1     142.126 154.013 156.213  1.00  0.00     0.000 C 
ENDROOT
BRANCH   1   2
ATOM      2  C   UNL     1     143.131 153.734 157.344  1.00  0.00     0.000 C 
BRANCH   2   3
ATOM      3  C   UNL     1     142.444 153.446 158.689  1.00  0.00     0.000 C 
BRANCH   3   4
ATOM      4  C   UNL     1     143.440 153.071 159.797  1.00  0.00     0.000 C 
BRANCH   4   5
ATOM      5  C   UNL     1     144.865 153.499 159.425  1.00  0.00     0.000 C 
BRANCH   5   6
ATOM      6  C   UNL     1     145.247 154.808 160.125  1.00  0.00     0.006 C 
BRANCH   6   7
ATOM      7  C   UNL     1     146.425 155.487 159.420  1.00  0.00     0.053 C 
BRANCH   7   8
ATOM      8  C   UNL     1     146.027 156.839 158.920  1.00  0.00     0.041 C 
ATOM      9  O   UNL     1     145.742 157.007 157.705  1.00  0.00    -0.550 OA
ATOM     10  O   UNL     1     145.919 157.903 159.806  1.00  0.00    -0.550 OA
ENDBRANCH   7   8
ENDBRANCH   6   7
ENDBRANCH   5   6
ENDBRANCH   4   5
ENDBRANCH   3   4
ENDBRANCH   2   3
ENDBRANCH   1   2
BRANCH   1  11
ATOM     11  C   UNL     1     140.666 153.932 156.694  1.00  0.00     0.000 C 
BRANCH  11  12
ATOM     12  C   UNL     1     139.904 152.754 156.059  1.00  0.00     0.000 C 
BRANCH  12  13
ATOM     13  C   UNL     1     140.837 151.750 155.363  1.00  0.00     0.000 C 
BRANCH  13  14
ATOM     14  C   UNL     1     140.944 150.415 156.117  1.00  0.00     0.000 C 
BRANCH  14  15
ATOM     15  C   UNL     1     140.357 150.486 157.538  1.00  0.00     0.000 C 
BRANCH  15  16
ATOM     16  C   UNL     1     141.353 150.072 158.642  1.00  0.00     0.006 C 
BRANCH  16  17
ATOM     17  C   UNL     1     142.683 149.571 158.063  1.00  0.00     0.053 C 
BRANCH  17  18
ATOM     18  C   UNL     1     143.029 148.230 158.629  1.00  0.00     0.041 C 
ATOM     19  O   UNL     1     143.697 148.146 159.693  1.00  0.00    -0.550 OA
ATOM     20  O   UNL     1     142.577 147.073 158.008  1.00  0.00    -0.550 OA
ENDBRANCH  17  18
ENDBRANCH  16  17
ENDBRANCH  15  16
ENDBRANCH  14  15
ENDBRANCH  13  14
ENDBRANCH  12  13
ENDBRANCH  11  12
ENDBRANCH   1  11
TORSDOF 15
ENDMDL
MODEL 9
REMARK VINA RESULT:    -2.848      2.871      7.533
REMARK INTER + INTRA:          -7.369
REMARK INTER:                  -5.327
REMARK INTRA:                  -2.042
REMARK UNBOUND:                -2.024
REMARK SMILES O=C([O-])CCCCCCCCCCCCCCC(=O)[O-]
REMARK SMILES IDX 10 1 9 2 8 3 7 4 6 5 5 6 4 7 2 8 1 9 3 10 11 11 12 12 13 13
REMARK SMILES IDX 14 14 15 15 16 16 17 17 18 18 19 19 20 20
REMARK H PARENT
REMARK Flexibility Score: inf
ROOT
ATOM      1  C   UNL     1     141.352 140.996 145.492  1.00  0.00     0.000 C 
ENDROOT
BRANCH   1   2
ATOM      2  C   UNL     1     141.212 141.827 146.779  1.00  0.00     0.000 C 
BRANCH   2   3
ATOM      3  C   UNL     1     142.174 141.368 147.887  1.00  0.00     0.000 C 
BRANCH   3   4
ATOM      4  C   UNL     1     142.728 142.537 148.716  1.00  0.00     0.000 C 
BRANCH   4   5
ATOM      5  C   UNL     1     141.662 143.618 148.923  1.00  0.00     0.000 C 
BRANCH   5   6
ATOM      6  C   UNL     1     141.276 143.734 150.403  1.00  0.00     0.006 C 
BRANCH   6   7
ATOM      7  C   UNL     1     142.108 142.781 151.265  1.00  0.00     0.053 C 
BRANCH   7   8
ATOM      8  C   UNL     1     141.258 142.158 152.326  1.00  0.00     0.041 C 
ATOM      9  O   UNL     1     141.788 141.681 153.364  1.00  0.00    -0.550 OA
ATOM     10  O   UNL     1     139.875 142.151 152.194  1.00  0.00    -0.550 OA
ENDBRANCH   7   8
ENDBRANCH   6   7
ENDBRANCH   5   6
ENDBRANCH   4   5
ENDBRANCH   3   4
ENDBRANCH   2   3
ENDBRANCH   1   2
BRANCH   1  11
ATOM     11  C   UNL     1     142.461 139.934 145.597  1.00  0.00     0.000 C 
BRANCH  11  12
ATOM     12  C   UNL     1     143.608 140.182 144.600  1.00  0.00     0.000 C 
BRANCH  12  13
ATOM     13  C   UNL     1     144.587 141.266 145.081  1.00  0.00     0.000 C 
BRANCH  13  14
ATOM     14  C   UNL     1     144.941 142.277 143.979  1.00  0.00     0.000 C 
BRANCH  14  15
ATOM     15  C   UNL     1     143.998 143.493 143.962  1.00  0.00     0.000 C 
BRANCH  15  16
ATOM     16  C   UNL     1     143.716 144.080 145.361  1.00  0.00     0.006 C 
BRANCH  16  17
ATOM     17  C   UNL     1     142.422 144.904 145.394  1.00  0.00     0.053 C 
BRANCH  17  18
ATOM     18  C   UNL     1     142.567 146.141 144.566  1.00  0.00     0.041 C 
ATOM     19  O   UNL     1     141.679 146.449 143.728  1.00  0.00    -0.550 OA
ATOM     20  O   UNL     1     143.658 146.981 144.752  1.00  0.00    -0.550 OA
ENDBRANCH  17  18
ENDBRANCH  16  17
ENDBRANCH  15  16
ENDBRANCH  14  15
ENDBRANCH  13  14
ENDBRANCH  12  13
ENDBRANCH  11  12
ENDBRANCH   1  11
TORSDOF 15
ENDMDL
