MODEL 1
REMARK VINA RESULT:    -3.002      0.000      0.000
REMARK INTER + INTRA:          -3.839
REMARK INTER:                  -4.406
REMARK INTRA:                   0.567
REMARK UNBOUND:                 0.567
REMARK SMILES C=C1CC=CC(C)(C)CC=C(C)CCC1
REMARK SMILES IDX 2 1 1 2 15 3 14 4 13 5 11 6 12 7 10 8 3 10 4 11 5 12 6 13
REMARK SMILES IDX 7 14 8 15 9 16
REMARK H PARENT
REMARK Flexibility Score: 60.00
ROOT
ATOM      1  C   UNL     1      29.757   8.879  28.586  1.00  0.00    -0.074 C 
ATOM      2  C   UNL     1      30.224   8.177  29.636  1.00  0.00     0.008 C 
ENDROOT
BRANCH   1   3
ATOM      3  C   UNL     1      29.333   8.154  27.317  1.00  0.00     0.031 C 
BRANCH   3   4
ATOM      4  C   UNL     1      30.481   7.563  26.470  1.00  0.00     0.009 C 
BRANCH   4   5
ATOM      5  C   UNL     1      31.245   8.588  25.616  1.00  0.00     0.030 C 
BRANCH   5   6
ATOM      6  C   UNL     1      30.348   9.269  24.602  1.00  0.00    -0.077 C 
ATOM      7  C   UNL     1      29.841   8.465  23.432  1.00  0.00     0.039 C 
ATOM      8  C   UNL     1      30.016  10.576  24.672  1.00  0.00    -0.027 CG0
ATOM      9  G   UNL     1      30.461  11.511  25.779  1.00  0.00     0.000 G0
ENDBRANCH   5   6
ENDBRANCH   4   5
ENDBRANCH   3   4
ENDBRANCH   1   3
BRANCH   1  10
ATOM     10  C   UNL     1      29.358  10.335  28.772  1.00  0.00     0.057 C 
BRANCH  10  11
ATOM     11  C   UNL     1      28.177  10.755  27.925  1.00  0.00    -0.026 C 
ATOM     12  C   UNL     1      28.157  11.636  26.898  1.00  0.00    -0.024 C 
BRANCH  12  13
ATOM     13  C   UNL     1      29.319  12.444  26.307  1.00  0.00    -0.014 C 
ATOM     14  C   UNL     1      29.890  13.361  27.417  1.00  0.00     0.016 C 
ATOM     15  C   UNL     1      28.798  13.367  25.183  1.00  0.00     0.016 C 
BRANCH  13  16
ATOM     16  C   UNL     1      30.461  11.538  25.769  1.00  0.00     0.038 CG0
ATOM     17  G   UNL     1      30.008  10.592  24.675  1.00  0.00     0.000 G0
ENDBRANCH  13  16
ENDBRANCH  12  13
ENDBRANCH  10  11
ENDBRANCH   1  10
TORSDOF 0
ENDMDL
MODEL 2
REMARK VINA RESULT:    -2.977      1.704      2.605
REMARK INTER + INTRA:          -3.802
REMARK INTER:                  -4.434
REMARK INTRA:                   0.632
REMARK UNBOUND:                 0.567
REMARK SMILES C=C1CC=CC(C)(C)CC=C(C)CCC1
REMARK SMILES IDX 2 1 1 2 15 3 14 4 13 5 11 6 12 7 10 8 3 10 4 11 5 12 6 13
REMARK SMILES IDX 7 14 8 15 9 16
REMARK H PARENT
REMARK Flexibility Score: 60.00
ROOT
ATOM      1  C   UNL     1      30.522   9.588  30.685  1.00  0.00    -0.074 C 
ATOM      2  C   UNL     1      31.150   9.683  31.872  1.00  0.00     0.008 C 
ENDROOT
BRANCH   1   3
ATOM      3  C   UNL     1      29.904   8.264  30.258  1.00  0.00     0.031 C 
BRANCH   3   4
ATOM      4  C   UNL     1      30.885   7.227  29.670  1.00  0.00     0.009 C 
BRANCH   4   5
ATOM      5  C   UNL     1      31.122   7.351  28.155  1.00  0.00     0.030 C 
BRANCH   5   6
ATOM      6  C   UNL     1      29.824   7.374  27.374  1.00  0.00    -0.077 C 
ATOM      7  C   UNL     1      28.997   6.114  27.312  1.00  0.00     0.039 C 
ATOM      8  C   UNL     1      29.393   8.456  26.691  1.00  0.00    -0.027 CG0
ATOM      9  G   UNL     1      30.122   9.783  26.647  1.00  0.00     0.000 G0
ENDBRANCH   5   6
ENDBRANCH   4   5
ENDBRANCH   3   4
ENDBRANCH   1   3
BRANCH   1  10
ATOM     10  C   UNL     1      30.156  10.853  29.925  1.00  0.00     0.057 C 
BRANCH  10  11
ATOM     11  C   UNL     1      28.741  10.851  29.387  1.00  0.00    -0.026 C 
ATOM     12  C   UNL     1      28.338  10.922  28.097  1.00  0.00    -0.024 C 
BRANCH  12  13
ATOM     13  C   UNL     1      29.196  11.017  26.830  1.00  0.00    -0.014 C 
ATOM     14  C   UNL     1      30.069  12.293  26.926  1.00  0.00     0.016 C 
ATOM     15  C   UNL     1      28.287  11.185  25.592  1.00  0.00     0.016 C 
BRANCH  13  16
ATOM     16  C   UNL     1      30.127   9.786  26.647  1.00  0.00     0.038 CG0
ATOM     17  G   UNL     1      29.388   8.464  26.708  1.00  0.00     0.000 G0
ENDBRANCH  13  16
ENDBRANCH  12  13
ENDBRANCH  10  11
ENDBRANCH   1  10
TORSDOF 0
ENDMDL
MODEL 3
REMARK VINA RESULT:    -2.918      1.807      4.221
REMARK INTER + INTRA:          -3.716
REMARK INTER:                  -4.336
REMARK INTRA:                   0.620
REMARK UNBOUND:                 0.567
REMARK SMILES C=C1CC=CC(C)(C)CC=C(C)CCC1
REMARK SMILES IDX 2 1 1 2 15 3 14 4 13 5 11 6 12 7 10 8 3 10 4 11 5 12 6 13
REMARK SMILES IDX 7 14 8 15 9 16
REMARK H PARENT
REMARK Flexibility Score: 60.00
ROOT
ATOM      1  C   UNL     1      29.492  11.033  26.078  1.00  0.00    -0.074 C 
ATOM      2  C   UNL     1      29.513  12.152  26.827  1.00  0.00     0.008 C 
ENDROOT
BRANCH   1   3
ATOM      3  C   UNL     1      28.923   9.744  26.654  1.00  0.00     0.031 C 
BRANCH   3   4
ATOM      4  C   UNL     1      29.923   8.860  27.429  1.00  0.00     0.009 C 
BRANCH   4   5
ATOM      5  C   UNL     1      30.784   7.938  26.550  1.00  0.00     0.030 C 
BRANCH   5   6
ATOM      6  C   UNL     1      29.940   7.054  25.652  1.00  0.00    -0.077 C 
ATOM      7  C   UNL     1      29.088   5.986  26.288  1.00  0.00     0.039 C 
ATOM      8  C   UNL     1      29.951   7.148  24.305  1.00  0.00    -0.027 CG0
ATOM      9  G   UNL     1      30.767   8.159  23.527  1.00  0.00     0.000 G0
ENDBRANCH   5   6
ENDBRANCH   4   5
ENDBRANCH   3   4
ENDBRANCH   1   3
BRANCH   1  10
ATOM     10  C   UNL     1      29.735  11.128  24.580  1.00  0.00     0.057 C 
BRANCH  10  11
ATOM     11  C   UNL     1      28.629  10.521  23.744  1.00  0.00    -0.026 C 
ATOM     12  C   UNL     1      28.727   9.551  22.805  1.00  0.00    -0.024 C 
BRANCH  12  13
ATOM     13  C   UNL     1      29.977   8.798  22.334  1.00  0.00    -0.014 C 
ATOM     14  C   UNL     1      30.903   9.800  21.601  1.00  0.00     0.016 C 
ATOM     15  C   UNL     1      29.581   7.714  21.307  1.00  0.00     0.016 C 
BRANCH  13  16
ATOM     16  C   UNL     1      30.764   8.157  23.511  1.00  0.00     0.038 CG0
ATOM     17  G   UNL     1      29.954   7.141  24.289  1.00  0.00     0.000 G0
ENDBRANCH  13  16
ENDBRANCH  12  13
ENDBRANCH  10  11
ENDBRANCH   1  10
TORSDOF 0
ENDMDL
MODEL 4
REMARK VINA RESULT:    -2.824      5.378      7.802
REMARK INTER + INTRA:          -3.578
REMARK INTER:                  -4.412
REMARK INTRA:                   0.834
REMARK UNBOUND:                 0.567
REMARK SMILES C=C1CC=CC(C)(C)CC=C(C)CCC1
REMARK SMILES IDX 2 1 1 2 15 3 14 4 13 5 11 6 12 7 10 8 3 10 4 11 5 12 6 13
REMARK SMILES IDX 7 14 8 15 9 16
REMARK H PARENT
REMARK Flexibility Score: 60.00
ROOT
ATOM      1  C   UNL     1      30.819  11.076  32.372  1.00  0.00    -0.074 C 
ATOM      2  C   UNL     1      32.044  11.526  32.703  1.00  0.00     0.008 C 
ENDROOT
BRANCH   1   3
ATOM      3  C   UNL     1      30.493  10.763  30.919  1.00  0.00     0.031 C 
BRANCH   3   4
ATOM      4  C   UNL     1      29.962   9.339  30.645  1.00  0.00     0.009 C 
BRANCH   4   5
ATOM      5  C   UNL     1      31.037   8.240  30.638  1.00  0.00     0.030 C 
BRANCH   5   6
ATOM      6  C   UNL     1      30.532   6.943  31.236  1.00  0.00    -0.077 C 
ATOM      7  C   UNL     1      29.763   5.993  30.353  1.00  0.00     0.039 C 
ATOM      8  C   UNL     1      30.697   6.617  32.536  1.00  0.00    -0.027 CG0
ATOM      9  G   UNL     1      31.433   7.476  33.544  1.00  0.00     0.000 G0
ENDBRANCH   5   6
ENDBRANCH   4   5
ENDBRANCH   3   4
ENDBRANCH   1   3
BRANCH   1  10
ATOM     10  C   UNL     1      29.879  10.584  33.462  1.00  0.00     0.057 C 
BRANCH  10  11
ATOM     11  C   UNL     1      30.557  10.364  34.797  1.00  0.00    -0.026 C 
ATOM     12  C   UNL     1      30.887   9.190  35.384  1.00  0.00    -0.024 C 
BRANCH  12  13
ATOM     13  C   UNL     1      30.672   7.765  34.860  1.00  0.00    -0.014 C 
ATOM     14  C   UNL     1      29.160   7.567  34.589  1.00  0.00     0.016 C 
ATOM     15  C   UNL     1      31.074   6.741  35.945  1.00  0.00     0.016 C 
BRANCH  13  16
ATOM     16  C   UNL     1      31.456   7.489  33.547  1.00  0.00     0.038 CG0
ATOM     17  G   UNL     1      30.689   6.632  32.561  1.00  0.00     0.000 G0
ENDBRANCH  13  16
ENDBRANCH  12  13
ENDBRANCH  10  11
ENDBRANCH   1  10
TORSDOF 0
ENDMDL
MODEL 5
REMARK VINA RESULT:    -2.709      2.165      4.433
REMARK INTER + INTRA:          -3.409
REMARK INTER:                  -3.961
REMARK INTRA:                   0.552
REMARK UNBOUND:                 0.567
REMARK SMILES C=C1CC=CC(C)(C)CC=C(C)CCC1
REMARK SMILES IDX 2 1 1 2 15 3 14 4 13 5 11 6 12 7 10 8 3 10 4 11 5 12 6 13
REMARK SMILES IDX 7 14 8 15 9 16
REMARK H PARENT
REMARK Flexibility Score: 60.00
ROOT
ATOM      1  C   UNL     1      31.377  12.058  22.429  1.00  0.00    -0.074 C 
ATOM      2  C   UNL     1      32.680  12.349  22.255  1.00  0.00     0.008 C 
ENDROOT
BRANCH   1   3
ATOM      3  C   UNL     1      30.686  11.081  21.488  1.00  0.00     0.031 C 
BRANCH   3   4
ATOM      4  C   UNL     1      31.434   9.755  21.233  1.00  0.00     0.009 C 
BRANCH   4   5
ATOM      5  C   UNL     1      31.623   8.873  22.479  1.00  0.00     0.030 C 
BRANCH   5   6
ATOM      6  C   UNL     1      30.336   8.189  22.895  1.00  0.00    -0.077 C 
ATOM      7  C   UNL     1      29.673   7.247  21.922  1.00  0.00     0.039 C 
ATOM      8  C   UNL     1      29.729   8.419  24.078  1.00  0.00    -0.027 CG0
ATOM      9  G   UNL     1      30.267   9.348  25.147  1.00  0.00     0.000 G0
ENDBRANCH   5   6
ENDBRANCH   4   5
ENDBRANCH   3   4
ENDBRANCH   1   3
BRANCH   1  10
ATOM     10  C   UNL     1      30.688  12.444  23.728  1.00  0.00     0.057 C 
BRANCH  10  11
ATOM     11  C   UNL     1      29.217  12.091  23.764  1.00  0.00    -0.026 C 
ATOM     12  C   UNL     1      28.587  11.213  24.580  1.00  0.00    -0.024 C 
BRANCH  12  13
ATOM     13  C   UNL     1      29.185  10.344  25.693  1.00  0.00    -0.014 C 
ATOM     14  C   UNL     1      28.037   9.544  26.358  1.00  0.00     0.016 C 
ATOM     15  C   UNL     1      29.802  11.243  26.787  1.00  0.00     0.016 C 
BRANCH  13  16
ATOM     16  C   UNL     1      30.249   9.343  25.160  1.00  0.00     0.038 CG0
ATOM     17  G   UNL     1      29.723   8.439  24.063  1.00  0.00     0.000 G0
ENDBRANCH  13  16
ENDBRANCH  12  13
ENDBRANCH  10  11
ENDBRANCH   1  10
TORSDOF 0
ENDMDL
MODEL 6
REMARK VINA RESULT:    -2.669      8.150     10.299
REMARK INTER + INTRA:          -3.350
REMARK INTER:                  -4.228
REMARK INTRA:                   0.878
REMARK UNBOUND:                 0.567
REMARK SMILES C=C1CC=CC(C)(C)CC=C(C)CCC1
REMARK SMILES IDX 2 1 1 2 15 3 14 4 13 5 11 6 12 7 10 8 3 10 4 11 5 12 6 13
REMARK SMILES IDX 7 14 8 15 9 16
REMARK H PARENT
REMARK Flexibility Score: 60.00
ROOT
ATOM      1  C   UNL     1      20.262  10.815  27.233  1.00  0.00    -0.074 C 
ATOM      2  C   UNL     1      20.369  10.048  26.132  1.00  0.00     0.008 C 
ENDROOT
BRANCH   1   3
ATOM      3  C   UNL     1      20.372  12.329  27.118  1.00  0.00     0.031 C 
BRANCH   3   4
ATOM      4  C   UNL     1      21.621  12.959  27.771  1.00  0.00     0.009 C 
BRANCH   4   5
ATOM      5  C   UNL     1      21.539  13.119  29.299  1.00  0.00     0.030 C 
BRANCH   5   6
ATOM      6  C   UNL     1      22.602  12.312  30.016  1.00  0.00    -0.077 C 
ATOM      7  C   UNL     1      24.009  12.330  29.474  1.00  0.00     0.039 C 
ATOM      8  C   UNL     1      22.341  11.539  31.092  1.00  0.00    -0.027 CG0
ATOM      9  G   UNL     1      20.976  11.409  31.737  1.00  0.00     0.000 G0
ENDBRANCH   5   6
ENDBRANCH   4   5
ENDBRANCH   3   4
ENDBRANCH   1   3
BRANCH   1  10
ATOM     10  C   UNL     1      19.722  10.210  28.520  1.00  0.00     0.057 C 
BRANCH  10  11
ATOM     11  C   UNL     1      20.682   9.251  29.191  1.00  0.00    -0.026 C 
ATOM     12  C   UNL     1      20.968   9.141  30.509  1.00  0.00    -0.024 C 
BRANCH  12  13
ATOM     13  C   UNL     1      20.399   9.947  31.683  1.00  0.00    -0.014 C 
ATOM     14  C   UNL     1      20.753   9.211  32.998  1.00  0.00     0.016 C 
ATOM     15  C   UNL     1      18.858   9.991  31.590  1.00  0.00     0.016 C 
BRANCH  13  16
ATOM     16  C   UNL     1      20.973  11.390  31.747  1.00  0.00     0.038 CG0
ATOM     17  G   UNL     1      22.341  11.519  31.109  1.00  0.00     0.000 G0
ENDBRANCH  13  16
ENDBRANCH  12  13
ENDBRANCH  10  11
ENDBRANCH   1  10
TORSDOF 0
ENDMDL
MODEL 7
REMARK VINA RESULT:    -2.644      1.736      4.199
REMARK INTER + INTRA:          -3.314
REMARK INTER:                  -4.113
REMARK INTRA:                   0.799
REMARK UNBOUND:                 0.567
REMARK SMILES C=C1CC=CC(C)(C)CC=C(C)CCC1
REMARK SMILES IDX 2 1 1 2 15 3 14 4 13 5 11 6 12 7 10 8 3 10 4 11 5 12 6 13
REMARK SMILES IDX 7 14 8 15 9 16
REMARK H PARENT
REMARK Flexibility Score: 60.00
ROOT
ATOM      1  C   UNL     1      29.668  11.722  25.785  1.00  0.00    -0.074 C 
ATOM      2  C   UNL     1      29.162  12.946  26.024  1.00  0.00     0.008 C 
ENDROOT
BRANCH   1   3
ATOM      3  C   UNL     1      30.618  11.509  24.614  1.00  0.00     0.031 C 
BRANCH   3   4
ATOM      4  C   UNL     1      30.241  10.366  23.648  1.00  0.00     0.009 C 
BRANCH   4   5
ATOM      5  C   UNL     1      31.246   9.202  23.602  1.00  0.00     0.030 C 
BRANCH   5   6
ATOM      6  C   UNL     1      30.557   7.854  23.546  1.00  0.00    -0.077 C 
ATOM      7  C   UNL     1      30.134   7.316  22.203  1.00  0.00     0.039 C 
ATOM      8  C   UNL     1      30.261   7.130  24.647  1.00  0.00    -0.027 CG0
ATOM      9  G   UNL     1      30.609   7.549  26.061  1.00  0.00     0.000 G0
ENDBRANCH   5   6
ENDBRANCH   4   5
ENDBRANCH   3   4
ENDBRANCH   1   3
BRANCH   1  10
ATOM     10  C   UNL     1      29.550  10.639  26.846  1.00  0.00     0.057 C 
BRANCH  10  11
ATOM     11  C   UNL     1      28.341   9.746  26.672  1.00  0.00    -0.026 C 
ATOM     12  C   UNL     1      28.280   8.396  26.756  1.00  0.00    -0.024 C 
BRANCH  12  13
ATOM     13  C   UNL     1      29.410   7.404  27.055  1.00  0.00    -0.014 C 
ATOM     14  C   UNL     1      28.840   5.968  26.950  1.00  0.00     0.016 C 
ATOM     15  C   UNL     1      29.900   7.589  28.508  1.00  0.00     0.016 C 
BRANCH  13  16
ATOM     16  C   UNL     1      30.601   7.543  26.067  1.00  0.00     0.038 CG0
ATOM     17  G   UNL     1      30.249   7.151  24.646  1.00  0.00     0.000 G0
ENDBRANCH  13  16
ENDBRANCH  12  13
ENDBRANCH  10  11
ENDBRANCH   1  10
TORSDOF 0
ENDMDL
MODEL 8
REMARK VINA RESULT:    -2.548      2.163      4.396
REMARK INTER + INTRA:          -3.173
REMARK INTER:                  -3.879
REMARK INTRA:                   0.705
REMARK UNBOUND:                 0.567
REMARK SMILES C=C1CC=CC(C)(C)CC=C(C)CCC1
REMARK SMILES IDX 2 1 1 2 15 3 14 4 13 5 11 6 12 7 10 8 3 10 4 11 5 12 6 13
REMARK SMILES IDX 7 14 8 15 9 16
REMARK H PARENT
REMARK Flexibility Score: 60.00
ROOT
ATOM      1  C   UNL     1      29.988   8.986  22.511  1.00  0.00    -0.074 C 
ATOM      2  C   UNL     1      29.338   7.850  22.195  1.00  0.00     0.008 C 
ENDROOT
BRANCH   1   3
ATOM      3  C   UNL     1      31.168   8.943  23.472  1.00  0.00     0.031 C 
BRANCH   3   4
ATOM      4  C   UNL     1      30.823   9.137  24.964  1.00  0.00     0.009 C 
BRANCH   4   5
ATOM      5  C   UNL     1      30.904  10.590  25.460  1.00  0.00     0.030 C 
BRANCH   5   6
ATOM      6  C   UNL     1      29.533  11.186  25.711  1.00  0.00    -0.077 C 
ATOM      7  C   UNL     1      28.683  10.600  26.810  1.00  0.00     0.039 C 
ATOM      8  C   UNL     1      29.016  12.186  24.966  1.00  0.00    -0.027 CG0
ATOM      9  G   UNL     1      29.744  12.862  23.822  1.00  0.00     0.000 G0
ENDBRANCH   5   6
ENDBRANCH   4   5
ENDBRANCH   3   4
ENDBRANCH   1   3
BRANCH   1  10
ATOM     10  C   UNL     1      29.757  10.240  21.683  1.00  0.00     0.057 C 
BRANCH  10  11
ATOM     11  C   UNL     1      28.347  10.783  21.781  1.00  0.00    -0.026 C 
ATOM     12  C   UNL     1      27.952  12.018  22.167  1.00  0.00    -0.024 C 
BRANCH  12  13
ATOM     13  C   UNL     1      28.818  13.207  22.602  1.00  0.00    -0.014 C 
ATOM     14  C   UNL     1      27.880  14.370  23.011  1.00  0.00     0.016 C 
ATOM     15  C   UNL     1      29.662  13.706  21.409  1.00  0.00     0.016 C 
BRANCH  13  16
ATOM     16  C   UNL     1      29.741  12.862  23.804  1.00  0.00     0.038 CG0
ATOM     17  G   UNL     1      29.006  12.201  24.952  1.00  0.00     0.000 G0
ENDBRANCH  13  16
ENDBRANCH  12  13
ENDBRANCH  10  11
ENDBRANCH   1  10
TORSDOF 0
ENDMDL
MODEL 9
REMARK VINA RESULT:    -2.542      1.564      3.927
REMARK INTER + INTRA:          -3.163
REMARK INTER:                  -3.952
REMARK INTRA:                   0.788
REMARK UNBOUND:                 0.567
REMARK SMILES C=C1CC=CC(C)(C)CC=C(C)CCC1
REMARK SMILES IDX 2 1 1 2 15 3 14 4 13 5 11 6 12 7 10 8 3 10 4 11 5 12 6 13
REMARK SMILES IDX 7 14 8 15 9 16
REMARK H PARENT
REMARK Flexibility Score: 60.00
ROOT
ATOM      1  C   UNL     1      29.901   7.669  26.011  1.00  0.00    -0.074 C 
ATOM      2  C   UNL     1      28.996   6.674  26.077  1.00  0.00     0.008 C 
ENDROOT
BRANCH   1   3
ATOM      3  C   UNL     1      30.446   8.283  27.292  1.00  0.00     0.031 C 
BRANCH   3   4
ATOM      4  C   UNL     1      29.540   9.336  27.966  1.00  0.00     0.009 C 
BRANCH   4   5
ATOM      5  C   UNL     1      28.553  10.038  27.019  1.00  0.00     0.030 C 
BRANCH   5   6
ATOM      6  C   UNL     1      29.188  11.211  26.299  1.00  0.00    -0.077 C 
ATOM      7  C   UNL     1      29.998  12.198  27.101  1.00  0.00     0.039 C 
ATOM      8  C   UNL     1      29.026  11.441  24.978  1.00  0.00    -0.027 CG0
ATOM      9  G   UNL     1      28.229  10.548  24.048  1.00  0.00     0.000 G0
ENDBRANCH   5   6
ENDBRANCH   4   5
ENDBRANCH   3   4
ENDBRANCH   1   3
BRANCH   1  10
ATOM     10  C   UNL     1      30.606   7.958  24.695  1.00  0.00     0.057 C 
BRANCH  10  11
ATOM     11  C   UNL     1      29.759   7.667  23.475  1.00  0.00    -0.026 C 
ATOM     12  C   UNL     1      29.103   8.548  22.683  1.00  0.00    -0.024 C 
BRANCH  12  13
ATOM     13  C   UNL     1      29.041  10.076  22.799  1.00  0.00    -0.014 C 
ATOM     14  C   UNL     1      28.367  10.635  21.521  1.00  0.00     0.016 C 
ATOM     15  C   UNL     1      30.472  10.657  22.845  1.00  0.00     0.016 C 
BRANCH  13  16
ATOM     16  C   UNL     1      28.232  10.547  24.039  1.00  0.00     0.038 CG0
ATOM     17  G   UNL     1      29.031  11.433  24.973  1.00  0.00     0.000 G0
ENDBRANCH  13  16
ENDBRANCH  12  13
ENDBRANCH  10  11
ENDBRANCH   1  10
TORSDOF 0
ENDMDL
