MODEL 1
REMARK VINA RESULT:    -3.354      0.000      0.000
REMARK INTER + INTRA:          -8.789
REMARK INTER:                  -6.491
REMARK INTRA:                  -2.297
REMARK UNBOUND:                -2.297
REMARK SMILES CCCCCCCCCCCCCCCCCC(=O)[O-]
REMARK SMILES IDX 10 1 11 2 12 3 13 4 14 5 15 6 16 7 17 8 18 9 19 10 20 11
REMARK SMILES IDX 9 12 8 13 7 14 6 15 5 16 4 17 3 18 2 19 1 20
REMARK H PARENT
REMARK Flexibility Score: inf
ROOT
ATOM      1  C   UNL     1      23.347   6.413  26.619  1.00  0.00     0.000 C 
ENDROOT
BRANCH   1   2
ATOM      2  C   UNL     1      24.068   5.111  27.010  1.00  0.00     0.000 C 
BRANCH   2   3
ATOM      3  C   UNL     1      23.771   3.930  26.061  1.00  0.00     0.000 C 
BRANCH   3   4
ATOM      4  C   UNL     1      22.890   2.858  26.726  1.00  0.00     0.000 C 
BRANCH   4   5
ATOM      5  C   UNL     1      22.622   3.162  28.216  1.00  0.00     0.000 C 
BRANCH   5   6
ATOM      6  C   UNL     1      21.128   3.240  28.572  1.00  0.00     0.000 C 
BRANCH   6   7
ATOM      7  C   UNL     1      20.883   3.685  30.024  1.00  0.00     0.006 C 
BRANCH   7   8
ATOM      8  C   UNL     1      22.130   4.320  30.652  1.00  0.00     0.053 C 
BRANCH   8   9
ATOM      9  C   UNL     1      21.772   5.376  31.653  1.00  0.00     0.041 C 
ATOM     10  O   UNL     1      22.615   6.252  31.980  1.00  0.00    -0.550 OA
ATOM     11  O   UNL     1      20.517   5.374  32.247  1.00  0.00    -0.550 OA
ENDBRANCH   8   9
ENDBRANCH   7   8
ENDBRANCH   6   7
ENDBRANCH   5   6
ENDBRANCH   4   5
ENDBRANCH   3   4
ENDBRANCH   2   3
ENDBRANCH   1   2
BRANCH   1  12
ATOM     12  C   UNL     1      23.164   7.369  27.809  1.00  0.00     0.000 C 
BRANCH  12  13
ATOM     13  C   UNL     1      23.576   8.817  27.483  1.00  0.00    -0.000 C 
BRANCH  13  14
ATOM     14  C   UNL     1      24.870   9.302  28.162  1.00  0.00    -0.000 C 
BRANCH  14  15
ATOM     15  C   UNL     1      25.415   8.306  29.200  1.00  0.00    -0.000 C 
BRANCH  15  16
ATOM     16  C   UNL     1      26.510   7.389  28.613  1.00  0.00    -0.000 C 
BRANCH  16  17
ATOM     17  C   UNL     1      27.197   7.968  27.363  1.00  0.00    -0.000 C 
BRANCH  17  18
ATOM     18  C   UNL     1      26.972   7.166  26.067  1.00  0.00    -0.000 C 
BRANCH  18  19
ATOM     19  C   UNL     1      26.339   7.969  24.916  1.00  0.00    -0.003 C 
ATOM     20  C   UNL     1      26.534   9.477  25.064  1.00  0.00     0.004 C 
ENDBRANCH  18  19
ENDBRANCH  17  18
ENDBRANCH  16  17
ENDBRANCH  15  16
ENDBRANCH  14  15
ENDBRANCH  13  14
ENDBRANCH  12  13
ENDBRANCH   1  12
TORSDOF 16
ENDMDL
MODEL 2
REMARK VINA RESULT:    -3.269     10.053     14.063
REMARK INTER + INTRA:          -8.625
REMARK INTER:                  -5.480
REMARK INTRA:                  -3.145
REMARK UNBOUND:                -2.297
REMARK SMILES CCCCCCCCCCCCCCCCCC(=O)[O-]
REMARK SMILES IDX 10 1 11 2 12 3 13 4 14 5 15 6 16 7 17 8 18 9 19 10 20 11
REMARK SMILES IDX 9 12 8 13 7 14 6 15 5 16 4 17 3 18 2 19 1 20
REMARK H PARENT
REMARK Flexibility Score: inf
ROOT
ATOM      1  C   UNL     1      10.980   7.075  33.334  1.00  0.00     0.000 C 
ENDROOT
BRANCH   1   2
ATOM      2  C   UNL     1      10.374   7.733  32.082  1.00  0.00     0.000 C 
BRANCH   2   3
ATOM      3  C   UNL     1       9.129   7.000  31.537  1.00  0.00     0.000 C 
BRANCH   3   4
ATOM      4  C   UNL     1       9.251   6.687  30.035  1.00  0.00     0.000 C 
BRANCH   4   5
ATOM      5  C   UNL     1      10.719   6.659  29.560  1.00  0.00     0.000 C 
BRANCH   5   6
ATOM      6  C   UNL     1      11.299   5.241  29.431  1.00  0.00     0.000 C 
BRANCH   6   7
ATOM      7  C   UNL     1      12.818   5.237  29.191  1.00  0.00     0.006 C 
BRANCH   7   8
ATOM      8  C   UNL     1      13.517   4.090  29.932  1.00  0.00     0.053 C 
BRANCH   8   9
ATOM      9  C   UNL     1      14.824   4.524  30.523  1.00  0.00     0.041 C 
ATOM     10  O   UNL     1      15.076   4.300  31.737  1.00  0.00    -0.550 OA
ATOM     11  O   UNL     1      15.750   5.201  29.741  1.00  0.00    -0.550 OA
ENDBRANCH   8   9
ENDBRANCH   7   8
ENDBRANCH   6   7
ENDBRANCH   5   6
ENDBRANCH   4   5
ENDBRANCH   3   4
ENDBRANCH   2   3
ENDBRANCH   1   2
BRANCH   1  12
ATOM     12  C   UNL     1      12.153   6.138  33.003  1.00  0.00     0.000 C 
BRANCH  12  13
ATOM     13  C   UNL     1      11.766   4.648  33.057  1.00  0.00    -0.000 C 
BRANCH  13  14
ATOM     14  C   UNL     1      10.687   4.288  34.096  1.00  0.00    -0.000 C 
BRANCH  14  15
ATOM     15  C   UNL     1       9.520   3.485  33.498  1.00  0.00    -0.000 C 
BRANCH  15  16
ATOM     16  C   UNL     1       9.534   3.491  31.953  1.00  0.00    -0.000 C 
BRANCH  16  17
ATOM     17  C   UNL     1       9.476   2.084  31.330  1.00  0.00    -0.000 C 
BRANCH  17  18
ATOM     18  C   UNL     1      10.370   1.032  32.014  1.00  0.00    -0.000 C 
BRANCH  18  19
ATOM     19  C   UNL     1      11.755   0.847  31.367  1.00  0.00    -0.003 C 
ATOM     20  C   UNL     1      12.902   1.283  32.279  1.00  0.00     0.004 C 
ENDBRANCH  18  19
ENDBRANCH  17  18
ENDBRANCH  16  17
ENDBRANCH  15  16
ENDBRANCH  14  15
ENDBRANCH  13  14
ENDBRANCH  12  13
ENDBRANCH   1  12
TORSDOF 16
ENDMDL
MODEL 3
REMARK VINA RESULT:    -3.250     10.979     14.518
REMARK INTER + INTRA:          -8.587
REMARK INTER:                  -5.856
REMARK INTRA:                  -2.731
REMARK UNBOUND:                -2.297
REMARK SMILES CCCCCCCCCCCCCCCCCC(=O)[O-]
REMARK SMILES IDX 10 1 11 2 12 3 13 4 14 5 15 6 16 7 17 8 18 9 19 10 20 11
REMARK SMILES IDX 9 12 8 13 7 14 6 15 5 16 4 17 3 18 2 19 1 20
REMARK H PARENT
REMARK Flexibility Score: inf
ROOT
ATOM      1  C   UNL     1      10.664   7.772  31.935  1.00  0.00     0.000 C 
ENDROOT
BRANCH   1   2
ATOM      2  C   UNL     1      10.830   7.363  33.409  1.00  0.00     0.000 C 
BRANCH   2   3
ATOM      3  C   UNL     1       9.960   6.154  33.818  1.00  0.00     0.000 C 
BRANCH   3   4
ATOM      4  C   UNL     1      10.779   5.065  34.533  1.00  0.00     0.000 C 
BRANCH   4   5
ATOM      5  C   UNL     1      11.472   4.108  33.541  1.00  0.00     0.000 C 
BRANCH   5   6
ATOM      6  C   UNL     1      12.975   3.922  33.809  1.00  0.00     0.000 C 
BRANCH   6   7
ATOM      7  C   UNL     1      13.857   4.501  32.690  1.00  0.00     0.006 C 
BRANCH   7   8
ATOM      8  C   UNL     1      13.025   5.062  31.530  1.00  0.00     0.053 C 
BRANCH   8   9
ATOM      9  C   UNL     1      13.668   4.795  30.204  1.00  0.00     0.041 C 
ATOM     10  O   UNL     1      14.676   4.043  30.128  1.00  0.00    -0.550 OA
ATOM     11  O   UNL     1      13.173   5.400  29.056  1.00  0.00    -0.550 OA
ENDBRANCH   8   9
ENDBRANCH   7   8
ENDBRANCH   6   7
ENDBRANCH   5   6
ENDBRANCH   4   5
ENDBRANCH   3   4
ENDBRANCH   2   3
ENDBRANCH   1   2
BRANCH   1  12
ATOM     12  C   UNL     1       9.422   7.146  31.282  1.00  0.00     0.000 C 
BRANCH  12  13
ATOM     13  C   UNL     1       9.565   6.981  29.757  1.00  0.00    -0.000 C 
BRANCH  13  14
ATOM     14  C   UNL     1       9.644   5.527  29.258  1.00  0.00    -0.000 C 
BRANCH  14  15
ATOM     15  C   UNL     1       9.636   4.497  30.400  1.00  0.00    -0.000 C 
BRANCH  15  16
ATOM     16  C   UNL     1      10.242   3.142  29.973  1.00  0.00    -0.000 C 
BRANCH  16  17
ATOM     17  C   UNL     1       9.435   1.924  30.457  1.00  0.00    -0.000 C 
BRANCH  17  18
ATOM     18  C   UNL     1       8.876   2.040  31.888  1.00  0.00    -0.000 C 
BRANCH  18  19
ATOM     19  C   UNL     1       9.292   0.900  32.836  1.00  0.00    -0.003 C 
ATOM     20  C   UNL     1      10.765   0.516  32.695  1.00  0.00     0.004 C 
ENDBRANCH  18  19
ENDBRANCH  17  18
ENDBRANCH  16  17
ENDBRANCH  15  16
ENDBRANCH  14  15
ENDBRANCH  13  14
ENDBRANCH  12  13
ENDBRANCH   1  12
TORSDOF 16
ENDMDL
MODEL 4
REMARK VINA RESULT:    -3.248      6.244     10.049
REMARK INTER + INTRA:          -8.584
REMARK INTER:                  -6.244
REMARK INTRA:                  -2.340
REMARK UNBOUND:                -2.297
REMARK SMILES CCCCCCCCCCCCCCCCCC(=O)[O-]
REMARK SMILES IDX 10 1 11 2 12 3 13 4 14 5 15 6 16 7 17 8 18 9 19 10 20 11
REMARK SMILES IDX 9 12 8 13 7 14 6 15 5 16 4 17 3 18 2 19 1 20
REMARK H PARENT
REMARK Flexibility Score: inf
ROOT
ATOM      1  C   UNL     1      22.220   3.089  33.923  1.00  0.00     0.000 C 
ENDROOT
BRANCH   1   2
ATOM      2  C   UNL     1      22.756   4.018  32.820  1.00  0.00     0.000 C 
BRANCH   2   3
ATOM      3  C   UNL     1      21.646   4.701  31.992  1.00  0.00     0.000 C 
BRANCH   3   4
ATOM      4  C   UNL     1      20.758   5.615  32.853  1.00  0.00     0.000 C 
BRANCH   4   5
ATOM      5  C   UNL     1      21.564   6.740  33.537  1.00  0.00     0.000 C 
BRANCH   5   6
ATOM      6  C   UNL     1      20.757   7.535  34.576  1.00  0.00     0.000 C 
BRANCH   6   7
ATOM      7  C   UNL     1      21.584   8.637  35.259  1.00  0.00     0.006 C 
BRANCH   7   8
ATOM      8  C   UNL     1      20.698   9.695  35.928  1.00  0.00     0.053 C 
BRANCH   8   9
ATOM      9  C   UNL     1      20.889   9.722  37.414  1.00  0.00     0.041 C 
ATOM     10  O   UNL     1      22.047   9.669  37.906  1.00  0.00    -0.550 OA
ATOM     11  O   UNL     1      19.786   9.775  38.256  1.00  0.00    -0.550 OA
ENDBRANCH   8   9
ENDBRANCH   7   8
ENDBRANCH   6   7
ENDBRANCH   5   6
ENDBRANCH   4   5
ENDBRANCH   3   4
ENDBRANCH   2   3
ENDBRANCH   1   2
BRANCH   1  12
ATOM     12  C   UNL     1      23.163   3.001  35.133  1.00  0.00     0.000 C 
BRANCH  12  13
ATOM     13  C   UNL     1      22.582   3.662  36.397  1.00  0.00    -0.000 C 
BRANCH  13  14
ATOM     14  C   UNL     1      21.096   4.057  36.307  1.00  0.00    -0.000 C 
BRANCH  14  15
ATOM     15  C   UNL     1      20.715   5.192  37.272  1.00  0.00    -0.000 C 
BRANCH  15  16
ATOM     16  C   UNL     1      21.944   6.005  37.735  1.00  0.00    -0.000 C 
BRANCH  16  17
ATOM     17  C   UNL     1      22.051   6.144  39.265  1.00  0.00    -0.000 C 
BRANCH  17  18
ATOM     18  C   UNL     1      21.055   5.285  40.068  1.00  0.00    -0.000 C 
BRANCH  18  19
ATOM     19  C   UNL     1      21.658   4.009  40.683  1.00  0.00    -0.003 C 
ATOM     20  C   UNL     1      23.169   3.907  40.484  1.00  0.00     0.004 C 
ENDBRANCH  18  19
ENDBRANCH  17  18
ENDBRANCH  16  17
ENDBRANCH  15  16
ENDBRANCH  14  15
ENDBRANCH  13  14
ENDBRANCH  12  13
ENDBRANCH   1  12
TORSDOF 16
ENDMDL
MODEL 5
REMARK VINA RESULT:    -3.244     10.961     13.867
REMARK INTER + INTRA:          -8.576
REMARK INTER:                  -5.544
REMARK INTRA:                  -3.032
REMARK UNBOUND:                -2.297
REMARK SMILES CCCCCCCCCCCCCCCCCC(=O)[O-]
REMARK SMILES IDX 10 1 11 2 12 3 13 4 14 5 15 6 16 7 17 8 18 9 19 10 20 11
REMARK SMILES IDX 9 12 8 13 7 14 6 15 5 16 4 17 3 18 2 19 1 20
REMARK H PARENT
REMARK Flexibility Score: inf
ROOT
ATOM      1  C   UNL     1      11.045   5.211  34.771  1.00  0.00     0.000 C 
ENDROOT
BRANCH   1   2
ATOM      2  C   UNL     1      11.303   4.196  33.645  1.00  0.00     0.000 C 
BRANCH   2   3
ATOM      3  C   UNL     1      12.772   3.727  33.558  1.00  0.00     0.000 C 
BRANCH   3   4
ATOM      4  C   UNL     1      13.647   4.706  32.755  1.00  0.00     0.000 C 
BRANCH   4   5
ATOM      5  C   UNL     1      12.983   5.132  31.428  1.00  0.00     0.000 C 
BRANCH   5   6
ATOM      6  C   UNL     1      13.515   4.375  30.200  1.00  0.00     0.000 C 
BRANCH   6   7
ATOM      7  C   UNL     1      12.974   4.934  28.873  1.00  0.00     0.006 C 
BRANCH   7   8
ATOM      8  C   UNL     1      12.639   3.822  27.871  1.00  0.00     0.053 C 
BRANCH   8   9
ATOM      9  C   UNL     1      13.648   3.746  26.767  1.00  0.00     0.041 C 
ATOM     10  O   UNL     1      14.770   3.210  26.969  1.00  0.00    -0.550 OA
ATOM     11  O   UNL     1      13.362   4.293  25.523  1.00  0.00    -0.550 OA
ENDBRANCH   8   9
ENDBRANCH   7   8
ENDBRANCH   6   7
ENDBRANCH   5   6
ENDBRANCH   4   5
ENDBRANCH   3   4
ENDBRANCH   2   3
ENDBRANCH   1   2
BRANCH   1  12
ATOM     12  C   UNL     1      10.216   6.418  34.303  1.00  0.00     0.000 C 
BRANCH  12  13
ATOM     13  C   UNL     1      11.044   7.442  33.505  1.00  0.00    -0.000 C 
BRANCH  13  14
ATOM     14  C   UNL     1      10.436   7.872  32.157  1.00  0.00    -0.000 C 
BRANCH  14  15
ATOM     15  C   UNL     1       9.510   6.806  31.547  1.00  0.00    -0.000 C 
BRANCH  15  16
ATOM     16  C   UNL     1       9.716   6.651  30.025  1.00  0.00    -0.000 C 
BRANCH  16  17
ATOM     17  C   UNL     1       9.509   5.213  29.516  1.00  0.00    -0.000 C 
BRANCH  17  18
ATOM     18  C   UNL     1       9.670   4.115  30.586  1.00  0.00    -0.000 C 
BRANCH  18  19
ATOM     19  C   UNL     1       9.781   2.685  30.027  1.00  0.00    -0.003 C 
ATOM     20  C   UNL     1      10.822   1.838  30.758  1.00  0.00     0.004 C 
ENDBRANCH  18  19
ENDBRANCH  17  18
ENDBRANCH  16  17
ENDBRANCH  15  16
ENDBRANCH  14  15
ENDBRANCH  13  14
ENDBRANCH  12  13
ENDBRANCH   1  12
TORSDOF 16
ENDMDL
MODEL 6
REMARK VINA RESULT:    -3.185      9.803     13.825
REMARK INTER + INTRA:          -8.461
REMARK INTER:                  -5.392
REMARK INTRA:                  -3.069
REMARK UNBOUND:                -2.297
REMARK SMILES CCCCCCCCCCCCCCCCCC(=O)[O-]
REMARK SMILES IDX 10 1 11 2 12 3 13 4 14 5 15 6 16 7 17 8 18 9 19 10 20 11
REMARK SMILES IDX 9 12 8 13 7 14 6 15 5 16 4 17 3 18 2 19 1 20
REMARK H PARENT
REMARK Flexibility Score: inf
ROOT
ATOM      1  C   UNL     1       9.260   1.953  31.542  1.00  0.00     0.000 C 
ENDROOT
BRANCH   1   2
ATOM      2  C   UNL     1       9.146   3.166  32.480  1.00  0.00     0.000 C 
BRANCH   2   3
ATOM      3  C   UNL     1      10.190   3.170  33.618  1.00  0.00     0.000 C 
BRANCH   3   4
ATOM      4  C   UNL     1      10.589   4.596  34.036  1.00  0.00     0.000 C 
BRANCH   4   5
ATOM      5  C   UNL     1      12.116   4.817  33.980  1.00  0.00     0.000 C 
BRANCH   5   6
ATOM      6  C   UNL     1      12.822   3.984  32.897  1.00  0.00     0.000 C 
BRANCH   6   7
ATOM      7  C   UNL     1      13.673   4.840  31.945  1.00  0.00     0.006 C 
BRANCH   7   8
ATOM      8  C   UNL     1      14.476   3.984  30.958  1.00  0.00     0.053 C 
BRANCH   8   9
ATOM      9  C   UNL     1      15.085   4.813  29.869  1.00  0.00     0.041 C 
ATOM     10  O   UNL     1      14.353   5.357  29.001  1.00  0.00    -0.550 OA
ATOM     11  O   UNL     1      16.464   4.961  29.797  1.00  0.00    -0.550 OA
ENDBRANCH   8   9
ENDBRANCH   7   8
ENDBRANCH   6   7
ENDBRANCH   5   6
ENDBRANCH   4   5
ENDBRANCH   3   4
ENDBRANCH   2   3
ENDBRANCH   1   2
BRANCH   1  12
ATOM     12  C   UNL     1      10.593   1.203  31.700  1.00  0.00     0.000 C 
BRANCH  12  13
ATOM     13  C   UNL     1      11.534   1.391  30.495  1.00  0.00    -0.000 C 
BRANCH  13  14
ATOM     14  C   UNL     1      10.887   2.024  29.249  1.00  0.00    -0.000 C 
BRANCH  14  15
ATOM     15  C   UNL     1      11.469   3.405  28.906  1.00  0.00    -0.000 C 
BRANCH  15  16
ATOM     16  C   UNL     1      10.440   4.540  29.098  1.00  0.00    -0.000 C 
BRANCH  16  17
ATOM     17  C   UNL     1      10.892   5.622  30.096  1.00  0.00    -0.000 C 
BRANCH  17  18
ATOM     18  C   UNL     1       9.974   6.857  30.177  1.00  0.00    -0.000 C 
BRANCH  18  19
ATOM     19  C   UNL     1       9.552   7.252  31.604  1.00  0.00    -0.003 C 
ATOM     20  C   UNL     1      10.689   7.875  32.412  1.00  0.00     0.004 C 
ENDBRANCH  18  19
ENDBRANCH  17  18
ENDBRANCH  16  17
ENDBRANCH  15  16
ENDBRANCH  14  15
ENDBRANCH  13  14
ENDBRANCH  12  13
ENDBRANCH   1  12
TORSDOF 16
ENDMDL
MODEL 7
REMARK VINA RESULT:    -3.139     10.707     14.036
REMARK INTER + INTRA:          -8.373
REMARK INTER:                  -5.440
REMARK INTRA:                  -2.933
REMARK UNBOUND:                -2.297
REMARK SMILES CCCCCCCCCCCCCCCCCC(=O)[O-]
REMARK SMILES IDX 10 1 11 2 12 3 13 4 14 5 15 6 16 7 17 8 18 9 19 10 20 11
REMARK SMILES IDX 9 12 8 13 7 14 6 15 5 16 4 17 3 18 2 19 1 20
REMARK H PARENT
REMARK Flexibility Score: inf
ROOT
ATOM      1  C   UNL     1       9.800   5.603  33.685  1.00  0.00     0.000 C 
ENDROOT
BRANCH   1   2
ATOM      2  C   UNL     1      10.156   4.760  34.921  1.00  0.00     0.000 C 
BRANCH   2   3
ATOM      3  C   UNL     1      11.672   4.527  35.097  1.00  0.00     0.000 C 
BRANCH   3   4
ATOM      4  C   UNL     1      12.137   3.211  34.448  1.00  0.00     0.000 C 
BRANCH   4   5
ATOM      5  C   UNL     1      13.429   3.389  33.624  1.00  0.00     0.000 C 
BRANCH   5   6
ATOM      6  C   UNL     1      13.602   4.803  33.043  1.00  0.00     0.000 C 
BRANCH   6   7
ATOM      7  C   UNL     1      13.108   4.916  31.591  1.00  0.00     0.006 C 
BRANCH   7   8
ATOM      8  C   UNL     1      14.212   4.586  30.577  1.00  0.00     0.053 C 
BRANCH   8   9
ATOM      9  C   UNL     1      13.716   4.676  29.166  1.00  0.00     0.041 C 
ATOM     10  O   UNL     1      13.857   5.742  28.511  1.00  0.00    -0.550 OA
ATOM     11  O   UNL     1      13.072   3.592  28.585  1.00  0.00    -0.550 OA
ENDBRANCH   8   9
ENDBRANCH   7   8
ENDBRANCH   6   7
ENDBRANCH   5   6
ENDBRANCH   4   5
ENDBRANCH   3   4
ENDBRANCH   2   3
ENDBRANCH   1   2
BRANCH   1  12
ATOM     12  C   UNL     1      10.551   6.944  33.645  1.00  0.00     0.000 C 
BRANCH  12  13
ATOM     13  C   UNL     1      10.646   7.537  32.227  1.00  0.00    -0.000 C 
BRANCH  13  14
ATOM     14  C   UNL     1       9.669   6.939  31.198  1.00  0.00    -0.000 C 
BRANCH  14  15
ATOM     15  C   UNL     1      10.351   6.548  29.877  1.00  0.00    -0.000 C 
BRANCH  15  16
ATOM     16  C   UNL     1       9.904   5.159  29.373  1.00  0.00    -0.000 C 
BRANCH  16  17
ATOM     17  C   UNL     1       9.760   4.112  30.493  1.00  0.00    -0.000 C 
BRANCH  17  18
ATOM     18  C   UNL     1      10.027   2.657  30.063  1.00  0.00    -0.000 C 
BRANCH  18  19
ATOM     19  C   UNL     1      10.946   1.864  31.011  1.00  0.00    -0.003 C 
ATOM     20  C   UNL     1      10.174   1.068  32.062  1.00  0.00     0.004 C 
ENDBRANCH  18  19
ENDBRANCH  17  18
ENDBRANCH  16  17
ENDBRANCH  15  16
ENDBRANCH  14  15
ENDBRANCH  13  14
ENDBRANCH  12  13
ENDBRANCH   1  12
TORSDOF 16
ENDMDL
MODEL 8
REMARK VINA RESULT:    -3.111     10.195     13.490
REMARK INTER + INTRA:          -8.319
REMARK INTER:                  -5.534
REMARK INTRA:                  -2.785
REMARK UNBOUND:                -2.297
REMARK SMILES CCCCCCCCCCCCCCCCCC(=O)[O-]
REMARK SMILES IDX 10 1 11 2 12 3 13 4 14 5 15 6 16 7 17 8 18 9 19 10 20 11
REMARK SMILES IDX 9 12 8 13 7 14 6 15 5 16 4 17 3 18 2 19 1 20
REMARK H PARENT
REMARK Flexibility Score: inf
ROOT
ATOM      1  C   UNL     1      10.175   4.358  30.229  1.00  0.00     0.000 C 
ENDROOT
BRANCH   1   2
ATOM      2  C   UNL     1       9.570   2.944  30.225  1.00  0.00     0.000 C 
BRANCH   2   3
ATOM      3  C   UNL     1       9.789   2.172  31.544  1.00  0.00     0.000 C 
BRANCH   3   4
ATOM      4  C   UNL     1      10.947   1.165  31.442  1.00  0.00     0.000 C 
BRANCH   4   5
ATOM      5  C   UNL     1      12.170   1.591  32.282  1.00  0.00     0.000 C 
BRANCH   5   6
ATOM      6  C   UNL     1      13.469   1.710  31.466  1.00  0.00     0.000 C 
BRANCH   6   7
ATOM      7  C   UNL     1      13.232   2.240  30.042  1.00  0.00     0.006 C 
BRANCH   7   8
ATOM      8  C   UNL     1      14.463   2.966  29.484  1.00  0.00     0.053 C 
BRANCH   8   9
ATOM      9  C   UNL     1      14.493   4.406  29.897  1.00  0.00     0.041 C 
ATOM     10  O   UNL     1      15.372   4.817  30.700  1.00  0.00    -0.550 OA
ATOM     11  O   UNL     1      13.533   5.287  29.418  1.00  0.00    -0.550 OA
ENDBRANCH   8   9
ENDBRANCH   7   8
ENDBRANCH   6   7
ENDBRANCH   5   6
ENDBRANCH   4   5
ENDBRANCH   3   4
ENDBRANCH   2   3
ENDBRANCH   1   2
BRANCH   1  12
ATOM     12  C   UNL     1       9.547   5.276  29.168  1.00  0.00     0.000 C 
BRANCH  12  13
ATOM     13  C   UNL     1       9.220   6.681  29.708  1.00  0.00    -0.000 C 
BRANCH  13  14
ATOM     14  C   UNL     1       9.229   6.814  31.242  1.00  0.00    -0.000 C 
BRANCH  14  15
ATOM     15  C   UNL     1      10.283   7.810  31.754  1.00  0.00    -0.000 C 
BRANCH  15  16
ATOM     16  C   UNL     1      10.844   7.411  33.136  1.00  0.00    -0.000 C 
BRANCH  16  17
ATOM     17  C   UNL     1      10.254   6.101  33.689  1.00  0.00    -0.000 C 
BRANCH  17  18
ATOM     18  C   UNL     1      11.230   4.909  33.717  1.00  0.00    -0.000 C 
BRANCH  18  19
ATOM     19  C   UNL     1      12.584   5.170  33.033  1.00  0.00    -0.003 C 
ATOM     20  C   UNL     1      13.775   4.705  33.871  1.00  0.00     0.004 C 
ENDBRANCH  18  19
ENDBRANCH  17  18
ENDBRANCH  16  17
ENDBRANCH  15  16
ENDBRANCH  14  15
ENDBRANCH  13  14
ENDBRANCH  12  13
ENDBRANCH   1  12
TORSDOF 16
ENDMDL
MODEL 9
REMARK VINA RESULT:    -3.111     10.239     13.920
REMARK INTER + INTRA:          -8.318
REMARK INTER:                  -5.628
REMARK INTRA:                  -2.690
REMARK UNBOUND:                -2.297
REMARK SMILES CCCCCCCCCCCCCCCCCC(=O)[O-]
REMARK SMILES IDX 10 1 11 2 12 3 13 4 14 5 15 6 16 7 17 8 18 9 19 10 20 11
REMARK SMILES IDX 9 12 8 13 7 14 6 15 5 16 4 17 3 18 2 19 1 20
REMARK H PARENT
REMARK Flexibility Score: inf
ROOT
ATOM      1  C   UNL     1      10.147   2.188  29.627  1.00  0.00     0.000 C 
ENDROOT
BRANCH   1   2
ATOM      2  C   UNL     1       9.222   2.269  30.854  1.00  0.00     0.000 C 
BRANCH   2   3
ATOM      3  C   UNL     1       9.774   1.536  32.096  1.00  0.00     0.000 C 
BRANCH   3   4
ATOM      4  C   UNL     1      11.136   0.874  31.821  1.00  0.00     0.000 C 
BRANCH   4   5
ATOM      5  C   UNL     1      12.283   1.546  32.606  1.00  0.00     0.000 C 
BRANCH   5   6
ATOM      6  C   UNL     1      13.340   2.211  31.708  1.00  0.00     0.000 C 
BRANCH   6   7
ATOM      7  C   UNL     1      13.881   3.525  32.296  1.00  0.00     0.006 C 
BRANCH   7   8
ATOM      8  C   UNL     1      13.528   4.737  31.424  1.00  0.00     0.053 C 
BRANCH   8   9
ATOM      9  C   UNL     1      14.452   4.866  30.252  1.00  0.00     0.041 C 
ATOM     10  O   UNL     1      13.987   4.976  29.087  1.00  0.00    -0.550 OA
ATOM     11  O   UNL     1      15.827   4.834  30.444  1.00  0.00    -0.550 OA
ENDBRANCH   8   9
ENDBRANCH   7   8
ENDBRANCH   6   7
ENDBRANCH   5   6
ENDBRANCH   4   5
ENDBRANCH   3   4
ENDBRANCH   2   3
ENDBRANCH   1   2
BRANCH   1  12
ATOM     12  C   UNL     1      10.789   3.541  29.278  1.00  0.00     0.000 C 
BRANCH  12  13
ATOM     13  C   UNL     1      10.090   4.731  29.961  1.00  0.00    -0.000 C 
BRANCH  13  14
ATOM     14  C   UNL     1       9.232   5.611  29.033  1.00  0.00    -0.000 C 
BRANCH  14  15
ATOM     15  C   UNL     1       8.965   7.011  29.608  1.00  0.00    -0.000 C 
BRANCH  15  16
ATOM     16  C   UNL     1       8.979   7.025  31.152  1.00  0.00    -0.000 C 
BRANCH  16  17
ATOM     17  C   UNL     1      10.177   7.784  31.752  1.00  0.00    -0.000 C 
BRANCH  17  18
ATOM     18  C   UNL     1      10.918   7.042  32.881  1.00  0.00    -0.000 C 
BRANCH  18  19
ATOM     19  C   UNL     1      10.050   6.050  33.677  1.00  0.00    -0.003 C 
ATOM     20  C   UNL     1      10.689   4.668  33.806  1.00  0.00     0.004 C 
ENDBRANCH  18  19
ENDBRANCH  17  18
ENDBRANCH  16  17
ENDBRANCH  15  16
ENDBRANCH  14  15
ENDBRANCH  13  14
ENDBRANCH  12  13
ENDBRANCH   1  12
TORSDOF 16
ENDMDL
