MODEL 1
REMARK VINA RESULT:    -3.849      0.000      0.000
REMARK INTER + INTRA:          -4.799
REMARK INTER:                  -4.749
REMARK INTRA:                  -0.050
REMARK UNBOUND:                -0.050
REMARK SMILES CCCCCC(=O)[O-]
REMARK SMILES IDX 4 1 5 2 6 3 7 4 8 5 3 6 2 7 1 8
REMARK H PARENT
REMARK Flexibility Score: inf
ROOT
ATOM      1  C   UNL     1      48.144  33.291  15.092  1.00  0.00     0.006 C 
ENDROOT
BRANCH   1   2
ATOM      2  C   UNL     1      48.729  33.896  16.376  1.00  0.00     0.053 C 
BRANCH   2   3
ATOM      3  C   UNL     1      48.971  32.852  17.422  1.00  0.00     0.041 C 
ATOM      4  O   UNL     1      50.143  32.605  17.813  1.00  0.00    -0.550 OA
ATOM      5  O   UNL     1      47.900  32.174  17.991  1.00  0.00    -0.550 OA
ENDBRANCH   2   3
ENDBRANCH   1   2
BRANCH   1   6
ATOM      6  C   UNL     1      48.579  34.061  13.837  1.00  0.00     0.000 C 
BRANCH   6   7
ATOM      7  C   UNL     1      48.825  33.105  12.664  1.00  0.00    -0.003 C 
ATOM      8  C   UNL     1      49.921  33.631  11.742  1.00  0.00     0.004 C 
ENDBRANCH   6   7
ENDBRANCH   1   6
TORSDOF 4
ENDMDL
MODEL 2
REMARK VINA RESULT:    -3.841      3.207      4.790
REMARK INTER + INTRA:          -4.789
REMARK INTER:                  -4.705
REMARK INTRA:                  -0.084
REMARK UNBOUND:                -0.050
REMARK SMILES CCCCCC(=O)[O-]
REMARK SMILES IDX 4 1 5 2 6 3 7 4 8 5 3 6 2 7 1 8
REMARK H PARENT
REMARK Flexibility Score: inf
ROOT
ATOM      1  C   UNL     1      48.386  33.219  14.643  1.00  0.00     0.006 C 
ENDROOT
BRANCH   1   2
ATOM      2  C   UNL     1      48.790  34.292  13.622  1.00  0.00     0.053 C 
BRANCH   2   3
ATOM      3  C   UNL     1      49.140  33.693  12.295  1.00  0.00     0.041 C 
ATOM      4  O   UNL     1      48.290  33.013  11.662  1.00  0.00    -0.550 OA
ATOM      5  O   UNL     1      50.395  33.912  11.741  1.00  0.00    -0.550 OA
ENDBRANCH   2   3
ENDBRANCH   1   2
BRANCH   1   6
ATOM      6  C   UNL     1      47.771  33.827  15.912  1.00  0.00     0.000 C 
BRANCH   6   7
ATOM      7  C   UNL     1      48.849  34.108  16.965  1.00  0.00    -0.003 C 
ATOM      8  C   UNL     1      49.433  32.811  17.517  1.00  0.00     0.004 C 
ENDBRANCH   6   7
ENDBRANCH   1   6
TORSDOF 4
ENDMDL
MODEL 3
REMARK VINA RESULT:    -3.835     11.033     12.543
REMARK INTER + INTRA:          -4.781
REMARK INTER:                  -4.686
REMARK INTRA:                  -0.095
REMARK UNBOUND:                -0.050
REMARK SMILES CCCCCC(=O)[O-]
REMARK SMILES IDX 4 1 5 2 6 3 7 4 8 5 3 6 2 7 1 8
REMARK H PARENT
REMARK Flexibility Score: inf
ROOT
ATOM      1  C   UNL     1      40.997  37.141  23.975  1.00  0.00     0.006 C 
ENDROOT
BRANCH   1   2
ATOM      2  C   UNL     1      41.722  37.184  22.623  1.00  0.00     0.053 C 
BRANCH   2   3
ATOM      3  C   UNL     1      42.767  38.256  22.587  1.00  0.00     0.041 C 
ATOM      4  O   UNL     1      43.977  37.970  22.788  1.00  0.00    -0.550 OA
ATOM      5  O   UNL     1      42.411  39.567  22.298  1.00  0.00    -0.550 OA
ENDBRANCH   2   3
ENDBRANCH   1   2
BRANCH   1   6
ATOM      6  C   UNL     1      39.874  36.094  23.999  1.00  0.00     0.000 C 
BRANCH   6   7
ATOM      7  C   UNL     1      38.581  36.664  23.403  1.00  0.00    -0.003 C 
ATOM      8  C   UNL     1      38.174  37.958  24.100  1.00  0.00     0.004 C 
ENDBRANCH   6   7
ENDBRANCH   1   6
TORSDOF 4
ENDMDL
MODEL 4
REMARK VINA RESULT:    -3.754     11.294     12.473
REMARK INTER + INTRA:          -4.682
REMARK INTER:                  -4.521
REMARK INTRA:                  -0.161
REMARK UNBOUND:                -0.050
REMARK SMILES CCCCCC(=O)[O-]
REMARK SMILES IDX 4 1 5 2 6 3 7 4 8 5 3 6 2 7 1 8
REMARK H PARENT
REMARK Flexibility Score: inf
ROOT
ATOM      1  C   UNL     1      41.760  36.907  22.706  1.00  0.00     0.006 C 
ENDROOT
BRANCH   1   2
ATOM      2  C   UNL     1      42.631  38.151  22.484  1.00  0.00     0.053 C 
BRANCH   2   3
ATOM      3  C   UNL     1      41.825  39.315  21.997  1.00  0.00     0.041 C 
ATOM      4  O   UNL     1      40.846  39.131  21.227  1.00  0.00    -0.550 OA
ATOM      5  O   UNL     1      42.134  40.602  22.420  1.00  0.00    -0.550 OA
ENDBRANCH   2   3
ENDBRANCH   1   2
BRANCH   1   6
ATOM      6  C   UNL     1      40.979  36.974  24.027  1.00  0.00     0.000 C 
BRANCH   6   7
ATOM      7  C   UNL     1      39.726  36.092  23.969  1.00  0.00    -0.003 C 
ATOM      8  C   UNL     1      38.570  36.817  23.287  1.00  0.00     0.004 C 
ENDBRANCH   6   7
ENDBRANCH   1   6
TORSDOF 4
ENDMDL
MODEL 5
REMARK VINA RESULT:    -3.682     11.873     13.225
REMARK INTER + INTRA:          -4.593
REMARK INTER:                  -4.373
REMARK INTRA:                  -0.219
REMARK UNBOUND:                -0.050
REMARK SMILES CCCCCC(=O)[O-]
REMARK SMILES IDX 4 1 5 2 6 3 7 4 8 5 3 6 2 7 1 8
REMARK H PARENT
REMARK Flexibility Score: inf
ROOT
ATOM      1  C   UNL     1      39.861  36.123  24.125  1.00  0.00     0.006 C 
ENDROOT
BRANCH   1   2
ATOM      2  C   UNL     1      38.602  36.578  23.375  1.00  0.00     0.053 C 
BRANCH   2   3
ATOM      3  C   UNL     1      38.341  38.041  23.561  1.00  0.00     0.041 C 
ATOM      4  O   UNL     1      38.373  38.822  22.574  1.00  0.00    -0.550 OA
ATOM      5  O   UNL     1      38.032  38.539  24.821  1.00  0.00    -0.550 OA
ENDBRANCH   2   3
ENDBRANCH   1   2
BRANCH   1   6
ATOM      6  C   UNL     1      41.024  37.112  23.961  1.00  0.00     0.000 C 
BRANCH   6   7
ATOM      7  C   UNL     1      41.751  36.888  22.630  1.00  0.00    -0.003 C 
ATOM      8  C   UNL     1      41.864  38.187  21.837  1.00  0.00     0.004 C 
ENDBRANCH   6   7
ENDBRANCH   1   6
TORSDOF 4
ENDMDL
MODEL 6
REMARK VINA RESULT:    -3.667      2.157      3.136
REMARK INTER + INTRA:          -4.574
REMARK INTER:                  -4.354
REMARK INTRA:                  -0.220
REMARK UNBOUND:                -0.050
REMARK SMILES CCCCCC(=O)[O-]
REMARK SMILES IDX 4 1 5 2 6 3 7 4 8 5 3 6 2 7 1 8
REMARK H PARENT
REMARK Flexibility Score: inf
ROOT
ATOM      1  C   UNL     1      49.267  32.571  17.578  1.00  0.00     0.006 C 
ENDROOT
BRANCH   1   2
ATOM      2  C   UNL     1      48.067  31.682  17.933  1.00  0.00     0.053 C 
BRANCH   2   3
ATOM      3  C   UNL     1      48.083  30.395  17.167  1.00  0.00     0.041 C 
ATOM      4  O   UNL     1      48.386  30.388  15.945  1.00  0.00    -0.550 OA
ATOM      5  O   UNL     1      47.794  29.198  17.810  1.00  0.00    -0.550 OA
ENDBRANCH   2   3
ENDBRANCH   1   2
BRANCH   1   6
ATOM      6  C   UNL     1      48.836  33.969  17.111  1.00  0.00     0.000 C 
BRANCH   6   7
ATOM      7  C   UNL     1      47.703  33.879  16.082  1.00  0.00    -0.003 C 
ATOM      8  C   UNL     1      48.254  33.767  14.663  1.00  0.00     0.004 C 
ENDBRANCH   6   7
ENDBRANCH   1   6
TORSDOF 4
ENDMDL
MODEL 7
REMARK VINA RESULT:    -3.625     12.026     12.972
REMARK INTER + INTRA:          -4.522
REMARK INTER:                  -4.296
REMARK INTRA:                  -0.227
REMARK UNBOUND:                -0.050
REMARK SMILES CCCCCC(=O)[O-]
REMARK SMILES IDX 4 1 5 2 6 3 7 4 8 5 3 6 2 7 1 8
REMARK H PARENT
REMARK Flexibility Score: inf
ROOT
ATOM      1  C   UNL     1      40.984  36.891  23.971  1.00  0.00     0.006 C 
ENDROOT
BRANCH   1   2
ATOM      2  C   UNL     1      39.498  36.563  23.775  1.00  0.00     0.053 C 
BRANCH   2   3
ATOM      3  C   UNL     1      38.620  37.718  24.148  1.00  0.00     0.041 C 
ATOM      4  O   UNL     1      39.127  38.785  24.583  1.00  0.00    -0.550 OA
ATOM      5  O   UNL     1      37.243  37.626  23.986  1.00  0.00    -0.550 OA
ENDBRANCH   2   3
ENDBRANCH   1   2
BRANCH   1   6
ATOM      6  C   UNL     1      41.759  36.894  22.645  1.00  0.00     0.000 C 
BRANCH   6   7
ATOM      7  C   UNL     1      42.266  38.301  22.308  1.00  0.00    -0.003 C 
ATOM      8  C   UNL     1      41.237  39.079  21.493  1.00  0.00     0.004 C 
ENDBRANCH   6   7
ENDBRANCH   1   6
TORSDOF 4
ENDMDL
MODEL 8
REMARK VINA RESULT:    -3.595      3.172      4.077
REMARK INTER + INTRA:          -4.485
REMARK INTER:                  -4.275
REMARK INTRA:                  -0.210
REMARK UNBOUND:                -0.050
REMARK SMILES CCCCCC(=O)[O-]
REMARK SMILES IDX 4 1 5 2 6 3 7 4 8 5 3 6 2 7 1 8
REMARK H PARENT
REMARK Flexibility Score: inf
ROOT
ATOM      1  C   UNL     1      48.773  31.604  17.320  1.00  0.00     0.006 C 
ENDROOT
BRANCH   1   2
ATOM      2  C   UNL     1      49.449  30.579  16.399  1.00  0.00     0.053 C 
BRANCH   2   3
ATOM      3  C   UNL     1      48.704  30.413  15.110  1.00  0.00     0.041 C 
ATOM      4  O   UNL     1      48.723  31.328  14.245  1.00  0.00    -0.550 OA
ATOM      5  O   UNL     1      48.016  29.235  14.851  1.00  0.00    -0.550 OA
ENDBRANCH   2   3
ENDBRANCH   1   2
BRANCH   1   6
ATOM      6  C   UNL     1      49.675  32.815  17.603  1.00  0.00     0.000 C 
BRANCH   6   7
ATOM      7  C   UNL     1      48.974  34.123  17.219  1.00  0.00    -0.003 C 
ATOM      8  C   UNL     1      47.635  33.854  16.539  1.00  0.00     0.004 C 
ENDBRANCH   6   7
ENDBRANCH   1   6
TORSDOF 4
ENDMDL
MODEL 9
REMARK VINA RESULT:    -3.502     11.821     13.079
REMARK INTER + INTRA:          -4.371
REMARK INTER:                  -4.131
REMARK INTRA:                  -0.240
REMARK UNBOUND:                -0.050
REMARK SMILES CCCCCC(=O)[O-]
REMARK SMILES IDX 4 1 5 2 6 3 7 4 8 5 3 6 2 7 1 8
REMARK H PARENT
REMARK Flexibility Score: inf
ROOT
ATOM      1  C   UNL     1      40.075  38.774  22.488  1.00  0.00     0.006 C 
ENDROOT
BRANCH   1   2
ATOM      2  C   UNL     1      38.810  37.999  22.095  1.00  0.00     0.053 C 
BRANCH   2   3
ATOM      3  C   UNL     1      38.220  37.270  23.263  1.00  0.00     0.041 C 
ATOM      4  O   UNL     1      38.736  36.194  23.665  1.00  0.00    -0.550 OA
ATOM      5  O   UNL     1      37.119  37.795  23.927  1.00  0.00    -0.550 OA
ENDBRANCH   2   3
ENDBRANCH   1   2
BRANCH   1   6
ATOM      6  C   UNL     1      41.348  38.142  21.907  1.00  0.00     0.000 C 
BRANCH   6   7
ATOM      7  C   UNL     1      41.980  37.163  22.904  1.00  0.00    -0.003 C 
ATOM      8  C   UNL     1      41.929  37.713  24.326  1.00  0.00     0.004 C 
ENDBRANCH   6   7
ENDBRANCH   1   6
TORSDOF 4
ENDMDL
