MODEL 1
REMARK VINA RESULT:    -5.343      0.000      0.000
REMARK INTER + INTRA:          -6.171
REMARK INTER:                  -6.124
REMARK INTRA:                  -0.047
REMARK UNBOUND:                -0.047
REMARK SMILES O=C([O-])c1cc(O)c(O)c(O)c1
REMARK SMILES IDX 4 1 5 2 12 3 6 4 10 5 8 6 2 7 1 8 3 9 7 10 11 12 9 14
REMARK H PARENT 7 11 11 13 9 15
REMARK Flexibility Score: inf
ROOT
ATOM      1  C   UNL     1     166.790 147.332 150.824  1.00  0.00     0.005 A 
ATOM      2  C   UNL     1     168.092 147.609 150.374  1.00  0.00     0.060 A 
ATOM      3  C   UNL     1     166.620 146.572 151.994  1.00  0.00     0.060 A 
ATOM      4  C   UNL     1     169.206 147.137 151.076  1.00  0.00     0.162 A 
ATOM      5  C   UNL     1     167.731 146.096 152.704  1.00  0.00     0.162 A 
ATOM      6  C   UNL     1     169.029 146.377 152.246  1.00  0.00     0.200 A 
ENDROOT
BRANCH   1   7
ATOM      7  C   UNL     1     165.613 147.832 150.080  1.00  0.00     0.072 C 
ATOM      8  O   UNL     1     165.469 147.570 148.856  1.00  0.00    -0.545 OA
ATOM      9  O   UNL     1     164.647 148.599 150.723  1.00  0.00    -0.545 OA
ENDBRANCH   1   7
BRANCH   4  10
ATOM     10  O   UNL     1     170.482 147.433 150.598  1.00  0.00    -0.504 OA
ATOM     11  H   UNL     1     170.672 147.563 149.611  1.00  0.00     0.293 HD
ENDBRANCH   4  10
BRANCH   5  12
ATOM     12  O   UNL     1     167.548 145.343 153.863  1.00  0.00    -0.504 OA
ATOM     13  H   UNL     1     167.440 144.337 153.831  1.00  0.00     0.293 HD
ENDBRANCH   5  12
BRANCH   6  14
ATOM     14  O   UNL     1     170.146 145.911 152.941  1.00  0.00    -0.502 OA
ATOM     15  H   UNL     1     171.078 146.267 152.767  1.00  0.00     0.293 HD
ENDBRANCH   6  14
TORSDOF 4
ENDMDL
MODEL 2
REMARK VINA RESULT:    -5.339      0.048      2.430
REMARK INTER + INTRA:          -6.166
REMARK INTER:                  -6.119
REMARK INTRA:                  -0.047
REMARK UNBOUND:                -0.047
REMARK SMILES O=C([O-])c1cc(O)c(O)c(O)c1
REMARK SMILES IDX 4 1 5 2 12 3 6 4 10 5 8 6 2 7 1 8 3 9 7 10 11 12 9 14
REMARK H PARENT 7 11 11 13 9 15
REMARK Flexibility Score: inf
ROOT
ATOM      1  C   UNL     1     166.794 147.312 150.837  1.00  0.00     0.005 A 
ATOM      2  C   UNL     1     166.647 146.554 152.011  1.00  0.00     0.060 A 
ATOM      3  C   UNL     1     168.087 147.581 150.357  1.00  0.00     0.060 A 
ATOM      4  C   UNL     1     167.768 146.075 152.697  1.00  0.00     0.162 A 
ATOM      5  C   UNL     1     169.215 147.104 151.038  1.00  0.00     0.162 A 
ATOM      6  C   UNL     1     169.058 146.348 152.212  1.00  0.00     0.200 A 
ENDROOT
BRANCH   1   7
ATOM      7  C   UNL     1     165.607 147.818 150.112  1.00  0.00     0.072 C 
ATOM      8  O   UNL     1     165.447 147.566 148.889  1.00  0.00    -0.545 OA
ATOM      9  O   UNL     1     164.649 148.579 150.774  1.00  0.00    -0.545 OA
ENDBRANCH   1   7
BRANCH   4  10
ATOM     10  O   UNL     1     167.580 145.327 153.859  1.00  0.00    -0.504 OA
ATOM     11  H   UNL     1     166.899 144.579 153.916  1.00  0.00     0.293 HD
ENDBRANCH   4  10
BRANCH   5  12
ATOM     12  O   UNL     1     170.492 147.378 150.551  1.00  0.00    -0.504 OA
ATOM     13  H   UNL     1     170.634 147.805 149.643  1.00  0.00     0.293 HD
ENDBRANCH   5  12
BRANCH   6  14
ATOM     14  O   UNL     1     170.171 145.865 152.902  1.00  0.00    -0.502 OA
ATOM     15  H   UNL     1     170.256 144.894 153.177  1.00  0.00     0.293 HD
ENDBRANCH   6  14
TORSDOF 4
ENDMDL
MODEL 3
REMARK VINA RESULT:    -5.126      1.556      2.999
REMARK INTER + INTRA:          -5.922
REMARK INTER:                  -5.869
REMARK INTRA:                  -0.052
REMARK UNBOUND:                -0.047
REMARK SMILES O=C([O-])c1cc(O)c(O)c(O)c1
REMARK SMILES IDX 4 1 5 2 12 3 6 4 10 5 8 6 2 7 1 8 3 9 7 10 11 12 9 14
REMARK H PARENT 7 11 11 13 9 15
REMARK Flexibility Score: inf
ROOT
ATOM      1  C   UNL     1     167.232 146.953 150.759  1.00  0.00     0.005 A 
ATOM      2  C   UNL     1     168.151 146.529 151.733  1.00  0.00     0.060 A 
ATOM      3  C   UNL     1     167.668 147.110 149.432  1.00  0.00     0.060 A 
ATOM      4  C   UNL     1     169.483 146.268 151.393  1.00  0.00     0.162 A 
ATOM      5  C   UNL     1     169.000 146.850 149.083  1.00  0.00     0.162 A 
ATOM      6  C   UNL     1     169.913 146.427 150.064  1.00  0.00     0.200 A 
ENDROOT
BRANCH   1   7
ATOM      7  C   UNL     1     165.824 147.229 151.120  1.00  0.00     0.072 C 
ATOM      8  O   UNL     1     165.349 146.817 152.212  1.00  0.00    -0.545 OA
ATOM      9  O   UNL     1     165.003 147.949 150.259  1.00  0.00    -0.545 OA
ENDBRANCH   1   7
BRANCH   4  10
ATOM     10  O   UNL     1     170.365 145.849 152.389  1.00  0.00    -0.504 OA
ATOM     11  H   UNL     1     171.021 145.092 152.245  1.00  0.00     0.293 HD
ENDBRANCH   4  10
BRANCH   5  12
ATOM     12  O   UNL     1     169.419 147.010 147.763  1.00  0.00    -0.504 OA
ATOM     13  H   UNL     1     168.985 146.502 147.002  1.00  0.00     0.293 HD
ENDBRANCH   5  12
BRANCH   6  14
ATOM     14  O   UNL     1     171.243 146.163 149.734  1.00  0.00    -0.502 OA
ATOM     15  H   UNL     1     171.536 145.278 149.338  1.00  0.00     0.293 HD
ENDBRANCH   6  14
TORSDOF 4
ENDMDL
MODEL 4
REMARK VINA RESULT:    -5.107      1.570      2.320
REMARK INTER + INTRA:          -5.900
REMARK INTER:                  -5.848
REMARK INTRA:                  -0.052
REMARK UNBOUND:                -0.047
REMARK SMILES O=C([O-])c1cc(O)c(O)c(O)c1
REMARK SMILES IDX 4 1 5 2 12 3 6 4 10 5 8 6 2 7 1 8 3 9 7 10 11 12 9 14
REMARK H PARENT 7 11 11 13 9 15
REMARK Flexibility Score: inf
ROOT
ATOM      1  C   UNL     1     167.259 146.939 150.766  1.00  0.00     0.005 A 
ATOM      2  C   UNL     1     167.696 147.090 149.439  1.00  0.00     0.060 A 
ATOM      3  C   UNL     1     168.175 146.506 151.740  1.00  0.00     0.060 A 
ATOM      4  C   UNL     1     169.022 146.813 149.087  1.00  0.00     0.162 A 
ATOM      5  C   UNL     1     169.505 146.228 151.396  1.00  0.00     0.162 A 
ATOM      6  C   UNL     1     169.932 146.381 150.066  1.00  0.00     0.200 A 
ENDROOT
BRANCH   1   7
ATOM      7  C   UNL     1     165.857 147.232 151.136  1.00  0.00     0.072 C 
ATOM      8  O   UNL     1     165.381 146.818 152.226  1.00  0.00    -0.545 OA
ATOM      9  O   UNL     1     165.043 147.972 150.284  1.00  0.00    -0.545 OA
ENDBRANCH   1   7
BRANCH   4  10
ATOM     10  O   UNL     1     169.416 146.974 147.759  1.00  0.00    -0.504 OA
ATOM     11  H   UNL     1     169.252 147.833 147.248  1.00  0.00     0.293 HD
ENDBRANCH   4  10
BRANCH   5  12
ATOM     12  O   UNL     1     170.403 145.800 152.373  1.00  0.00    -0.504 OA
ATOM     13  H   UNL     1     170.483 146.272 153.265  1.00  0.00     0.293 HD
ENDBRANCH   5  12
BRANCH   6  14
ATOM     14  O   UNL     1     171.253 146.108 149.707  1.00  0.00    -0.502 OA
ATOM     15  H   UNL     1     171.973 145.925 150.396  1.00  0.00     0.293 HD
ENDBRANCH   6  14
TORSDOF 4
ENDMDL
MODEL 5
REMARK VINA RESULT:    -4.951     12.283     13.127
REMARK INTER + INTRA:          -5.722
REMARK INTER:                  -5.669
REMARK INTRA:                  -0.053
REMARK UNBOUND:                -0.047
REMARK SMILES O=C([O-])c1cc(O)c(O)c(O)c1
REMARK SMILES IDX 4 1 5 2 12 3 6 4 10 5 8 6 2 7 1 8 3 9 7 10 11 12 9 14
REMARK H PARENT 7 11 11 13 9 15
REMARK Flexibility Score: inf
ROOT
ATOM      1  C   UNL     1     168.063 159.612 150.679  1.00  0.00     0.005 A 
ATOM      2  C   UNL     1     167.119 159.882 149.675  1.00  0.00     0.060 A 
ATOM      3  C   UNL     1     167.614 159.194 151.944  1.00  0.00     0.060 A 
ATOM      4  C   UNL     1     165.749 159.741 149.925  1.00  0.00     0.162 A 
ATOM      5  C   UNL     1     166.244 159.049 152.202  1.00  0.00     0.162 A 
ATOM      6  C   UNL     1     165.306 159.323 151.192  1.00  0.00     0.200 A 
ENDROOT
BRANCH   1   7
ATOM      7  C   UNL     1     169.511 159.761 150.413  1.00  0.00     0.072 C 
ATOM      8  O   UNL     1     169.923 160.063 149.261  1.00  0.00    -0.545 OA
ATOM      9  O   UNL     1     170.438 159.573 151.432  1.00  0.00    -0.545 OA
ENDBRANCH   1   7
BRANCH   4  10
ATOM     10  O   UNL     1     164.844 160.020 148.902  1.00  0.00    -0.504 OA
ATOM     11  H   UNL     1     164.429 160.937 148.783  1.00  0.00     0.293 HD
ENDBRANCH   4  10
BRANCH   5  12
ATOM     12  O   UNL     1     165.812 158.634 153.461  1.00  0.00    -0.504 OA
ATOM     13  H   UNL     1     164.879 158.269 153.609  1.00  0.00     0.293 HD
ENDBRANCH   5  12
BRANCH   6  14
ATOM     14  O   UNL     1     163.939 159.184 151.433  1.00  0.00    -0.502 OA
ATOM     15  H   UNL     1     163.308 159.977 151.442  1.00  0.00     0.293 HD
ENDBRANCH   6  14
TORSDOF 4
ENDMDL
MODEL 6
REMARK VINA RESULT:    -4.946     12.320     13.281
REMARK INTER + INTRA:          -5.716
REMARK INTER:                  -5.663
REMARK INTRA:                  -0.053
REMARK UNBOUND:                -0.047
REMARK SMILES O=C([O-])c1cc(O)c(O)c(O)c1
REMARK SMILES IDX 4 1 5 2 12 3 6 4 10 5 8 6 2 7 1 8 3 9 7 10 11 12 9 14
REMARK H PARENT 7 11 11 13 9 15
REMARK Flexibility Score: inf
ROOT
ATOM      1  C   UNL     1     168.075 159.618 150.681  1.00  0.00     0.005 A 
ATOM      2  C   UNL     1     167.618 159.222 151.950  1.00  0.00     0.060 A 
ATOM      3  C   UNL     1     167.135 159.881 149.670  1.00  0.00     0.060 A 
ATOM      4  C   UNL     1     166.249 159.089 152.207  1.00  0.00     0.162 A 
ATOM      5  C   UNL     1     165.762 159.750 149.919  1.00  0.00     0.162 A 
ATOM      6  C   UNL     1     165.315 159.353 151.191  1.00  0.00     0.200 A 
ENDROOT
BRANCH   1   7
ATOM      7  C   UNL     1     169.523 159.759 150.411  1.00  0.00     0.072 C 
ATOM      8  O   UNL     1     169.935 160.050 149.257  1.00  0.00    -0.545 OA
ATOM      9  O   UNL     1     170.451 159.574 151.430  1.00  0.00    -0.545 OA
ENDBRANCH   1   7
BRANCH   4  10
ATOM     10  O   UNL     1     165.836 158.693 153.478  1.00  0.00    -0.504 OA
ATOM     11  H   UNL     1     165.487 157.761 153.667  1.00  0.00     0.293 HD
ENDBRANCH   4  10
BRANCH   5  12
ATOM     12  O   UNL     1     164.841 160.014 148.906  1.00  0.00    -0.504 OA
ATOM     13  H   UNL     1     163.855 159.812 149.019  1.00  0.00     0.293 HD
ENDBRANCH   5  12
BRANCH   6  14
ATOM     14  O   UNL     1     163.951 159.218 151.456  1.00  0.00    -0.502 OA
ATOM     15  H   UNL     1     163.260 159.846 151.064  1.00  0.00     0.293 HD
ENDBRANCH   6  14
TORSDOF 4
ENDMDL
MODEL 7
REMARK VINA RESULT:    -4.911      1.621      3.839
REMARK INTER + INTRA:          -5.675
REMARK INTER:                  -5.623
REMARK INTRA:                  -0.052
REMARK UNBOUND:                -0.047
REMARK SMILES O=C([O-])c1cc(O)c(O)c(O)c1
REMARK SMILES IDX 4 1 5 2 12 3 6 4 10 5 8 6 2 7 1 8 3 9 7 10 11 12 9 14
REMARK H PARENT 7 11 11 13 9 15
REMARK Flexibility Score: inf
ROOT
ATOM      1  C   UNL     1     168.675 146.665 149.804  1.00  0.00     0.005 A 
ATOM      2  C   UNL     1     167.482 147.243 149.337  1.00  0.00     0.060 A 
ATOM      3  C   UNL     1     168.723 146.166 151.117  1.00  0.00     0.060 A 
ATOM      4  C   UNL     1     166.357 147.326 150.164  1.00  0.00     0.162 A 
ATOM      5  C   UNL     1     167.599 146.245 151.952  1.00  0.00     0.162 A 
ATOM      6  C   UNL     1     166.411 146.826 151.476  1.00  0.00     0.200 A 
ENDROOT
BRANCH   1   7
ATOM      7  C   UNL     1     169.864 146.578 148.928  1.00  0.00     0.072 C 
ATOM      8  O   UNL     1     171.011 146.403 149.419  1.00  0.00    -0.545 OA
ATOM      9  O   UNL     1     169.732 146.687 147.548  1.00  0.00    -0.545 OA
ENDBRANCH   1   7
BRANCH   4  10
ATOM     10  O   UNL     1     165.192 147.908 149.664  1.00  0.00    -0.504 OA
ATOM     11  H   UNL     1     164.735 147.567 148.827  1.00  0.00     0.293 HD
ENDBRANCH   4  10
BRANCH   5  12
ATOM     12  O   UNL     1     167.660 145.747 153.252  1.00  0.00    -0.504 OA
ATOM     13  H   UNL     1     168.504 145.324 153.621  1.00  0.00     0.293 HD
ENDBRANCH   5  12
BRANCH   6  14
ATOM     14  O   UNL     1     165.284 146.911 152.294  1.00  0.00    -0.502 OA
ATOM     15  H   UNL     1     165.032 146.178 152.946  1.00  0.00     0.293 HD
ENDBRANCH   6  14
TORSDOF 4
ENDMDL
MODEL 8
REMARK VINA RESULT:    -4.890      1.659      4.094
REMARK INTER + INTRA:          -5.651
REMARK INTER:                  -5.600
REMARK INTRA:                  -0.052
REMARK UNBOUND:                -0.047
REMARK SMILES O=C([O-])c1cc(O)c(O)c(O)c1
REMARK SMILES IDX 4 1 5 2 12 3 6 4 10 5 8 6 2 7 1 8 3 9 7 10 11 12 9 14
REMARK H PARENT 7 11 11 13 9 15
REMARK Flexibility Score: inf
ROOT
ATOM      1  C   UNL     1     168.619 146.639 149.711  1.00  0.00     0.005 A 
ATOM      2  C   UNL     1     168.675 146.163 151.031  1.00  0.00     0.060 A 
ATOM      3  C   UNL     1     167.428 147.225 149.247  1.00  0.00     0.060 A 
ATOM      4  C   UNL     1     167.564 146.265 151.875  1.00  0.00     0.162 A 
ATOM      5  C   UNL     1     166.311 147.332 150.086  1.00  0.00     0.162 A 
ATOM      6  C   UNL     1     166.376 146.852 151.405  1.00  0.00     0.200 A 
ENDROOT
BRANCH   1   7
ATOM      7  C   UNL     1     169.795 146.530 148.819  1.00  0.00     0.072 C 
ATOM      8  O   UNL     1     169.654 146.540 147.568  1.00  0.00    -0.545 OA
ATOM      9  O   UNL     1     171.075 146.417 149.352  1.00  0.00    -0.545 OA
ENDBRANCH   1   7
BRANCH   4  10
ATOM     10  O   UNL     1     167.659 145.780 153.179  1.00  0.00    -0.504 OA
ATOM     11  H   UNL     1     167.926 146.371 153.957  1.00  0.00     0.293 HD
ENDBRANCH   4  10
BRANCH   5  12
ATOM     12  O   UNL     1     165.136 147.915 149.613  1.00  0.00    -0.504 OA
ATOM     13  H   UNL     1     164.374 147.355 149.250  1.00  0.00     0.293 HD
ENDBRANCH   5  12
BRANCH   6  14
ATOM     14  O   UNL     1     165.273 146.951 152.254  1.00  0.00    -0.502 OA
ATOM     15  H   UNL     1     164.489 146.312 152.199  1.00  0.00     0.293 HD
ENDBRANCH   6  14
TORSDOF 4
ENDMDL
