MODEL 1
REMARK VINA RESULT:    -7.665      0.000      0.000
REMARK INTER + INTRA:          -9.542
REMARK INTER:                  -9.234
REMARK INTRA:                  -0.308
REMARK UNBOUND:                -0.308
REMARK SMILES Oc1cc(O)c2cc(O)c(-c3ccc(O)c(O)c3)[o+]c2c1
REMARK SMILES IDX 10 1 19 2 20 3 21 4 2 5 3 6 4 7 6 8 7 9 8 10 11 11 12 12
REMARK SMILES IDX 13 13 14 14 18 15 16 16 15 17 17 19 9 21 1 23 5 25
REMARK H PARENT 15 18 17 20 9 22 1 24 5 26
REMARK Flexibility Score: inf
ROOT
ATOM      1  C   UNL     1       8.437  -4.996  19.577  1.00  0.00     0.402 A 
ATOM      2  O   UNL     1       9.000  -4.595  18.440  1.00  0.00    -0.202 OA
ATOM      3  C   UNL     1      10.197  -5.004  18.034  1.00  0.00     0.368 A 
ATOM      4  C   UNL     1      10.706  -4.523  16.825  1.00  0.00     0.162 A 
ATOM      5  C   UNL     1      11.962  -4.932  16.375  1.00  0.00     0.128 A 
ATOM      6  C   UNL     1      12.717  -5.828  17.139  1.00  0.00     0.093 A 
ATOM      7  C   UNL     1      12.229  -6.326  18.354  1.00  0.00     0.136 A 
ATOM      8  C   UNL     1      10.951  -5.913  18.814  1.00  0.00     0.125 A 
ATOM      9  C   UNL     1      10.378  -6.369  20.012  1.00  0.00     0.078 A 
ATOM     10  C   UNL     1       9.111  -5.921  20.397  1.00  0.00     0.223 A 
ENDROOT
BRANCH   1  11
ATOM     11  C   UNL     1       7.101  -4.461  19.925  1.00  0.00     0.087 A 
ATOM     12  C   UNL     1       6.940  -3.488  20.927  1.00  0.00     0.022 A 
ATOM     13  C   UNL     1       5.672  -2.980  21.221  1.00  0.00     0.051 A 
ATOM     14  C   UNL     1       4.550  -3.425  20.515  1.00  0.00     0.157 A 
ATOM     15  C   UNL     1       5.976  -4.890  19.203  1.00  0.00     0.068 A 
ATOM     16  C   UNL     1       4.701  -4.382  19.498  1.00  0.00     0.158 A 
BRANCH  14  17
ATOM     17  O   UNL     1       3.298  -2.901  20.833  1.00  0.00    -0.504 OA
ATOM     18  H   UNL     1       2.997  -2.774  21.792  1.00  0.00     0.293 HD
ENDBRANCH  14  17
BRANCH  16  19
ATOM     19  O   UNL     1       3.589  -4.825  18.785  1.00  0.00    -0.504 OA
ATOM     20  H   UNL     1       2.853  -4.189  18.501  1.00  0.00     0.293 HD
ENDBRANCH  16  19
ENDBRANCH   1  11
BRANCH  10  21
ATOM     21  O   UNL     1       8.520  -6.411  21.562  1.00  0.00    -0.500 OA
ATOM     22  H   UNL     1       7.600  -6.837  21.553  1.00  0.00     0.294 HD
ENDBRANCH  10  21
BRANCH   5  23
ATOM     23  O   UNL     1      12.450  -4.441  15.166  1.00  0.00    -0.507 OA
ATOM     24  H   UNL     1      13.434  -4.506  14.927  1.00  0.00     0.293 HD
ENDBRANCH   5  23
BRANCH   7  25
ATOM     25  O   UNL     1      13.046  -7.214  19.060  1.00  0.00    -0.507 OA
ATOM     26  H   UNL     1      12.715  -8.046  19.525  1.00  0.00     0.293 HD
ENDBRANCH   7  25
TORSDOF 6
ENDMDL
MODEL 2
REMARK VINA RESULT:    -7.415      3.821      6.709
REMARK INTER + INTRA:          -9.240
REMARK INTER:                  -8.888
REMARK INTRA:                  -0.352
REMARK UNBOUND:                -0.308
REMARK SMILES Oc1cc(O)c2cc(O)c(-c3ccc(O)c(O)c3)[o+]c2c1
REMARK SMILES IDX 10 1 19 2 20 3 21 4 2 5 3 6 4 7 6 8 7 9 8 10 11 11 12 12
REMARK SMILES IDX 13 13 14 14 18 15 16 16 15 17 17 19 9 21 1 23 5 25
REMARK H PARENT 15 18 17 20 9 22 1 24 5 26
REMARK Flexibility Score: inf
ROOT
ATOM      1  C   UNL     1      13.946  -4.347  16.845  1.00  0.00     0.402 A 
ATOM      2  O   UNL     1      14.510  -5.086  15.893  1.00  0.00    -0.202 OA
ATOM      3  C   UNL     1      15.671  -4.781  15.322  1.00  0.00     0.368 A 
ATOM      4  C   UNL     1      16.181  -5.618  14.328  1.00  0.00     0.162 A 
ATOM      5  C   UNL     1      17.395  -5.320  13.708  1.00  0.00     0.128 A 
ATOM      6  C   UNL     1      18.106  -4.176  14.085  1.00  0.00     0.093 A 
ATOM      7  C   UNL     1      17.617  -3.320  15.079  1.00  0.00     0.136 A 
ATOM      8  C   UNL     1      16.383  -3.621  15.712  1.00  0.00     0.125 A 
ATOM      9  C   UNL     1      15.822  -2.828  16.727  1.00  0.00     0.078 A 
ATOM     10  C   UNL     1      14.604  -3.191  17.308  1.00  0.00     0.223 A 
ENDROOT
BRANCH   1  11
ATOM     11  C   UNL     1      12.645  -4.788  17.396  1.00  0.00     0.087 A 
ATOM     12  C   UNL     1      11.431  -4.271  16.909  1.00  0.00     0.022 A 
ATOM     13  C   UNL     1      10.214  -4.721  17.428  1.00  0.00     0.051 A 
ATOM     14  C   UNL     1      10.188  -5.697  18.429  1.00  0.00     0.157 A 
ATOM     15  C   UNL     1      12.615  -5.783  18.386  1.00  0.00     0.068 A 
ATOM     16  C   UNL     1      11.394  -6.234  18.909  1.00  0.00     0.158 A 
BRANCH  14  17
ATOM     17  O   UNL     1       8.958  -6.123  18.929  1.00  0.00    -0.504 OA
ATOM     18  H   UNL     1       8.155  -5.507  18.976  1.00  0.00     0.293 HD
ENDBRANCH  14  17
BRANCH  16  19
ATOM     19  O   UNL     1      11.377  -7.213  19.901  1.00  0.00    -0.504 OA
ATOM     20  H   UNL     1      10.518  -7.674  20.177  1.00  0.00     0.293 HD
ENDBRANCH  16  19
ENDBRANCH   1  11
BRANCH  10  21
ATOM     21  O   UNL     1      14.071  -2.432  18.350  1.00  0.00    -0.500 OA
ATOM     22  H   UNL     1      13.075  -2.267  18.433  1.00  0.00     0.294 HD
ENDBRANCH  10  21
BRANCH   5  23
ATOM     23  O   UNL     1      17.887  -6.170  12.719  1.00  0.00    -0.507 OA
ATOM     24  H   UNL     1      18.051  -7.154  12.900  1.00  0.00     0.293 HD
ENDBRANCH   5  23
BRANCH   7  25
ATOM     25  O   UNL     1      18.385  -2.195  15.395  1.00  0.00    -0.507 OA
ATOM     26  H   UNL     1      18.054  -1.244  15.334  1.00  0.00     0.293 HD
ENDBRANCH   7  25
TORSDOF 6
ENDMDL
MODEL 3
REMARK VINA RESULT:    -7.335      3.873      9.108
REMARK INTER + INTRA:          -9.145
REMARK INTER:                  -8.795
REMARK INTRA:                  -0.349
REMARK UNBOUND:                -0.308
REMARK SMILES Oc1cc(O)c2cc(O)c(-c3ccc(O)c(O)c3)[o+]c2c1
REMARK SMILES IDX 10 1 19 2 20 3 21 4 2 5 3 6 4 7 6 8 7 9 8 10 11 11 12 12
REMARK SMILES IDX 13 13 14 14 18 15 16 16 15 17 17 19 9 21 1 23 5 25
REMARK H PARENT 15 18 17 20 9 22 1 24 5 26
REMARK Flexibility Score: inf
ROOT
ATOM      1  C   UNL     1      13.949  -3.688  16.721  1.00  0.00     0.402 A 
ATOM      2  O   UNL     1      13.869  -3.337  18.002  1.00  0.00    -0.202 OA
ATOM      3  C   UNL     1      12.725  -3.284  18.675  1.00  0.00     0.368 A 
ATOM      4  C   UNL     1      12.743  -2.901  20.018  1.00  0.00     0.162 A 
ATOM      5  C   UNL     1      11.556  -2.832  20.749  1.00  0.00     0.128 A 
ATOM      6  C   UNL     1      10.340  -3.149  20.133  1.00  0.00     0.093 A 
ATOM      7  C   UNL     1      10.295  -3.537  18.788  1.00  0.00     0.136 A 
ATOM      8  C   UNL     1      11.501  -3.609  18.042  1.00  0.00     0.125 A 
ATOM      9  C   UNL     1      11.552  -3.999  16.694  1.00  0.00     0.078 A 
ATOM     10  C   UNL     1      12.779  -4.051  16.026  1.00  0.00     0.223 A 
ENDROOT
BRANCH   1  11
ATOM     11  C   UNL     1      15.283  -3.699  16.079  1.00  0.00     0.087 A 
ATOM     12  C   UNL     1      16.085  -4.855  16.077  1.00  0.00     0.022 A 
ATOM     13  C   UNL     1      17.330  -4.849  15.444  1.00  0.00     0.051 A 
ATOM     14  C   UNL     1      17.789  -3.697  14.795  1.00  0.00     0.157 A 
ATOM     15  C   UNL     1      15.737  -2.552  15.409  1.00  0.00     0.068 A 
ATOM     16  C   UNL     1      16.988  -2.543  14.773  1.00  0.00     0.158 A 
BRANCH  14  17
ATOM     17  O   UNL     1      19.037  -3.722  14.174  1.00  0.00    -0.504 OA
ATOM     18  H   UNL     1      19.768  -4.360  14.465  1.00  0.00     0.293 HD
ENDBRANCH  14  17
BRANCH  16  19
ATOM     19  O   UNL     1      17.435  -1.396  14.122  1.00  0.00    -0.504 OA
ATOM     20  H   UNL     1      18.288  -1.393  13.577  1.00  0.00     0.293 HD
ENDBRANCH  16  19
ENDBRANCH   1  11
BRANCH  10  21
ATOM     21  O   UNL     1      12.837  -4.487  14.703  1.00  0.00    -0.500 OA
ATOM     22  H   UNL     1      13.382  -3.996  14.003  1.00  0.00     0.294 HD
ENDBRANCH  10  21
BRANCH   5  23
ATOM     23  O   UNL     1      11.596  -2.448  22.088  1.00  0.00    -0.507 OA
ATOM     24  H   UNL     1      11.583  -1.471  22.359  1.00  0.00     0.293 HD
ENDBRANCH   5  23
BRANCH   7  25
ATOM     25  O   UNL     1       9.041  -3.833  18.246  1.00  0.00    -0.507 OA
ATOM     26  H   UNL     1       8.896  -4.386  17.414  1.00  0.00     0.293 HD
ENDBRANCH   7  25
TORSDOF 6
ENDMDL
MODEL 4
REMARK VINA RESULT:    -6.842      2.022      2.182
REMARK INTER + INTRA:          -8.550
REMARK INTER:                  -8.664
REMARK INTRA:                   0.114
REMARK UNBOUND:                -0.308
REMARK SMILES Oc1cc(O)c2cc(O)c(-c3ccc(O)c(O)c3)[o+]c2c1
REMARK SMILES IDX 10 1 19 2 20 3 21 4 2 5 3 6 4 7 6 8 7 9 8 10 11 11 12 12
REMARK SMILES IDX 13 13 14 14 18 15 16 16 15 17 17 19 9 21 1 23 5 25
REMARK H PARENT 15 18 17 20 9 22 1 24 5 26
REMARK Flexibility Score: inf
ROOT
ATOM      1  C   UNL     1       9.250  -4.067  19.511  1.00  0.00     0.402 A 
ATOM      2  O   UNL     1       9.685  -4.347  18.285  1.00  0.00    -0.202 OA
ATOM      3  C   UNL     1      10.923  -4.093  17.874  1.00  0.00     0.368 A 
ATOM      4  C   UNL     1      11.285  -4.420  16.565  1.00  0.00     0.162 A 
ATOM      5  C   UNL     1      12.577  -4.162  16.105  1.00  0.00     0.128 A 
ATOM      6  C   UNL     1      13.515  -3.571  16.958  1.00  0.00     0.093 A 
ATOM      7  C   UNL     1      13.177  -3.234  18.275  1.00  0.00     0.136 A 
ATOM      8  C   UNL     1      11.865  -3.497  18.747  1.00  0.00     0.125 A 
ATOM      9  C   UNL     1      11.442  -3.205  20.054  1.00  0.00     0.078 A 
ATOM     10  C   UNL     1      10.133  -3.497  20.449  1.00  0.00     0.223 A 
ENDROOT
BRANCH   1  11
ATOM     11  C   UNL     1       7.844  -4.389  19.847  1.00  0.00     0.087 A 
ATOM     12  C   UNL     1       7.494  -4.925  21.099  1.00  0.00     0.022 A 
ATOM     13  C   UNL     1       6.158  -5.199  21.401  1.00  0.00     0.051 A 
ATOM     14  C   UNL     1       5.152  -4.932  20.467  1.00  0.00     0.157 A 
ATOM     15  C   UNL     1       6.830  -4.104  18.919  1.00  0.00     0.068 A 
ATOM     16  C   UNL     1       5.487  -4.379  19.220  1.00  0.00     0.158 A 
BRANCH  14  17
ATOM     17  O   UNL     1       3.828  -5.219  20.797  1.00  0.00    -0.504 OA
ATOM     18  H   UNL     1       3.049  -4.753  20.346  1.00  0.00     0.293 HD
ENDBRANCH  14  17
BRANCH  16  19
ATOM     19  O   UNL     1       4.490  -4.104  18.287  1.00  0.00    -0.504 OA
ATOM     20  H   UNL     1       4.585  -4.370  17.314  1.00  0.00     0.293 HD
ENDBRANCH  16  19
ENDBRANCH   1  11
BRANCH  10  21
ATOM     21  O   UNL     1       9.727  -3.254  21.761  1.00  0.00    -0.500 OA
ATOM     22  H   UNL     1       8.974  -3.778  22.191  1.00  0.00     0.294 HD
ENDBRANCH  10  21
BRANCH   5  23
ATOM     23  O   UNL     1      12.918  -4.496  14.796  1.00  0.00    -0.507 OA
ATOM     24  H   UNL     1      13.883  -4.640  14.521  1.00  0.00     0.293 HD
ENDBRANCH   5  23
BRANCH   7  25
ATOM     25  O   UNL     1      14.170  -2.644  19.063  1.00  0.00    -0.507 OA
ATOM     26  H   UNL     1      15.161  -2.743  18.900  1.00  0.00     0.293 HD
ENDBRANCH   7  25
TORSDOF 6
ENDMDL
MODEL 5
REMARK VINA RESULT:    -6.771      4.832      8.006
REMARK INTER + INTRA:          -8.465
REMARK INTER:                  -8.222
REMARK INTRA:                  -0.243
REMARK UNBOUND:                -0.308
REMARK SMILES Oc1cc(O)c2cc(O)c(-c3ccc(O)c(O)c3)[o+]c2c1
REMARK SMILES IDX 10 1 19 2 20 3 21 4 2 5 3 6 4 7 6 8 7 9 8 10 11 11 12 12
REMARK SMILES IDX 13 13 14 14 18 15 16 16 15 17 17 19 9 21 1 23 5 25
REMARK H PARENT 15 18 17 20 9 22 1 24 5 26
REMARK Flexibility Score: inf
ROOT
ATOM      1  C   UNL     1      15.195  -3.719  15.861  1.00  0.00     0.402 A 
ATOM      2  O   UNL     1      15.822  -4.860  15.584  1.00  0.00    -0.202 OA
ATOM      3  C   UNL     1      16.941  -4.924  14.872  1.00  0.00     0.368 A 
ATOM      4  C   UNL     1      17.524  -6.170  14.631  1.00  0.00     0.162 A 
ATOM      5  C   UNL     1      18.697  -6.268  13.882  1.00  0.00     0.128 A 
ATOM      6  C   UNL     1      19.294  -5.112  13.368  1.00  0.00     0.093 A 
ATOM      7  C   UNL     1      18.730  -3.850  13.596  1.00  0.00     0.136 A 
ATOM      8  C   UNL     1      17.537  -3.747  14.358  1.00  0.00     0.125 A 
ATOM      9  C   UNL     1      16.909  -2.524  14.646  1.00  0.00     0.078 A 
ATOM     10  C   UNL     1      15.738  -2.501  15.409  1.00  0.00     0.223 A 
ENDROOT
BRANCH   1  11
ATOM     11  C   UNL     1      13.949  -3.779  16.657  1.00  0.00     0.087 A 
ATOM     12  C   UNL     1      13.900  -3.299  17.978  1.00  0.00     0.022 A 
ATOM     13  C   UNL     1      12.705  -3.344  18.702  1.00  0.00     0.051 A 
ATOM     14  C   UNL     1      11.543  -3.858  18.118  1.00  0.00     0.157 A 
ATOM     15  C   UNL     1      12.775  -4.275  16.068  1.00  0.00     0.068 A 
ATOM     16  C   UNL     1      11.575  -4.323  16.793  1.00  0.00     0.158 A 
BRANCH  14  17
ATOM     17  O   UNL     1      10.368  -3.893  18.868  1.00  0.00    -0.504 OA
ATOM     18  H   UNL     1       9.747  -3.094  18.930  1.00  0.00     0.293 HD
ENDBRANCH  14  17
BRANCH  16  19
ATOM     19  O   UNL     1      10.419  -4.829  16.203  1.00  0.00    -0.504 OA
ATOM     20  H   UNL     1      10.363  -5.788  15.882  1.00  0.00     0.293 HD
ENDBRANCH  16  19
ENDBRANCH   1  11
BRANCH  10  21
ATOM     21  O   UNL     1      15.141  -1.284  15.738  1.00  0.00    -0.500 OA
ATOM     22  H   UNL     1      14.202  -1.236  16.114  1.00  0.00     0.294 HD
ENDBRANCH  10  21
BRANCH   5  23
ATOM     23  O   UNL     1      19.263  -7.521  13.655  1.00  0.00    -0.507 OA
ATOM     24  H   UNL     1      18.687  -8.339  13.486  1.00  0.00     0.293 HD
ENDBRANCH   5  23
BRANCH   7  25
ATOM     25  O   UNL     1      19.384  -2.744  13.045  1.00  0.00    -0.507 OA
ATOM     26  H   UNL     1      20.075  -2.797  12.311  1.00  0.00     0.293 HD
ENDBRANCH   7  25
TORSDOF 6
ENDMDL
MODEL 6
REMARK VINA RESULT:    -6.723      3.511      5.702
REMARK INTER + INTRA:          -8.406
REMARK INTER:                  -8.110
REMARK INTRA:                  -0.296
REMARK UNBOUND:                -0.308
REMARK SMILES Oc1cc(O)c2cc(O)c(-c3ccc(O)c(O)c3)[o+]c2c1
REMARK SMILES IDX 10 1 19 2 20 3 21 4 2 5 3 6 4 7 6 8 7 9 8 10 11 11 12 12
REMARK SMILES IDX 13 13 14 14 18 15 16 16 15 17 17 19 9 21 1 23 5 25
REMARK H PARENT 15 18 17 20 9 22 1 24 5 26
REMARK Flexibility Score: inf
ROOT
ATOM      1  C   UNL     1      12.748  -4.083  17.459  1.00  0.00     0.402 A 
ATOM      2  O   UNL     1      13.601  -3.357  18.178  1.00  0.00    -0.202 OA
ATOM      3  C   UNL     1      14.794  -2.978  17.733  1.00  0.00     0.368 A 
ATOM      4  C   UNL     1      15.621  -2.219  18.564  1.00  0.00     0.162 A 
ATOM      5  C   UNL     1      16.880  -1.811  18.125  1.00  0.00     0.128 A 
ATOM      6  C   UNL     1      17.319  -2.164  16.844  1.00  0.00     0.093 A 
ATOM      7  C   UNL     1      16.509  -2.923  15.991  1.00  0.00     0.136 A 
ATOM      8  C   UNL     1      15.227  -3.339  16.434  1.00  0.00     0.125 A 
ATOM      9  C   UNL     1      14.343  -4.091  15.643  1.00  0.00     0.078 A 
ATOM     10  C   UNL     1      13.093  -4.460  16.147  1.00  0.00     0.223 A 
ENDROOT
BRANCH   1  11
ATOM     11  C   UNL     1      11.451  -4.450  18.071  1.00  0.00     0.087 A 
ATOM     12  C   UNL     1      11.184  -5.767  18.487  1.00  0.00     0.022 A 
ATOM     13  C   UNL     1       9.962  -6.085  19.084  1.00  0.00     0.051 A 
ATOM     14  C   UNL     1       8.994  -5.095  19.285  1.00  0.00     0.157 A 
ATOM     15  C   UNL     1      10.486  -3.455  18.293  1.00  0.00     0.068 A 
ATOM     16  C   UNL     1       9.257  -3.773  18.891  1.00  0.00     0.158 A 
BRANCH  14  17
ATOM     17  O   UNL     1       7.783  -5.444  19.881  1.00  0.00    -0.504 OA
ATOM     18  H   UNL     1       7.742  -5.973  20.744  1.00  0.00     0.293 HD
ENDBRANCH  14  17
BRANCH  16  19
ATOM     19  O   UNL     1       8.300  -2.780  19.096  1.00  0.00    -0.504 OA
ATOM     20  H   UNL     1       8.360  -1.882  18.632  1.00  0.00     0.293 HD
ENDBRANCH  16  19
ENDBRANCH   1  11
BRANCH  10  21
ATOM     21  O   UNL     1      12.195  -5.164  15.344  1.00  0.00    -0.500 OA
ATOM     22  H   UNL     1      12.511  -5.816  14.636  1.00  0.00     0.294 HD
ENDBRANCH  10  21
BRANCH   5  23
ATOM     23  O   UNL     1      17.689  -1.054  18.970  1.00  0.00    -0.507 OA
ATOM     24  H   UNL     1      18.701  -1.089  18.906  1.00  0.00     0.293 HD
ENDBRANCH   5  23
BRANCH   7  25
ATOM     25  O   UNL     1      17.021  -3.237  14.729  1.00  0.00    -0.507 OA
ATOM     26  H   UNL     1      17.190  -4.176  14.399  1.00  0.00     0.293 HD
ENDBRANCH   7  25
TORSDOF 6
ENDMDL
MODEL 7
REMARK VINA RESULT:    -6.690      4.345      9.067
REMARK INTER + INTRA:          -8.367
REMARK INTER:                  -8.015
REMARK INTRA:                  -0.352
REMARK UNBOUND:                -0.308
REMARK SMILES Oc1cc(O)c2cc(O)c(-c3ccc(O)c(O)c3)[o+]c2c1
REMARK SMILES IDX 10 1 19 2 20 3 21 4 2 5 3 6 4 7 6 8 7 9 8 10 11 11 12 12
REMARK SMILES IDX 13 13 14 14 18 15 16 16 15 17 17 19 9 21 1 23 5 25
REMARK H PARENT 15 18 17 20 9 22 1 24 5 26
REMARK Flexibility Score: inf
ROOT
ATOM      1  C   UNL     1      14.619  -2.883  17.545  1.00  0.00     0.402 A 
ATOM      2  O   UNL     1      13.400  -3.287  17.199  1.00  0.00    -0.202 OA
ATOM      3  C   UNL     1      12.382  -3.348  18.050  1.00  0.00     0.368 A 
ATOM      4  C   UNL     1      11.138  -3.790  17.592  1.00  0.00     0.162 A 
ATOM      5  C   UNL     1      10.052  -3.869  18.464  1.00  0.00     0.128 A 
ATOM      6  C   UNL     1      10.209  -3.505  19.806  1.00  0.00     0.093 A 
ATOM      7  C   UNL     1      11.445  -3.059  20.291  1.00  0.00     0.136 A 
ATOM      8  C   UNL     1      12.551  -2.976  19.406  1.00  0.00     0.125 A 
ATOM      9  C   UNL     1      13.823  -2.528  19.800  1.00  0.00     0.078 A 
ATOM     10  C   UNL     1      14.864  -2.469  18.869  1.00  0.00     0.223 A 
ENDROOT
BRANCH   1  11
ATOM     11  C   UNL     1      15.674  -2.867  16.506  1.00  0.00     0.087 A 
ATOM     12  C   UNL     1      16.540  -3.960  16.325  1.00  0.00     0.022 A 
ATOM     13  C   UNL     1      17.512  -3.932  15.322  1.00  0.00     0.051 A 
ATOM     14  C   UNL     1      17.628  -2.821  14.479  1.00  0.00     0.157 A 
ATOM     15  C   UNL     1      15.780  -1.762  15.646  1.00  0.00     0.068 A 
ATOM     16  C   UNL     1      16.756  -1.732  14.639  1.00  0.00     0.158 A 
BRANCH  14  17
ATOM     17  O   UNL     1      18.610  -2.822  13.490  1.00  0.00    -0.504 OA
ATOM     18  H   UNL     1      18.811  -2.000  12.932  1.00  0.00     0.293 HD
ENDBRANCH  14  17
BRANCH  16  19
ATOM     19  O   UNL     1      16.861  -0.625  13.799  1.00  0.00    -0.504 OA
ATOM     20  H   UNL     1      16.526   0.289  14.080  1.00  0.00     0.293 HD
ENDBRANCH  16  19
ENDBRANCH   1  11
BRANCH  10  21
ATOM     21  O   UNL     1      16.114  -1.978  19.247  1.00  0.00    -0.500 OA
ATOM     22  H   UNL     1      16.479  -2.116  20.182  1.00  0.00     0.294 HD
ENDBRANCH  10  21
BRANCH   5  23
ATOM     23  O   UNL     1       8.819  -4.311  17.987  1.00  0.00    -0.507 OA
ATOM     24  H   UNL     1       8.017  -3.692  17.940  1.00  0.00     0.293 HD
ENDBRANCH   5  23
BRANCH   7  25
ATOM     25  O   UNL     1      11.520  -2.718  21.644  1.00  0.00    -0.507 OA
ATOM     26  H   UNL     1      11.754  -1.798  21.988  1.00  0.00     0.293 HD
ENDBRANCH   7  25
TORSDOF 6
ENDMDL
MODEL 8
REMARK VINA RESULT:    -6.586      3.821      9.387
REMARK INTER + INTRA:          -8.242
REMARK INTER:                  -7.889
REMARK INTRA:                  -0.353
REMARK UNBOUND:                -0.308
REMARK SMILES Oc1cc(O)c2cc(O)c(-c3ccc(O)c(O)c3)[o+]c2c1
REMARK SMILES IDX 10 1 19 2 20 3 21 4 2 5 3 6 4 7 6 8 7 9 8 10 11 11 12 12
REMARK SMILES IDX 13 13 14 14 18 15 16 16 15 17 17 19 9 21 1 23 5 25
REMARK H PARENT 15 18 17 20 9 22 1 24 5 26
REMARK Flexibility Score: inf
ROOT
ATOM      1  C   UNL     1      14.653  -4.346  16.518  1.00  0.00     0.402 A 
ATOM      2  O   UNL     1      14.170  -5.367  17.223  1.00  0.00    -0.202 OA
ATOM      3  C   UNL     1      13.005  -5.327  17.859  1.00  0.00     0.368 A 
ATOM      4  C   UNL     1      12.583  -6.449  18.577  1.00  0.00     0.162 A 
ATOM      5  C   UNL     1      11.366  -6.435  19.259  1.00  0.00     0.128 A 
ATOM      6  C   UNL     1      10.562  -5.290  19.225  1.00  0.00     0.093 A 
ATOM      7  C   UNL     1      10.961  -4.153  18.512  1.00  0.00     0.136 A 
ATOM      8  C   UNL     1      12.198  -4.164  17.816  1.00  0.00     0.125 A 
ATOM      9  C   UNL     1      12.672  -3.075  17.066  1.00  0.00     0.078 A 
ATOM     10  C   UNL     1      13.899  -3.162  16.403  1.00  0.00     0.223 A 
ENDROOT
BRANCH   1  11
ATOM     11  C   UNL     1      15.970  -4.510  15.861  1.00  0.00     0.087 A 
ATOM     12  C   UNL     1      17.155  -4.066  16.475  1.00  0.00     0.022 A 
ATOM     13  C   UNL     1      18.388  -4.253  15.846  1.00  0.00     0.051 A 
ATOM     14  C   UNL     1      18.460  -4.893  14.604  1.00  0.00     0.157 A 
ATOM     15  C   UNL     1      16.048  -5.171  14.624  1.00  0.00     0.068 A 
ATOM     16  C   UNL     1      17.285  -5.359  13.991  1.00  0.00     0.158 A 
BRANCH  14  17
ATOM     17  O   UNL     1      19.706  -5.063  14.001  1.00  0.00    -0.504 OA
ATOM     18  H   UNL     1      20.571  -4.899  14.502  1.00  0.00     0.293 HD
ENDBRANCH  14  17
BRANCH  16  19
ATOM     19  O   UNL     1      17.350  -6.004  12.758  1.00  0.00    -0.504 OA
ATOM     20  H   UNL     1      16.595  -6.593  12.427  1.00  0.00     0.293 HD
ENDBRANCH  16  19
ENDBRANCH   1  11
BRANCH  10  21
ATOM     21  O   UNL     1      14.347  -2.100  15.618  1.00  0.00    -0.500 OA
ATOM     22  H   UNL     1      14.060  -1.994  14.652  1.00  0.00     0.294 HD
ENDBRANCH  10  21
BRANCH   5  23
ATOM     23  O   UNL     1      10.964  -7.565  19.968  1.00  0.00    -0.507 OA
ATOM     24  H   UNL     1      10.988  -8.489  19.550  1.00  0.00     0.293 HD
ENDBRANCH   5  23
BRANCH   7  25
ATOM     25  O   UNL     1      10.104  -3.049  18.530  1.00  0.00    -0.507 OA
ATOM     26  H   UNL     1       9.154  -3.070  18.870  1.00  0.00     0.293 HD
ENDBRANCH   7  25
TORSDOF 6
ENDMDL
