MODEL 1
REMARK VINA RESULT:    -7.397      0.000      0.000
REMARK INTER + INTRA:          -9.048
REMARK INTER:                  -8.911
REMARK INTRA:                  -0.137
REMARK UNBOUND:                -0.137
REMARK SMILES O=c1c(O)c(-c2ccc(O)c(O)c2)oc2cc(O)cc(O)c12
REMARK SMILES IDX 5 1 3 2 2 3 1 4 22 5 20 6 19 7 17 8 16 9 15 10 14 11 6 12
REMARK SMILES IDX 7 13 8 14 9 15 13 16 11 17 10 18 12 20 4 22 21 24 18 26
REMARK H PARENT 10 19 12 21 4 23 21 25 18 27
REMARK Flexibility Score: inf
ROOT
ATOM      1  C   UNL     1     -19.288  12.387 -34.574  1.00  0.00     0.180 A 
ATOM      2  C   UNL     1     -20.626  12.188 -34.196  1.00  0.00     0.208 A 
ATOM      3  C   UNL     1     -21.581  11.910 -35.189  1.00  0.00     0.238 A 
ATOM      4  O   UNL     1     -22.768  11.680 -34.838  1.00  0.00    -0.285 OA
ATOM      5  C   UNL     1     -21.187  11.851 -36.547  1.00  0.00     0.111 A 
ATOM      6  C   UNL     1     -22.077  11.617 -37.639  1.00  0.00     0.134 A 
ATOM      7  C   UNL     1     -21.557  11.448 -38.928  1.00  0.00     0.093 A 
ATOM      8  C   UNL     1     -20.191  11.572 -39.177  1.00  0.00     0.123 A 
ATOM      9  C   UNL     1     -19.318  11.859 -38.126  1.00  0.00     0.094 A 
ATOM     10  C   UNL     1     -19.802  11.996 -36.822  1.00  0.00     0.146 A 
ATOM     11  O   UNL     1     -18.938  12.259 -35.850  1.00  0.00    -0.452 OA
ENDROOT
BRANCH   1  12
ATOM     12  C   UNL     1     -18.229  12.708 -33.589  1.00  0.00     0.025 A 
ATOM     13  C   UNL     1     -18.322  13.890 -32.837  1.00  0.00     0.016 A 
ATOM     14  C   UNL     1     -17.346  14.203 -31.887  1.00  0.00     0.051 A 
ATOM     15  C   UNL     1     -16.272  13.331 -31.665  1.00  0.00     0.157 A 
ATOM     16  C   UNL     1     -17.161  11.826 -33.348  1.00  0.00     0.062 A 
ATOM     17  C   UNL     1     -16.183  12.135 -32.397  1.00  0.00     0.158 A 
BRANCH  15  18
ATOM     18  O   UNL     1     -15.298  13.646 -30.718  1.00  0.00    -0.504 OA
ATOM     19  H   UNL     1     -14.979  12.965 -30.037  1.00  0.00     0.293 HD
ENDBRANCH  15  18
BRANCH  17  20
ATOM     20  O   UNL     1     -15.134  11.240 -32.188  1.00  0.00    -0.504 OA
ATOM     21  H   UNL     1     -14.665  11.159 -31.294  1.00  0.00     0.293 HD
ENDBRANCH  17  20
ENDBRANCH   1  12
BRANCH   2  22
ATOM     22  O   UNL     1     -20.990  12.230 -32.847  1.00  0.00    -0.502 OA
ATOM     23  H   UNL     1     -21.890  12.572 -32.537  1.00  0.00     0.293 HD
ENDBRANCH   2  22
BRANCH   6  24
ATOM     24  O   UNL     1     -23.467  11.569 -37.515  1.00  0.00    -0.507 OA
ATOM     25  H   UNL     1     -23.975  11.750 -36.662  1.00  0.00     0.293 HD
ENDBRANCH   6  24
BRANCH   8  26
ATOM     26  O   UNL     1     -19.711  11.414 -40.475  1.00  0.00    -0.508 OA
ATOM     27  H   UNL     1     -19.803  12.147 -41.167  1.00  0.00     0.293 HD
ENDBRANCH   8  26
TORSDOF 6
ENDMDL
MODEL 2
REMARK VINA RESULT:    -7.178      1.628      2.513
REMARK INTER + INTRA:          -8.783
REMARK INTER:                  -8.647
REMARK INTRA:                  -0.136
REMARK UNBOUND:                -0.137
REMARK SMILES O=c1c(O)c(-c2ccc(O)c(O)c2)oc2cc(O)cc(O)c12
REMARK SMILES IDX 5 1 3 2 2 3 1 4 22 5 20 6 19 7 17 8 16 9 15 10 14 11 6 12
REMARK SMILES IDX 7 13 8 14 9 15 13 16 11 17 10 18 12 20 4 22 21 24 18 26
REMARK H PARENT 10 19 12 21 4 23 21 25 18 27
REMARK Flexibility Score: inf
ROOT
ATOM      1  C   UNL     1     -18.603  12.694 -35.317  1.00  0.00     0.180 A 
ATOM      2  C   UNL     1     -18.723  13.672 -36.319  1.00  0.00     0.208 A 
ATOM      3  C   UNL     1     -19.507  13.395 -37.452  1.00  0.00     0.238 A 
ATOM      4  O   UNL     1     -19.655  14.294 -38.319  1.00  0.00    -0.285 OA
ATOM      5  C   UNL     1     -20.147  12.138 -37.575  1.00  0.00     0.111 A 
ATOM      6  C   UNL     1     -20.932  11.735 -38.697  1.00  0.00     0.134 A 
ATOM      7  C   UNL     1     -21.625  10.519 -38.653  1.00  0.00     0.093 A 
ATOM      8  C   UNL     1     -21.510   9.662 -37.558  1.00  0.00     0.123 A 
ATOM      9  C   UNL     1     -20.698  10.020 -36.481  1.00  0.00     0.094 A 
ATOM     10  C   UNL     1     -20.022  11.244 -36.479  1.00  0.00     0.146 A 
ATOM     11  O   UNL     1     -19.269  11.550 -35.431  1.00  0.00    -0.452 OA
ENDROOT
BRANCH   1  12
ATOM     12  C   UNL     1     -17.775  12.903 -34.107  1.00  0.00     0.025 A 
ATOM     13  C   UNL     1     -18.131  13.905 -33.192  1.00  0.00     0.016 A 
ATOM     14  C   UNL     1     -17.376  14.107 -32.033  1.00  0.00     0.051 A 
ATOM     15  C   UNL     1     -16.264  13.298 -31.766  1.00  0.00     0.157 A 
ATOM     16  C   UNL     1     -16.670  12.080 -33.826  1.00  0.00     0.062 A 
ATOM     17  C   UNL     1     -15.912  12.277 -32.665  1.00  0.00     0.158 A 
BRANCH  15  18
ATOM     18  O   UNL     1     -15.510  13.502 -30.610  1.00  0.00    -0.504 OA
ATOM     19  H   UNL     1     -15.472  12.808 -29.872  1.00  0.00     0.293 HD
ENDBRANCH  15  18
BRANCH  17  20
ATOM     20  O   UNL     1     -14.820  11.446 -32.420  1.00  0.00    -0.504 OA
ATOM     21  H   UNL     1     -13.868  11.744 -32.594  1.00  0.00     0.293 HD
ENDBRANCH  17  20
ENDBRANCH   1  12
BRANCH   2  22
ATOM     22  O   UNL     1     -18.101  14.915 -36.168  1.00  0.00    -0.502 OA
ATOM     23  H   UNL     1     -17.776  15.254 -35.272  1.00  0.00     0.293 HD
ENDBRANCH   2  22
BRANCH   6  24
ATOM     24  O   UNL     1     -21.039  12.472 -39.878  1.00  0.00    -0.507 OA
ATOM     25  H   UNL     1     -21.833  12.449 -40.501  1.00  0.00     0.293 HD
ENDBRANCH   6  24
BRANCH   8  26
ATOM     26  O   UNL     1     -22.201   8.453 -37.555  1.00  0.00    -0.508 OA
ATOM     27  H   UNL     1     -22.007   7.733 -36.869  1.00  0.00     0.293 HD
ENDBRANCH   8  26
TORSDOF 6
ENDMDL
MODEL 3
REMARK VINA RESULT:    -7.171      1.625      6.704
REMARK INTER + INTRA:          -8.775
REMARK INTER:                  -8.443
REMARK INTRA:                  -0.332
REMARK UNBOUND:                -0.137
REMARK SMILES O=c1c(O)c(-c2ccc(O)c(O)c2)oc2cc(O)cc(O)c12
REMARK SMILES IDX 5 1 3 2 2 3 1 4 22 5 20 6 19 7 17 8 16 9 15 10 14 11 6 12
REMARK SMILES IDX 7 13 8 14 9 15 13 16 11 17 10 18 12 20 4 22 21 24 18 26
REMARK H PARENT 10 19 12 21 4 23 21 25 18 27
REMARK Flexibility Score: inf
ROOT
ATOM      1  C   UNL     1     -19.308  12.116 -35.189  1.00  0.00     0.180 A 
ATOM      2  C   UNL     1     -19.845  13.030 -34.266  1.00  0.00     0.208 A 
ATOM      3  C   UNL     1     -19.020  13.537 -33.249  1.00  0.00     0.238 A 
ATOM      4  O   UNL     1     -19.492  14.395 -32.459  1.00  0.00    -0.285 OA
ATOM      5  C   UNL     1     -17.673  13.111 -33.157  1.00  0.00     0.111 A 
ATOM      6  C   UNL     1     -16.758  13.528 -32.144  1.00  0.00     0.134 A 
ATOM      7  C   UNL     1     -15.414  13.145 -32.227  1.00  0.00     0.093 A 
ATOM      8  C   UNL     1     -14.965  12.307 -33.248  1.00  0.00     0.123 A 
ATOM      9  C   UNL     1     -15.863  11.845 -34.211  1.00  0.00     0.094 A 
ATOM     10  C   UNL     1     -17.204  12.240 -34.176  1.00  0.00     0.146 A 
ATOM     11  O   UNL     1     -18.023  11.787 -35.116  1.00  0.00    -0.452 OA
ENDROOT
BRANCH   1  12
ATOM     12  C   UNL     1     -20.122  11.520 -36.273  1.00  0.00     0.025 A 
ATOM     13  C   UNL     1     -20.093  12.094 -37.553  1.00  0.00     0.016 A 
ATOM     14  C   UNL     1     -20.836  11.536 -38.596  1.00  0.00     0.051 A 
ATOM     15  C   UNL     1     -21.607  10.386 -38.378  1.00  0.00     0.157 A 
ATOM     16  C   UNL     1     -20.879  10.354 -36.063  1.00  0.00     0.062 A 
ATOM     17  C   UNL     1     -21.624   9.791 -37.105  1.00  0.00     0.158 A 
BRANCH  15  18
ATOM     18  O   UNL     1     -22.350   9.832 -39.419  1.00  0.00    -0.504 OA
ATOM     19  H   UNL     1     -22.833  10.414 -40.095  1.00  0.00     0.293 HD
ENDBRANCH  15  18
BRANCH  17  20
ATOM     20  O   UNL     1     -22.369   8.638 -36.860  1.00  0.00    -0.504 OA
ATOM     21  H   UNL     1     -23.002   8.564 -36.073  1.00  0.00     0.293 HD
ENDBRANCH  17  20
ENDBRANCH   1  12
BRANCH   2  22
ATOM     22  O   UNL     1     -21.172  13.454 -34.388  1.00  0.00    -0.502 OA
ATOM     23  H   UNL     1     -21.435  14.268 -34.929  1.00  0.00     0.293 HD
ENDBRANCH   2  22
BRANCH   6  24
ATOM     24  O   UNL     1     -17.123  14.288 -31.030  1.00  0.00    -0.507 OA
ATOM     25  H   UNL     1     -17.172  13.937 -30.085  1.00  0.00     0.293 HD
ENDBRANCH   6  24
BRANCH   8  26
ATOM     26  O   UNL     1     -13.624  11.933 -33.291  1.00  0.00    -0.508 OA
ATOM     27  H   UNL     1     -12.955  12.279 -32.613  1.00  0.00     0.293 HD
ENDBRANCH   8  26
TORSDOF 6
ENDMDL
MODEL 4
REMARK VINA RESULT:    -7.008      7.773      9.969
REMARK INTER + INTRA:          -8.579
REMARK INTER:                  -8.316
REMARK INTRA:                  -0.263
REMARK UNBOUND:                -0.137
REMARK SMILES O=c1c(O)c(-c2ccc(O)c(O)c2)oc2cc(O)cc(O)c12
REMARK SMILES IDX 5 1 3 2 2 3 1 4 22 5 20 6 19 7 17 8 16 9 15 10 14 11 6 12
REMARK SMILES IDX 7 13 8 14 9 15 13 16 11 17 10 18 12 20 4 22 21 24 18 26
REMARK H PARENT 10 19 12 21 4 23 21 25 18 27
REMARK Flexibility Score: inf
ROOT
ATOM      1  C   UNL     1     -24.758  17.807 -38.692  1.00  0.00     0.180 A 
ATOM      2  C   UNL     1     -24.252  17.950 -37.389  1.00  0.00     0.208 A 
ATOM      3  C   UNL     1     -24.630  17.021 -36.406  1.00  0.00     0.238 A 
ATOM      4  O   UNL     1     -24.130  17.122 -35.255  1.00  0.00    -0.285 OA
ATOM      5  C   UNL     1     -25.522  15.971 -36.734  1.00  0.00     0.111 A 
ATOM      6  C   UNL     1     -26.003  14.998 -35.808  1.00  0.00     0.134 A 
ATOM      7  C   UNL     1     -26.778  13.928 -36.271  1.00  0.00     0.093 A 
ATOM      8  C   UNL     1     -27.145  13.832 -37.613  1.00  0.00     0.123 A 
ATOM      9  C   UNL     1     -26.729  14.810 -38.517  1.00  0.00     0.094 A 
ATOM     10  C   UNL     1     -25.923  15.870 -38.092  1.00  0.00     0.146 A 
ATOM     11  O   UNL     1     -25.541  16.774 -38.985  1.00  0.00    -0.452 OA
ENDROOT
BRANCH   1  12
ATOM     12  C   UNL     1     -24.426  18.761 -39.776  1.00  0.00     0.025 A 
ATOM     13  C   UNL     1     -25.013  20.035 -39.779  1.00  0.00     0.016 A 
ATOM     14  C   UNL     1     -24.698  20.958 -40.780  1.00  0.00     0.051 A 
ATOM     15  C   UNL     1     -23.779  20.624 -41.783  1.00  0.00     0.157 A 
ATOM     16  C   UNL     1     -23.488  18.437 -40.773  1.00  0.00     0.062 A 
ATOM     17  C   UNL     1     -23.169  19.359 -41.776  1.00  0.00     0.158 A 
BRANCH  15  18
ATOM     18  O   UNL     1     -23.468  21.545 -42.783  1.00  0.00    -0.504 OA
ATOM     19  H   UNL     1     -24.188  22.084 -43.252  1.00  0.00     0.293 HD
ENDBRANCH  15  18
BRANCH  17  20
ATOM     20  O   UNL     1     -22.239  19.002 -42.752  1.00  0.00    -0.504 OA
ATOM     21  H   UNL     1     -22.465  18.360 -43.502  1.00  0.00     0.293 HD
ENDBRANCH  17  20
ENDBRANCH   1  12
BRANCH   2  22
ATOM     22  O   UNL     1     -23.355  18.980 -37.092  1.00  0.00    -0.502 OA
ATOM     23  H   UNL     1     -22.914  19.072 -36.186  1.00  0.00     0.293 HD
ENDBRANCH   2  22
BRANCH   6  24
ATOM     24  O   UNL     1     -25.773  15.051 -34.431  1.00  0.00    -0.507 OA
ATOM     25  H   UNL     1     -25.631  15.900 -33.904  1.00  0.00     0.293 HD
ENDBRANCH   6  24
BRANCH   8  26
ATOM     26  O   UNL     1     -27.930  12.763 -38.037  1.00  0.00    -0.508 OA
ATOM     27  H   UNL     1     -27.523  11.948 -38.480  1.00  0.00     0.293 HD
ENDBRANCH   8  26
TORSDOF 6
ENDMDL
MODEL 5
REMARK VINA RESULT:    -6.994      7.878      9.383
REMARK INTER + INTRA:          -8.562
REMARK INTER:                  -8.260
REMARK INTRA:                  -0.302
REMARK UNBOUND:                -0.137
REMARK SMILES O=c1c(O)c(-c2ccc(O)c(O)c2)oc2cc(O)cc(O)c12
REMARK SMILES IDX 5 1 3 2 2 3 1 4 22 5 20 6 19 7 17 8 16 9 15 10 14 11 6 12
REMARK SMILES IDX 7 13 8 14 9 15 13 16 11 17 10 18 12 20 4 22 21 24 18 26
REMARK H PARENT 10 19 12 21 4 23 21 25 18 27
REMARK Flexibility Score: inf
ROOT
ATOM      1  C   UNL     1     -24.410  17.127 -39.539  1.00  0.00     0.180 A 
ATOM      2  C   UNL     1     -25.452  17.321 -38.616  1.00  0.00     0.208 A 
ATOM      3  C   UNL     1     -26.169  16.206 -38.152  1.00  0.00     0.238 A 
ATOM      4  O   UNL     1     -27.065  16.381 -37.285  1.00  0.00    -0.285 OA
ATOM      5  C   UNL     1     -25.845  14.912 -38.629  1.00  0.00     0.111 A 
ATOM      6  C   UNL     1     -26.531  13.717 -38.257  1.00  0.00     0.134 A 
ATOM      7  C   UNL     1     -26.041  12.478 -38.688  1.00  0.00     0.093 A 
ATOM      8  C   UNL     1     -24.933  12.395 -39.530  1.00  0.00     0.123 A 
ATOM      9  C   UNL     1     -24.290  13.561 -39.948  1.00  0.00     0.094 A 
ATOM     10  C   UNL     1     -24.733  14.810 -39.504  1.00  0.00     0.146 A 
ATOM     11  O   UNL     1     -24.087  15.894 -39.917  1.00  0.00    -0.452 OA
ENDROOT
BRANCH   1  12
ATOM     12  C   UNL     1     -23.627  18.255 -40.093  1.00  0.00     0.025 A 
ATOM     13  C   UNL     1     -22.328  18.492 -39.617  1.00  0.00     0.016 A 
ATOM     14  C   UNL     1     -21.563  19.538 -40.139  1.00  0.00     0.051 A 
ATOM     15  C   UNL     1     -22.080  20.351 -41.157  1.00  0.00     0.157 A 
ATOM     16  C   UNL     1     -24.134  19.060 -41.128  1.00  0.00     0.062 A 
ATOM     17  C   UNL     1     -23.370  20.107 -41.655  1.00  0.00     0.158 A 
BRANCH  15  18
ATOM     18  O   UNL     1     -21.316  21.396 -41.675  1.00  0.00    -0.504 OA
ATOM     19  H   UNL     1     -20.402  21.624 -41.299  1.00  0.00     0.293 HD
ENDBRANCH  15  18
BRANCH  17  20
ATOM     20  O   UNL     1     -23.907  20.889 -42.677  1.00  0.00    -0.504 OA
ATOM     21  H   UNL     1     -23.962  21.898 -42.611  1.00  0.00     0.293 HD
ENDBRANCH  17  20
ENDBRANCH   1  12
BRANCH   2  22
ATOM     22  O   UNL     1     -25.741  18.604 -38.142  1.00  0.00    -0.502 OA
ATOM     23  H   UNL     1     -25.163  19.073 -37.457  1.00  0.00     0.293 HD
ENDBRANCH   2  22
BRANCH   6  24
ATOM     24  O   UNL     1     -27.702  13.695 -37.496  1.00  0.00    -0.507 OA
ATOM     25  H   UNL     1     -27.862  14.250 -36.669  1.00  0.00     0.293 HD
ENDBRANCH   6  24
BRANCH   8  26
ATOM     26  O   UNL     1     -24.483  11.146 -39.953  1.00  0.00    -0.508 OA
ATOM     27  H   UNL     1     -23.850  11.048 -40.739  1.00  0.00     0.293 HD
ENDBRANCH   8  26
TORSDOF 6
ENDMDL
MODEL 6
REMARK VINA RESULT:    -6.945      7.970     10.228
REMARK INTER + INTRA:          -8.502
REMARK INTER:                  -8.305
REMARK INTRA:                  -0.197
REMARK UNBOUND:                -0.137
REMARK SMILES O=c1c(O)c(-c2ccc(O)c(O)c2)oc2cc(O)cc(O)c12
REMARK SMILES IDX 5 1 3 2 2 3 1 4 22 5 20 6 19 7 17 8 16 9 15 10 14 11 6 12
REMARK SMILES IDX 7 13 8 14 9 15 13 16 11 17 10 18 12 20 4 22 21 24 18 26
REMARK H PARENT 10 19 12 21 4 23 21 25 18 27
REMARK Flexibility Score: inf
ROOT
ATOM      1  C   UNL     1     -24.846  17.732 -38.348  1.00  0.00     0.180 A 
ATOM      2  C   UNL     1     -24.268  18.386 -37.246  1.00  0.00     0.208 A 
ATOM      3  C   UNL     1     -23.551  19.575 -37.459  1.00  0.00     0.238 A 
ATOM      4  O   UNL     1     -23.081  20.183 -36.462  1.00  0.00    -0.285 OA
ATOM      5  C   UNL     1     -23.409  20.087 -38.771  1.00  0.00     0.111 A 
ATOM      6  C   UNL     1     -22.670  21.261 -39.107  1.00  0.00     0.134 A 
ATOM      7  C   UNL     1     -22.706  21.748 -40.420  1.00  0.00     0.093 A 
ATOM      8  C   UNL     1     -23.398  21.067 -41.421  1.00  0.00     0.123 A 
ATOM      9  C   UNL     1     -24.074  19.885 -41.117  1.00  0.00     0.094 A 
ATOM     10  C   UNL     1     -24.088  19.395 -39.807  1.00  0.00     0.146 A 
ATOM     11  O   UNL     1     -24.751  18.273 -39.558  1.00  0.00    -0.452 OA
ENDROOT
BRANCH   1  12
ATOM     12  C   UNL     1     -25.595  16.462 -38.207  1.00  0.00     0.025 A 
ATOM     13  C   UNL     1     -26.850  16.467 -37.580  1.00  0.00     0.016 A 
ATOM     14  C   UNL     1     -27.583  15.284 -37.454  1.00  0.00     0.051 A 
ATOM     15  C   UNL     1     -27.078  14.082 -37.969  1.00  0.00     0.157 A 
ATOM     16  C   UNL     1     -25.100  15.259 -38.740  1.00  0.00     0.062 A 
ATOM     17  C   UNL     1     -25.832  14.072 -38.618  1.00  0.00     0.158 A 
BRANCH  15  18
ATOM     18  O   UNL     1     -27.810  12.902 -37.840  1.00  0.00    -0.504 OA
ATOM     19  H   UNL     1     -27.806  12.194 -38.566  1.00  0.00     0.293 HD
ENDBRANCH  15  18
BRANCH  17  20
ATOM     20  O   UNL     1     -25.309  12.896 -39.153  1.00  0.00    -0.504 OA
ATOM     21  H   UNL     1     -25.615  11.981 -38.844  1.00  0.00     0.293 HD
ENDBRANCH  17  20
ENDBRANCH   1  12
BRANCH   2  22
ATOM     22  O   UNL     1     -24.438  17.875 -35.956  1.00  0.00    -0.502 OA
ATOM     23  H   UNL     1     -23.720  17.343 -35.483  1.00  0.00     0.293 HD
ENDBRANCH   2  22
BRANCH   6  24
ATOM     24  O   UNL     1     -21.871  21.965 -38.203  1.00  0.00    -0.507 OA
ATOM     25  H   UNL     1     -21.539  22.908 -38.340  1.00  0.00     0.293 HD
ENDBRANCH   6  24
BRANCH   8  26
ATOM     26  O   UNL     1     -23.399  21.571 -42.720  1.00  0.00    -0.508 OA
ATOM     27  H   UNL     1     -24.141  21.350 -43.374  1.00  0.00     0.293 HD
ENDBRANCH   8  26
TORSDOF 6
ENDMDL
MODEL 7
REMARK VINA RESULT:    -6.816      6.006      8.668
REMARK INTER + INTRA:          -8.348
REMARK INTER:                  -8.080
REMARK INTRA:                  -0.268
REMARK UNBOUND:                -0.137
REMARK SMILES O=c1c(O)c(-c2ccc(O)c(O)c2)oc2cc(O)cc(O)c12
REMARK SMILES IDX 5 1 3 2 2 3 1 4 22 5 20 6 19 7 17 8 16 9 15 10 14 11 6 12
REMARK SMILES IDX 7 13 8 14 9 15 13 16 11 17 10 18 12 20 4 22 21 24 18 26
REMARK H PARENT 10 19 12 21 4 23 21 25 18 27
REMARK Flexibility Score: inf
ROOT
ATOM      1  C   UNL     1     -23.936  15.134 -38.707  1.00  0.00     0.180 A 
ATOM      2  C   UNL     1     -24.309  15.473 -37.395  1.00  0.00     0.208 A 
ATOM      3  C   UNL     1     -24.685  16.797 -37.114  1.00  0.00     0.238 A 
ATOM      4  O   UNL     1     -25.070  17.082 -35.950  1.00  0.00    -0.285 OA
ATOM      5  C   UNL     1     -24.669  17.768 -38.145  1.00  0.00     0.111 A 
ATOM      6  C   UNL     1     -24.992  19.146 -37.964  1.00  0.00     0.134 A 
ATOM      7  C   UNL     1     -25.069  19.989 -39.080  1.00  0.00     0.093 A 
ATOM      8  C   UNL     1     -24.770  19.520 -40.359  1.00  0.00     0.123 A 
ATOM      9  C   UNL     1     -24.394  18.188 -40.539  1.00  0.00     0.094 A 
ATOM     10  C   UNL     1     -24.345  17.313 -39.450  1.00  0.00     0.146 A 
ATOM     11  O   UNL     1     -23.994  16.052 -39.666  1.00  0.00    -0.452 OA
ENDROOT
BRANCH   1  12
ATOM     12  C   UNL     1     -23.503  13.766 -39.075  1.00  0.00     0.025 A 
ATOM     13  C   UNL     1     -22.225  13.323 -38.700  1.00  0.00     0.016 A 
ATOM     14  C   UNL     1     -21.804  12.029 -39.019  1.00  0.00     0.051 A 
ATOM     15  C   UNL     1     -22.660  11.155 -39.703  1.00  0.00     0.157 A 
ATOM     16  C   UNL     1     -24.366  12.880 -39.743  1.00  0.00     0.062 A 
ATOM     17  C   UNL     1     -23.949  11.583 -40.063  1.00  0.00     0.158 A 
BRANCH  15  18
ATOM     18  O   UNL     1     -22.236   9.866 -40.022  1.00  0.00    -0.504 OA
ATOM     19  H   UNL     1     -21.626   9.340 -39.407  1.00  0.00     0.293 HD
ENDBRANCH  15  18
BRANCH  17  20
ATOM     20  O   UNL     1     -24.829  10.733 -40.730  1.00  0.00    -0.504 OA
ATOM     21  H   UNL     1     -25.608  10.288 -40.260  1.00  0.00     0.293 HD
ENDBRANCH  17  20
ENDBRANCH   1  12
BRANCH   2  22
ATOM     22  O   UNL     1     -24.339  14.494 -36.398  1.00  0.00    -0.502 OA
ATOM     23  H   UNL     1     -23.616  14.412 -35.694  1.00  0.00     0.293 HD
ENDBRANCH   2  22
BRANCH   6  24
ATOM     24  O   UNL     1     -25.217  19.738 -36.719  1.00  0.00    -0.507 OA
ATOM     25  H   UNL     1     -24.941  19.339 -35.834  1.00  0.00     0.293 HD
ENDBRANCH   6  24
BRANCH   8  26
ATOM     26  O   UNL     1     -24.840  20.391 -41.444  1.00  0.00    -0.508 OA
ATOM     27  H   UNL     1     -25.717  20.581 -41.915  1.00  0.00     0.293 HD
ENDBRANCH   8  26
TORSDOF 6
ENDMDL
MODEL 8
REMARK VINA RESULT:    -6.815      2.097      3.566
REMARK INTER + INTRA:          -8.346
REMARK INTER:                  -8.166
REMARK INTRA:                  -0.180
REMARK UNBOUND:                -0.137
REMARK SMILES O=c1c(O)c(-c2ccc(O)c(O)c2)oc2cc(O)cc(O)c12
REMARK SMILES IDX 5 1 3 2 2 3 1 4 22 5 20 6 19 7 17 8 16 9 15 10 14 11 6 12
REMARK SMILES IDX 7 13 8 14 9 15 13 16 11 17 10 18 12 20 4 22 21 24 18 26
REMARK H PARENT 10 19 12 21 4 23 21 25 18 27
REMARK Flexibility Score: inf
ROOT
ATOM      1  C   UNL     1     -17.768  12.473 -34.501  1.00  0.00     0.180 A 
ATOM      2  C   UNL     1     -17.490  11.578 -35.548  1.00  0.00     0.208 A 
ATOM      3  C   UNL     1     -18.544  10.842 -36.115  1.00  0.00     0.238 A 
ATOM      4  O   UNL     1     -18.296  10.083 -37.087  1.00  0.00    -0.285 OA
ATOM      5  C   UNL     1     -19.860  10.999 -35.616  1.00  0.00     0.111 A 
ATOM      6  C   UNL     1     -20.996  10.275 -36.088  1.00  0.00     0.134 A 
ATOM      7  C   UNL     1     -22.271  10.606 -35.612  1.00  0.00     0.093 A 
ATOM      8  C   UNL     1     -22.444  11.586 -34.635  1.00  0.00     0.123 A 
ATOM      9  C   UNL     1     -21.333  12.258 -34.124  1.00  0.00     0.094 A 
ATOM     10  C   UNL     1     -20.051  11.977 -34.606  1.00  0.00     0.146 A 
ATOM     11  O   UNL     1     -19.023  12.646 -34.100  1.00  0.00    -0.452 OA
ENDROOT
BRANCH   1  12
ATOM     12  C   UNL     1     -16.707  13.264 -33.836  1.00  0.00     0.025 A 
ATOM     13  C   UNL     1     -16.060  14.285 -34.549  1.00  0.00     0.016 A 
ATOM     14  C   UNL     1     -15.070  15.058 -33.936  1.00  0.00     0.051 A 
ATOM     15  C   UNL     1     -14.725  14.831 -32.597  1.00  0.00     0.157 A 
ATOM     16  C   UNL     1     -16.373  13.053 -32.487  1.00  0.00     0.062 A 
ATOM     17  C   UNL     1     -15.383  13.826 -31.869  1.00  0.00     0.158 A 
BRANCH  15  18
ATOM     18  O   UNL     1     -13.735  15.602 -31.987  1.00  0.00    -0.504 OA
ATOM     19  H   UNL     1     -13.118  16.197 -32.528  1.00  0.00     0.293 HD
ENDBRANCH  15  18
BRANCH  17  20
ATOM     20  O   UNL     1     -15.073  13.585 -30.531  1.00  0.00    -0.504 OA
ATOM     21  H   UNL     1     -14.195  13.877 -30.121  1.00  0.00     0.293 HD
ENDBRANCH  17  20
ENDBRANCH   1  12
BRANCH   2  22
ATOM     22  O   UNL     1     -16.187  11.454 -36.039  1.00  0.00    -0.502 OA
ATOM     23  H   UNL     1     -15.720  12.202 -36.537  1.00  0.00     0.293 HD
ENDBRANCH   2  22
BRANCH   6  24
ATOM     24  O   UNL     1     -20.924   9.214 -36.994  1.00  0.00    -0.507 OA
ATOM     25  H   UNL     1     -20.407   8.361 -36.841  1.00  0.00     0.293 HD
ENDBRANCH   6  24
BRANCH   8  26
ATOM     26  O   UNL     1     -23.725  11.878 -34.173  1.00  0.00    -0.508 OA
ATOM     27  H   UNL     1     -24.440  11.163 -34.105  1.00  0.00     0.293 HD
ENDBRANCH   8  26
TORSDOF 6
ENDMDL
MODEL 9
REMARK VINA RESULT:    -6.798      1.902      2.325
REMARK INTER + INTRA:          -8.326
REMARK INTER:                  -8.135
REMARK INTRA:                  -0.191
REMARK UNBOUND:                -0.137
REMARK SMILES O=c1c(O)c(-c2ccc(O)c(O)c2)oc2cc(O)cc(O)c12
REMARK SMILES IDX 5 1 3 2 2 3 1 4 22 5 20 6 19 7 17 8 16 9 15 10 14 11 6 12
REMARK SMILES IDX 7 13 8 14 9 15 13 16 11 17 10 18 12 20 4 22 21 24 18 26
REMARK H PARENT 10 19 12 21 4 23 21 25 18 27
REMARK Flexibility Score: inf
ROOT
ATOM      1  C   UNL     1     -18.979  11.613 -35.533  1.00  0.00     0.180 A 
ATOM      2  C   UNL     1     -19.223  10.291 -35.943  1.00  0.00     0.208 A 
ATOM      3  C   UNL     1     -20.148  10.057 -36.975  1.00  0.00     0.238 A 
ATOM      4  O   UNL     1     -20.321   8.877 -37.375  1.00  0.00    -0.285 OA
ATOM      5  C   UNL     1     -20.828  11.147 -37.571  1.00  0.00     0.111 A 
ATOM      6  C   UNL     1     -21.814  11.023 -38.596  1.00  0.00     0.134 A 
ATOM      7  C   UNL     1     -22.326  12.176 -39.203  1.00  0.00     0.093 A 
ATOM      8  C   UNL     1     -21.939  13.447 -38.779  1.00  0.00     0.123 A 
ATOM      9  C   UNL     1     -21.020  13.580 -37.738  1.00  0.00     0.094 A 
ATOM     10  C   UNL     1     -20.462  12.448 -37.137  1.00  0.00     0.146 A 
ATOM     11  O   UNL     1     -19.584  12.618 -36.156  1.00  0.00    -0.452 OA
ENDROOT
BRANCH   1  12
ATOM     12  C   UNL     1     -18.038  11.936 -34.436  1.00  0.00     0.025 A 
ATOM     13  C   UNL     1     -18.539  12.410 -33.214  1.00  0.00     0.016 A 
ATOM     14  C   UNL     1     -17.671  12.703 -32.158  1.00  0.00     0.051 A 
ATOM     15  C   UNL     1     -16.291  12.509 -32.305  1.00  0.00     0.157 A 
ATOM     16  C   UNL     1     -16.655  11.724 -34.572  1.00  0.00     0.062 A 
ATOM     17  C   UNL     1     -15.782  12.014 -33.517  1.00  0.00     0.158 A 
BRANCH  15  18
ATOM     18  O   UNL     1     -15.426  12.804 -31.252  1.00  0.00    -0.504 OA
ATOM     19  H   UNL     1     -15.431  12.264 -30.393  1.00  0.00     0.293 HD
ENDBRANCH  15  18
BRANCH  17  20
ATOM     20  O   UNL     1     -14.416  11.797 -33.689  1.00  0.00    -0.504 OA
ATOM     21  H   UNL     1     -13.766  11.809 -32.912  1.00  0.00     0.293 HD
ENDBRANCH  17  20
ENDBRANCH   1  12
BRANCH   2  22
ATOM     22  O   UNL     1     -18.524   9.232 -35.357  1.00  0.00    -0.502 OA
ATOM     23  H   UNL     1     -18.384   8.347 -35.827  1.00  0.00     0.293 HD
ENDBRANCH   2  22
BRANCH   6  24
ATOM     24  O   UNL     1     -22.339   9.803 -39.029  1.00  0.00    -0.507 OA
ATOM     25  H   UNL     1     -22.017   9.293 -39.837  1.00  0.00     0.293 HD
ENDBRANCH   6  24
BRANCH   8  26
ATOM     26  O   UNL     1     -22.481  14.572 -39.395  1.00  0.00    -0.508 OA
ATOM     27  H   UNL     1     -22.769  14.558 -40.366  1.00  0.00     0.293 HD
ENDBRANCH   8  26
TORSDOF 6
ENDMDL
