MODEL 1
REMARK VINA RESULT:    -5.126      0.000      0.000
REMARK INTER + INTRA:          -7.273
REMARK INTER:                  -7.223
REMARK INTRA:                  -0.050
REMARK UNBOUND:                -0.050
REMARK SMILES CC1=CCC(=C(C)C)C(=O)CC(C)=CCC1
REMARK SMILES IDX 12 1 14 2 13 3 15 4 16 5 2 6 1 7 3 8 11 10 9 11 10 12 5 13
REMARK SMILES IDX 6 14 7 15 8 16 4 17
REMARK H PARENT
REMARK Flexibility Score: 60.00
ROOT
ATOM      1  C   UNL     1      -7.694  33.970  23.003  1.00  0.00    -0.070 C 
ATOM      2  C   UNL     1      -7.692  34.846  24.048  1.00  0.00    -0.027 C 
ATOM      3  C   UNL     1      -7.870  34.562  21.623  1.00  0.00     0.039 C 
ENDROOT
BRANCH   2   4
ATOM      4  C   UNL     1      -7.489  34.632  25.543  1.00  0.00     0.032 C 
BRANCH   4   5
ATOM      5  C   UNL     1      -8.577  33.858  26.298  1.00  0.00     0.034 C 
BRANCH   5   6
ATOM      6  C   UNL     1      -8.250  32.442  26.795  1.00  0.00    -0.077 C 
ATOM      7  C   UNL     1      -7.291  32.371  27.963  1.00  0.00     0.039 C 
ATOM      8  C   UNL     1      -8.766  31.246  26.385  1.00  0.00    -0.023 CG0
ATOM      9  G   UNL     1      -9.782  30.920  25.306  1.00  0.00     0.000 G0
ENDBRANCH   5   6
ENDBRANCH   4   5
ENDBRANCH   2   4
BRANCH   1  10
ATOM     10  C   UNL     1      -7.547  32.459  23.079  1.00  0.00     0.111 C 
BRANCH  10  11
ATOM     11  C   UNL     1      -8.877  31.768  23.078  1.00  0.00     0.163 C 
ATOM     12  O   UNL     1      -9.770  32.162  22.280  1.00  0.00    -0.294 OA
BRANCH  11  13
ATOM     13  C   UNL     1      -9.132  30.607  23.970  1.00  0.00    -0.002 C 
ATOM     14  C   UNL     1      -8.776  29.340  23.610  1.00  0.00    -0.069 C 
ATOM     15  C   UNL     1      -8.220  29.045  22.235  1.00  0.00     0.039 C 
ATOM     16  C   UNL     1      -8.935  28.172  24.558  1.00  0.00     0.039 C 
BRANCH  13  17
ATOM     17  C   UNL     1      -9.788  30.921  25.298  1.00  0.00     0.066 CG0
ATOM     18  G   UNL     1      -8.768  31.248  26.373  1.00  0.00     0.000 G0
ENDBRANCH  13  17
ENDBRANCH  11  13
ENDBRANCH  10  11
ENDBRANCH   1  10
TORSDOF 0
ENDMDL
MODEL 2
REMARK VINA RESULT:    -4.869      2.065      3.940
REMARK INTER + INTRA:          -6.911
REMARK INTER:                  -7.134
REMARK INTRA:                   0.223
REMARK UNBOUND:                -0.050
REMARK SMILES CC1=CCC(=C(C)C)C(=O)CC(C)=CCC1
REMARK SMILES IDX 12 1 14 2 13 3 15 4 16 5 2 6 1 7 3 8 11 10 9 11 10 12 5 13
REMARK SMILES IDX 6 14 7 15 8 16 4 17
REMARK H PARENT
REMARK Flexibility Score: 60.00
ROOT
ATOM      1  C   UNL     1      -8.058  33.882  24.856  1.00  0.00    -0.070 C 
ATOM      2  C   UNL     1      -7.199  34.545  24.030  1.00  0.00    -0.027 C 
ATOM      3  C   UNL     1      -7.640  33.750  26.303  1.00  0.00     0.039 C 
ENDROOT
BRANCH   2   4
ATOM      4  C   UNL     1      -7.302  34.916  22.555  1.00  0.00     0.032 C 
BRANCH   4   5
ATOM      5  C   UNL     1      -8.430  34.268  21.743  1.00  0.00     0.034 C 
BRANCH   5   6
ATOM      6  C   UNL     1      -8.095  33.038  20.887  1.00  0.00    -0.077 C 
ATOM      7  C   UNL     1      -7.124  33.283  19.752  1.00  0.00     0.039 C 
ATOM      8  C   UNL     1      -8.486  31.740  21.055  1.00  0.00    -0.023 CG0
ATOM      9  G   UNL     1      -9.385  31.101  22.096  1.00  0.00     0.000 G0
ENDBRANCH   5   6
ENDBRANCH   4   5
ENDBRANCH   2   4
BRANCH   1  10
ATOM     10  C   UNL     1      -9.389  33.254  24.475  1.00  0.00     0.111 C 
BRANCH  10  11
ATOM     11  C   UNL     1      -9.343  31.758  24.554  1.00  0.00     0.163 C 
ATOM     12  O   UNL     1      -9.864  31.182  25.548  1.00  0.00    -0.294 OA
BRANCH  11  13
ATOM     13  C   UNL     1      -8.734  30.956  23.461  1.00  0.00    -0.002 C 
ATOM     14  C   UNL     1      -7.653  30.154  23.682  1.00  0.00    -0.069 C 
ATOM     15  C   UNL     1      -6.952  30.139  25.022  1.00  0.00     0.039 C 
ATOM     16  C   UNL     1      -7.097  29.256  22.599  1.00  0.00     0.039 C 
BRANCH  13  17
ATOM     17  C   UNL     1      -9.394  31.074  22.104  1.00  0.00     0.066 CG0
ATOM     18  G   UNL     1      -8.485  31.731  21.082  1.00  0.00     0.000 G0
ENDBRANCH  13  17
ENDBRANCH  11  13
ENDBRANCH  10  11
ENDBRANCH   1  10
TORSDOF 0
ENDMDL
MODEL 3
REMARK VINA RESULT:    -4.757      2.024      3.908
REMARK INTER + INTRA:          -6.754
REMARK INTER:                  -7.185
REMARK INTRA:                   0.431
REMARK UNBOUND:                -0.050
REMARK SMILES CC1=CCC(=C(C)C)C(=O)CC(C)=CCC1
REMARK SMILES IDX 12 1 14 2 13 3 15 4 16 5 2 6 1 7 3 8 11 10 9 11 10 12 5 13
REMARK SMILES IDX 6 14 7 15 8 16 4 17
REMARK H PARENT
REMARK Flexibility Score: 60.00
ROOT
ATOM      1  C   UNL     1      -7.735  34.517  24.013  1.00  0.00    -0.070 C 
ATOM      2  C   UNL     1      -7.546  34.740  22.681  1.00  0.00    -0.027 C 
ATOM      3  C   UNL     1      -6.844  35.287  24.961  1.00  0.00     0.039 C 
ENDROOT
BRANCH   2   4
ATOM      4  C   UNL     1      -8.276  34.202  21.455  1.00  0.00     0.032 C 
BRANCH   4   5
ATOM      5  C   UNL     1      -7.859  32.819  20.939  1.00  0.00     0.034 C 
BRANCH   5   6
ATOM      6  C   UNL     1      -8.686  31.601  21.374  1.00  0.00    -0.077 C 
ATOM      7  C   UNL     1      -9.799  31.202  20.429  1.00  0.00     0.039 C 
ATOM      8  C   UNL     1      -8.507  30.779  22.450  1.00  0.00    -0.023 CG0
ATOM      9  G   UNL     1      -7.479  30.813  23.565  1.00  0.00     0.000 G0
ENDBRANCH   5   6
ENDBRANCH   4   5
ENDBRANCH   2   4
BRANCH   1  10
ATOM     10  C   UNL     1      -8.743  33.571  24.647  1.00  0.00     0.111 C 
BRANCH  10  11
ATOM     11  C   UNL     1      -8.070  32.473  25.413  1.00  0.00     0.163 C 
ATOM     12  O   UNL     1      -7.495  32.750  26.500  1.00  0.00    -0.294 OA
BRANCH  11  13
ATOM     13  C   UNL     1      -8.115  31.068  24.928  1.00  0.00    -0.002 C 
ATOM     14  C   UNL     1      -8.713  30.081  25.655  1.00  0.00    -0.069 C 
ATOM     15  C   UNL     1      -9.249  30.349  27.044  1.00  0.00     0.039 C 
ATOM     16  C   UNL     1      -8.856  28.675  25.116  1.00  0.00     0.039 C 
BRANCH  13  17
ATOM     17  C   UNL     1      -7.476  30.811  23.579  1.00  0.00     0.066 CG0
ATOM     18  G   UNL     1      -8.501  30.774  22.461  1.00  0.00     0.000 G0
ENDBRANCH  13  17
ENDBRANCH  11  13
ENDBRANCH  10  11
ENDBRANCH   1  10
TORSDOF 0
ENDMDL
MODEL 4
REMARK VINA RESULT:    -4.664      1.967      3.957
REMARK INTER + INTRA:          -6.623
REMARK INTER:                  -6.751
REMARK INTRA:                   0.128
REMARK UNBOUND:                -0.050
REMARK SMILES CC1=CCC(=C(C)C)C(=O)CC(C)=CCC1
REMARK SMILES IDX 12 1 14 2 13 3 15 4 16 5 2 6 1 7 3 8 11 10 9 11 10 12 5 13
REMARK SMILES IDX 6 14 7 15 8 16 4 17
REMARK H PARENT
REMARK Flexibility Score: 60.00
ROOT
ATOM      1  C   UNL     1      -8.672  33.503  23.559  1.00  0.00    -0.070 C 
ATOM      2  C   UNL     1      -8.223  33.174  22.313  1.00  0.00    -0.027 C 
ATOM      3  C   UNL     1      -8.537  34.953  23.966  1.00  0.00     0.039 C 
ENDROOT
BRANCH   2   4
ATOM      4  C   UNL     1      -8.243  31.855  21.550  1.00  0.00     0.032 C 
BRANCH   4   5
ATOM      5  C   UNL     1      -7.306  30.744  22.037  1.00  0.00     0.034 C 
BRANCH   5   6
ATOM      6  C   UNL     1      -7.915  29.567  22.813  1.00  0.00    -0.077 C 
ATOM      7  C   UNL     1      -8.639  28.541  21.968  1.00  0.00     0.039 C 
ATOM      8  C   UNL     1      -7.824  29.274  24.143  1.00  0.00    -0.023 CG0
ATOM      9  G   UNL     1      -7.139  30.012  25.278  1.00  0.00     0.000 G0
ENDBRANCH   5   6
ENDBRANCH   4   5
ENDBRANCH   2   4
BRANCH   1  10
ATOM     10  C   UNL     1      -9.288  32.565  24.584  1.00  0.00     0.111 C 
BRANCH  10  11
ATOM     11  C   UNL     1      -8.325  32.228  25.681  1.00  0.00     0.163 C 
ATOM     12  O   UNL     1      -7.714  33.163  26.267  1.00  0.00    -0.294 OA
BRANCH  11  13
ATOM     13  C   UNL     1      -8.120  30.818  26.108  1.00  0.00    -0.002 C 
ATOM     14  C   UNL     1      -8.793  30.291  27.170  1.00  0.00    -0.069 C 
ATOM     15  C   UNL     1      -9.684  31.152  28.037  1.00  0.00     0.039 C 
ATOM     16  C   UNL     1      -8.669  28.830  27.541  1.00  0.00     0.039 C 
BRANCH  13  17
ATOM     17  C   UNL     1      -7.141  30.011  25.283  1.00  0.00     0.066 CG0
ATOM     18  G   UNL     1      -7.826  29.266  24.153  1.00  0.00     0.000 G0
ENDBRANCH  13  17
ENDBRANCH  11  13
ENDBRANCH  10  11
ENDBRANCH   1  10
TORSDOF 0
ENDMDL
MODEL 5
REMARK VINA RESULT:    -4.619      1.574      2.403
REMARK INTER + INTRA:          -6.559
REMARK INTER:                  -6.838
REMARK INTRA:                   0.280
REMARK UNBOUND:                -0.050
REMARK SMILES CC1=CCC(=C(C)C)C(=O)CC(C)=CCC1
REMARK SMILES IDX 12 1 14 2 13 3 15 4 16 5 2 6 1 7 3 8 11 10 9 11 10 12 5 13
REMARK SMILES IDX 6 14 7 15 8 16 4 17
REMARK H PARENT
REMARK Flexibility Score: 60.00
ROOT
ATOM      1  C   UNL     1      -7.875  34.302  25.344  1.00  0.00    -0.070 C 
ATOM      2  C   UNL     1      -7.876  33.901  26.648  1.00  0.00    -0.027 C 
ATOM      3  C   UNL     1      -8.180  35.759  25.083  1.00  0.00     0.039 C 
ENDROOT
BRANCH   2   4
ATOM      4  C   UNL     1      -7.565  32.554  27.290  1.00  0.00     0.032 C 
BRANCH   4   5
ATOM      5  C   UNL     1      -8.752  31.645  27.629  1.00  0.00     0.034 C 
BRANCH   5   6
ATOM      6  C   UNL     1      -8.709  30.185  27.154  1.00  0.00    -0.077 C 
ATOM      7  C   UNL     1      -9.581  29.224  27.934  1.00  0.00     0.039 C 
ATOM      8  C   UNL     1      -8.060  29.649  26.079  1.00  0.00    -0.023 CG0
ATOM      9  G   UNL     1      -7.161  30.292  25.040  1.00  0.00     0.000 G0
ENDBRANCH   5   6
ENDBRANCH   4   5
ENDBRANCH   2   4
BRANCH   1  10
ATOM     10  C   UNL     1      -7.605  33.436  24.124  1.00  0.00     0.111 C 
BRANCH  10  11
ATOM     11  C   UNL     1      -8.505  32.238  24.081  1.00  0.00     0.163 C 
ATOM     12  O   UNL     1      -9.751  32.406  24.180  1.00  0.00    -0.294 OA
BRANCH  11  13
ATOM     13  C   UNL     1      -7.948  30.875  23.879  1.00  0.00    -0.002 C 
ATOM     14  C   UNL     1      -8.121  30.200  22.706  1.00  0.00    -0.069 C 
ATOM     15  C   UNL     1      -8.993  30.760  21.604  1.00  0.00     0.039 C 
ATOM     16  C   UNL     1      -7.466  28.860  22.458  1.00  0.00     0.039 C 
BRANCH  13  17
ATOM     17  C   UNL     1      -7.168  30.298  25.041  1.00  0.00     0.066 CG0
ATOM     18  G   UNL     1      -8.075  29.638  26.063  1.00  0.00     0.000 G0
ENDBRANCH  13  17
ENDBRANCH  11  13
ENDBRANCH  10  11
ENDBRANCH   1  10
TORSDOF 0
ENDMDL
MODEL 6
REMARK VINA RESULT:    -4.616      1.688      3.653
REMARK INTER + INTRA:          -6.555
REMARK INTER:                  -6.614
REMARK INTRA:                   0.058
REMARK UNBOUND:                -0.050
REMARK SMILES CC1=CCC(=C(C)C)C(=O)CC(C)=CCC1
REMARK SMILES IDX 12 1 14 2 13 3 15 4 16 5 2 6 1 7 3 8 11 10 9 11 10 12 5 13
REMARK SMILES IDX 6 14 7 15 8 16 4 17
REMARK H PARENT
REMARK Flexibility Score: 60.00
ROOT
ATOM      1  C   UNL     1      -7.754  29.908  23.763  1.00  0.00    -0.070 C 
ATOM      2  C   UNL     1      -7.380  30.039  25.068  1.00  0.00    -0.027 C 
ATOM      3  C   UNL     1      -6.657  29.586  22.773  1.00  0.00     0.039 C 
ENDROOT
BRANCH   2   4
ATOM      4  C   UNL     1      -8.195  30.299  26.329  1.00  0.00     0.032 C 
BRANCH   4   5
ATOM      5  C   UNL     1      -9.060  31.564  26.360  1.00  0.00     0.034 C 
BRANCH   5   6
ATOM      6  C   UNL     1      -8.467  32.865  25.798  1.00  0.00    -0.077 C 
ATOM      7  C   UNL     1      -7.403  33.515  26.656  1.00  0.00     0.039 C 
ATOM      8  C   UNL     1      -8.707  33.472  24.598  1.00  0.00    -0.023 CG0
ATOM      9  G   UNL     1      -9.639  33.094  23.463  1.00  0.00     0.000 G0
ENDBRANCH   5   6
ENDBRANCH   4   5
ENDBRANCH   2   4
BRANCH   1  10
ATOM     10  C   UNL     1      -9.156  30.060  23.196  1.00  0.00     0.111 C 
BRANCH  10  11
ATOM     11  C   UNL     1      -9.195  31.034  22.057  1.00  0.00     0.163 C 
ATOM     12  O   UNL     1      -9.493  30.616  20.905  1.00  0.00    -0.294 OA
BRANCH  11  13
ATOM     13  C   UNL     1      -8.930  32.479  22.283  1.00  0.00    -0.002 C 
ATOM     14  C   UNL     1      -8.105  33.190  21.460  1.00  0.00    -0.069 C 
ATOM     15  C   UNL     1      -7.328  32.509  20.355  1.00  0.00     0.039 C 
ATOM     16  C   UNL     1      -7.917  34.681  21.622  1.00  0.00     0.039 C 
BRANCH  13  17
ATOM     17  C   UNL     1      -9.641  33.108  23.462  1.00  0.00     0.066 CG0
ATOM     18  G   UNL     1      -8.679  33.478  24.576  1.00  0.00     0.000 G0
ENDBRANCH  13  17
ENDBRANCH  11  13
ENDBRANCH  10  11
ENDBRANCH   1  10
TORSDOF 0
ENDMDL
MODEL 7
REMARK VINA RESULT:    -4.403      1.739      4.208
REMARK INTER + INTRA:          -6.254
REMARK INTER:                  -6.937
REMARK INTRA:                   0.682
REMARK UNBOUND:                -0.050
REMARK SMILES CC1=CCC(=C(C)C)C(=O)CC(C)=CCC1
REMARK SMILES IDX 12 1 14 2 13 3 15 4 16 5 2 6 1 7 3 8 11 10 9 11 10 12 5 13
REMARK SMILES IDX 6 14 7 15 8 16 4 17
REMARK H PARENT
REMARK Flexibility Score: 60.00
ROOT
ATOM      1  C   UNL     1      -8.310  32.075  21.056  1.00  0.00    -0.070 C 
ATOM      2  C   UNL     1      -8.204  30.716  21.110  1.00  0.00    -0.027 C 
ATOM      3  C   UNL     1      -7.496  32.776  19.992  1.00  0.00     0.039 C 
ENDROOT
BRANCH   2   4
ATOM      4  C   UNL     1      -8.900  29.684  21.991  1.00  0.00     0.032 C 
BRANCH   4   5
ATOM      5  C   UNL     1      -8.174  29.244  23.268  1.00  0.00     0.034 C 
BRANCH   5   6
ATOM      6  C   UNL     1      -8.460  30.010  24.568  1.00  0.00    -0.077 C 
ATOM      7  C   UNL     1      -9.276  29.258  25.597  1.00  0.00     0.039 C 
ATOM      8  C   UNL     1      -8.013  31.240  24.958  1.00  0.00    -0.023 CG0
ATOM      9  G   UNL     1      -7.136  32.251  24.242  1.00  0.00     0.000 G0
ENDBRANCH   5   6
ENDBRANCH   4   5
ENDBRANCH   2   4
BRANCH   1  10
ATOM     10  C   UNL     1      -9.155  32.961  21.957  1.00  0.00     0.111 C 
BRANCH  10  11
ATOM     11  C   UNL     1      -8.315  33.932  22.731  1.00  0.00     0.163 C 
ATOM     12  O   UNL     1      -8.052  35.054  22.221  1.00  0.00    -0.294 OA
BRANCH  11  13
ATOM     13  C   UNL     1      -7.833  33.600  24.097  1.00  0.00    -0.002 C 
ATOM     14  C   UNL     1      -8.021  34.452  25.146  1.00  0.00    -0.069 C 
ATOM     15  C   UNL     1      -8.618  35.826  24.938  1.00  0.00     0.039 C 
ATOM     16  C   UNL     1      -7.628  34.072  26.556  1.00  0.00     0.039 C 
BRANCH  13  17
ATOM     17  C   UNL     1      -7.144  32.261  24.251  1.00  0.00     0.066 CG0
ATOM     18  G   UNL     1      -8.023  31.246  24.959  1.00  0.00     0.000 G0
ENDBRANCH  13  17
ENDBRANCH  11  13
ENDBRANCH  10  11
ENDBRANCH   1  10
TORSDOF 0
ENDMDL
MODEL 8
REMARK VINA RESULT:    -4.371      1.834      3.981
REMARK INTER + INTRA:          -6.210
REMARK INTER:                  -6.621
REMARK INTRA:                   0.411
REMARK UNBOUND:                -0.050
REMARK SMILES CC1=CCC(=C(C)C)C(=O)CC(C)=CCC1
REMARK SMILES IDX 12 1 14 2 13 3 15 4 16 5 2 6 1 7 3 8 11 10 9 11 10 12 5 13
REMARK SMILES IDX 6 14 7 15 8 16 4 17
REMARK H PARENT
REMARK Flexibility Score: 60.00
ROOT
ATOM      1  C   UNL     1      -8.973  29.805  25.884  1.00  0.00    -0.070 C 
ATOM      2  C   UNL     1      -8.159  30.455  26.765  1.00  0.00    -0.027 C 
ATOM      3  C   UNL     1      -9.278  28.356  26.187  1.00  0.00     0.039 C 
ENDROOT
BRANCH   2   4
ATOM      4  C   UNL     1      -7.684  31.902  26.821  1.00  0.00     0.032 C 
BRANCH   4   5
ATOM      5  C   UNL     1      -8.635  32.976  26.277  1.00  0.00     0.034 C 
BRANCH   5   6
ATOM      6  C   UNL     1      -8.116  33.919  25.182  1.00  0.00    -0.077 C 
ATOM      7  C   UNL     1      -8.286  35.397  25.465  1.00  0.00     0.039 C 
ATOM      8  C   UNL     1      -7.451  33.615  24.028  1.00  0.00    -0.023 CG0
ATOM      9  G   UNL     1      -7.043  32.277  23.441  1.00  0.00     0.000 G0
ENDBRANCH   5   6
ENDBRANCH   4   5
ENDBRANCH   2   4
BRANCH   1  10
ATOM     10  C   UNL     1      -9.599  30.382  24.624  1.00  0.00     0.111 C 
BRANCH  10  11
ATOM     11  C   UNL     1      -8.668  30.306  23.453  1.00  0.00     0.163 C 
ATOM     12  O   UNL     1      -8.318  29.174  23.022  1.00  0.00    -0.294 OA
BRANCH  11  13
ATOM     13  C   UNL     1      -8.194  31.543  22.777  1.00  0.00    -0.002 C 
ATOM     14  C   UNL     1      -8.781  32.000  21.634  1.00  0.00    -0.069 C 
ATOM     15  C   UNL     1      -9.860  31.201  20.937  1.00  0.00     0.039 C 
ATOM     16  C   UNL     1      -8.374  33.312  21.003  1.00  0.00     0.039 C 
BRANCH  13  17
ATOM     17  C   UNL     1      -7.041  32.263  23.443  1.00  0.00     0.066 CG0
ATOM     18  G   UNL     1      -7.463  33.602  24.019  1.00  0.00     0.000 G0
ENDBRANCH  13  17
ENDBRANCH  11  13
ENDBRANCH  10  11
ENDBRANCH   1  10
TORSDOF 0
ENDMDL
MODEL 9
REMARK VINA RESULT:    -4.309      1.782      3.576
REMARK INTER + INTRA:          -6.122
REMARK INTER:                  -6.181
REMARK INTRA:                   0.060
REMARK UNBOUND:                -0.050
REMARK SMILES CC1=CCC(=C(C)C)C(=O)CC(C)=CCC1
REMARK SMILES IDX 12 1 14 2 13 3 15 4 16 5 2 6 1 7 3 8 11 10 9 11 10 12 5 13
REMARK SMILES IDX 6 14 7 15 8 16 4 17
REMARK H PARENT
REMARK Flexibility Score: 60.00
ROOT
ATOM      1  C   UNL     1      -7.982  32.950  26.641  1.00  0.00    -0.070 C 
ATOM      2  C   UNL     1      -7.471  34.144  26.226  1.00  0.00    -0.027 C 
ATOM      3  C   UNL     1      -7.046  32.042  27.407  1.00  0.00     0.039 C 
ENDROOT
BRANCH   2   4
ATOM      4  C   UNL     1      -8.113  35.316  25.494  1.00  0.00     0.032 C 
BRANCH   4   5
ATOM      5  C   UNL     1      -8.953  34.995  24.251  1.00  0.00     0.034 C 
BRANCH   5   6
ATOM      6  C   UNL     1      -8.283  34.235  23.097  1.00  0.00    -0.077 C 
ATOM      7  C   UNL     1      -7.204  34.997  22.359  1.00  0.00     0.039 C 
ATOM      8  C   UNL     1      -8.467  32.942  22.697  1.00  0.00    -0.023 CG0
ATOM      9  G   UNL     1      -9.394  31.862  23.223  1.00  0.00     0.000 G0
ENDBRANCH   5   6
ENDBRANCH   4   5
ENDBRANCH   2   4
BRANCH   1  10
ATOM     10  C   UNL     1      -9.391  32.429  26.407  1.00  0.00     0.111 C 
BRANCH  10  11
ATOM     11  C   UNL     1      -9.390  31.132  25.657  1.00  0.00     0.163 C 
ATOM     12  O   UNL     1      -9.967  30.132  26.163  1.00  0.00    -0.294 OA
BRANCH  11  13
ATOM     13  C   UNL     1      -8.757  31.030  24.315  1.00  0.00    -0.002 C 
ATOM     14  C   UNL     1      -7.678  30.226  24.095  1.00  0.00    -0.069 C 
ATOM     15  C   UNL     1      -7.001  29.497  25.235  1.00  0.00     0.039 C 
ATOM     16  C   UNL     1      -7.099  30.037  22.711  1.00  0.00     0.039 C 
BRANCH  13  17
ATOM     17  C   UNL     1      -9.394  31.855  23.217  1.00  0.00     0.066 CG0
ATOM     18  G   UNL     1      -8.457  32.928  22.695  1.00  0.00     0.000 G0
ENDBRANCH  13  17
ENDBRANCH  11  13
ENDBRANCH  10  11
ENDBRANCH   1  10
TORSDOF 0
ENDMDL
