MODEL 1
REMARK VINA RESULT:     9.741      0.000      0.000
REMARK INTER + INTRA:          24.182
REMARK INTER:                  25.687
REMARK INTRA:                  -1.505
REMARK UNBOUND:                -1.505
REMARK SMILES CCCCCCCCCCCCCCCCCCCCCCCCCCCCCC(=O)[O-]
REMARK SMILES IDX 16 1 17 2 18 3 19 4 20 5 21 6 22 7 23 8 24 9 25 10 26 11
REMARK SMILES IDX 27 12 28 13 29 14 30 15 31 16 32 17 15 18 14 19 13 20 12 21
REMARK SMILES IDX 11 22 10 23 9 24 8 25 7 26 6 27 5 28 4 29 3 30 2 31 1 32
REMARK H PARENT
REMARK Flexibility Score: inf
ROOT
ATOM      1  C   UNL     1      31.579  19.244  38.578  1.00  0.00     0.000 C 
ENDROOT
BRANCH   1   2
ATOM      2  C   UNL     1      32.601  18.094  38.472  1.00  0.00     0.000 C 
BRANCH   2   3
ATOM      3  C   UNL     1      33.772  18.249  39.457  1.00  0.00     0.000 C 
BRANCH   3   4
ATOM      4  C   UNL     1      33.711  17.185  40.559  1.00  0.00     0.000 C 
BRANCH   4   5
ATOM      5  C   UNL     1      33.577  17.829  41.945  1.00  0.00     0.000 C 
BRANCH   5   6
ATOM      6  C   UNL     1      34.820  17.625  42.829  1.00  0.00     0.000 C 
BRANCH   6   7
ATOM      7  C   UNL     1      34.844  16.278  43.584  1.00  0.00     0.000 C 
BRANCH   7   8
ATOM      8  C   UNL     1      36.249  15.652  43.619  1.00  0.00     0.000 C 
BRANCH   8   9
ATOM      9  C   UNL     1      36.215  14.117  43.729  1.00  0.00     0.000 C 
BRANCH   9  10
ATOM     10  C   UNL     1      36.333  13.374  42.383  1.00  0.00     0.000 C 
BRANCH  10  11
ATOM     11  C   UNL     1      34.965  12.987  41.795  1.00  0.00     0.000 C 
BRANCH  11  12
ATOM     12  C   UNL     1      35.079  12.371  40.390  1.00  0.00     0.000 C 
BRANCH  12  13
ATOM     13  C   UNL     1      33.724  12.298  39.664  1.00  0.00     0.006 C 
BRANCH  13  14
ATOM     14  C   UNL     1      32.837  11.170  40.209  1.00  0.00     0.053 C 
BRANCH  14  15
ATOM     15  C   UNL     1      33.351   9.822  39.810  1.00  0.00     0.041 C 
ATOM     16  O   UNL     1      33.698   8.989  40.687  1.00  0.00    -0.550 OA
ATOM     17  O   UNL     1      33.420   9.475  38.466  1.00  0.00    -0.550 OA
ENDBRANCH  14  15
ENDBRANCH  13  14
ENDBRANCH  12  13
ENDBRANCH  11  12
ENDBRANCH  10  11
ENDBRANCH   9  10
ENDBRANCH   8   9
ENDBRANCH   7   8
ENDBRANCH   6   7
ENDBRANCH   5   6
ENDBRANCH   4   5
ENDBRANCH   3   4
ENDBRANCH   2   3
ENDBRANCH   1   2
BRANCH   1  18
ATOM     18  C   UNL     1      30.953  19.662  37.236  1.00  0.00     0.000 C 
BRANCH  18  19
ATOM     19  C   UNL     1      31.458  21.027  36.737  1.00  0.00     0.000 C 
BRANCH  19  20
ATOM     20  C   UNL     1      31.392  22.132  37.809  1.00  0.00     0.000 C 
BRANCH  20  21
ATOM     21  C   UNL     1      32.323  23.341  37.579  1.00  0.00     0.000 C 
BRANCH  21  22
ATOM     22  C   UNL     1      31.893  24.224  36.400  1.00  0.00     0.000 C 
BRANCH  22  23
ATOM     23  C   UNL     1      32.753  23.948  35.159  1.00  0.00     0.000 C 
BRANCH  23  24
ATOM     24  C   UNL     1      32.643  25.054  34.092  1.00  0.00    -0.000 C 
BRANCH  24  25
ATOM     25  C   UNL     1      31.999  24.618  32.760  1.00  0.00    -0.000 C 
BRANCH  25  26
ATOM     26  C   UNL     1      30.545  25.088  32.554  1.00  0.00    -0.000 C 
BRANCH  26  27
ATOM     27  C   UNL     1      30.059  25.065  31.093  1.00  0.00    -0.000 C 
BRANCH  27  28
ATOM     28  C   UNL     1      30.586  23.889  30.246  1.00  0.00    -0.000 C 
BRANCH  28  29
ATOM     29  C   UNL     1      30.968  24.248  28.799  1.00  0.00    -0.000 C 
BRANCH  29  30
ATOM     30  C   UNL     1      32.261  25.073  28.708  1.00  0.00    -0.000 C 
BRANCH  30  31
ATOM     31  C   UNL     1      33.275  24.620  29.764  1.00  0.00    -0.003 C 
ATOM     32  C   UNL     1      34.638  24.342  29.136  1.00  0.00     0.004 C 
ENDBRANCH  30  31
ENDBRANCH  29  30
ENDBRANCH  28  29
ENDBRANCH  27  28
ENDBRANCH  26  27
ENDBRANCH  25  26
ENDBRANCH  24  25
ENDBRANCH  23  24
ENDBRANCH  22  23
ENDBRANCH  21  22
ENDBRANCH  20  21
ENDBRANCH  19  20
ENDBRANCH  18  19
ENDBRANCH   1  18
TORSDOF 28
ENDMDL
MODEL 2
REMARK VINA RESULT:    11.258      1.202      2.066
REMARK INTER + INTRA:          28.182
REMARK INTER:                  29.644
REMARK INTRA:                  -1.462
REMARK UNBOUND:                -1.505
REMARK SMILES CCCCCCCCCCCCCCCCCCCCCCCCCCCCCC(=O)[O-]
REMARK SMILES IDX 16 1 17 2 18 3 19 4 20 5 21 6 22 7 23 8 24 9 25 10 26 11
REMARK SMILES IDX 27 12 28 13 29 14 30 15 31 16 32 17 15 18 14 19 13 20 12 21
REMARK SMILES IDX 11 22 10 23 9 24 8 25 7 26 6 27 5 28 4 29 3 30 2 31 1 32
REMARK H PARENT
REMARK Flexibility Score: inf
ROOT
ATOM      1  C   UNL     1      31.471  18.828  37.342  1.00  0.00     0.000 C 
ENDROOT
BRANCH   1   2
ATOM      2  C   UNL     1      31.949  18.505  38.772  1.00  0.00     0.000 C 
BRANCH   2   3
ATOM      3  C   UNL     1      33.395  17.983  38.809  1.00  0.00     0.000 C 
BRANCH   3   4
ATOM      4  C   UNL     1      33.694  17.278  40.137  1.00  0.00     0.000 C 
BRANCH   4   5
ATOM      5  C   UNL     1      34.069  18.287  41.230  1.00  0.00     0.000 C 
BRANCH   5   6
ATOM      6  C   UNL     1      34.040  17.684  42.645  1.00  0.00     0.000 C 
BRANCH   6   7
ATOM      7  C   UNL     1      34.289  16.161  42.686  1.00  0.00     0.000 C 
BRANCH   7   8
ATOM      8  C   UNL     1      35.431  15.781  43.646  1.00  0.00     0.000 C 
BRANCH   8   9
ATOM      9  C   UNL     1      36.531  14.947  42.963  1.00  0.00     0.000 C 
BRANCH   9  10
ATOM     10  C   UNL     1      36.293  13.424  42.995  1.00  0.00     0.000 C 
BRANCH  10  11
ATOM     11  C   UNL     1      34.829  13.055  43.294  1.00  0.00     0.000 C 
BRANCH  11  12
ATOM     12  C   UNL     1      34.377  11.785  42.554  1.00  0.00     0.000 C 
BRANCH  12  13
ATOM     13  C   UNL     1      34.233  12.004  41.037  1.00  0.00     0.006 C 
BRANCH  13  14
ATOM     14  C   UNL     1      32.988  11.306  40.470  1.00  0.00     0.053 C 
BRANCH  14  15
ATOM     15  C   UNL     1      33.319   9.959  39.908  1.00  0.00     0.041 C 
ATOM     16  O   UNL     1      32.420   9.087  39.779  1.00  0.00    -0.550 OA
ATOM     17  O   UNL     1      34.616   9.676  39.499  1.00  0.00    -0.550 OA
ENDBRANCH  14  15
ENDBRANCH  13  14
ENDBRANCH  12  13
ENDBRANCH  11  12
ENDBRANCH  10  11
ENDBRANCH   9  10
ENDBRANCH   8   9
ENDBRANCH   7   8
ENDBRANCH   6   7
ENDBRANCH   5   6
ENDBRANCH   4   5
ENDBRANCH   3   4
ENDBRANCH   2   3
ENDBRANCH   1   2
BRANCH   1  18
ATOM     18  C   UNL     1      31.622  20.306  36.941  1.00  0.00     0.000 C 
BRANCH  18  19
ATOM     19  C   UNL     1      31.505  21.267  38.136  1.00  0.00     0.000 C 
BRANCH  19  20
ATOM     20  C   UNL     1      31.156  22.711  37.727  1.00  0.00     0.000 C 
BRANCH  20  21
ATOM     21  C   UNL     1      32.194  23.419  36.831  1.00  0.00     0.000 C 
BRANCH  21  22
ATOM     22  C   UNL     1      31.626  24.634  36.086  1.00  0.00     0.000 C 
BRANCH  22  23
ATOM     23  C   UNL     1      32.504  25.004  34.881  1.00  0.00     0.000 C 
BRANCH  23  24
ATOM     24  C   UNL     1      33.250  23.794  34.287  1.00  0.00    -0.000 C 
BRANCH  24  25
ATOM     25  C   UNL     1      34.718  24.058  33.894  1.00  0.00    -0.000 C 
BRANCH  25  26
ATOM     26  C   UNL     1      34.920  25.125  32.800  1.00  0.00    -0.000 C 
BRANCH  26  27
ATOM     27  C   UNL     1      35.073  24.568  31.372  1.00  0.00    -0.000 C 
BRANCH  27  28
ATOM     28  C   UNL     1      34.071  25.124  30.341  1.00  0.00    -0.000 C 
BRANCH  28  29
ATOM     29  C   UNL     1      33.288  24.059  29.553  1.00  0.00    -0.000 C 
BRANCH  29  30
ATOM     30  C   UNL     1      32.004  24.611  28.913  1.00  0.00    -0.000 C 
BRANCH  30  31
ATOM     31  C   UNL     1      30.955  24.936  29.983  1.00  0.00    -0.003 C 
ATOM     32  C   UNL     1      29.554  24.988  29.381  1.00  0.00     0.004 C 
ENDBRANCH  30  31
ENDBRANCH  29  30
ENDBRANCH  28  29
ENDBRANCH  27  28
ENDBRANCH  26  27
ENDBRANCH  25  26
ENDBRANCH  24  25
ENDBRANCH  23  24
ENDBRANCH  22  23
ENDBRANCH  21  22
ENDBRANCH  20  21
ENDBRANCH  19  20
ENDBRANCH  18  19
ENDBRANCH   1  18
TORSDOF 28
ENDMDL
