MODEL 1
REMARK VINA RESULT:    -6.095      0.000      0.000
REMARK INTER + INTRA:         -18.037
REMARK INTER:                 -15.360
REMARK INTRA:                  -2.676
REMARK UNBOUND:                -2.676
REMARK SMILES CCCCCCCCCCCCCCCCCCCCCCCCCCCC(=O)[O-]
REMARK SMILES IDX 15 1 16 2 17 3 18 4 19 5 20 6 21 7 22 8 23 9 24 10 25 11
REMARK SMILES IDX 26 12 27 13 28 14 29 15 30 16 14 17 13 18 12 19 11 20 10 21
REMARK SMILES IDX 9 22 8 23 7 24 6 25 5 26 4 27 3 28 2 29 1 30
REMARK H PARENT
REMARK Flexibility Score: inf
ROOT
ATOM      1  C   UNL     1      89.752 324.991 200.153  1.00  0.00     0.000 C 
ENDROOT
BRANCH   1   2
ATOM      2  C   UNL     1      89.635 326.422 200.707  1.00  0.00     0.000 C 
BRANCH   2   3
ATOM      3  C   UNL     1      88.917 326.504 202.070  1.00  0.00     0.000 C 
BRANCH   3   4
ATOM      4  C   UNL     1      89.875 326.873 203.216  1.00  0.00     0.000 C 
BRANCH   4   5
ATOM      5  C   UNL     1      89.138 327.412 204.455  1.00  0.00     0.000 C 
BRANCH   5   6
ATOM      6  C   UNL     1      89.926 327.279 205.772  1.00  0.00     0.000 C 
BRANCH   6   7
ATOM      7  C   UNL     1      89.265 326.301 206.760  1.00  0.00     0.000 C 
BRANCH   7   8
ATOM      8  C   UNL     1      87.907 325.785 206.258  1.00  0.00     0.000 C 
BRANCH   8   9
ATOM      9  C   UNL     1      87.905 324.267 206.024  1.00  0.00     0.000 C 
BRANCH   9  10
ATOM     10  C   UNL     1      86.838 323.874 204.992  1.00  0.00     0.000 C 
BRANCH  10  11
ATOM     11  C   UNL     1      87.418 323.646 203.583  1.00  0.00     0.000 C 
BRANCH  11  12
ATOM     12  C   UNL     1      86.433 323.045 202.560  1.00  0.00     0.006 C 
BRANCH  12  13
ATOM     13  C   UNL     1      87.052 322.717 201.191  1.00  0.00     0.053 C 
BRANCH  13  14
ATOM     14  C   UNL     1      87.893 321.478 201.241  1.00  0.00     0.041 C 
ATOM     15  O   UNL     1      87.426 320.413 201.726  1.00  0.00    -0.550 OA
ATOM     16  O   UNL     1      89.181 321.490 200.720  1.00  0.00    -0.550 OA
ENDBRANCH  13  14
ENDBRANCH  12  13
ENDBRANCH  11  12
ENDBRANCH  10  11
ENDBRANCH   9  10
ENDBRANCH   8   9
ENDBRANCH   7   8
ENDBRANCH   6   7
ENDBRANCH   5   6
ENDBRANCH   4   5
ENDBRANCH   3   4
ENDBRANCH   2   3
ENDBRANCH   1   2
BRANCH   1  17
ATOM     17  C   UNL     1      89.176 324.848 198.734  1.00  0.00     0.000 C 
BRANCH  17  18
ATOM     18  C   UNL     1      88.705 326.200 198.157  1.00  0.00     0.000 C 
BRANCH  18  19
ATOM     19  C   UNL     1      88.454 326.160 196.638  1.00  0.00     0.000 C 
BRANCH  19  20
ATOM     20  C   UNL     1      86.985 326.425 196.271  1.00  0.00     0.000 C 
BRANCH  20  21
ATOM     21  C   UNL     1      86.784 326.710 194.773  1.00  0.00     0.000 C 
BRANCH  21  22
ATOM     22  C   UNL     1      88.048 326.544 193.905  1.00  0.00    -0.000 C 
BRANCH  22  23
ATOM     23  C   UNL     1      88.045 325.325 192.961  1.00  0.00    -0.000 C 
BRANCH  23  24
ATOM     24  C   UNL     1      88.063 323.956 193.666  1.00  0.00    -0.000 C 
BRANCH  24  25
ATOM     25  C   UNL     1      87.306 322.872 192.886  1.00  0.00    -0.000 C 
BRANCH  25  26
ATOM     26  C   UNL     1      86.843 323.405 191.522  1.00  0.00    -0.000 C 
BRANCH  26  27
ATOM     27  C   UNL     1      86.828 322.320 190.433  1.00  0.00    -0.000 C 
BRANCH  27  28
ATOM     28  C   UNL     1      87.614 322.729 189.179  1.00  0.00    -0.000 C 
BRANCH  28  29
ATOM     29  C   UNL     1      88.841 323.569 189.551  1.00  0.00    -0.003 C 
ATOM     30  C   UNL     1      90.081 323.102 188.796  1.00  0.00     0.004 C 
ENDBRANCH  28  29
ENDBRANCH  27  28
ENDBRANCH  26  27
ENDBRANCH  25  26
ENDBRANCH  24  25
ENDBRANCH  23  24
ENDBRANCH  22  23
ENDBRANCH  21  22
ENDBRANCH  20  21
ENDBRANCH  19  20
ENDBRANCH  18  19
ENDBRANCH  17  18
ENDBRANCH   1  17
TORSDOF 26
ENDMDL
MODEL 2
REMARK VINA RESULT:    -5.974      1.102      2.044
REMARK INTER + INTRA:         -17.731
REMARK INTER:                 -14.999
REMARK INTRA:                  -2.732
REMARK UNBOUND:                -2.676
REMARK SMILES CCCCCCCCCCCCCCCCCCCCCCCCCCCC(=O)[O-]
REMARK SMILES IDX 15 1 16 2 17 3 18 4 19 5 20 6 21 7 22 8 23 9 24 10 25 11
REMARK SMILES IDX 26 12 27 13 28 14 29 15 30 16 14 17 13 18 12 19 11 20 10 21
REMARK SMILES IDX 9 22 8 23 7 24 6 25 5 26 4 27 3 28 2 29 1 30
REMARK H PARENT
REMARK Flexibility Score: inf
ROOT
ATOM      1  C   UNL     1      88.859 326.446 201.806  1.00  0.00     0.000 C 
ENDROOT
BRANCH   1   2
ATOM      2  C   UNL     1      89.576 326.336 203.163  1.00  0.00     0.000 C 
BRANCH   2   3
ATOM      3  C   UNL     1      89.145 327.411 204.182  1.00  0.00     0.000 C 
BRANCH   3   4
ATOM      4  C   UNL     1      89.827 327.229 205.550  1.00  0.00     0.000 C 
BRANCH   4   5
ATOM      5  C   UNL     1      88.940 326.476 206.560  1.00  0.00     0.000 C 
BRANCH   5   6
ATOM      6  C   UNL     1      89.430 325.056 206.899  1.00  0.00     0.000 C 
BRANCH   6   7
ATOM      7  C   UNL     1      88.520 323.962 206.311  1.00  0.00     0.000 C 
BRANCH   7   8
ATOM      8  C   UNL     1      87.193 324.523 205.778  1.00  0.00     0.000 C 
BRANCH   8   9
ATOM      9  C   UNL     1      86.447 323.519 204.886  1.00  0.00     0.000 C 
BRANCH   9  10
ATOM     10  C   UNL     1      86.640 323.858 203.400  1.00  0.00     0.000 C 
BRANCH  10  11
ATOM     11  C   UNL     1      86.775 322.608 202.510  1.00  0.00     0.000 C 
BRANCH  11  12
ATOM     12  C   UNL     1      87.516 322.832 201.176  1.00  0.00     0.006 C 
BRANCH  12  13
ATOM     13  C   UNL     1      89.013 322.481 201.208  1.00  0.00     0.053 C 
BRANCH  13  14
ATOM     14  C   UNL     1      89.320 321.438 202.239  1.00  0.00     0.041 C 
ATOM     15  O   UNL     1      89.110 320.221 201.992  1.00  0.00    -0.550 OA
ATOM     16  O   UNL     1      89.871 321.808 203.460  1.00  0.00    -0.550 OA
ENDBRANCH  13  14
ENDBRANCH  12  13
ENDBRANCH  11  12
ENDBRANCH  10  11
ENDBRANCH   9  10
ENDBRANCH   8   9
ENDBRANCH   7   8
ENDBRANCH   6   7
ENDBRANCH   5   6
ENDBRANCH   4   5
ENDBRANCH   3   4
ENDBRANCH   2   3
ENDBRANCH   1   2
BRANCH   1  17
ATOM     17  C   UNL     1      89.828 326.425 200.612  1.00  0.00     0.000 C 
BRANCH  17  18
ATOM     18  C   UNL     1      89.242 325.671 199.399  1.00  0.00     0.000 C 
BRANCH  18  19
ATOM     19  C   UNL     1      88.850 326.600 198.235  1.00  0.00     0.000 C 
BRANCH  19  20
ATOM     20  C   UNL     1      88.348 325.831 197.003  1.00  0.00     0.000 C 
BRANCH  20  21
ATOM     21  C   UNL     1      88.814 326.456 195.676  1.00  0.00     0.000 C 
BRANCH  21  22
ATOM     22  C   UNL     1      87.677 326.947 194.757  1.00  0.00    -0.000 C 
BRANCH  22  23
ATOM     23  C   UNL     1      86.345 326.181 194.888  1.00  0.00    -0.000 C 
BRANCH  23  24
ATOM     24  C   UNL     1      85.990 325.283 193.690  1.00  0.00    -0.000 C 
BRANCH  24  25
ATOM     25  C   UNL     1      86.670 323.908 193.752  1.00  0.00    -0.000 C 
BRANCH  25  26
ATOM     26  C   UNL     1      88.065 323.961 193.111  1.00  0.00    -0.000 C 
BRANCH  26  27
ATOM     27  C   UNL     1      88.025 324.381 191.632  1.00  0.00    -0.000 C 
BRANCH  27  28
ATOM     28  C   UNL     1      87.476 323.277 190.717  1.00  0.00    -0.000 C 
BRANCH  28  29
ATOM     29  C   UNL     1      88.584 322.699 189.831  1.00  0.00    -0.003 C 
ATOM     30  C   UNL     1      89.237 323.786 188.983  1.00  0.00     0.004 C 
ENDBRANCH  28  29
ENDBRANCH  27  28
ENDBRANCH  26  27
ENDBRANCH  25  26
ENDBRANCH  24  25
ENDBRANCH  23  24
ENDBRANCH  22  23
ENDBRANCH  21  22
ENDBRANCH  20  21
ENDBRANCH  19  20
ENDBRANCH  18  19
ENDBRANCH  17  18
ENDBRANCH   1  17
TORSDOF 26
ENDMDL
MODEL 3
REMARK VINA RESULT:    -5.956      3.463     11.271
REMARK INTER + INTRA:         -17.686
REMARK INTER:                 -14.931
REMARK INTRA:                  -2.755
REMARK UNBOUND:                -2.676
REMARK SMILES CCCCCCCCCCCCCCCCCCCCCCCCCCCC(=O)[O-]
REMARK SMILES IDX 15 1 16 2 17 3 18 4 19 5 20 6 21 7 22 8 23 9 24 10 25 11
REMARK SMILES IDX 26 12 27 13 28 14 29 15 30 16 14 17 13 18 12 19 11 20 10 21
REMARK SMILES IDX 9 22 8 23 7 24 6 25 5 26 4 27 3 28 2 29 1 30
REMARK H PARENT
REMARK Flexibility Score: inf
ROOT
ATOM      1  C   UNL     1      89.720 326.461 200.462  1.00  0.00     0.000 C 
ENDROOT
BRANCH   1   2
ATOM      2  C   UNL     1      89.960 325.152 199.688  1.00  0.00     0.000 C 
BRANCH   2   3
ATOM      3  C   UNL     1      89.218 325.084 198.337  1.00  0.00     0.000 C 
BRANCH   3   4
ATOM      4  C   UNL     1      88.518 326.409 197.986  1.00  0.00     0.000 C 
BRANCH   4   5
ATOM      5  C   UNL     1      87.779 326.350 196.636  1.00  0.00     0.000 C 
BRANCH   5   6
ATOM      6  C   UNL     1      88.699 326.450 195.404  1.00  0.00     0.000 C 
BRANCH   6   7
ATOM      7  C   UNL     1      87.931 326.828 194.124  1.00  0.00     0.000 C 
BRANCH   7   8
ATOM      8  C   UNL     1      86.605 326.066 193.986  1.00  0.00     0.000 C 
BRANCH   8   9
ATOM      9  C   UNL     1      86.802 324.628 193.481  1.00  0.00     0.000 C 
BRANCH   9  10
ATOM     10  C   UNL     1      87.816 324.588 192.328  1.00  0.00     0.000 C 
BRANCH  10  11
ATOM     11  C   UNL     1      87.418 323.606 191.210  1.00  0.00     0.000 C 
BRANCH  11  12
ATOM     12  C   UNL     1      88.581 323.119 190.321  1.00  0.00     0.006 C 
BRANCH  12  13
ATOM     13  C   UNL     1      88.201 322.858 188.855  1.00  0.00     0.053 C 
BRANCH  13  14
ATOM     14  C   UNL     1      87.252 321.706 188.721  1.00  0.00     0.041 C 
ATOM     15  O   UNL     1      87.451 320.642 189.364  1.00  0.00    -0.550 OA
ATOM     16  O   UNL     1      86.129 321.822 187.911  1.00  0.00    -0.550 OA
ENDBRANCH  13  14
ENDBRANCH  12  13
ENDBRANCH  11  12
ENDBRANCH  10  11
ENDBRANCH   9  10
ENDBRANCH   8   9
ENDBRANCH   7   8
ENDBRANCH   6   7
ENDBRANCH   5   6
ENDBRANCH   4   5
ENDBRANCH   3   4
ENDBRANCH   2   3
ENDBRANCH   1   2
BRANCH   1  17
ATOM     17  C   UNL     1      88.873 326.261 201.729  1.00  0.00     0.000 C 
BRANCH  17  18
ATOM     18  C   UNL     1      88.318 324.825 201.841  1.00  0.00     0.000 C 
BRANCH  18  19
ATOM     19  C   UNL     1      88.346 324.270 203.277  1.00  0.00     0.000 C 
BRANCH  19  20
ATOM     20  C   UNL     1      87.040 323.559 203.665  1.00  0.00     0.000 C 
BRANCH  20  21
ATOM     21  C   UNL     1      86.716 323.679 205.164  1.00  0.00     0.000 C 
BRANCH  21  22
ATOM     22  C   UNL     1      87.850 324.267 206.028  1.00  0.00    -0.000 C 
BRANCH  22  23
ATOM     23  C   UNL     1      87.653 325.732 206.466  1.00  0.00    -0.000 C 
BRANCH  23  24
ATOM     24  C   UNL     1      88.949 326.552 206.598  1.00  0.00    -0.000 C 
BRANCH  24  25
ATOM     25  C   UNL     1      89.368 327.225 205.283  1.00  0.00    -0.000 C 
BRANCH  25  26
ATOM     26  C   UNL     1      90.896 327.341 205.194  1.00  0.00    -0.000 C 
BRANCH  26  27
ATOM     27  C   UNL     1      91.528 326.233 204.336  1.00  0.00    -0.000 C 
BRANCH  27  28
ATOM     28  C   UNL     1      92.421 326.786 203.216  1.00  0.00    -0.000 C 
BRANCH  28  29
ATOM     29  C   UNL     1      92.664 325.727 202.136  1.00  0.00    -0.003 C 
ATOM     30  C   UNL     1      92.759 324.331 202.742  1.00  0.00     0.004 C 
ENDBRANCH  28  29
ENDBRANCH  27  28
ENDBRANCH  26  27
ENDBRANCH  25  26
ENDBRANCH  24  25
ENDBRANCH  23  24
ENDBRANCH  22  23
ENDBRANCH  21  22
ENDBRANCH  20  21
ENDBRANCH  19  20
ENDBRANCH  18  19
ENDBRANCH  17  18
ENDBRANCH   1  17
TORSDOF 26
ENDMDL
MODEL 4
REMARK VINA RESULT:    -5.912      3.429     11.347
REMARK INTER + INTRA:         -17.574
REMARK INTER:                 -15.065
REMARK INTRA:                  -2.510
REMARK UNBOUND:                -2.676
REMARK SMILES CCCCCCCCCCCCCCCCCCCCCCCCCCCC(=O)[O-]
REMARK SMILES IDX 15 1 16 2 17 3 18 4 19 5 20 6 21 7 22 8 23 9 24 10 25 11
REMARK SMILES IDX 26 12 27 13 28 14 29 15 30 16 14 17 13 18 12 19 11 20 10 21
REMARK SMILES IDX 9 22 8 23 7 24 6 25 5 26 4 27 3 28 2 29 1 30
REMARK H PARENT
REMARK Flexibility Score: inf
ROOT
ATOM      1  C   UNL     1      89.423 324.328 200.677  1.00  0.00     0.000 C 
ENDROOT
BRANCH   1   2
ATOM      2  C   UNL     1      88.789 323.891 199.345  1.00  0.00     0.000 C 
BRANCH   2   3
ATOM      3  C   UNL     1      89.299 324.685 198.125  1.00  0.00     0.000 C 
BRANCH   3   4
ATOM      4  C   UNL     1      88.760 326.126 198.097  1.00  0.00     0.000 C 
BRANCH   4   5
ATOM      5  C   UNL     1      87.893 326.412 196.857  1.00  0.00     0.000 C 
BRANCH   5   6
ATOM      6  C   UNL     1      88.629 326.242 195.515  1.00  0.00     0.000 C 
BRANCH   6   7
ATOM      7  C   UNL     1      87.787 326.716 194.316  1.00  0.00     0.000 C 
BRANCH   7   8
ATOM      8  C   UNL     1      86.441 325.984 194.215  1.00  0.00     0.000 C 
BRANCH   8   9
ATOM      9  C   UNL     1      86.502 324.765 193.283  1.00  0.00     0.000 C 
BRANCH   9  10
ATOM     10  C   UNL     1      87.830 324.733 192.511  1.00  0.00     0.000 C 
BRANCH  10  11
ATOM     11  C   UNL     1      87.899 323.593 191.477  1.00  0.00     0.000 C 
BRANCH  11  12
ATOM     12  C   UNL     1      88.678 323.926 190.187  1.00  0.00     0.006 C 
BRANCH  12  13
ATOM     13  C   UNL     1      88.642 322.824 189.116  1.00  0.00     0.053 C 
BRANCH  13  14
ATOM     14  C   UNL     1      90.009 322.280 188.829  1.00  0.00     0.041 C 
ATOM     15  O   UNL     1      90.936 323.052 188.469  1.00  0.00    -0.550 OA
ATOM     16  O   UNL     1      90.266 320.924 188.995  1.00  0.00    -0.550 OA
ENDBRANCH  13  14
ENDBRANCH  12  13
ENDBRANCH  11  12
ENDBRANCH  10  11
ENDBRANCH   9  10
ENDBRANCH   8   9
ENDBRANCH   7   8
ENDBRANCH   6   7
ENDBRANCH   5   6
ENDBRANCH   4   5
ENDBRANCH   3   4
ENDBRANCH   2   3
ENDBRANCH   1   2
BRANCH   1  17
ATOM     17  C   UNL     1      88.509 325.251 201.501  1.00  0.00     0.000 C 
BRANCH  17  18
ATOM     18  C   UNL     1      89.237 326.532 201.963  1.00  0.00     0.000 C 
BRANCH  18  19
ATOM     19  C   UNL     1      90.621 326.715 201.313  1.00  0.00     0.000 C 
BRANCH  19  20
ATOM     20  C   UNL     1      91.732 326.970 202.343  1.00  0.00     0.000 C 
BRANCH  20  21
ATOM     21  C   UNL     1      91.412 326.380 203.727  1.00  0.00     0.000 C 
BRANCH  21  22
ATOM     22  C   UNL     1      91.879 327.236 204.922  1.00  0.00    -0.000 C 
BRANCH  22  23
ATOM     23  C   UNL     1      90.870 327.355 206.082  1.00  0.00    -0.000 C 
BRANCH  23  24
ATOM     24  C   UNL     1      89.395 327.166 205.684  1.00  0.00    -0.000 C 
BRANCH  24  25
ATOM     25  C   UNL     1      88.545 326.557 206.808  1.00  0.00    -0.000 C 
BRANCH  25  26
ATOM     26  C   UNL     1      87.715 325.376 206.284  1.00  0.00    -0.000 C 
BRANCH  26  27
ATOM     27  C   UNL     1      88.394 324.644 205.114  1.00  0.00    -0.000 C 
BRANCH  27  28
ATOM     28  C   UNL     1      88.183 323.124 205.164  1.00  0.00    -0.000 C 
BRANCH  28  29
ATOM     29  C   UNL     1      86.742 322.758 204.792  1.00  0.00    -0.003 C 
ATOM     30  C   UNL     1      86.388 323.259 203.396  1.00  0.00     0.004 C 
ENDBRANCH  28  29
ENDBRANCH  27  28
ENDBRANCH  26  27
ENDBRANCH  25  26
ENDBRANCH  24  25
ENDBRANCH  23  24
ENDBRANCH  22  23
ENDBRANCH  21  22
ENDBRANCH  20  21
ENDBRANCH  19  20
ENDBRANCH  18  19
ENDBRANCH  17  18
ENDBRANCH   1  17
TORSDOF 26
ENDMDL
MODEL 5
REMARK VINA RESULT:    -5.899      3.398     11.047
REMARK INTER + INTRA:         -17.542
REMARK INTER:                 -14.575
REMARK INTRA:                  -2.967
REMARK UNBOUND:                -2.676
REMARK SMILES CCCCCCCCCCCCCCCCCCCCCCCCCCCC(=O)[O-]
REMARK SMILES IDX 15 1 16 2 17 3 18 4 19 5 20 6 21 7 22 8 23 9 24 10 25 11
REMARK SMILES IDX 26 12 27 13 28 14 29 15 30 16 14 17 13 18 12 19 11 20 10 21
REMARK SMILES IDX 9 22 8 23 7 24 6 25 5 26 4 27 3 28 2 29 1 30
REMARK H PARENT
REMARK Flexibility Score: inf
ROOT
ATOM      1  C   UNL     1      89.240 326.378 200.110  1.00  0.00     0.000 C 
ENDROOT
BRANCH   1   2
ATOM      2  C   UNL     1      88.877 326.394 198.614  1.00  0.00     0.000 C 
BRANCH   2   3
ATOM      3  C   UNL     1      88.903 325.000 197.955  1.00  0.00     0.000 C 
BRANCH   3   4
ATOM      4  C   UNL     1      88.856 325.077 196.419  1.00  0.00     0.000 C 
BRANCH   4   5
ATOM      5  C   UNL     1      88.927 326.524 195.895  1.00  0.00     0.000 C 
BRANCH   5   6
ATOM      6  C   UNL     1      88.155 326.763 194.584  1.00  0.00     0.000 C 
BRANCH   6   7
ATOM      7  C   UNL     1      86.735 326.171 194.618  1.00  0.00     0.000 C 
BRANCH   7   8
ATOM      8  C   UNL     1      86.548 325.029 193.607  1.00  0.00     0.000 C 
BRANCH   8   9
ATOM      9  C   UNL     1      87.785 324.820 192.721  1.00  0.00     0.000 C 
BRANCH   9  10
ATOM     10  C   UNL     1      88.161 323.332 192.648  1.00  0.00     0.000 C 
BRANCH  10  11
ATOM     11  C   UNL     1      87.748 322.671 191.319  1.00  0.00     0.000 C 
BRANCH  11  12
ATOM     12  C   UNL     1      88.222 323.406 190.048  1.00  0.00     0.006 C 
BRANCH  12  13
ATOM     13  C   UNL     1      88.817 322.492 188.965  1.00  0.00     0.053 C 
BRANCH  13  14
ATOM     14  C   UNL     1      87.861 321.413 188.557  1.00  0.00     0.041 C 
ATOM     15  O   UNL     1      88.145 320.203 188.759  1.00  0.00    -0.550 OA
ATOM     16  O   UNL     1      86.640 321.747 187.984  1.00  0.00    -0.550 OA
ENDBRANCH  13  14
ENDBRANCH  12  13
ENDBRANCH  11  12
ENDBRANCH  10  11
ENDBRANCH   9  10
ENDBRANCH   8   9
ENDBRANCH   7   8
ENDBRANCH   6   7
ENDBRANCH   5   6
ENDBRANCH   4   5
ENDBRANCH   3   4
ENDBRANCH   2   3
ENDBRANCH   1   2
BRANCH   1  17
ATOM     17  C   UNL     1      90.425 325.451 200.429  1.00  0.00     0.000 C 
BRANCH  17  18
ATOM     18  C   UNL     1      90.989 325.691 201.846  1.00  0.00     0.000 C 
BRANCH  18  19
ATOM     19  C   UNL     1      90.319 326.870 202.577  1.00  0.00     0.000 C 
BRANCH  19  20
ATOM     20  C   UNL     1      90.505 326.807 204.101  1.00  0.00     0.000 C 
BRANCH  20  21
ATOM     21  C   UNL     1      89.246 327.235 204.875  1.00  0.00     0.000 C 
BRANCH  21  22
ATOM     22  C   UNL     1      89.272 326.915 206.384  1.00  0.00    -0.000 C 
BRANCH  22  23
ATOM     23  C   UNL     1      88.759 325.513 206.769  1.00  0.00    -0.000 C 
BRANCH  23  24
ATOM     24  C   UNL     1      87.550 325.016 205.956  1.00  0.00    -0.000 C 
BRANCH  24  25
ATOM     25  C   UNL     1      87.730 323.584 205.432  1.00  0.00    -0.000 C 
BRANCH  25  26
ATOM     26  C   UNL     1      88.910 323.506 204.452  1.00  0.00    -0.000 C 
BRANCH  26  27
ATOM     27  C   UNL     1      88.474 323.138 203.025  1.00  0.00    -0.000 C 
BRANCH  27  28
ATOM     28  C   UNL     1      87.451 324.125 202.443  1.00  0.00    -0.000 C 
BRANCH  28  29
ATOM     29  C   UNL     1      86.062 323.485 202.356  1.00  0.00    -0.003 C 
ATOM     30  C   UNL     1      86.130 322.099 201.723  1.00  0.00     0.004 C 
ENDBRANCH  28  29
ENDBRANCH  27  28
ENDBRANCH  26  27
ENDBRANCH  25  26
ENDBRANCH  24  25
ENDBRANCH  23  24
ENDBRANCH  22  23
ENDBRANCH  21  22
ENDBRANCH  20  21
ENDBRANCH  19  20
ENDBRANCH  18  19
ENDBRANCH  17  18
ENDBRANCH   1  17
TORSDOF 26
ENDMDL
MODEL 6
REMARK VINA RESULT:    -5.893      1.207      1.947
REMARK INTER + INTRA:         -17.527
REMARK INTER:                 -15.062
REMARK INTRA:                  -2.465
REMARK UNBOUND:                -2.676
REMARK SMILES CCCCCCCCCCCCCCCCCCCCCCCCCCCC(=O)[O-]
REMARK SMILES IDX 15 1 16 2 17 3 18 4 19 5 20 6 21 7 22 8 23 9 24 10 25 11
REMARK SMILES IDX 26 12 27 13 28 14 29 15 30 16 14 17 13 18 12 19 11 20 10 21
REMARK SMILES IDX 9 22 8 23 7 24 6 25 5 26 4 27 3 28 2 29 1 30
REMARK H PARENT
REMARK Flexibility Score: inf
ROOT
ATOM      1  C   UNL     1      88.851 326.143 201.312  1.00  0.00     0.000 C 
ENDROOT
BRANCH   1   2
ATOM      2  C   UNL     1      89.530 326.778 202.538  1.00  0.00     0.000 C 
BRANCH   2   3
ATOM      3  C   UNL     1      91.058 326.926 202.394  1.00  0.00     0.000 C 
BRANCH   3   4
ATOM      4  C   UNL     1      91.829 325.882 203.222  1.00  0.00     0.000 C 
BRANCH   4   5
ATOM      5  C   UNL     1      92.094 326.347 204.666  1.00  0.00     0.000 C 
BRANCH   5   6
ATOM      6  C   UNL     1      91.104 325.789 205.705  1.00  0.00     0.000 C 
BRANCH   6   7
ATOM      7  C   UNL     1      90.286 326.896 206.394  1.00  0.00     0.000 C 
BRANCH   7   8
ATOM      8  C   UNL     1      88.824 326.488 206.630  1.00  0.00     0.000 C 
BRANCH   8   9
ATOM      9  C   UNL     1      88.346 325.415 205.640  1.00  0.00     0.000 C 
BRANCH   9  10
ATOM     10  C   UNL     1      86.932 324.932 205.998  1.00  0.00     0.000 C 
BRANCH  10  11
ATOM     11  C   UNL     1      86.510 323.674 205.216  1.00  0.00     0.000 C 
BRANCH  11  12
ATOM     12  C   UNL     1      87.279 323.431 203.901  1.00  0.00     0.006 C 
BRANCH  12  13
ATOM     13  C   UNL     1      86.436 323.596 202.626  1.00  0.00     0.053 C 
BRANCH  13  14
ATOM     14  C   UNL     1      86.747 322.540 201.610  1.00  0.00     0.041 C 
ATOM     15  O   UNL     1      86.262 321.383 201.729  1.00  0.00    -0.550 OA
ATOM     16  O   UNL     1      87.543 322.844 200.513  1.00  0.00    -0.550 OA
ENDBRANCH  13  14
ENDBRANCH  12  13
ENDBRANCH  11  12
ENDBRANCH  10  11
ENDBRANCH   9  10
ENDBRANCH   8   9
ENDBRANCH   7   8
ENDBRANCH   6   7
ENDBRANCH   5   6
ENDBRANCH   4   5
ENDBRANCH   3   4
ENDBRANCH   2   3
ENDBRANCH   1   2
BRANCH   1  17
ATOM     17  C   UNL     1      89.545 326.503 199.988  1.00  0.00     0.000 C 
BRANCH  17  18
ATOM     18  C   UNL     1      88.936 325.750 198.786  1.00  0.00     0.000 C 
BRANCH  18  19
ATOM     19  C   UNL     1      88.747 326.638 197.542  1.00  0.00     0.000 C 
BRANCH  19  20
ATOM     20  C   UNL     1      88.601 325.824 196.247  1.00  0.00     0.000 C 
BRANCH  20  21
ATOM     21  C   UNL     1      88.524 326.708 194.990  1.00  0.00     0.000 C 
BRANCH  21  22
ATOM     22  C   UNL     1      87.094 327.027 194.508  1.00  0.00    -0.000 C 
BRANCH  22  23
ATOM     23  C   UNL     1      86.087 325.864 194.617  1.00  0.00    -0.000 C 
BRANCH  23  24
ATOM     24  C   UNL     1      86.161 324.831 193.478  1.00  0.00    -0.000 C 
BRANCH  24  25
ATOM     25  C   UNL     1      87.023 323.611 193.834  1.00  0.00    -0.000 C 
BRANCH  25  26
ATOM     26  C   UNL     1      88.189 323.462 192.846  1.00  0.00    -0.000 C 
BRANCH  26  27
ATOM     27  C   UNL     1      87.987 324.276 191.558  1.00  0.00    -0.000 C 
BRANCH  27  28
ATOM     28  C   UNL     1      88.556 323.574 190.317  1.00  0.00    -0.000 C 
BRANCH  28  29
ATOM     29  C   UNL     1      87.454 322.829 189.556  1.00  0.00    -0.003 C 
ATOM     30  C   UNL     1      86.665 321.911 190.484  1.00  0.00     0.004 C 
ENDBRANCH  28  29
ENDBRANCH  27  28
ENDBRANCH  26  27
ENDBRANCH  25  26
ENDBRANCH  24  25
ENDBRANCH  23  24
ENDBRANCH  22  23
ENDBRANCH  21  22
ENDBRANCH  20  21
ENDBRANCH  19  20
ENDBRANCH  18  19
ENDBRANCH  17  18
ENDBRANCH   1  17
TORSDOF 26
ENDMDL
MODEL 7
REMARK VINA RESULT:    -5.885      2.063      9.834
REMARK INTER + INTRA:         -17.506
REMARK INTER:                 -14.053
REMARK INTRA:                  -3.452
REMARK UNBOUND:                -2.676
REMARK SMILES CCCCCCCCCCCCCCCCCCCCCCCCCCCC(=O)[O-]
REMARK SMILES IDX 15 1 16 2 17 3 18 4 19 5 20 6 21 7 22 8 23 9 24 10 25 11
REMARK SMILES IDX 26 12 27 13 28 14 29 15 30 16 14 17 13 18 12 19 11 20 10 21
REMARK SMILES IDX 9 22 8 23 7 24 6 25 5 26 4 27 3 28 2 29 1 30
REMARK H PARENT
REMARK Flexibility Score: inf
ROOT
ATOM      1  C   UNL     1      89.549 324.144 200.605  1.00  0.00     0.000 C 
ENDROOT
BRANCH   1   2
ATOM      2  C   UNL     1      88.810 323.785 199.303  1.00  0.00     0.000 C 
BRANCH   2   3
ATOM      3  C   UNL     1      89.265 324.611 198.083  1.00  0.00     0.000 C 
BRANCH   3   4
ATOM      4  C   UNL     1      88.642 326.018 198.061  1.00  0.00     0.000 C 
BRANCH   4   5
ATOM      5  C   UNL     1      87.925 326.329 196.733  1.00  0.00     0.000 C 
BRANCH   5   6
ATOM      6  C   UNL     1      88.869 326.515 195.530  1.00  0.00     0.000 C 
BRANCH   6   7
ATOM      7  C   UNL     1      88.110 326.824 194.227  1.00  0.00     0.000 C 
BRANCH   7   8
ATOM      8  C   UNL     1      86.638 326.388 194.285  1.00  0.00     0.000 C 
BRANCH   8   9
ATOM      9  C   UNL     1      86.399 325.031 193.606  1.00  0.00     0.000 C 
BRANCH   9  10
ATOM     10  C   UNL     1      87.624 324.609 192.781  1.00  0.00     0.000 C 
BRANCH  10  11
ATOM     11  C   UNL     1      88.250 323.287 193.264  1.00  0.00     0.000 C 
BRANCH  11  12
ATOM     12  C   UNL     1      88.101 323.006 194.773  1.00  0.00     0.006 C 
BRANCH  12  13
ATOM     13  C   UNL     1      89.246 322.185 195.388  1.00  0.00     0.053 C 
BRANCH  13  14
ATOM     14  C   UNL     1      88.738 321.131 196.324  1.00  0.00     0.041 C 
ATOM     15  O   UNL     1      87.664 321.309 196.957  1.00  0.00    -0.550 OA
ATOM     16  O   UNL     1      89.434 319.937 196.471  1.00  0.00    -0.550 OA
ENDBRANCH  13  14
ENDBRANCH  12  13
ENDBRANCH  11  12
ENDBRANCH  10  11
ENDBRANCH   9  10
ENDBRANCH   8   9
ENDBRANCH   7   8
ENDBRANCH   6   7
ENDBRANCH   5   6
ENDBRANCH   4   5
ENDBRANCH   3   4
ENDBRANCH   2   3
ENDBRANCH   1   2
BRANCH   1  17
ATOM     17  C   UNL     1      88.690 324.973 201.574  1.00  0.00     0.000 C 
BRANCH  17  18
ATOM     18  C   UNL     1      89.149 326.446 201.645  1.00  0.00     0.000 C 
BRANCH  18  19
ATOM     19  C   UNL     1      90.680 326.606 201.701  1.00  0.00     0.000 C 
BRANCH  19  20
ATOM     20  C   UNL     1      91.168 327.192 203.034  1.00  0.00     0.000 C 
BRANCH  20  21
ATOM     21  C   UNL     1      90.015 327.573 203.979  1.00  0.00     0.000 C 
BRANCH  21  22
ATOM     22  C   UNL     1      90.226 327.174 205.454  1.00  0.00    -0.000 C 
BRANCH  22  23
ATOM     23  C   UNL     1      89.050 326.421 206.108  1.00  0.00    -0.000 C 
BRANCH  23  24
ATOM     24  C   UNL     1      88.391 325.348 205.221  1.00  0.00    -0.000 C 
BRANCH  24  25
ATOM     25  C   UNL     1      87.680 324.256 206.033  1.00  0.00    -0.000 C 
BRANCH  25  26
ATOM     26  C   UNL     1      86.382 323.820 205.338  1.00  0.00    -0.000 C 
BRANCH  26  27
ATOM     27  C   UNL     1      86.615 323.310 203.907  1.00  0.00    -0.000 C 
BRANCH  27  28
ATOM     28  C   UNL     1      86.698 321.779 203.829  1.00  0.00    -0.000 C 
BRANCH  28  29
ATOM     29  C   UNL     1      86.325 321.281 202.429  1.00  0.00    -0.003 C 
ATOM     30  C   UNL     1      85.881 322.433 201.533  1.00  0.00     0.004 C 
ENDBRANCH  28  29
ENDBRANCH  27  28
ENDBRANCH  26  27
ENDBRANCH  25  26
ENDBRANCH  24  25
ENDBRANCH  23  24
ENDBRANCH  22  23
ENDBRANCH  21  22
ENDBRANCH  20  21
ENDBRANCH  19  20
ENDBRANCH  18  19
ENDBRANCH  17  18
ENDBRANCH   1  17
TORSDOF 26
ENDMDL
MODEL 8
REMARK VINA RESULT:    -5.879      3.464     10.903
REMARK INTER + INTRA:         -17.492
REMARK INTER:                 -14.010
REMARK INTRA:                  -3.482
REMARK UNBOUND:                -2.676
REMARK SMILES CCCCCCCCCCCCCCCCCCCCCCCCCCCC(=O)[O-]
REMARK SMILES IDX 15 1 16 2 17 3 18 4 19 5 20 6 21 7 22 8 23 9 24 10 25 11
REMARK SMILES IDX 26 12 27 13 28 14 29 15 30 16 14 17 13 18 12 19 11 20 10 21
REMARK SMILES IDX 9 22 8 23 7 24 6 25 5 26 4 27 3 28 2 29 1 30
REMARK H PARENT
REMARK Flexibility Score: inf
ROOT
ATOM      1  C   UNL     1      90.782 325.971 201.290  1.00  0.00     0.000 C 
ENDROOT
BRANCH   1   2
ATOM      2  C   UNL     1      89.357 326.259 200.784  1.00  0.00     0.000 C 
BRANCH   2   3
ATOM      3  C   UNL     1      89.218 326.195 199.249  1.00  0.00     0.000 C 
BRANCH   3   4
ATOM      4  C   UNL     1      89.077 324.752 198.734  1.00  0.00     0.000 C 
BRANCH   4   5
ATOM      5  C   UNL     1      88.484 324.685 197.313  1.00  0.00     0.000 C 
BRANCH   5   6
ATOM      6  C   UNL     1      88.010 326.041 196.758  1.00  0.00     0.000 C 
BRANCH   6   7
ATOM      7  C   UNL     1      88.852 326.514 195.559  1.00  0.00     0.000 C 
BRANCH   7   8
ATOM      8  C   UNL     1      88.000 326.770 194.306  1.00  0.00     0.000 C 
BRANCH   8   9
ATOM      9  C   UNL     1      86.570 326.227 194.446  1.00  0.00     0.000 C 
BRANCH   9  10
ATOM     10  C   UNL     1      86.351 325.018 193.524  1.00  0.00     0.000 C 
BRANCH  10  11
ATOM     11  C   UNL     1      87.607 324.642 192.716  1.00  0.00     0.000 C 
BRANCH  11  12
ATOM     12  C   UNL     1      87.349 323.752 191.482  1.00  0.00     0.006 C 
BRANCH  12  13
ATOM     13  C   UNL     1      88.473 323.770 190.434  1.00  0.00     0.053 C 
BRANCH  13  14
ATOM     14  C   UNL     1      88.254 322.746 189.362  1.00  0.00     0.041 C 
ATOM     15  O   UNL     1      89.216 322.362 188.645  1.00  0.00    -0.550 OA
ATOM     16  O   UNL     1      86.994 322.189 189.180  1.00  0.00    -0.550 OA
ENDBRANCH  13  14
ENDBRANCH  12  13
ENDBRANCH  11  12
ENDBRANCH  10  11
ENDBRANCH   9  10
ENDBRANCH   8   9
ENDBRANCH   7   8
ENDBRANCH   6   7
ENDBRANCH   5   6
ENDBRANCH   4   5
ENDBRANCH   3   4
ENDBRANCH   2   3
ENDBRANCH   1   2
BRANCH   1  17
ATOM     17  C   UNL     1      91.204 326.890 202.449  1.00  0.00     0.000 C 
BRANCH  17  18
ATOM     18  C   UNL     1      90.038 327.181 203.417  1.00  0.00     0.000 C 
BRANCH  18  19
ATOM     19  C   UNL     1      90.454 327.155 204.899  1.00  0.00     0.000 C 
BRANCH  19  20
ATOM     20  C   UNL     1      89.258 327.281 205.856  1.00  0.00     0.000 C 
BRANCH  20  21
ATOM     21  C   UNL     1      88.945 325.971 206.599  1.00  0.00     0.000 C 
BRANCH  21  22
ATOM     22  C   UNL     1      87.531 325.408 206.354  1.00  0.00    -0.000 C 
BRANCH  22  23
ATOM     23  C   UNL     1      87.480 323.976 205.784  1.00  0.00    -0.000 C 
BRANCH  23  24
ATOM     24  C   UNL     1      86.924 323.865 204.353  1.00  0.00    -0.000 C 
BRANCH  24  25
ATOM     25  C   UNL     1      88.003 324.046 203.277  1.00  0.00    -0.000 C 
BRANCH  25  26
ATOM     26  C   UNL     1      88.916 322.812 203.208  1.00  0.00    -0.000 C 
BRANCH  26  27
ATOM     27  C   UNL     1      90.389 323.145 203.494  1.00  0.00    -0.000 C 
BRANCH  27  28
ATOM     28  C   UNL     1      90.816 322.765 204.920  1.00  0.00    -0.000 C 
BRANCH  28  29
ATOM     29  C   UNL     1      91.721 323.843 205.525  1.00  0.00    -0.003 C 
ATOM     30  C   UNL     1      92.821 324.252 204.551  1.00  0.00     0.004 C 
ENDBRANCH  28  29
ENDBRANCH  27  28
ENDBRANCH  26  27
ENDBRANCH  25  26
ENDBRANCH  24  25
ENDBRANCH  23  24
ENDBRANCH  22  23
ENDBRANCH  21  22
ENDBRANCH  20  21
ENDBRANCH  19  20
ENDBRANCH  18  19
ENDBRANCH  17  18
ENDBRANCH   1  17
TORSDOF 26
ENDMDL
MODEL 9
REMARK VINA RESULT:    -5.799      2.671     10.440
REMARK INTER + INTRA:         -17.290
REMARK INTER:                 -14.473
REMARK INTRA:                  -2.817
REMARK UNBOUND:                -2.676
REMARK SMILES CCCCCCCCCCCCCCCCCCCCCCCCCCCC(=O)[O-]
REMARK SMILES IDX 15 1 16 2 17 3 18 4 19 5 20 6 21 7 22 8 23 9 24 10 25 11
REMARK SMILES IDX 26 12 27 13 28 14 29 15 30 16 14 17 13 18 12 19 11 20 10 21
REMARK SMILES IDX 9 22 8 23 7 24 6 25 5 26 4 27 3 28 2 29 1 30
REMARK H PARENT
REMARK Flexibility Score: inf
ROOT
ATOM      1  C   UNL     1      88.749 326.125 201.537  1.00  0.00     0.000 C 
ENDROOT
BRANCH   1   2
ATOM      2  C   UNL     1      89.571 326.251 200.241  1.00  0.00     0.000 C 
BRANCH   2   3
ATOM      3  C   UNL     1      89.745 324.917 199.485  1.00  0.00     0.000 C 
BRANCH   3   4
ATOM      4  C   UNL     1      89.121 324.955 198.079  1.00  0.00     0.000 C 
BRANCH   4   5
ATOM      5  C   UNL     1      88.519 326.330 197.734  1.00  0.00     0.000 C 
BRANCH   5   6
ATOM      6  C   UNL     1      88.281 326.559 196.229  1.00  0.00     0.000 C 
BRANCH   6   7
ATOM      7  C   UNL     1      86.791 326.495 195.850  1.00  0.00     0.000 C 
BRANCH   7   8
ATOM      8  C   UNL     1      86.558 325.832 194.484  1.00  0.00     0.000 C 
BRANCH   8   9
ATOM      9  C   UNL     1      87.818 325.839 193.605  1.00  0.00     0.000 C 
BRANCH   9  10
ATOM     10  C   UNL     1      88.185 324.414 193.164  1.00  0.00     0.000 C 
BRANCH  10  11
ATOM     11  C   UNL     1      87.821 324.125 191.696  1.00  0.00     0.000 C 
BRANCH  11  12
ATOM     12  C   UNL     1      86.417 323.524 191.476  1.00  0.00     0.006 C 
BRANCH  12  13
ATOM     13  C   UNL     1      86.378 322.326 190.513  1.00  0.00     0.053 C 
BRANCH  13  14
ATOM     14  C   UNL     1      87.452 321.328 190.818  1.00  0.00     0.041 C 
ATOM     15  O   UNL     1      88.393 321.138 190.002  1.00  0.00    -0.550 OA
ATOM     16  O   UNL     1      87.434 320.632 192.021  1.00  0.00    -0.550 OA
ENDBRANCH  13  14
ENDBRANCH  12  13
ENDBRANCH  11  12
ENDBRANCH  10  11
ENDBRANCH   9  10
ENDBRANCH   8   9
ENDBRANCH   7   8
ENDBRANCH   6   7
ENDBRANCH   5   6
ENDBRANCH   4   5
ENDBRANCH   3   4
ENDBRANCH   2   3
ENDBRANCH   1   2
BRANCH   1  17
ATOM     17  C   UNL     1      89.621 325.865 202.777  1.00  0.00     0.000 C 
BRANCH  17  18
ATOM     18  C   UNL     1      90.039 327.173 203.482  1.00  0.00     0.000 C 
BRANCH  18  19
ATOM     19  C   UNL     1      89.233 327.459 204.763  1.00  0.00     0.000 C 
BRANCH  19  20
ATOM     20  C   UNL     1      90.035 327.180 206.044  1.00  0.00     0.000 C 
BRANCH  20  21
ATOM     21  C   UNL     1      89.258 326.331 207.064  1.00  0.00     0.000 C 
BRANCH  21  22
ATOM     22  C   UNL     1      89.529 324.815 206.987  1.00  0.00    -0.000 C 
BRANCH  22  23
ATOM     23  C   UNL     1      88.503 324.001 206.174  1.00  0.00    -0.000 C 
BRANCH  23  24
ATOM     24  C   UNL     1      87.153 324.704 205.940  1.00  0.00    -0.000 C 
BRANCH  24  25
ATOM     25  C   UNL     1      86.186 323.873 205.086  1.00  0.00    -0.000 C 
BRANCH  25  26
ATOM     26  C   UNL     1      86.952 323.060 204.032  1.00  0.00    -0.000 C 
BRANCH  26  27
ATOM     27  C   UNL     1      86.665 323.526 202.596  1.00  0.00    -0.000 C 
BRANCH  27  28
ATOM     28  C   UNL     1      87.147 322.521 201.539  1.00  0.00    -0.000 C 
BRANCH  28  29
ATOM     29  C   UNL     1      88.332 321.703 202.062  1.00  0.00    -0.003 C 
ATOM     30  C   UNL     1      89.615 322.047 201.314  1.00  0.00     0.004 C 
ENDBRANCH  28  29
ENDBRANCH  27  28
ENDBRANCH  26  27
ENDBRANCH  25  26
ENDBRANCH  24  25
ENDBRANCH  23  24
ENDBRANCH  22  23
ENDBRANCH  21  22
ENDBRANCH  20  21
ENDBRANCH  19  20
ENDBRANCH  18  19
ENDBRANCH  17  18
ENDBRANCH   1  17
TORSDOF 26
ENDMDL
