MODEL 1
REMARK VINA RESULT:    -2.820      0.000      0.000
REMARK INTER + INTRA:          -3.365
REMARK INTER:                  -3.975
REMARK INTRA:                   0.610
REMARK UNBOUND:                 0.610
REMARK SMILES CC1=CCC(=C(C)C)C(=O)CC(C)=CCC1
REMARK SMILES IDX 12 1 14 2 13 3 15 4 16 5 2 6 1 7 3 8 11 10 9 11 10 12 5 13
REMARK SMILES IDX 6 14 7 15 8 16 4 17
REMARK H PARENT
REMARK Flexibility Score: 60.00
ROOT
ATOM      1  C   UNL     1      23.569 -12.211   6.021  1.00  0.00    -0.070 C 
ATOM      2  C   UNL     1      22.976 -12.082   4.810  1.00  0.00    -0.027 C 
ATOM      3  C   UNL     1      22.965 -11.448   7.175  1.00  0.00     0.039 C 
ENDROOT
BRANCH   2   4
ATOM      4  C   UNL     1      23.344 -12.829   3.551  1.00  0.00     0.032 C 
BRANCH   4   5
ATOM      5  C   UNL     1      24.800 -12.577   3.116  1.00  0.00     0.034 C 
BRANCH   5   6
ATOM      6  C   UNL     1      25.132 -11.099   3.054  1.00  0.00    -0.077 C 
ATOM      7  C   UNL     1      24.370 -10.235   2.082  1.00  0.00     0.039 C 
ATOM      8  C   UNL     1      26.092 -10.513   3.805  1.00  0.00    -0.023 CG0
ATOM      9  G   UNL     1      26.982 -11.215   4.803  1.00  0.00     0.000 G0
ENDBRANCH   5   6
ENDBRANCH   4   5
ENDBRANCH   2   4
BRANCH   1  10
ATOM     10  C   UNL     1      24.753 -13.125   6.289  1.00  0.00     0.111 C 
BRANCH  10  11
ATOM     11  C   UNL     1      25.930 -12.361   6.842  1.00  0.00     0.163 C 
ATOM     12  O   UNL     1      26.472 -12.787   7.898  1.00  0.00    -0.294 OA
BRANCH  11  13
ATOM     13  C   UNL     1      26.426 -11.100   6.205  1.00  0.00    -0.002 C 
ATOM     14  C   UNL     1      26.435  -9.910   6.877  1.00  0.00    -0.069 C 
ATOM     15  C   UNL     1      26.903  -8.634   6.214  1.00  0.00     0.039 C 
ATOM     16  C   UNL     1      26.014  -9.816   8.328  1.00  0.00     0.039 C 
BRANCH  13  17
ATOM     17  C   UNL     1      26.990 -11.214   4.800  1.00  0.00     0.066 CG0
ATOM     18  G   UNL     1      26.094 -10.486   3.828  1.00  0.00     0.000 G0
ENDBRANCH  13  17
ENDBRANCH  11  13
ENDBRANCH  10  11
ENDBRANCH   1  10
TORSDOF 0
ENDMDL
MODEL 2
REMARK VINA RESULT:    -2.197      1.850      4.350
REMARK INTER + INTRA:          -2.486
REMARK INTER:                  -4.404
REMARK INTRA:                   1.917
REMARK UNBOUND:                 0.610
REMARK SMILES CC1=CCC(=C(C)C)C(=O)CC(C)=CCC1
REMARK SMILES IDX 12 1 14 2 13 3 15 4 16 5 2 6 1 7 3 8 11 10 9 11 10 12 5 13
REMARK SMILES IDX 6 14 7 15 8 16 4 17
REMARK H PARENT
REMARK Flexibility Score: 60.00
ROOT
ATOM      1  C   UNL     1      26.043 -10.348   7.696  1.00  0.00    -0.070 C 
ATOM      2  C   UNL     1      25.985 -11.619   8.159  1.00  0.00    -0.027 C 
ATOM      3  C   UNL     1      26.940  -9.381   8.430  1.00  0.00     0.039 C 
ENDROOT
BRANCH   2   4
ATOM      4  C   UNL     1      25.242 -12.769   7.523  1.00  0.00     0.032 C 
BRANCH   4   5
ATOM      5  C   UNL     1      23.777 -12.860   7.992  1.00  0.00     0.034 C 
BRANCH   5   6
ATOM      6  C   UNL     1      22.827 -12.155   7.043  1.00  0.00    -0.077 C 
ATOM      7  C   UNL     1      21.541 -11.600   7.599  1.00  0.00     0.039 C 
ATOM      8  C   UNL     1      23.057 -12.016   5.717  1.00  0.00    -0.023 CG0
ATOM      9  G   UNL     1      24.265 -12.534   4.973  1.00  0.00     0.000 G0
ENDBRANCH   5   6
ENDBRANCH   4   5
ENDBRANCH   2   4
BRANCH   1  10
ATOM     10  C   UNL     1      25.315  -9.868   6.451  1.00  0.00     0.111 C 
BRANCH  10  11
ATOM     11  C   UNL     1      25.865 -10.512   5.203  1.00  0.00     0.163 C 
ATOM     12  O   UNL     1      27.063 -10.274   4.890  1.00  0.00    -0.294 OA
BRANCH  11  13
ATOM     13  C   UNL     1      25.018 -11.370   4.316  1.00  0.00    -0.002 C 
ATOM     14  C   UNL     1      24.963 -11.174   2.964  1.00  0.00    -0.069 C 
ATOM     15  C   UNL     1      24.076 -12.021   2.080  1.00  0.00     0.039 C 
ATOM     16  C   UNL     1      25.812 -10.124   2.281  1.00  0.00     0.039 C 
BRANCH  13  17
ATOM     17  C   UNL     1      24.278 -12.521   4.973  1.00  0.00     0.066 CG0
ATOM     18  G   UNL     1      23.063 -11.999   5.702  1.00  0.00     0.000 G0
ENDBRANCH  13  17
ENDBRANCH  11  13
ENDBRANCH  10  11
ENDBRANCH   1  10
TORSDOF 0
ENDMDL
MODEL 3
REMARK VINA RESULT:    -0.678      1.687      3.518
REMARK INTER + INTRA:          -0.346
REMARK INTER:                  -2.134
REMARK INTRA:                   1.788
REMARK UNBOUND:                 0.610
REMARK SMILES CC1=CCC(=C(C)C)C(=O)CC(C)=CCC1
REMARK SMILES IDX 12 1 14 2 13 3 15 4 16 5 2 6 1 7 3 8 11 10 9 11 10 12 5 13
REMARK SMILES IDX 6 14 7 15 8 16 4 17
REMARK H PARENT
REMARK Flexibility Score: 60.00
ROOT
ATOM      1  C   UNL     1      23.055 -12.012   7.196  1.00  0.00    -0.070 C 
ATOM      2  C   UNL     1      22.994 -10.664   7.089  1.00  0.00    -0.027 C 
ATOM      3  C   UNL     1      21.876 -12.713   7.828  1.00  0.00     0.039 C 
ENDROOT
BRANCH   2   4
ATOM      4  C   UNL     1      24.003  -9.776   6.402  1.00  0.00     0.032 C 
BRANCH   4   5
ATOM      5  C   UNL     1      25.348  -9.715   7.151  1.00  0.00     0.034 C 
BRANCH   5   6
ATOM      6  C   UNL     1      26.515  -9.472   6.214  1.00  0.00    -0.077 C 
ATOM      7  C   UNL     1      27.008  -8.059   6.037  1.00  0.00     0.039 C 
ATOM      8  C   UNL     1      27.125 -10.450   5.507  1.00  0.00    -0.023 CG0
ATOM      9  G   UNL     1      26.753 -11.914   5.523  1.00  0.00     0.000 G0
ENDBRANCH   5   6
ENDBRANCH   4   5
ENDBRANCH   2   4
BRANCH   1  10
ATOM     10  C   UNL     1      24.201 -12.852   6.658  1.00  0.00     0.111 C 
BRANCH  10  11
ATOM     11  C   UNL     1      24.366 -12.678   5.168  1.00  0.00     0.163 C 
ATOM     12  O   UNL     1      23.391 -12.973   4.424  1.00  0.00    -0.294 OA
BRANCH  11  13
ATOM     13  C   UNL     1      25.656 -12.221   4.562  1.00  0.00    -0.002 C 
ATOM     14  C   UNL     1      25.788 -12.022   3.216  1.00  0.00    -0.069 C 
ATOM     15  C   UNL     1      27.105 -11.596   2.608  1.00  0.00     0.039 C 
ATOM     16  C   UNL     1      24.615 -12.181   2.273  1.00  0.00     0.039 C 
BRANCH  13  17
ATOM     17  C   UNL     1      26.796 -11.915   5.517  1.00  0.00     0.066 CG0
ATOM     18  G   UNL     1      27.107 -10.438   5.486  1.00  0.00     0.000 G0
ENDBRANCH  13  17
ENDBRANCH  11  13
ENDBRANCH  10  11
ENDBRANCH   1  10
TORSDOF 0
ENDMDL
