MODEL 1
REMARK VINA RESULT:    -3.821      0.000      0.000
REMARK INTER + INTRA:          -5.188
REMARK INTER:                  -5.832
REMARK INTRA:                   0.643
REMARK UNBOUND:                 0.643
REMARK SMILES CC1=CCC[C@@H](C)C(=O)C[C@H](C(C)C)C(=O)C1
REMARK SMILES IDX 8 1 9 2 6 3 7 4 5 5 4 6 3 7 2 8 1 9 10 11 11 12 15 13 16 14
REMARK SMILES IDX 17 15 12 17 13 18 14 19
REMARK H PARENT
REMARK Flexibility Score: 70.00
ROOT
ATOM      1  C   UNL     1      -2.057   5.112  63.877  1.00  0.00     0.136 C 
ATOM      2  O   UNL     1      -2.142   6.312  64.100  1.00  0.00    -0.299 OA
ENDROOT
BRANCH   1   3
ATOM      3  C   UNL     1      -3.143   4.198  64.424  1.00  0.00     0.053 C 
ATOM      4  C   UNL     1      -4.535   4.773  64.129  1.00  0.00     0.016 C 
BRANCH   3   5
ATOM      5  C   UNL     1      -2.968   3.908  65.936  1.00  0.00     0.015 C 
BRANCH   5   6
ATOM      6  C   UNL     1      -1.554   3.469  66.374  1.00  0.00     0.028 C 
BRANCH   6   7
ATOM      7  C   UNL     1      -0.728   4.488  67.125  1.00  0.00    -0.028 C 
ATOM      8  C   UNL     1       0.370   5.133  66.663  1.00  0.00    -0.070 CG0
ATOM      9  C   UNL     1       0.953   6.228  67.521  1.00  0.00     0.039 C 
ATOM     10  G   UNL     1       1.082   4.772  65.375  1.00  0.00     0.000 G0
ENDBRANCH   6   7
ENDBRANCH   5   6
ENDBRANCH   3   5
ENDBRANCH   1   3
BRANCH   1  11
ATOM     11  C   UNL     1      -0.855   4.613  63.091  1.00  0.00     0.087 C 
BRANCH  11  12
ATOM     12  C   UNL     1       0.314   5.631  63.004  1.00  0.00     0.066 C 
BRANCH  12  13
ATOM     13  C   UNL     1       0.955   5.882  64.358  1.00  0.00     0.140 C 
ATOM     14  O   UNL     1       1.433   6.978  64.610  1.00  0.00    -0.299 OA
BRANCH  13  15
ATOM     15  C   UNL     1       1.088   4.771  65.373  1.00  0.00     0.106 CG0
ATOM     16  G   UNL     1       0.357   5.143  66.647  1.00  0.00     0.000 G0
ENDBRANCH  13  15
ENDBRANCH  12  13
BRANCH  12  17
ATOM     17  C   UNL     1       1.338   5.276  61.878  1.00  0.00    -0.006 C 
ATOM     18  C   UNL     1       2.632   4.596  62.364  1.00  0.00     0.008 C 
ATOM     19  C   UNL     1       1.688   6.516  61.041  1.00  0.00     0.008 C 
ENDBRANCH  12  17
ENDBRANCH  11  12
ENDBRANCH   1  11
TORSDOF 1
ENDMDL
MODEL 2
REMARK VINA RESULT:    -3.656     14.295     16.858
REMARK INTER + INTRA:          -4.937
REMARK INTER:                  -4.838
REMARK INTRA:                  -0.099
REMARK UNBOUND:                 0.643
REMARK SMILES CC1=CCC[C@@H](C)C(=O)C[C@H](C(C)C)C(=O)C1
REMARK SMILES IDX 8 1 9 2 6 3 7 4 5 5 4 6 3 7 2 8 1 9 10 11 11 12 15 13 16 14
REMARK SMILES IDX 17 15 12 17 13 18 14 19
REMARK H PARENT
REMARK Flexibility Score: 70.00
ROOT
ATOM      1  C   UNL     1       5.664  17.256  72.281  1.00  0.00     0.136 C 
ATOM      2  O   UNL     1       5.624  18.116  71.412  1.00  0.00    -0.299 OA
ENDROOT
BRANCH   1   3
ATOM      3  C   UNL     1       5.227  15.844  71.919  1.00  0.00     0.053 C 
ATOM      4  C   UNL     1       5.883  15.394  70.606  1.00  0.00     0.016 C 
BRANCH   3   5
ATOM      5  C   UNL     1       3.686  15.698  71.852  1.00  0.00     0.015 C 
BRANCH   5   6
ATOM      6  C   UNL     1       2.960  15.641  73.213  1.00  0.00     0.028 C 
BRANCH   6   7
ATOM      7  C   UNL     1       2.144  16.855  73.599  1.00  0.00    -0.028 C 
ATOM      8  C   UNL     1       2.506  17.823  74.473  1.00  0.00    -0.070 CG0
ATOM      9  C   UNL     1       1.608  19.029  74.596  1.00  0.00     0.039 C 
ATOM     10  G   UNL     1       3.717  17.733  75.380  1.00  0.00     0.000 G0
ENDBRANCH   6   7
ENDBRANCH   5   6
ENDBRANCH   3   5
ENDBRANCH   1   3
BRANCH   1  11
ATOM     11  C   UNL     1       6.120  17.663  73.673  1.00  0.00     0.087 C 
BRANCH  11  12
ATOM     12  C   UNL     1       5.634  19.071  74.114  1.00  0.00     0.066 C 
BRANCH  12  13
ATOM     13  C   UNL     1       4.573  18.994  75.198  1.00  0.00     0.140 C 
ATOM     14  O   UNL     1       4.439  19.920  75.984  1.00  0.00    -0.299 OA
BRANCH  13  15
ATOM     15  C   UNL     1       3.734  17.750  75.378  1.00  0.00     0.106 CG0
ATOM     16  G   UNL     1       2.515  17.814  74.479  1.00  0.00     0.000 G0
ENDBRANCH  13  15
ENDBRANCH  12  13
BRANCH  12  17
ATOM     17  C   UNL     1       6.814  20.035  74.453  1.00  0.00    -0.006 C 
ATOM     18  C   UNL     1       6.665  21.467  73.906  1.00  0.00     0.008 C 
ATOM     19  C   UNL     1       8.157  19.445  73.996  1.00  0.00     0.008 C 
ENDBRANCH  12  17
ENDBRANCH  11  12
ENDBRANCH   1  11
TORSDOF 1
ENDMDL
MODEL 3
REMARK VINA RESULT:    -3.482     12.727     15.514
REMARK INTER + INTRA:          -4.670
REMARK INTER:                  -4.534
REMARK INTRA:                  -0.136
REMARK UNBOUND:                 0.643
REMARK SMILES CC1=CCC[C@@H](C)C(=O)C[C@H](C(C)C)C(=O)C1
REMARK SMILES IDX 8 1 9 2 6 3 7 4 5 5 4 6 3 7 2 8 1 9 10 11 11 12 15 13 16 14
REMARK SMILES IDX 17 15 12 17 13 18 14 19
REMARK H PARENT
REMARK Flexibility Score: 70.00
ROOT
ATOM      1  C   UNL     1       3.662  15.574  72.441  1.00  0.00     0.136 C 
ATOM      2  O   UNL     1       4.236  14.495  72.405  1.00  0.00    -0.299 OA
ENDROOT
BRANCH   1   3
ATOM      3  C   UNL     1       4.484  16.820  72.734  1.00  0.00     0.053 C 
ATOM      4  C   UNL     1       5.829  16.767  71.995  1.00  0.00     0.016 C 
BRANCH   3   5
ATOM      5  C   UNL     1       4.691  17.052  74.252  1.00  0.00     0.015 C 
BRANCH   5   6
ATOM      6  C   UNL     1       3.773  18.113  74.897  1.00  0.00     0.028 C 
BRANCH   6   7
ATOM      7  C   UNL     1       2.939  18.953  73.956  1.00  0.00    -0.028 C 
ATOM      8  C   UNL     1       1.589  18.951  73.857  1.00  0.00    -0.070 CG0
ATOM      9  C   UNL     1       0.949  19.981  72.961  1.00  0.00     0.039 C 
ATOM     10  G   UNL     1       0.694  17.934  74.538  1.00  0.00     0.000 G0
ENDBRANCH   6   7
ENDBRANCH   5   6
ENDBRANCH   3   5
ENDBRANCH   1   3
BRANCH   1  11
ATOM     11  C   UNL     1       2.158  15.594  72.218  1.00  0.00     0.087 C 
BRANCH  11  12
ATOM     12  C   UNL     1       1.322  15.604  73.527  1.00  0.00     0.066 C 
BRANCH  12  13
ATOM     13  C   UNL     1       0.384  16.797  73.596  1.00  0.00     0.140 C 
ATOM     14  O   UNL     1      -0.575  16.861  72.841  1.00  0.00    -0.299 OA
BRANCH  13  15
ATOM     15  C   UNL     1       0.664  17.953  74.528  1.00  0.00     0.106 CG0
ATOM     16  G   UNL     1       1.592  18.945  73.858  1.00  0.00     0.000 G0
ENDBRANCH  13  15
ENDBRANCH  12  13
BRANCH  12  17
ATOM     17  C   UNL     1       0.623  14.235  73.804  1.00  0.00    -0.006 C 
ATOM     18  C   UNL     1      -0.078  13.603  72.587  1.00  0.00     0.008 C 
ATOM     19  C   UNL     1      -0.369  14.350  74.971  1.00  0.00     0.008 C 
ENDBRANCH  12  17
ENDBRANCH  11  12
ENDBRANCH   1  11
TORSDOF 1
ENDMDL
MODEL 4
REMARK VINA RESULT:    -3.459     14.022     16.560
REMARK INTER + INTRA:          -4.636
REMARK INTER:                  -4.564
REMARK INTRA:                  -0.072
REMARK UNBOUND:                 0.643
REMARK SMILES CC1=CCC[C@@H](C)C(=O)C[C@H](C(C)C)C(=O)C1
REMARK SMILES IDX 8 1 9 2 6 3 7 4 5 5 4 6 3 7 2 8 1 9 10 11 11 12 15 13 16 14
REMARK SMILES IDX 17 15 12 17 13 18 14 19
REMARK H PARENT
REMARK Flexibility Score: 70.00
ROOT
ATOM      1  C   UNL     1       4.489  18.816  75.176  1.00  0.00     0.136 C 
ATOM      2  O   UNL     1       4.241  19.493  76.163  1.00  0.00    -0.299 OA
ENDROOT
BRANCH   1   3
ATOM      3  C   UNL     1       5.456  19.373  74.142  1.00  0.00     0.053 C 
ATOM      4  C   UNL     1       6.512  20.262  74.812  1.00  0.00     0.016 C 
BRANCH   3   5
ATOM      5  C   UNL     1       4.732  20.132  73.001  1.00  0.00     0.015 C 
BRANCH   5   6
ATOM      6  C   UNL     1       4.758  19.443  71.619  1.00  0.00     0.028 C 
BRANCH   6   7
ATOM      7  C   UNL     1       5.555  18.162  71.513  1.00  0.00    -0.028 C 
ATOM      8  C   UNL     1       5.055  16.915  71.339  1.00  0.00    -0.070 CG0
ATOM      9  C   UNL     1       6.035  15.793  71.102  1.00  0.00     0.039 C 
ATOM     10  G   UNL     1       3.582  16.575  71.438  1.00  0.00     0.000 G0
ENDBRANCH   6   7
ENDBRANCH   5   6
ENDBRANCH   3   5
ENDBRANCH   1   3
BRANCH   1  11
ATOM     11  C   UNL     1       3.790  17.473  75.034  1.00  0.00     0.087 C 
BRANCH  11  12
ATOM     12  C   UNL     1       2.817  17.388  73.827  1.00  0.00     0.066 C 
BRANCH  12  13
ATOM     13  C   UNL     1       3.191  16.267  72.871  1.00  0.00     0.140 C 
ATOM     14  O   UNL     1       3.249  15.116  73.276  1.00  0.00    -0.299 OA
BRANCH  13  15
ATOM     15  C   UNL     1       3.577  16.563  71.440  1.00  0.00     0.106 CG0
ATOM     16  G   UNL     1       5.048  16.917  71.364  1.00  0.00     0.000 G0
ENDBRANCH  13  15
ENDBRANCH  12  13
BRANCH  12  17
ATOM     17  C   UNL     1       1.318  17.371  74.263  1.00  0.00    -0.006 C 
ATOM     18  C   UNL     1       0.401  16.473  73.411  1.00  0.00     0.008 C 
ATOM     19  C   UNL     1       0.743  18.795  74.316  1.00  0.00     0.008 C 
ENDBRANCH  12  17
ENDBRANCH  11  12
ENDBRANCH   1  11
TORSDOF 1
ENDMDL
MODEL 5
REMARK VINA RESULT:    -3.378      2.655      4.177
REMARK INTER + INTRA:          -4.511
REMARK INTER:                  -4.247
REMARK INTRA:                  -0.265
REMARK UNBOUND:                 0.643
REMARK SMILES CC1=CCC[C@@H](C)C(=O)C[C@H](C(C)C)C(=O)C1
REMARK SMILES IDX 8 1 9 2 6 3 7 4 5 5 4 6 3 7 2 8 1 9 10 11 11 12 15 13 16 14
REMARK SMILES IDX 17 15 12 17 13 18 14 19
REMARK H PARENT
REMARK Flexibility Score: 70.00
ROOT
ATOM      1  C   UNL     1       1.190   6.990  63.415  1.00  0.00     0.136 C 
ATOM      2  O   UNL     1       1.698   7.377  62.372  1.00  0.00    -0.299 OA
ENDROOT
BRANCH   1   3
ATOM      3  C   UNL     1       0.977   5.495  63.603  1.00  0.00     0.053 C 
ATOM      4  C   UNL     1       2.195   4.707  63.101  1.00  0.00     0.016 C 
BRANCH   3   5
ATOM      5  C   UNL     1      -0.327   4.993  62.933  1.00  0.00     0.015 C 
BRANCH   5   6
ATOM      6  C   UNL     1      -1.396   4.428  63.893  1.00  0.00     0.028 C 
BRANCH   6   7
ATOM      7  C   UNL     1      -1.051   4.420  65.366  1.00  0.00    -0.028 C 
ATOM      8  C   UNL     1      -1.489   5.297  66.300  1.00  0.00    -0.070 CG0
ATOM      9  C   UNL     1      -1.148   5.015  67.741  1.00  0.00     0.039 C 
ATOM     10  G   UNL     1      -2.236   6.575  65.974  1.00  0.00     0.000 G0
ENDBRANCH   6   7
ENDBRANCH   5   6
ENDBRANCH   3   5
ENDBRANCH   1   3
BRANCH   1  11
ATOM     11  C   UNL     1       0.780   8.032  64.443  1.00  0.00     0.087 C 
BRANCH  11  12
ATOM     12  C   UNL     1      -0.755   8.237  64.561  1.00  0.00     0.066 C 
BRANCH  12  13
ATOM     13  C   UNL     1      -1.293   7.763  65.900  1.00  0.00     0.140 C 
ATOM     14  O   UNL     1      -0.907   8.291  66.932  1.00  0.00    -0.299 OA
BRANCH  13  15
ATOM     15  C   UNL     1      -2.237   6.586  65.986  1.00  0.00     0.106 CG0
ATOM     16  G   UNL     1      -1.462   5.324  66.307  1.00  0.00     0.000 G0
ENDBRANCH  13  15
ENDBRANCH  12  13
BRANCH  12  17
ATOM     17  C   UNL     1      -1.200   9.685  64.180  1.00  0.00    -0.006 C 
ATOM     18  C   UNL     1      -2.722   9.916  64.161  1.00  0.00     0.008 C 
ATOM     19  C   UNL     1      -0.595  10.111  62.833  1.00  0.00     0.008 C 
ENDBRANCH  12  17
ENDBRANCH  11  12
ENDBRANCH   1  11
TORSDOF 1
ENDMDL
MODEL 6
REMARK VINA RESULT:    -3.300     13.917     16.331
REMARK INTER + INTRA:          -4.393
REMARK INTER:                  -4.426
REMARK INTRA:                   0.033
REMARK UNBOUND:                 0.643
REMARK SMILES CC1=CCC[C@@H](C)C(=O)C[C@H](C(C)C)C(=O)C1
REMARK SMILES IDX 8 1 9 2 6 3 7 4 5 5 4 6 3 7 2 8 1 9 10 11 11 12 15 13 16 14
REMARK SMILES IDX 17 15 12 17 13 18 14 19
REMARK H PARENT
REMARK Flexibility Score: 70.00
ROOT
ATOM      1  C   UNL     1       4.224  16.268  74.156  1.00  0.00     0.136 C 
ATOM      2  O   UNL     1       3.677  15.800  75.145  1.00  0.00    -0.299 OA
ENDROOT
BRANCH   1   3
ATOM      3  C   UNL     1       4.179  15.470  72.861  1.00  0.00     0.053 C 
ATOM      4  C   UNL     1       5.020  16.155  71.775  1.00  0.00     0.016 C 
BRANCH   3   5
ATOM      5  C   UNL     1       2.732  15.218  72.370  1.00  0.00     0.015 C 
BRANCH   5   6
ATOM      6  C   UNL     1       1.988  16.453  71.817  1.00  0.00     0.028 C 
BRANCH   6   7
ATOM      7  C   UNL     1       0.864  17.005  72.664  1.00  0.00    -0.028 C 
ATOM      8  C   UNL     1       0.727  18.284  73.086  1.00  0.00    -0.070 CG0
ATOM      9  C   UNL     1      -0.552  18.657  73.792  1.00  0.00     0.039 C 
ATOM     10  G   UNL     1       1.809  19.337  72.953  1.00  0.00     0.000 G0
ENDBRANCH   6   7
ENDBRANCH   5   6
ENDBRANCH   3   5
ENDBRANCH   1   3
BRANCH   1  11
ATOM     11  C   UNL     1       4.937  17.603  74.296  1.00  0.00     0.087 C 
BRANCH  11  12
ATOM     12  C   UNL     1       4.314  18.747  73.452  1.00  0.00     0.066 C 
BRANCH  12  13
ATOM     13  C   UNL     1       2.924  19.123  73.936  1.00  0.00     0.140 C 
ATOM     14  O   UNL     1       2.688  19.162  75.134  1.00  0.00    -0.299 OA
BRANCH  13  15
ATOM     15  C   UNL     1       1.799  19.366  72.957  1.00  0.00     0.106 CG0
ATOM     16  G   UNL     1       0.744  18.288  73.102  1.00  0.00     0.000 G0
ENDBRANCH  13  15
ENDBRANCH  12  13
BRANCH  12  17
ATOM     17  C   UNL     1       5.275  19.967  73.289  1.00  0.00    -0.006 C 
ATOM     18  C   UNL     1       6.311  19.836  72.156  1.00  0.00     0.008 C 
ATOM     19  C   UNL     1       5.993  20.283  74.611  1.00  0.00     0.008 C 
ENDBRANCH  12  17
ENDBRANCH  11  12
ENDBRANCH   1  11
TORSDOF 1
ENDMDL
MODEL 7
REMARK VINA RESULT:    -3.246      2.184      4.966
REMARK INTER + INTRA:          -4.310
REMARK INTER:                  -4.165
REMARK INTRA:                  -0.146
REMARK UNBOUND:                 0.643
REMARK SMILES CC1=CCC[C@@H](C)C(=O)C[C@H](C(C)C)C(=O)C1
REMARK SMILES IDX 8 1 9 2 6 3 7 4 5 5 4 6 3 7 2 8 1 9 10 11 11 12 15 13 16 14
REMARK SMILES IDX 17 15 12 17 13 18 14 19
REMARK H PARENT
REMARK Flexibility Score: 70.00
ROOT
ATOM      1  C   UNL     1       0.804   6.038  67.198  1.00  0.00     0.136 C 
ATOM      2  O   UNL     1       0.002   6.226  68.102  1.00  0.00    -0.299 OA
ENDROOT
BRANCH   1   3
ATOM      3  C   UNL     1       1.931   7.043  67.013  1.00  0.00     0.053 C 
ATOM      4  C   UNL     1       2.820   7.096  68.263  1.00  0.00     0.016 C 
BRANCH   3   5
ATOM      5  C   UNL     1       1.412   8.454  66.637  1.00  0.00     0.015 C 
BRANCH   5   6
ATOM      6  C   UNL     1       1.461   8.806  65.135  1.00  0.00     0.028 C 
BRANCH   6   7
ATOM      7  C   UNL     1       2.536   8.130  64.313  1.00  0.00    -0.028 C 
ATOM      8  C   UNL     1       2.344   7.216  63.332  1.00  0.00    -0.070 CG0
ATOM      9  C   UNL     1       3.546   6.784  62.531  1.00  0.00     0.039 C 
ATOM     10  G   UNL     1       1.011   6.555  63.043  1.00  0.00     0.000 G0
ENDBRANCH   6   7
ENDBRANCH   5   6
ENDBRANCH   3   5
ENDBRANCH   1   3
BRANCH   1  11
ATOM     11  C   UNL     1       0.603   4.827  66.301  1.00  0.00     0.087 C 
BRANCH  11  12
ATOM     12  C   UNL     1      -0.114   5.142  64.960  1.00  0.00     0.066 C 
BRANCH  12  13
ATOM     13  C   UNL     1       0.863   5.258  63.804  1.00  0.00     0.140 C 
ATOM     14  O   UNL     1       1.599   4.321  63.533  1.00  0.00    -0.299 OA
BRANCH  13  15
ATOM     15  C   UNL     1       1.003   6.550  63.032  1.00  0.00     0.106 CG0
ATOM     16  G   UNL     1       2.332   7.203  63.352  1.00  0.00     0.000 G0
ENDBRANCH  13  15
ENDBRANCH  12  13
BRANCH  12  17
ATOM     17  C   UNL     1      -1.312   4.180  64.679  1.00  0.00    -0.006 C 
ATOM     18  C   UNL     1      -2.217   4.591  63.502  1.00  0.00     0.008 C 
ATOM     19  C   UNL     1      -2.166   3.978  65.941  1.00  0.00     0.008 C 
ENDBRANCH  12  17
ENDBRANCH  11  12
ENDBRANCH   1  11
TORSDOF 1
ENDMDL
MODEL 8
REMARK VINA RESULT:    -3.186      2.213      2.675
REMARK INTER + INTRA:          -4.219
REMARK INTER:                  -4.168
REMARK INTRA:                  -0.051
REMARK UNBOUND:                 0.643
REMARK SMILES CC1=CCC[C@@H](C)C(=O)C[C@H](C(C)C)C(=O)C1
REMARK SMILES IDX 8 1 9 2 6 3 7 4 5 5 4 6 3 7 2 8 1 9 10 11 11 12 15 13 16 14
REMARK SMILES IDX 17 15 12 17 13 18 14 19
REMARK H PARENT
REMARK Flexibility Score: 70.00
ROOT
ATOM      1  C   UNL     1      -1.116   4.735  64.152  1.00  0.00     0.136 C 
ATOM      2  O   UNL     1      -1.616   4.383  63.093  1.00  0.00    -0.299 OA
ENDROOT
BRANCH   1   3
ATOM      3  C   UNL     1      -2.008   4.817  65.381  1.00  0.00     0.053 C 
ATOM      4  C   UNL     1      -2.513   3.422  65.777  1.00  0.00     0.016 C 
BRANCH   3   5
ATOM      5  C   UNL     1      -3.187   5.804  65.194  1.00  0.00     0.015 C 
BRANCH   5   6
ATOM      6  C   UNL     1      -2.811   7.302  65.193  1.00  0.00     0.028 C 
BRANCH   6   7
ATOM      7  C   UNL     1      -1.784   7.745  66.211  1.00  0.00    -0.028 C 
ATOM      8  C   UNL     1      -0.624   8.395  65.954  1.00  0.00    -0.070 CG0
ATOM      9  C   UNL     1       0.182   8.884  67.131  1.00  0.00     0.039 C 
ATOM     10  G   UNL     1      -0.059   8.595  64.562  1.00  0.00     0.000 G0
ENDBRANCH   6   7
ENDBRANCH   5   6
ENDBRANCH   3   5
ENDBRANCH   1   3
BRANCH   1  11
ATOM     11  C   UNL     1       0.362   5.097  64.162  1.00  0.00     0.087 C 
BRANCH  11  12
ATOM     12  C   UNL     1       0.707   6.377  63.354  1.00  0.00     0.066 C 
BRANCH  12  13
ATOM     13  C   UNL     1       1.011   7.558  64.259  1.00  0.00     0.140 C 
ATOM     14  O   UNL     1       2.099   7.640  64.808  1.00  0.00    -0.299 OA
BRANCH  13  15
ATOM     15  C   UNL     1      -0.044   8.597  64.561  1.00  0.00     0.106 CG0
ATOM     16  G   UNL     1      -0.607   8.374  65.950  1.00  0.00     0.000 G0
ENDBRANCH  13  15
ENDBRANCH  12  13
BRANCH  12  17
ATOM     17  C   UNL     1       1.795   6.123  62.262  1.00  0.00    -0.006 C 
ATOM     18  C   UNL     1       2.308   7.387  61.546  1.00  0.00     0.008 C 
ATOM     19  C   UNL     1       1.305   5.103  61.222  1.00  0.00     0.008 C 
ENDBRANCH  12  17
ENDBRANCH  11  12
ENDBRANCH   1  11
TORSDOF 1
ENDMDL
MODEL 9
REMARK VINA RESULT:    -3.066      1.816      4.159
REMARK INTER + INTRA:          -4.035
REMARK INTER:                  -4.383
REMARK INTRA:                   0.347
REMARK UNBOUND:                 0.643
REMARK SMILES CC1=CCC[C@@H](C)C(=O)C[C@H](C(C)C)C(=O)C1
REMARK SMILES IDX 8 1 9 2 6 3 7 4 5 5 4 6 3 7 2 8 1 9 10 11 11 12 15 13 16 14
REMARK SMILES IDX 17 15 12 17 13 18 14 19
REMARK H PARENT
REMARK Flexibility Score: 70.00
ROOT
ATOM      1  C   UNL     1      -2.424   6.085  65.241  1.00  0.00     0.136 C 
ATOM      2  O   UNL     1      -2.684   7.267  65.065  1.00  0.00    -0.299 OA
ENDROOT
BRANCH   1   3
ATOM      3  C   UNL     1      -1.985   5.256  64.043  1.00  0.00     0.053 C 
ATOM      4  C   UNL     1      -3.152   4.414  63.510  1.00  0.00     0.016 C 
BRANCH   3   5
ATOM      5  C   UNL     1      -0.754   4.369  64.355  1.00  0.00     0.015 C 
BRANCH   5   6
ATOM      6  C   UNL     1       0.610   4.936  63.906  1.00  0.00     0.028 C 
BRANCH   6   7
ATOM      7  C   UNL     1       0.904   6.373  64.277  1.00  0.00    -0.028 C 
ATOM      8  C   UNL     1       1.232   6.835  65.506  1.00  0.00    -0.070 CG0
ATOM      9  C   UNL     1       1.638   8.283  65.625  1.00  0.00     0.039 C 
ATOM     10  G   UNL     1       1.146   6.006  66.771  1.00  0.00     0.000 G0
ENDBRANCH   6   7
ENDBRANCH   5   6
ENDBRANCH   3   5
ENDBRANCH   1   3
BRANCH   1  11
ATOM     11  C   UNL     1      -2.586   5.516  66.642  1.00  0.00     0.087 C 
BRANCH  11  12
ATOM     12  C   UNL     1      -1.260   5.033  67.288  1.00  0.00     0.066 C 
BRANCH  12  13
ATOM     13  C   UNL     1      -0.237   6.150  67.395  1.00  0.00     0.140 C 
ATOM     14  O   UNL     1      -0.545   7.209  67.920  1.00  0.00    -0.299 OA
BRANCH  13  15
ATOM     15  C   UNL     1       1.138   6.006  66.784  1.00  0.00     0.106 CG0
ATOM     16  G   UNL     1       1.227   6.825  65.512  1.00  0.00     0.000 G0
ENDBRANCH  13  15
ENDBRANCH  12  13
BRANCH  12  17
ATOM     17  C   UNL     1      -1.490   4.259  68.625  1.00  0.00    -0.006 C 
ATOM     18  C   UNL     1      -0.236   3.583  69.211  1.00  0.00     0.008 C 
ATOM     19  C   UNL     1      -2.614   3.222  68.475  1.00  0.00     0.008 C 
ENDBRANCH  12  17
ENDBRANCH  11  12
ENDBRANCH   1  11
TORSDOF 1
ENDMDL
