MODEL 1
REMARK VINA RESULT:    -3.396      0.000      0.000
REMARK INTER + INTRA:          -5.417
REMARK INTER:                  -5.183
REMARK INTRA:                  -0.234
REMARK UNBOUND:                -0.234
REMARK SMILES CC1=CCC[C@H](C)C(=O)C[C@@H](C(C)C)C(=O)C1
REMARK SMILES IDX 8 1 9 2 6 3 7 4 5 5 4 6 3 7 2 8 1 9 10 11 11 12 15 13 16 14
REMARK SMILES IDX 17 15 12 17 13 18 14 19
REMARK H PARENT
REMARK Flexibility Score: 70.00
ROOT
ATOM      1  C   UNL     1      16.037  12.244  25.398  1.00  0.00     0.136 C 
ATOM      2  O   UNL     1      16.425  12.113  24.245  1.00  0.00    -0.299 OA
ENDROOT
BRANCH   1   3
ATOM      3  C   UNL     1      15.555  13.602  25.873  1.00  0.00     0.053 C 
ATOM      4  C   UNL     1      16.744  14.549  26.088  1.00  0.00     0.016 C 
BRANCH   3   5
ATOM      5  C   UNL     1      14.548  14.201  24.863  1.00  0.00     0.015 C 
BRANCH   5   6
ATOM      6  C   UNL     1      13.226  13.411  24.844  1.00  0.00     0.028 C 
BRANCH   6   7
ATOM      7  C   UNL     1      12.654  13.168  26.219  1.00  0.00    -0.028 C 
ATOM      8  C   UNL     1      12.474  11.953  26.795  1.00  0.00    -0.070 CG0
ATOM      9  C   UNL     1      11.984  11.921  28.221  1.00  0.00     0.039 C 
ATOM     10  G   UNL     1      12.689  10.632  26.067  1.00  0.00     0.000 G0
ENDBRANCH   6   7
ENDBRANCH   5   6
ENDBRANCH   3   5
ENDBRANCH   1   3
BRANCH   1  11
ATOM     11  C   UNL     1      16.061  11.045  26.319  1.00  0.00     0.087 C 
BRANCH  11  12
ATOM     12  C   UNL     1      15.170   9.890  25.796  1.00  0.00     0.066 C 
BRANCH  12  13
ATOM     13  C   UNL     1      13.853   9.824  26.556  1.00  0.00     0.140 C 
ATOM     14  O   UNL     1      13.735   9.106  27.538  1.00  0.00    -0.299 OA
BRANCH  13  15
ATOM     15  C   UNL     1      12.670  10.630  26.075  1.00  0.00     0.106 CG0
ATOM     16  G   UNL     1      12.478  11.951  26.811  1.00  0.00     0.000 G0
ENDBRANCH  13  15
ENDBRANCH  12  13
BRANCH  12  17
ATOM     17  C   UNL     1      15.935   8.531  25.726  1.00  0.00    -0.006 C 
ATOM     18  C   UNL     1      15.261   7.459  24.850  1.00  0.00     0.008 C 
ATOM     19  C   UNL     1      17.399   8.727  25.300  1.00  0.00     0.008 C 
ENDBRANCH  12  17
ENDBRANCH  11  12
ENDBRANCH   1  11
TORSDOF 1
ENDMDL
MODEL 2
REMARK VINA RESULT:    -3.287      1.996      3.998
REMARK INTER + INTRA:          -5.250
REMARK INTER:                  -5.173
REMARK INTRA:                  -0.077
REMARK UNBOUND:                -0.234
REMARK SMILES CC1=CCC[C@H](C)C(=O)C[C@@H](C(C)C)C(=O)C1
REMARK SMILES IDX 8 1 9 2 6 3 7 4 5 5 4 6 3 7 2 8 1 9 10 11 11 12 15 13 16 14
REMARK SMILES IDX 17 15 12 17 13 18 14 19
REMARK H PARENT
REMARK Flexibility Score: 70.00
ROOT
ATOM      1  C   UNL     1      13.987  10.312  27.328  1.00  0.00     0.136 C 
ATOM      2  O   UNL     1      13.626   9.306  27.921  1.00  0.00    -0.299 OA
ENDROOT
BRANCH   1   3
ATOM      3  C   UNL     1      13.942  11.653  28.038  1.00  0.00     0.053 C 
ATOM      4  C   UNL     1      12.526  11.938  28.558  1.00  0.00     0.016 C 
BRANCH   3   5
ATOM      5  C   UNL     1      14.971  11.688  29.191  1.00  0.00     0.015 C 
BRANCH   5   6
ATOM      6  C   UNL     1      15.973  12.847  29.023  1.00  0.00     0.028 C 
BRANCH   6   7
ATOM      7  C   UNL     1      15.610  13.793  27.906  1.00  0.00    -0.028 C 
ATOM      8  C   UNL     1      16.016  13.683  26.616  1.00  0.00    -0.070 CG0
ATOM      9  C   UNL     1      15.461  14.672  25.621  1.00  0.00     0.039 C 
ATOM     10  G   UNL     1      17.032  12.655  26.134  1.00  0.00     0.000 G0
ENDBRANCH   6   7
ENDBRANCH   5   6
ENDBRANCH   3   5
ENDBRANCH   1   3
BRANCH   1  11
ATOM     11  C   UNL     1      14.459  10.190  25.896  1.00  0.00     0.087 C 
BRANCH  11  12
ATOM     12  C   UNL     1      16.003  10.262  25.785  1.00  0.00     0.066 C 
BRANCH  12  13
ATOM     13  C   UNL     1      16.450  11.595  25.200  1.00  0.00     0.140 C 
ATOM     14  O   UNL     1      16.362  11.810  24.001  1.00  0.00    -0.299 OA
BRANCH  13  15
ATOM     15  C   UNL     1      17.039  12.649  26.107  1.00  0.00     0.106 CG0
ATOM     16  G   UNL     1      16.027  13.672  26.608  1.00  0.00     0.000 G0
ENDBRANCH  13  15
ENDBRANCH  12  13
BRANCH  12  17
ATOM     17  C   UNL     1      16.608   9.015  25.066  1.00  0.00    -0.006 C 
ATOM     18  C   UNL     1      17.395   8.063  25.986  1.00  0.00     0.008 C 
ATOM     19  C   UNL     1      15.539   8.238  24.282  1.00  0.00     0.008 C 
ENDBRANCH  12  17
ENDBRANCH  11  12
ENDBRANCH   1  11
TORSDOF 1
ENDMDL
MODEL 3
REMARK VINA RESULT:    -3.287      1.208      1.656
REMARK INTER + INTRA:          -5.250
REMARK INTER:                  -5.437
REMARK INTRA:                   0.187
REMARK UNBOUND:                -0.234
REMARK SMILES CC1=CCC[C@H](C)C(=O)C[C@@H](C(C)C)C(=O)C1
REMARK SMILES IDX 8 1 9 2 6 3 7 4 5 5 4 6 3 7 2 8 1 9 10 11 11 12 15 13 16 14
REMARK SMILES IDX 17 15 12 17 13 18 14 19
REMARK H PARENT
REMARK Flexibility Score: 70.00
ROOT
ATOM      1  C   UNL     1      16.252  11.528  25.364  1.00  0.00     0.136 C 
ATOM      2  O   UNL     1      16.766  11.410  24.261  1.00  0.00    -0.299 OA
ENDROOT
BRANCH   1   3
ATOM      3  C   UNL     1      15.932  12.913  25.894  1.00  0.00     0.053 C 
ATOM      4  C   UNL     1      16.818  13.966  25.213  1.00  0.00     0.016 C 
BRANCH   3   5
ATOM      5  C   UNL     1      14.434  13.237  25.691  1.00  0.00     0.015 C 
BRANCH   5   6
ATOM      6  C   UNL     1      13.588  12.796  26.901  1.00  0.00     0.028 C 
BRANCH   6   7
ATOM      7  C   UNL     1      12.319  12.078  26.513  1.00  0.00    -0.028 C 
ATOM      8  C   UNL     1      12.135  10.734  26.536  1.00  0.00    -0.070 CG0
ATOM      9  C   UNL     1      10.758  10.211  26.211  1.00  0.00     0.039 C 
ATOM     10  G   UNL     1      13.249   9.733  26.820  1.00  0.00     0.000 G0
ENDBRANCH   6   7
ENDBRANCH   5   6
ENDBRANCH   3   5
ENDBRANCH   1   3
BRANCH   1  11
ATOM     11  C   UNL     1      15.960  10.283  26.173  1.00  0.00     0.087 C 
BRANCH  11  12
ATOM     12  C   UNL     1      15.305   9.172  25.314  1.00  0.00     0.066 C 
BRANCH  12  13
ATOM     13  C   UNL     1      13.822   9.035  25.630  1.00  0.00     0.140 C 
ATOM     14  O   UNL     1      13.089   8.379  24.906  1.00  0.00    -0.299 OA
BRANCH  13  15
ATOM     15  C   UNL     1      13.245   9.745  26.831  1.00  0.00     0.106 CG0
ATOM     16  G   UNL     1      12.139  10.738  26.494  1.00  0.00     0.000 G0
ENDBRANCH  13  15
ENDBRANCH  12  13
BRANCH  12  17
ATOM     17  C   UNL     1      16.097   7.827  25.374  1.00  0.00    -0.006 C 
ATOM     18  C   UNL     1      17.601   7.981  25.664  1.00  0.00     0.008 C 
ATOM     19  C   UNL     1      15.459   6.838  26.362  1.00  0.00     0.008 C 
ENDBRANCH  12  17
ENDBRANCH  11  12
ENDBRANCH   1  11
TORSDOF 1
ENDMDL
MODEL 4
REMARK VINA RESULT:    -3.171      1.908      2.627
REMARK INTER + INTRA:          -5.073
REMARK INTER:                  -4.746
REMARK INTRA:                  -0.328
REMARK UNBOUND:                -0.234
REMARK SMILES CC1=CCC[C@H](C)C(=O)C[C@@H](C(C)C)C(=O)C1
REMARK SMILES IDX 8 1 9 2 6 3 7 4 5 5 4 6 3 7 2 8 1 9 10 11 11 12 15 13 16 14
REMARK SMILES IDX 17 15 12 17 13 18 14 19
REMARK H PARENT
REMARK Flexibility Score: 70.00
ROOT
ATOM      1  C   UNL     1      16.394  11.354  24.862  1.00  0.00     0.136 C 
ATOM      2  O   UNL     1      16.626  10.630  23.903  1.00  0.00    -0.299 OA
ENDROOT
BRANCH   1   3
ATOM      3  C   UNL     1      16.431  12.861  24.684  1.00  0.00     0.053 C 
ATOM      4  C   UNL     1      15.044  13.389  24.290  1.00  0.00     0.016 C 
BRANCH   3   5
ATOM      5  C   UNL     1      16.937  13.546  25.974  1.00  0.00     0.015 C 
BRANCH   5   6
ATOM      6  C   UNL     1      15.875  14.491  26.569  1.00  0.00     0.028 C 
BRANCH   6   7
ATOM      7  C   UNL     1      15.729  14.359  28.065  1.00  0.00    -0.028 C 
ATOM      8  C   UNL     1      14.891  13.504  28.703  1.00  0.00    -0.070 CG0
ATOM      9  C   UNL     1      14.964  13.446  30.209  1.00  0.00     0.039 C 
ATOM     10  G   UNL     1      13.855  12.644  27.989  1.00  0.00     0.000 G0
ENDBRANCH   6   7
ENDBRANCH   5   6
ENDBRANCH   3   5
ENDBRANCH   1   3
BRANCH   1  11
ATOM     11  C   UNL     1      16.087  10.722  26.201  1.00  0.00     0.087 C 
BRANCH  11  12
ATOM     12  C   UNL     1      14.563  10.636  26.468  1.00  0.00     0.066 C 
BRANCH  12  13
ATOM     13  C   UNL     1      14.213  11.193  27.841  1.00  0.00     0.140 C 
ATOM     14  O   UNL     1      14.205  10.468  28.824  1.00  0.00    -0.299 OA
BRANCH  13  15
ATOM     15  C   UNL     1      13.842  12.650  27.984  1.00  0.00     0.106 CG0
ATOM     16  G   UNL     1      14.889  13.489  28.707  1.00  0.00     0.000 G0
ENDBRANCH  13  15
ENDBRANCH  12  13
BRANCH  12  17
ATOM     17  C   UNL     1      13.990   9.210  26.192  1.00  0.00    -0.006 C 
ATOM     18  C   UNL     1      12.954   9.144  25.055  1.00  0.00     0.008 C 
ATOM     19  C   UNL     1      15.110   8.184  25.957  1.00  0.00     0.008 C 
ENDBRANCH  12  17
ENDBRANCH  11  12
ENDBRANCH   1  11
TORSDOF 1
ENDMDL
MODEL 5
REMARK VINA RESULT:    -3.109      1.917      4.213
REMARK INTER + INTRA:          -4.979
REMARK INTER:                  -4.695
REMARK INTRA:                  -0.284
REMARK UNBOUND:                -0.234
REMARK SMILES CC1=CCC[C@H](C)C(=O)C[C@@H](C(C)C)C(=O)C1
REMARK SMILES IDX 8 1 9 2 6 3 7 4 5 5 4 6 3 7 2 8 1 9 10 11 11 12 15 13 16 14
REMARK SMILES IDX 17 15 12 17 13 18 14 19
REMARK H PARENT
REMARK Flexibility Score: 70.00
ROOT
ATOM      1  C   UNL     1      14.996   9.158  25.706  1.00  0.00     0.136 C 
ATOM      2  O   UNL     1      14.492   8.526  24.787  1.00  0.00    -0.299 OA
ENDROOT
BRANCH   1   3
ATOM      3  C   UNL     1      16.485   9.450  25.681  1.00  0.00     0.053 C 
ATOM      4  C   UNL     1      17.289   8.146  25.782  1.00  0.00     0.016 C 
BRANCH   3   5
ATOM      5  C   UNL     1      16.861  10.232  24.402  1.00  0.00     0.015 C 
BRANCH   5   6
ATOM      6  C   UNL     1      16.158  11.602  24.347  1.00  0.00     0.028 C 
BRANCH   6   7
ATOM      7  C   UNL     1      16.716  12.600  25.332  1.00  0.00    -0.028 C 
ATOM      8  C   UNL     1      15.996  13.281  26.258  1.00  0.00    -0.070 CG0
ATOM      9  C   UNL     1      16.752  14.159  27.224  1.00  0.00     0.039 C 
ATOM     10  G   UNL     1      14.475  13.246  26.340  1.00  0.00     0.000 G0
ENDBRANCH   6   7
ENDBRANCH   5   6
ENDBRANCH   3   5
ENDBRANCH   1   3
BRANCH   1  11
ATOM     11  C   UNL     1      14.116   9.620  26.846  1.00  0.00     0.087 C 
BRANCH  11  12
ATOM     12  C   UNL     1      13.320  10.900  26.485  1.00  0.00     0.066 C 
BRANCH  12  13
ATOM     13  C   UNL     1      13.903  12.124  27.176  1.00  0.00     0.140 C 
ATOM     14  O   UNL     1      13.897  12.214  28.394  1.00  0.00    -0.299 OA
BRANCH  13  15
ATOM     15  C   UNL     1      14.467  13.253  26.347  1.00  0.00     0.106 CG0
ATOM     16  G   UNL     1      15.989  13.264  26.266  1.00  0.00     0.000 G0
ENDBRANCH  13  15
ENDBRANCH  12  13
BRANCH  12  17
ATOM     17  C   UNL     1      11.782  10.722  26.691  1.00  0.00    -0.006 C 
ATOM     18  C   UNL     1      10.935  10.947  25.425  1.00  0.00     0.008 C 
ATOM     19  C   UNL     1      11.449   9.362  27.324  1.00  0.00     0.008 C 
ENDBRANCH  12  17
ENDBRANCH  11  12
ENDBRANCH   1  11
TORSDOF 1
ENDMDL
MODEL 6
REMARK VINA RESULT:    -3.108     10.784     12.282
REMARK INTER + INTRA:          -4.978
REMARK INTER:                  -4.627
REMARK INTRA:                  -0.351
REMARK UNBOUND:                -0.234
REMARK SMILES CC1=CCC[C@H](C)C(=O)C[C@@H](C(C)C)C(=O)C1
REMARK SMILES IDX 8 1 9 2 6 3 7 4 5 5 4 6 3 7 2 8 1 9 10 11 11 12 15 13 16 14
REMARK SMILES IDX 17 15 12 17 13 18 14 19
REMARK H PARENT
REMARK Flexibility Score: 70.00
ROOT
ATOM      1  C   UNL     1      16.819   0.964  18.062  1.00  0.00     0.136 C 
ATOM      2  O   UNL     1      17.699   1.126  17.227  1.00  0.00    -0.299 OA
ENDROOT
BRANCH   1   3
ATOM      3  C   UNL     1      17.159   0.300  19.384  1.00  0.00     0.053 C 
ATOM      4  C   UNL     1      17.616   1.348  20.408  1.00  0.00     0.016 C 
BRANCH   3   5
ATOM      5  C   UNL     1      15.946  -0.498  19.915  1.00  0.00     0.015 C 
BRANCH   5   6
ATOM      6  C   UNL     1      15.326   0.170  21.157  1.00  0.00     0.028 C 
BRANCH   6   7
ATOM      7  C   UNL     1      13.825   0.037  21.220  1.00  0.00    -0.028 C 
ATOM      8  C   UNL     1      12.933   0.996  20.867  1.00  0.00    -0.070 CG0
ATOM      9  C   UNL     1      11.468   0.636  20.903  1.00  0.00     0.039 C 
ATOM     10  G   UNL     1      13.326   2.419  20.489  1.00  0.00     0.000 G0
ENDBRANCH   6   7
ENDBRANCH   5   6
ENDBRANCH   3   5
ENDBRANCH   1   3
BRANCH   1  11
ATOM     11  C   UNL     1      15.414   1.424  17.744  1.00  0.00     0.087 C 
BRANCH  11  12
ATOM     12  C   UNL     1      15.029   2.705  18.528  1.00  0.00     0.066 C 
BRANCH  12  13
ATOM     13  C   UNL     1      13.588   2.640  19.014  1.00  0.00     0.140 C 
ATOM     14  O   UNL     1      12.660   2.772  18.230  1.00  0.00    -0.299 OA
BRANCH  13  15
ATOM     15  C   UNL     1      13.302   2.442  20.483  1.00  0.00     0.106 CG0
ATOM     16  G   UNL     1      12.956   1.007  20.860  1.00  0.00     0.000 G0
ENDBRANCH  13  15
ENDBRANCH  12  13
BRANCH  12  17
ATOM     17  C   UNL     1      15.383   4.010  17.748  1.00  0.00    -0.006 C 
ATOM     18  C   UNL     1      16.788   4.571  18.037  1.00  0.00     0.008 C 
ATOM     19  C   UNL     1      15.175   3.840  16.235  1.00  0.00     0.008 C 
ENDBRANCH  12  17
ENDBRANCH  11  12
ENDBRANCH   1  11
TORSDOF 1
ENDMDL
MODEL 7
REMARK VINA RESULT:    -2.927      8.596     10.776
REMARK INTER + INTRA:          -4.701
REMARK INTER:                  -4.582
REMARK INTRA:                  -0.119
REMARK UNBOUND:                -0.234
REMARK SMILES CC1=CCC[C@H](C)C(=O)C[C@@H](C(C)C)C(=O)C1
REMARK SMILES IDX 8 1 9 2 6 3 7 4 5 5 4 6 3 7 2 8 1 9 10 11 11 12 15 13 16 14
REMARK SMILES IDX 17 15 12 17 13 18 14 19
REMARK H PARENT
REMARK Flexibility Score: 70.00
ROOT
ATOM      1  C   UNL     1      14.010   6.325  17.675  1.00  0.00     0.136 C 
ATOM      2  O   UNL     1      14.010   7.532  17.877  1.00  0.00    -0.299 OA
ENDROOT
BRANCH   1   3
ATOM      3  C   UNL     1      15.255   5.662  17.115  1.00  0.00     0.053 C 
ATOM      4  C   UNL     1      16.358   5.606  18.181  1.00  0.00     0.016 C 
BRANCH   3   5
ATOM      5  C   UNL     1      14.923   4.247  16.589  1.00  0.00     0.015 C 
BRANCH   5   6
ATOM      6  C   UNL     1      15.552   3.151  17.471  1.00  0.00     0.028 C 
BRANCH   6   7
ATOM      7  C   UNL     1      14.555   2.129  17.957  1.00  0.00    -0.028 C 
ATOM      8  C   UNL     1      13.737   2.273  19.029  1.00  0.00    -0.070 CG0
ATOM      9  C   UNL     1      12.732   1.179  19.295  1.00  0.00     0.039 C 
ATOM     10  G   UNL     1      13.813   3.445  20.000  1.00  0.00     0.000 G0
ENDBRANCH   6   7
ENDBRANCH   5   6
ENDBRANCH   3   5
ENDBRANCH   1   3
BRANCH   1  11
ATOM     11  C   UNL     1      12.760   5.532  17.983  1.00  0.00     0.087 C 
BRANCH  11  12
ATOM     12  C   UNL     1      12.389   5.589  19.487  1.00  0.00     0.066 C 
BRANCH  12  13
ATOM     13  C   UNL     1      12.511   4.217  20.136  1.00  0.00     0.140 C 
ATOM     14  O   UNL     1      11.585   3.748  20.779  1.00  0.00    -0.299 OA
BRANCH  13  15
ATOM     15  C   UNL     1      13.801   3.443  20.010  1.00  0.00     0.106 CG0
ATOM     16  G   UNL     1      13.735   2.283  19.025  1.00  0.00     0.000 G0
ENDBRANCH  13  15
ENDBRANCH  12  13
BRANCH  12  17
ATOM     17  C   UNL     1      11.018   6.294  19.736  1.00  0.00    -0.006 C 
ATOM     18  C   UNL     1      11.094   7.830  19.827  1.00  0.00     0.008 C 
ATOM     19  C   UNL     1       9.966   5.870  18.700  1.00  0.00     0.008 C 
ENDBRANCH  12  17
ENDBRANCH  11  12
ENDBRANCH   1  11
TORSDOF 1
ENDMDL
MODEL 8
REMARK VINA RESULT:    -2.879     11.188     12.554
REMARK INTER + INTRA:          -4.629
REMARK INTER:                  -4.225
REMARK INTRA:                  -0.404
REMARK UNBOUND:                -0.234
REMARK SMILES CC1=CCC[C@H](C)C(=O)C[C@@H](C(C)C)C(=O)C1
REMARK SMILES IDX 8 1 9 2 6 3 7 4 5 5 4 6 3 7 2 8 1 9 10 11 11 12 15 13 16 14
REMARK SMILES IDX 17 15 12 17 13 18 14 19
REMARK H PARENT
REMARK Flexibility Score: 70.00
ROOT
ATOM      1  C   UNL     1      13.120   3.481  18.400  1.00  0.00     0.136 C 
ATOM      2  O   UNL     1      12.897   4.485  17.738  1.00  0.00    -0.299 OA
ENDROOT
BRANCH   1   3
ATOM      3  C   UNL     1      12.035   2.430  18.550  1.00  0.00     0.053 C 
ATOM      4  C   UNL     1      12.102   1.422  17.393  1.00  0.00     0.016 C 
BRANCH   3   5
ATOM      5  C   UNL     1      12.161   1.714  19.914  1.00  0.00     0.015 C 
BRANCH   5   6
ATOM      6  C   UNL     1      12.613   0.250  19.747  1.00  0.00     0.028 C 
BRANCH   6   7
ATOM      7  C   UNL     1      13.544  -0.216  20.839  1.00  0.00    -0.028 C 
ATOM      8  C   UNL     1      14.895  -0.284  20.748  1.00  0.00    -0.070 CG0
ATOM      9  C   UNL     1      15.661  -0.678  21.986  1.00  0.00     0.039 C 
ATOM     10  G   UNL     1      15.669  -0.035  19.459  1.00  0.00     0.000 G0
ENDBRANCH   6   7
ENDBRANCH   5   6
ENDBRANCH   3   5
ENDBRANCH   1   3
BRANCH   1  11
ATOM     11  C   UNL     1      14.472   3.324  19.060  1.00  0.00     0.087 C 
BRANCH  11  12
ATOM     12  C   UNL     1      15.369   2.305  18.312  1.00  0.00     0.066 C 
BRANCH  12  13
ATOM     13  C   UNL     1      16.119   1.412  19.290  1.00  0.00     0.140 C 
ATOM     14  O   UNL     1      17.078   1.840  19.915  1.00  0.00    -0.299 OA
BRANCH  13  15
ATOM     15  C   UNL     1      15.695  -0.026  19.466  1.00  0.00     0.106 CG0
ATOM     16  G   UNL     1      14.905  -0.289  20.742  1.00  0.00     0.000 G0
ENDBRANCH  13  15
ENDBRANCH  12  13
BRANCH  12  17
ATOM     17  C   UNL     1      16.279   2.986  17.241  1.00  0.00    -0.006 C 
ATOM     18  C   UNL     1      15.773   2.857  15.793  1.00  0.00     0.008 C 
ATOM     19  C   UNL     1      16.553   4.458  17.584  1.00  0.00     0.008 C 
ENDBRANCH  12  17
ENDBRANCH  11  12
ENDBRANCH   1  11
TORSDOF 1
ENDMDL
MODEL 9
REMARK VINA RESULT:    -2.730      1.987      4.258
REMARK INTER + INTRA:          -4.400
REMARK INTER:                  -4.533
REMARK INTRA:                   0.132
REMARK UNBOUND:                -0.234
REMARK SMILES CC1=CCC[C@H](C)C(=O)C[C@@H](C(C)C)C(=O)C1
REMARK SMILES IDX 8 1 9 2 6 3 7 4 5 5 4 6 3 7 2 8 1 9 10 11 11 12 15 13 16 14
REMARK SMILES IDX 17 15 12 17 13 18 14 19
REMARK H PARENT
REMARK Flexibility Score: 70.00
ROOT
ATOM      1  C   UNL     1      15.296  10.366  25.901  1.00  0.00     0.136 C 
ATOM      2  O   UNL     1      16.405   9.922  26.165  1.00  0.00    -0.299 OA
ENDROOT
BRANCH   1   3
ATOM      3  C   UNL     1      14.125   9.411  25.759  1.00  0.00     0.053 C 
ATOM      4  C   UNL     1      14.564   8.125  25.044  1.00  0.00     0.016 C 
BRANCH   3   5
ATOM      5  C   UNL     1      13.517   9.092  27.145  1.00  0.00     0.015 C 
BRANCH   5   6
ATOM      6  C   UNL     1      12.408  10.092  27.522  1.00  0.00     0.028 C 
BRANCH   6   7
ATOM      7  C   UNL     1      12.627  10.748  28.864  1.00  0.00    -0.028 C 
ATOM      8  C   UNL     1      13.117  11.998  29.060  1.00  0.00    -0.070 CG0
ATOM      9  C   UNL     1      13.164  12.516  30.476  1.00  0.00     0.039 C 
ATOM     10  G   UNL     1      13.664  12.876  27.942  1.00  0.00     0.000 G0
ENDBRANCH   6   7
ENDBRANCH   5   6
ENDBRANCH   3   5
ENDBRANCH   1   3
BRANCH   1  11
ATOM     11  C   UNL     1      15.129  11.857  25.713  1.00  0.00     0.087 C 
BRANCH  11  12
ATOM     12  C   UNL     1      15.983  12.670  26.720  1.00  0.00     0.066 C 
BRANCH  12  13
ATOM     13  C   UNL     1      15.176  13.031  27.959  1.00  0.00     0.140 C 
ATOM     14  O   UNL     1      15.733  13.416  28.975  1.00  0.00    -0.299 OA
BRANCH  13  15
ATOM     15  C   UNL     1      13.673  12.881  27.943  1.00  0.00     0.106 CG0
ATOM     16  G   UNL     1      13.125  11.997  29.056  1.00  0.00     0.000 G0
ENDBRANCH  13  15
ENDBRANCH  12  13
BRANCH  12  17
ATOM     17  C   UNL     1      16.701  13.883  26.049  1.00  0.00    -0.006 C 
ATOM     18  C   UNL     1      17.467  13.542  24.758  1.00  0.00     0.008 C 
ATOM     19  C   UNL     1      15.732  15.050  25.804  1.00  0.00     0.008 C 
ENDBRANCH  12  17
ENDBRANCH  11  12
ENDBRANCH   1  11
TORSDOF 1
ENDMDL
