MODEL 1
REMARK VINA RESULT:    -2.970      0.000      0.000
REMARK INTER + INTRA:          -3.891
REMARK INTER:                  -3.751
REMARK INTRA:                  -0.140
REMARK UNBOUND:                -0.140
REMARK SMILES CCCCCCO
REMARK SMILES IDX 4 1 3 2 2 3 1 4 5 5 6 6 7 7
REMARK H PARENT 7 8
REMARK Flexibility Score: inf
ROOT
ATOM      1  C   UNL     1     161.475 176.934 188.189  1.00  0.00     0.002 C 
ENDROOT
BRANCH   1   2
ATOM      2  C   UNL     1     160.383 176.332 189.082  1.00  0.00    -0.000 C 
BRANCH   2   3
ATOM      3  C   UNL     1     160.121 174.866 188.718  1.00  0.00    -0.003 C 
ATOM      4  C   UNL     1     161.421 174.070 188.667  1.00  0.00     0.004 C 
ENDBRANCH   2   3
ENDBRANCH   1   2
BRANCH   1   5
ATOM      5  C   UNL     1     160.892 177.410 186.852  1.00  0.00     0.028 C 
BRANCH   5   6
ATOM      6  C   UNL     1     161.657 176.824 185.660  1.00  0.00     0.156 C 
BRANCH   6   7
ATOM      7  O   UNL     1     161.245 177.419 184.459  1.00  0.00    -0.396 OA
ATOM      8  H   UNL     1     160.822 178.284 184.700  1.00  0.00     0.210 HD
ENDBRANCH   6   7
ENDBRANCH   5   6
ENDBRANCH   1   5
TORSDOF 5
ENDMDL
MODEL 2
REMARK VINA RESULT:    -2.833     16.658     17.164
REMARK INTER + INTRA:          -3.718
REMARK INTER:                  -3.578
REMARK INTRA:                  -0.140
REMARK UNBOUND:                -0.140
REMARK SMILES CCCCCCO
REMARK SMILES IDX 4 1 3 2 2 3 1 4 5 5 6 6 7 7
REMARK H PARENT 7 8
REMARK Flexibility Score: inf
ROOT
ATOM      1  C   UNL     1     178.339 173.431 188.457  1.00  0.00     0.002 C 
ENDROOT
BRANCH   1   2
ATOM      2  C   UNL     1     178.510 174.575 189.465  1.00  0.00    -0.000 C 
BRANCH   2   3
ATOM      3  C   UNL     1     177.182 174.901 190.158  1.00  0.00    -0.003 C 
ATOM      4  C   UNL     1     176.219 173.721 190.089  1.00  0.00     0.004 C 
ENDBRANCH   2   3
ENDBRANCH   1   2
BRANCH   1   5
ATOM      5  C   UNL     1     178.887 173.826 187.079  1.00  0.00     0.028 C 
BRANCH   5   6
ATOM      6  C   UNL     1     178.003 174.876 186.397  1.00  0.00     0.156 C 
BRANCH   6   7
ATOM      7  O   UNL     1     178.769 175.723 185.584  1.00  0.00    -0.396 OA
ATOM      8  H   UNL     1     179.438 175.150 185.126  1.00  0.00     0.210 HD
ENDBRANCH   6   7
ENDBRANCH   5   6
ENDBRANCH   1   5
TORSDOF 5
ENDMDL
MODEL 3
REMARK VINA RESULT:    -2.824      2.021      2.058
REMARK INTER + INTRA:          -3.706
REMARK INTER:                  -3.606
REMARK INTRA:                  -0.101
REMARK UNBOUND:                -0.140
REMARK SMILES CCCCCCO
REMARK SMILES IDX 4 1 3 2 2 3 1 4 5 5 6 6 7 7
REMARK H PARENT 7 8
REMARK Flexibility Score: inf
ROOT
ATOM      1  C   UNL     1     161.416 177.043 187.370  1.00  0.00     0.002 C 
ENDROOT
BRANCH   1   2
ATOM      2  C   UNL     1     160.558 176.883 188.631  1.00  0.00    -0.000 C 
BRANCH   2   3
ATOM      3  C   UNL     1     160.155 175.419 188.841  1.00  0.00    -0.003 C 
ATOM      4  C   UNL     1     161.343 174.485 188.636  1.00  0.00     0.004 C 
ENDBRANCH   2   3
ENDBRANCH   1   2
BRANCH   1   5
ATOM      5  C   UNL     1     162.568 178.027 187.610  1.00  0.00     0.028 C 
BRANCH   5   6
ATOM      6  C   UNL     1     163.887 177.511 187.023  1.00  0.00     0.156 C 
BRANCH   6   7
ATOM      7  O   UNL     1     164.635 178.561 186.473  1.00  0.00    -0.396 OA
ATOM      8  H   UNL     1     164.005 179.110 185.937  1.00  0.00     0.210 HD
ENDBRANCH   6   7
ENDBRANCH   5   6
ENDBRANCH   1   5
TORSDOF 5
ENDMDL
MODEL 4
REMARK VINA RESULT:    -2.819     19.229     20.386
REMARK INTER + INTRA:          -3.700
REMARK INTER:                  -3.590
REMARK INTRA:                  -0.111
REMARK UNBOUND:                -0.140
REMARK SMILES CCCCCCO
REMARK SMILES IDX 4 1 3 2 2 3 1 4 5 5 6 6 7 7
REMARK H PARENT 7 8
REMARK Flexibility Score: inf
ROOT
ATOM      1  C   UNL     1     177.490 164.888 188.059  1.00  0.00     0.002 C 
ENDROOT
BRANCH   1   2
ATOM      2  C   UNL     1     177.113 163.635 188.859  1.00  0.00    -0.000 C 
BRANCH   2   3
ATOM      3  C   UNL     1     176.733 163.994 190.299  1.00  0.00    -0.003 C 
ATOM      4  C   UNL     1     175.376 164.687 190.355  1.00  0.00     0.004 C 
ENDBRANCH   2   3
ENDBRANCH   1   2
BRANCH   1   5
ATOM      5  C   UNL     1     177.463 164.607 186.551  1.00  0.00     0.028 C 
BRANCH   5   6
ATOM      6  C   UNL     1     177.305 163.111 186.255  1.00  0.00     0.156 C 
BRANCH   6   7
ATOM      7  O   UNL     1     178.360 162.644 185.459  1.00  0.00    -0.396 OA
ATOM      8  H   UNL     1     177.974 161.970 184.841  1.00  0.00     0.210 HD
ENDBRANCH   6   7
ENDBRANCH   5   6
ENDBRANCH   1   5
TORSDOF 5
ENDMDL
MODEL 5
REMARK VINA RESULT:    -2.808     19.558     20.744
REMARK INTER + INTRA:          -3.687
REMARK INTER:                  -3.540
REMARK INTRA:                  -0.147
REMARK UNBOUND:                -0.140
REMARK SMILES CCCCCCO
REMARK SMILES IDX 4 1 3 2 2 3 1 4 5 5 6 6 7 7
REMARK H PARENT 7 8
REMARK Flexibility Score: inf
ROOT
ATOM      1  C   UNL     1     175.831 162.487 188.217  1.00  0.00     0.002 C 
ENDROOT
BRANCH   1   2
ATOM      2  C   UNL     1     176.956 162.395 189.255  1.00  0.00    -0.000 C 
BRANCH   2   3
ATOM      3  C   UNL     1     177.093 163.706 190.037  1.00  0.00    -0.003 C 
ATOM      4  C   UNL     1     175.792 164.501 190.013  1.00  0.00     0.004 C 
ENDBRANCH   2   3
ENDBRANCH   1   2
BRANCH   1   5
ATOM      5  C   UNL     1     176.340 162.115 186.819  1.00  0.00     0.028 C 
BRANCH   5   6
ATOM      6  C   UNL     1     177.256 163.201 186.242  1.00  0.00     0.156 C 
BRANCH   6   7
ATOM      7  O   UNL     1     178.350 162.631 185.575  1.00  0.00    -0.396 OA
ATOM      8  H   UNL     1     178.629 161.842 186.109  1.00  0.00     0.210 HD
ENDBRANCH   6   7
ENDBRANCH   5   6
ENDBRANCH   1   5
TORSDOF 5
ENDMDL
MODEL 6
REMARK VINA RESULT:    -2.794     20.154     20.596
REMARK INTER + INTRA:          -3.669
REMARK INTER:                  -3.603
REMARK INTRA:                  -0.066
REMARK UNBOUND:                -0.140
REMARK SMILES CCCCCCO
REMARK SMILES IDX 4 1 3 2 2 3 1 4 5 5 6 6 7 7
REMARK H PARENT 7 8
REMARK Flexibility Score: inf
ROOT
ATOM      1  C   UNL     1     177.210 163.907 189.380  1.00  0.00     0.002 C 
ENDROOT
BRANCH   1   2
ATOM      2  C   UNL     1     176.147 162.984 188.772  1.00  0.00    -0.000 C 
BRANCH   2   3
ATOM      3  C   UNL     1     176.629 161.529 188.747  1.00  0.00    -0.003 C 
ATOM      4  C   UNL     1     175.490 160.576 188.403  1.00  0.00     0.004 C 
ENDBRANCH   2   3
ENDBRANCH   1   2
BRANCH   1   5
ATOM      5  C   UNL     1     177.510 165.088 188.448  1.00  0.00     0.028 C 
BRANCH   5   6
ATOM      6  C   UNL     1     177.540 164.658 186.977  1.00  0.00     0.156 C 
BRANCH   6   7
ATOM      7  O   UNL     1     178.718 165.092 186.352  1.00  0.00    -0.396 OA
ATOM      8  H   UNL     1     178.774 164.613 185.485  1.00  0.00     0.210 HD
ENDBRANCH   6   7
ENDBRANCH   5   6
ENDBRANCH   1   5
TORSDOF 5
ENDMDL
MODEL 7
REMARK VINA RESULT:    -2.790     12.450     13.075
REMARK INTER + INTRA:          -3.665
REMARK INTER:                  -3.517
REMARK INTRA:                  -0.148
REMARK UNBOUND:                -0.140
REMARK SMILES CCCCCCO
REMARK SMILES IDX 4 1 3 2 2 3 1 4 5 5 6 6 7 7
REMARK H PARENT 7 8
REMARK Flexibility Score: inf
ROOT
ATOM      1  C   UNL     1     174.170 180.125 187.557  1.00  0.00     0.002 C 
ENDROOT
BRANCH   1   2
ATOM      2  C   UNL     1     173.425 180.101 188.898  1.00  0.00    -0.000 C 
BRANCH   2   3
ATOM      3  C   UNL     1     171.922 179.885 188.689  1.00  0.00    -0.003 C 
ATOM      4  C   UNL     1     171.560 178.406 188.777  1.00  0.00     0.004 C 
ENDBRANCH   2   3
ENDBRANCH   1   2
BRANCH   1   5
ATOM      5  C   UNL     1     175.084 178.901 187.413  1.00  0.00     0.028 C 
BRANCH   5   6
ATOM      6  C   UNL     1     174.482 177.851 186.472  1.00  0.00     0.156 C 
BRANCH   6   7
ATOM      7  O   UNL     1     174.786 178.144 185.135  1.00  0.00    -0.396 OA
ATOM      8  H   UNL     1     174.389 179.033 184.942  1.00  0.00     0.210 HD
ENDBRANCH   6   7
ENDBRANCH   5   6
ENDBRANCH   1   5
TORSDOF 5
ENDMDL
MODEL 8
REMARK VINA RESULT:    -2.778     16.231     16.702
REMARK INTER + INTRA:          -3.648
REMARK INTER:                  -3.555
REMARK INTRA:                  -0.094
REMARK UNBOUND:                -0.140
REMARK SMILES CCCCCCO
REMARK SMILES IDX 4 1 3 2 2 3 1 4 5 5 6 6 7 7
REMARK H PARENT 7 8
REMARK Flexibility Score: inf
ROOT
ATOM      1  C   UNL     1     177.109 175.254 189.489  1.00  0.00     0.002 C 
ENDROOT
BRANCH   1   2
ATOM      2  C   UNL     1     178.461 174.529 189.486  1.00  0.00    -0.000 C 
BRANCH   2   3
ATOM      3  C   UNL     1     178.574 173.581 188.287  1.00  0.00    -0.003 C 
ATOM      4  C   UNL     1     179.780 172.657 188.427  1.00  0.00     0.004 C 
ENDBRANCH   2   3
ENDBRANCH   1   2
BRANCH   1   5
ATOM      5  C   UNL     1     176.500 175.288 188.081  1.00  0.00     0.028 C 
BRANCH   5   6
ATOM      6  C   UNL     1     175.915 176.666 187.750  1.00  0.00     0.156 C 
BRANCH   6   7
ATOM      7  O   UNL     1     176.422 177.146 186.534  1.00  0.00    -0.396 OA
ATOM      8  H   UNL     1     175.649 177.505 186.025  1.00  0.00     0.210 HD
ENDBRANCH   6   7
ENDBRANCH   5   6
ENDBRANCH   1   5
TORSDOF 5
ENDMDL
MODEL 9
REMARK VINA RESULT:    -2.767      5.693      6.567
REMARK INTER + INTRA:          -3.635
REMARK INTER:                  -3.431
REMARK INTRA:                  -0.203
REMARK UNBOUND:                -0.140
REMARK SMILES CCCCCCO
REMARK SMILES IDX 4 1 3 2 2 3 1 4 5 5 6 6 7 7
REMARK H PARENT 7 8
REMARK Flexibility Score: inf
ROOT
ATOM      1  C   UNL     1     166.535 177.598 188.807  1.00  0.00     0.002 C 
ENDROOT
BRANCH   1   2
ATOM      2  C   UNL     1     166.869 178.650 189.872  1.00  0.00    -0.000 C 
BRANCH   2   3
ATOM      3  C   UNL     1     167.689 179.798 189.273  1.00  0.00    -0.003 C 
ATOM      4  C   UNL     1     168.865 179.270 188.459  1.00  0.00     0.004 C 
ENDBRANCH   2   3
ENDBRANCH   1   2
BRANCH   1   5
ATOM      5  C   UNL     1     165.217 177.932 188.096  1.00  0.00     0.028 C 
BRANCH   5   6
ATOM      6  C   UNL     1     165.372 177.905 186.572  1.00  0.00     0.156 C 
BRANCH   6   7
ATOM      7  O   UNL     1     165.830 179.141 186.093  1.00  0.00    -0.396 OA
ATOM      8  H   UNL     1     165.370 179.299 185.228  1.00  0.00     0.210 HD
ENDBRANCH   6   7
ENDBRANCH   5   6
ENDBRANCH   1   5
TORSDOF 5
ENDMDL
