MODEL 1
REMARK VINA RESULT:    -5.876      0.000      0.000
REMARK INTER + INTRA:          -9.289
REMARK INTER:                  -8.968
REMARK INTRA:                  -0.321
REMARK UNBOUND:                -0.321
REMARK SMILES CC1=CCC[C@@H](C)C(=O)C[C@@H](C(C)C)C(=O)C1
REMARK SMILES IDX 8 1 9 2 6 3 7 4 5 5 4 6 3 7 2 8 1 9 10 11 11 12 15 13 16 14
REMARK SMILES IDX 17 15 12 17 13 18 14 19
REMARK H PARENT
REMARK Flexibility Score: 70.00
ROOT
ATOM      1  C   UNL     1      26.776  55.812 139.505  1.00  0.00     0.136 C 
ATOM      2  O   UNL     1      26.708  54.758 138.887  1.00  0.00    -0.299 OA
ENDROOT
BRANCH   1   3
ATOM      3  C   UNL     1      25.928  56.991 139.083  1.00  0.00     0.053 C 
ATOM      4  C   UNL     1      24.452  56.678 139.355  1.00  0.00     0.016 C 
BRANCH   3   5
ATOM      5  C   UNL     1      26.128  57.371 137.597  1.00  0.00     0.015 C 
BRANCH   5   6
ATOM      6  C   UNL     1      27.448  58.117 137.321  1.00  0.00     0.028 C 
BRANCH   6   7
ATOM      7  C   UNL     1      27.576  59.357 138.177  1.00  0.00    -0.028 C 
ATOM      8  C   UNL     1      28.447  59.544 139.197  1.00  0.00    -0.070 CG0
ATOM      9  C   UNL     1      28.386  60.853 139.943  1.00  0.00     0.039 C 
ATOM     10  G   UNL     1      29.523  58.548 139.581  1.00  0.00     0.000 G0
ENDBRANCH   6   7
ENDBRANCH   5   6
ENDBRANCH   3   5
ENDBRANCH   1   3
BRANCH   1  11
ATOM     11  C   UNL     1      27.683  55.909 140.707  1.00  0.00     0.087 C 
BRANCH  11  12
ATOM     12  C   UNL     1      27.824  57.364 141.212  1.00  0.00     0.066 C 
BRANCH  12  13
ATOM     13  C   UNL     1      29.212  57.902 140.912  1.00  0.00     0.140 C 
ATOM     14  O   UNL     1      30.100  57.794 141.745  1.00  0.00    -0.299 OA
BRANCH  13  15
ATOM     15  C   UNL     1      29.532  58.542 139.589  1.00  0.00     0.106 CG0
ATOM     16  G   UNL     1      28.449  59.533 139.215  1.00  0.00     0.000 G0
ENDBRANCH  13  15
ENDBRANCH  12  13
BRANCH  12  17
ATOM     17  C   UNL     1      27.466  57.546 142.721  1.00  0.00    -0.006 C 
ATOM     18  C   UNL     1      27.128  59.010 143.050  1.00  0.00     0.008 C 
ATOM     19  C   UNL     1      26.333  56.627 143.212  1.00  0.00     0.008 C 
ENDBRANCH  12  17
ENDBRANCH  11  12
ENDBRANCH   1  11
TORSDOF 1
ENDMDL
MODEL 2
REMARK VINA RESULT:    -5.285      1.828      4.049
REMARK INTER + INTRA:          -8.386
REMARK INTER:                  -8.011
REMARK INTRA:                  -0.375
REMARK UNBOUND:                -0.321
REMARK SMILES CC1=CCC[C@@H](C)C(=O)C[C@@H](C(C)C)C(=O)C1
REMARK SMILES IDX 8 1 9 2 6 3 7 4 5 5 4 6 3 7 2 8 1 9 10 11 11 12 15 13 16 14
REMARK SMILES IDX 17 15 12 17 13 18 14 19
REMARK H PARENT
REMARK Flexibility Score: 70.00
ROOT
ATOM      1  C   UNL     1      26.404  57.661 142.023  1.00  0.00     0.136 C 
ATOM      2  O   UNL     1      25.785  56.651 142.327  1.00  0.00    -0.299 OA
ENDROOT
BRANCH   1   3
ATOM      3  C   UNL     1      27.275  58.351 143.051  1.00  0.00     0.053 C 
ATOM      4  C   UNL     1      27.329  59.851 142.745  1.00  0.00     0.016 C 
BRANCH   3   5
ATOM      5  C   UNL     1      28.705  57.766 143.112  1.00  0.00     0.015 C 
BRANCH   5   6
ATOM      6  C   UNL     1      29.782  58.704 142.534  1.00  0.00     0.028 C 
BRANCH   6   7
ATOM      7  C   UNL     1      30.537  58.053 141.396  1.00  0.00    -0.028 C 
ATOM      8  C   UNL     1      30.254  58.163 140.076  1.00  0.00    -0.070 CG0
ATOM      9  C   UNL     1      31.121  57.400 139.105  1.00  0.00     0.039 C 
ATOM     10  G   UNL     1      29.169  59.060 139.518  1.00  0.00     0.000 G0
ENDBRANCH   6   7
ENDBRANCH   5   6
ENDBRANCH   3   5
ENDBRANCH   1   3
BRANCH   1  11
ATOM     11  C   UNL     1      26.318  58.188 140.612  1.00  0.00     0.087 C 
BRANCH  11  12
ATOM     12  C   UNL     1      27.166  57.349 139.626  1.00  0.00     0.066 C 
BRANCH  12  13
ATOM     13  C   UNL     1      28.106  58.242 138.837  1.00  0.00     0.140 C 
ATOM     14  O   UNL     1      27.997  58.318 137.622  1.00  0.00    -0.299 OA
BRANCH  13  15
ATOM     15  C   UNL     1      29.159  59.068 139.524  1.00  0.00     0.106 CG0
ATOM     16  G   UNL     1      30.257  58.171 140.060  1.00  0.00     0.000 G0
ENDBRANCH  13  15
ENDBRANCH  12  13
BRANCH  12  17
ATOM     17  C   UNL     1      26.318  56.446 138.675  1.00  0.00    -0.006 C 
ATOM     18  C   UNL     1      26.607  54.954 138.906  1.00  0.00     0.008 C 
ATOM     19  C   UNL     1      24.803  56.701 138.753  1.00  0.00     0.008 C 
ENDBRANCH  12  17
ENDBRANCH  11  12
ENDBRANCH   1  11
TORSDOF 1
ENDMDL
MODEL 3
REMARK VINA RESULT:    -5.085      2.120      4.007
REMARK INTER + INTRA:          -8.082
REMARK INTER:                  -8.238
REMARK INTRA:                   0.156
REMARK UNBOUND:                -0.321
REMARK SMILES CC1=CCC[C@@H](C)C(=O)C[C@@H](C(C)C)C(=O)C1
REMARK SMILES IDX 8 1 9 2 6 3 7 4 5 5 4 6 3 7 2 8 1 9 10 11 11 12 15 13 16 14
REMARK SMILES IDX 17 15 12 17 13 18 14 19
REMARK H PARENT
REMARK Flexibility Score: 70.00
ROOT
ATOM      1  C   UNL     1      27.445  59.596 139.239  1.00  0.00     0.136 C 
ATOM      2  O   UNL     1      26.385  60.197 139.354  1.00  0.00    -0.299 OA
ENDROOT
BRANCH   1   3
ATOM      3  C   UNL     1      27.908  59.135 137.874  1.00  0.00     0.053 C 
ATOM      4  C   UNL     1      28.187  60.359 136.994  1.00  0.00     0.016 C 
BRANCH   3   5
ATOM      5  C   UNL     1      26.889  58.200 137.181  1.00  0.00     0.015 C 
BRANCH   5   6
ATOM      6  C   UNL     1      26.062  57.350 138.164  1.00  0.00     0.028 C 
BRANCH   6   7
ATOM      7  C   UNL     1      26.736  56.029 138.463  1.00  0.00    -0.028 C 
ATOM      8  C   UNL     1      27.096  55.568 139.684  1.00  0.00    -0.070 CG0
ATOM      9  C   UNL     1      27.788  54.230 139.755  1.00  0.00     0.039 C 
ATOM     10  G   UNL     1      26.778  56.281 140.982  1.00  0.00     0.000 G0
ENDBRANCH   6   7
ENDBRANCH   5   6
ENDBRANCH   3   5
ENDBRANCH   1   3
BRANCH   1  11
ATOM     11  C   UNL     1      28.295  59.352 140.461  1.00  0.00     0.087 C 
BRANCH  11  12
ATOM     12  C   UNL     1      28.820  57.898 140.523  1.00  0.00     0.066 C 
BRANCH  12  13
ATOM     13  C   UNL     1      27.984  57.068 141.480  1.00  0.00     0.140 C 
ATOM     14  O   UNL     1      28.261  57.049 142.671  1.00  0.00    -0.299 OA
BRANCH  13  15
ATOM     15  C   UNL     1      26.791  56.287 141.000  1.00  0.00     0.106 CG0
ATOM     16  G   UNL     1      27.112  55.604 139.686  1.00  0.00     0.000 G0
ENDBRANCH  13  15
ENDBRANCH  12  13
BRANCH  12  17
ATOM     17  C   UNL     1      30.340  57.790 140.866  1.00  0.00    -0.006 C 
ATOM     18  C   UNL     1      31.193  57.611 139.599  1.00  0.00     0.008 C 
ATOM     19  C   UNL     1      30.881  58.966 141.697  1.00  0.00     0.008 C 
ENDBRANCH  12  17
ENDBRANCH  11  12
ENDBRANCH   1  11
TORSDOF 1
ENDMDL
MODEL 4
REMARK VINA RESULT:    -4.954      1.899      3.841
REMARK INTER + INTRA:          -7.881
REMARK INTER:                  -7.608
REMARK INTRA:                  -0.273
REMARK UNBOUND:                -0.321
REMARK SMILES CC1=CCC[C@@H](C)C(=O)C[C@@H](C(C)C)C(=O)C1
REMARK SMILES IDX 8 1 9 2 6 3 7 4 5 5 4 6 3 7 2 8 1 9 10 11 11 12 15 13 16 14
REMARK SMILES IDX 17 15 12 17 13 18 14 19
REMARK H PARENT
REMARK Flexibility Score: 70.00
ROOT
ATOM      1  C   UNL     1      27.508  59.556 138.587  1.00  0.00     0.136 C 
ATOM      2  O   UNL     1      27.949  60.196 137.642  1.00  0.00    -0.299 OA
ENDROOT
BRANCH   1   3
ATOM      3  C   UNL     1      27.247  60.244 139.909  1.00  0.00     0.053 C 
ATOM      4  C   UNL     1      25.998  61.125 139.784  1.00  0.00     0.016 C 
BRANCH   3   5
ATOM      5  C   UNL     1      28.449  61.088 140.392  1.00  0.00     0.015 C 
BRANCH   5   6
ATOM      6  C   UNL     1      29.569  60.254 141.044  1.00  0.00     0.028 C 
BRANCH   6   7
ATOM      7  C   UNL     1      29.028  59.340 142.122  1.00  0.00    -0.028 C 
ATOM      8  C   UNL     1      28.896  57.995 142.044  1.00  0.00    -0.070 CG0
ATOM      9  C   UNL     1      28.301  57.276 143.229  1.00  0.00     0.039 C 
ATOM     10  G   UNL     1      29.377  57.166 140.870  1.00  0.00     0.000 G0
ENDBRANCH   6   7
ENDBRANCH   5   6
ENDBRANCH   3   5
ENDBRANCH   1   3
BRANCH   1  11
ATOM     11  C   UNL     1      27.197  58.091 138.409  1.00  0.00     0.087 C 
BRANCH  11  12
ATOM     12  C   UNL     1      26.998  57.370 139.763  1.00  0.00     0.066 C 
BRANCH  12  13
ATOM     13  C   UNL     1      28.225  56.549 140.117  1.00  0.00     0.140 C 
ATOM     14  O   UNL     1      28.294  55.378 139.772  1.00  0.00    -0.299 OA
BRANCH  13  15
ATOM     15  C   UNL     1      29.384  57.156 140.860  1.00  0.00     0.106 CG0
ATOM     16  G   UNL     1      28.880  57.963 142.039  1.00  0.00     0.000 G0
ENDBRANCH  13  15
ENDBRANCH  12  13
BRANCH  12  17
ATOM     17  C   UNL     1      25.702  56.502 139.832  1.00  0.00    -0.006 C 
ATOM     18  C   UNL     1      25.269  56.246 141.285  1.00  0.00     0.008 C 
ATOM     19  C   UNL     1      24.520  57.074 139.030  1.00  0.00     0.008 C 
ENDBRANCH  12  17
ENDBRANCH  11  12
ENDBRANCH   1  11
TORSDOF 1
ENDMDL
MODEL 5
REMARK VINA RESULT:    -4.882      1.608      3.738
REMARK INTER + INTRA:          -7.771
REMARK INTER:                  -8.261
REMARK INTRA:                   0.490
REMARK UNBOUND:                -0.321
REMARK SMILES CC1=CCC[C@@H](C)C(=O)C[C@@H](C(C)C)C(=O)C1
REMARK SMILES IDX 8 1 9 2 6 3 7 4 5 5 4 6 3 7 2 8 1 9 10 11 11 12 15 13 16 14
REMARK SMILES IDX 17 15 12 17 13 18 14 19
REMARK H PARENT
REMARK Flexibility Score: 70.00
ROOT
ATOM      1  C   UNL     1      25.746  57.218 138.996  1.00  0.00     0.136 C 
ATOM      2  O   UNL     1      25.463  57.000 137.825  1.00  0.00    -0.299 OA
ENDROOT
BRANCH   1   3
ATOM      3  C   UNL     1      25.224  56.304 140.082  1.00  0.00     0.053 C 
ATOM      4  C   UNL     1      23.820  55.819 139.707  1.00  0.00     0.016 C 
BRANCH   3   5
ATOM      5  C   UNL     1      25.202  56.980 141.473  1.00  0.00     0.015 C 
BRANCH   5   6
ATOM      6  C   UNL     1      26.244  56.411 142.455  1.00  0.00     0.028 C 
BRANCH   6   7
ATOM      7  C   UNL     1      27.388  57.375 142.675  1.00  0.00    -0.028 C 
ATOM      8  C   UNL     1      28.493  57.502 141.902  1.00  0.00    -0.070 CG0
ATOM      9  C   UNL     1      29.533  58.511 142.321  1.00  0.00     0.039 C 
ATOM     10  G   UNL     1      28.710  56.743 140.608  1.00  0.00     0.000 G0
ENDBRANCH   6   7
ENDBRANCH   5   6
ENDBRANCH   3   5
ENDBRANCH   1   3
BRANCH   1  11
ATOM     11  C   UNL     1      26.643  58.382 139.336  1.00  0.00     0.087 C 
BRANCH  11  12
ATOM     12  C   UNL     1      27.998  58.309 138.593  1.00  0.00     0.066 C 
BRANCH  12  13
ATOM     13  C   UNL     1      29.062  57.689 139.480  1.00  0.00     0.140 C 
ATOM     14  O   UNL     1      30.239  57.978 139.313  1.00  0.00    -0.299 OA
BRANCH  13  15
ATOM     15  C   UNL     1      28.698  56.745 140.594  1.00  0.00     0.106 CG0
ATOM     16  G   UNL     1      28.515  57.513 141.887  1.00  0.00     0.000 G0
ENDBRANCH  13  15
ENDBRANCH  12  13
BRANCH  12  17
ATOM     17  C   UNL     1      28.476  59.678 138.015  1.00  0.00    -0.006 C 
ATOM     18  C   UNL     1      27.872  59.947 136.626  1.00  0.00     0.008 C 
ATOM     19  C   UNL     1      28.208  60.878 138.940  1.00  0.00     0.008 C 
ENDBRANCH  12  17
ENDBRANCH  11  12
ENDBRANCH   1  11
TORSDOF 1
ENDMDL
MODEL 6
REMARK VINA RESULT:    -4.827      2.049      4.011
REMARK INTER + INTRA:          -7.687
REMARK INTER:                  -7.867
REMARK INTRA:                   0.180
REMARK UNBOUND:                -0.321
REMARK SMILES CC1=CCC[C@@H](C)C(=O)C[C@@H](C(C)C)C(=O)C1
REMARK SMILES IDX 8 1 9 2 6 3 7 4 5 5 4 6 3 7 2 8 1 9 10 11 11 12 15 13 16 14
REMARK SMILES IDX 17 15 12 17 13 18 14 19
REMARK H PARENT
REMARK Flexibility Score: 70.00
ROOT
ATOM      1  C   UNL     1      25.649  57.333 139.300  1.00  0.00     0.136 C 
ATOM      2  O   UNL     1      24.797  56.968 138.501  1.00  0.00    -0.299 OA
ENDROOT
BRANCH   1   3
ATOM      3  C   UNL     1      26.358  56.315 140.166  1.00  0.00     0.053 C 
ATOM      4  C   UNL     1      26.640  55.055 139.341  1.00  0.00     0.016 C 
BRANCH   3   5
ATOM      5  C   UNL     1      25.558  55.952 141.438  1.00  0.00     0.015 C 
BRANCH   5   6
ATOM      6  C   UNL     1      25.941  56.794 142.672  1.00  0.00     0.028 C 
BRANCH   6   7
ATOM      7  C   UNL     1      27.436  56.999 142.765  1.00  0.00    -0.028 C 
ATOM      8  C   UNL     1      28.089  58.185 142.738  1.00  0.00    -0.070 CG0
ATOM      9  C   UNL     1      29.595  58.162 142.813  1.00  0.00     0.039 C 
ATOM     10  G   UNL     1      27.392  59.531 142.710  1.00  0.00     0.000 G0
ENDBRANCH   6   7
ENDBRANCH   5   6
ENDBRANCH   3   5
ENDBRANCH   1   3
BRANCH   1  11
ATOM     11  C   UNL     1      26.007  58.797 139.385  1.00  0.00     0.087 C 
BRANCH  11  12
ATOM     12  C   UNL     1      27.350  59.025 140.118  1.00  0.00     0.066 C 
BRANCH  12  13
ATOM     13  C   UNL     1      27.166  59.977 141.286  1.00  0.00     0.140 C 
ATOM     14  O   UNL     1      26.795  61.125 141.083  1.00  0.00    -0.299 OA
BRANCH  13  15
ATOM     15  C   UNL     1      27.398  59.530 142.703  1.00  0.00     0.106 CG0
ATOM     16  G   UNL     1      28.091  58.182 142.716  1.00  0.00     0.000 G0
ENDBRANCH  13  15
ENDBRANCH  12  13
BRANCH  12  17
ATOM     17  C   UNL     1      28.506  59.500 139.183  1.00  0.00    -0.006 C 
ATOM     18  C   UNL     1      29.596  58.424 139.041  1.00  0.00     0.008 C 
ATOM     19  C   UNL     1      28.040  59.955 137.789  1.00  0.00     0.008 C 
ENDBRANCH  12  17
ENDBRANCH  11  12
ENDBRANCH   1  11
TORSDOF 1
ENDMDL
MODEL 7
REMARK VINA RESULT:    -4.796      1.549      3.900
REMARK INTER + INTRA:          -7.640
REMARK INTER:                  -7.563
REMARK INTRA:                  -0.077
REMARK UNBOUND:                -0.321
REMARK SMILES CC1=CCC[C@@H](C)C(=O)C[C@@H](C(C)C)C(=O)C1
REMARK SMILES IDX 8 1 9 2 6 3 7 4 5 5 4 6 3 7 2 8 1 9 10 11 11 12 15 13 16 14
REMARK SMILES IDX 17 15 12 17 13 18 14 19
REMARK H PARENT
REMARK Flexibility Score: 70.00
ROOT
ATOM      1  C   UNL     1      28.513  57.312 141.354  1.00  0.00     0.136 C 
ATOM      2  O   UNL     1      29.448  56.704 140.851  1.00  0.00    -0.299 OA
ENDROOT
BRANCH   1   3
ATOM      3  C   UNL     1      28.765  58.287 142.483  1.00  0.00     0.053 C 
ATOM      4  C   UNL     1      27.470  58.493 143.275  1.00  0.00     0.016 C 
BRANCH   3   5
ATOM      5  C   UNL     1      29.310  59.647 141.988  1.00  0.00     0.015 C 
BRANCH   5   6
ATOM      6  C   UNL     1      28.245  60.528 141.305  1.00  0.00     0.028 C 
BRANCH   6   7
ATOM      7  C   UNL     1      28.503  60.666 139.821  1.00  0.00    -0.028 C 
ATOM      8  C   UNL     1      27.797  60.082 138.824  1.00  0.00    -0.070 CG0
ATOM      9  C   UNL     1      28.246  60.328 137.405  1.00  0.00     0.039 C 
ATOM     10  G   UNL     1      26.546  59.258 139.048  1.00  0.00     0.000 G0
ENDBRANCH   6   7
ENDBRANCH   5   6
ENDBRANCH   3   5
ENDBRANCH   1   3
BRANCH   1  11
ATOM     11  C   UNL     1      27.118  57.105 140.816  1.00  0.00     0.087 C 
BRANCH  11  12
ATOM     12  C   UNL     1      27.125  56.724 139.316  1.00  0.00     0.066 C 
BRANCH  12  13
ATOM     13  C   UNL     1      26.668  57.894 138.466  1.00  0.00     0.140 C 
ATOM     14  O   UNL     1      26.371  57.716 137.293  1.00  0.00    -0.299 OA
BRANCH  13  15
ATOM     15  C   UNL     1      26.538  59.277 139.044  1.00  0.00     0.106 CG0
ATOM     16  G   UNL     1      27.814  60.061 138.809  1.00  0.00     0.000 G0
ENDBRANCH  13  15
ENDBRANCH  12  13
BRANCH  12  17
ATOM     17  C   UNL     1      26.304  55.437 138.989  1.00  0.00    -0.006 C 
ATOM     18  C   UNL     1      27.156  54.167 139.148  1.00  0.00     0.008 C 
ATOM     19  C   UNL     1      25.005  55.297 139.801  1.00  0.00     0.008 C 
ENDBRANCH  12  17
ENDBRANCH  11  12
ENDBRANCH   1  11
TORSDOF 1
ENDMDL
MODEL 8
REMARK VINA RESULT:    -4.649      1.951      3.651
REMARK INTER + INTRA:          -7.416
REMARK INTER:                  -7.299
REMARK INTRA:                  -0.117
REMARK UNBOUND:                -0.321
REMARK SMILES CC1=CCC[C@@H](C)C(=O)C[C@@H](C(C)C)C(=O)C1
REMARK SMILES IDX 8 1 9 2 6 3 7 4 5 5 4 6 3 7 2 8 1 9 10 11 11 12 15 13 16 14
REMARK SMILES IDX 17 15 12 17 13 18 14 19
REMARK H PARENT
REMARK Flexibility Score: 70.00
ROOT
ATOM      1  C   UNL     1      27.625  57.354 138.498  1.00  0.00     0.136 C 
ATOM      2  O   UNL     1      27.334  57.042 137.351  1.00  0.00    -0.299 OA
ENDROOT
BRANCH   1   3
ATOM      3  C   UNL     1      28.217  58.717 138.783  1.00  0.00     0.053 C 
ATOM      4  C   UNL     1      27.951  59.644 137.592  1.00  0.00     0.016 C 
BRANCH   3   5
ATOM      5  C   UNL     1      29.732  58.659 139.088  1.00  0.00     0.015 C 
BRANCH   5   6
ATOM      6  C   UNL     1      30.055  58.356 140.564  1.00  0.00     0.028 C 
BRANCH   6   7
ATOM      7  C   UNL     1      29.155  59.129 141.502  1.00  0.00    -0.028 C 
ATOM      8  C   UNL     1      28.173  58.615 142.280  1.00  0.00    -0.070 CG0
ATOM      9  C   UNL     1      27.369  59.572 143.123  1.00  0.00     0.039 C 
ATOM     10  G   UNL     1      27.886  57.132 142.406  1.00  0.00     0.000 G0
ENDBRANCH   6   7
ENDBRANCH   5   6
ENDBRANCH   3   5
ENDBRANCH   1   3
BRANCH   1  11
ATOM     11  C   UNL     1      27.356  56.383 139.621  1.00  0.00     0.087 C 
BRANCH  11  12
ATOM     12  C   UNL     1      26.129  56.798 140.467  1.00  0.00     0.066 C 
BRANCH  12  13
ATOM     13  C   UNL     1      26.483  56.828 141.943  1.00  0.00     0.140 C 
ATOM     14  O   UNL     1      25.626  56.581 142.780  1.00  0.00    -0.299 OA
BRANCH  13  15
ATOM     15  C   UNL     1      27.884  57.125 142.404  1.00  0.00     0.106 CG0
ATOM     16  G   UNL     1      28.168  58.608 142.280  1.00  0.00     0.000 G0
ENDBRANCH  13  15
ENDBRANCH  12  13
BRANCH  12  17
ATOM     17  C   UNL     1      24.861  55.923 140.211  1.00  0.00    -0.006 C 
ATOM     18  C   UNL     1      23.896  56.602 139.226  1.00  0.00     0.008 C 
ATOM     19  C   UNL     1      25.170  54.493 139.735  1.00  0.00     0.008 C 
ENDBRANCH  12  17
ENDBRANCH  11  12
ENDBRANCH   1  11
TORSDOF 1
ENDMDL
MODEL 9
REMARK VINA RESULT:    -4.319      1.843      3.730
REMARK INTER + INTRA:          -6.913
REMARK INTER:                  -6.675
REMARK INTRA:                  -0.238
REMARK UNBOUND:                -0.321
REMARK SMILES CC1=CCC[C@@H](C)C(=O)C[C@@H](C(C)C)C(=O)C1
REMARK SMILES IDX 8 1 9 2 6 3 7 4 5 5 4 6 3 7 2 8 1 9 10 11 11 12 15 13 16 14
REMARK SMILES IDX 17 15 12 17 13 18 14 19
REMARK H PARENT
REMARK Flexibility Score: 70.00
ROOT
ATOM      1  C   UNL     1      28.234  59.707 140.856  1.00  0.00     0.136 C 
ATOM      2  O   UNL     1      29.336  59.300 141.198  1.00  0.00    -0.299 OA
ENDROOT
BRANCH   1   3
ATOM      3  C   UNL     1      28.094  60.550 139.607  1.00  0.00     0.053 C 
ATOM      4  C   UNL     1      26.644  61.032 139.481  1.00  0.00     0.016 C 
BRANCH   3   5
ATOM      5  C   UNL     1      28.519  59.797 138.326  1.00  0.00     0.015 C 
BRANCH   5   6
ATOM      6  C   UNL     1      27.395  58.944 137.707  1.00  0.00     0.028 C 
BRANCH   6   7
ATOM      7  C   UNL     1      27.542  57.482 138.065  1.00  0.00    -0.028 C 
ATOM      8  C   UNL     1      26.792  56.793 138.958  1.00  0.00    -0.070 CG0
ATOM      9  C   UNL     1      27.129  55.341 139.189  1.00  0.00     0.039 C 
ATOM     10  G   UNL     1      25.593  57.375 139.679  1.00  0.00     0.000 G0
ENDBRANCH   6   7
ENDBRANCH   5   6
ENDBRANCH   3   5
ENDBRANCH   1   3
BRANCH   1  11
ATOM     11  C   UNL     1      27.020  59.330 141.668  1.00  0.00     0.087 C 
BRANCH  11  12
ATOM     12  C   UNL     1      26.937  57.805 141.918  1.00  0.00     0.066 C 
BRANCH  12  13
ATOM     13  C   UNL     1      25.759  57.205 141.173  1.00  0.00     0.140 C 
ATOM     14  O   UNL     1      24.901  56.587 141.788  1.00  0.00    -0.299 OA
BRANCH  13  15
ATOM     15  C   UNL     1      25.602  57.381 139.687  1.00  0.00     0.106 CG0
ATOM     16  G   UNL     1      26.793  56.786 138.964  1.00  0.00     0.000 G0
ENDBRANCH  13  15
ENDBRANCH  12  13
BRANCH  12  17
ATOM     17  C   UNL     1      26.905  57.414 143.429  1.00  0.00    -0.006 C 
ATOM     18  C   UNL     1      28.287  56.954 143.923  1.00  0.00     0.008 C 
ATOM     19  C   UNL     1      26.363  58.519 144.353  1.00  0.00     0.008 C 
ENDBRANCH  12  17
ENDBRANCH  11  12
ENDBRANCH   1  11
TORSDOF 1
ENDMDL
