MODEL 1
REMARK VINA RESULT:    -5.637      0.000      0.000
REMARK INTER + INTRA:          -8.339
REMARK INTER:                  -7.615
REMARK INTRA:                  -0.724
REMARK UNBOUND:                -0.724
REMARK SMILES O=c1c(-c2ccc(O)cc2)coc2c([C@H]3O[C@@H](CO)[C@H](O)[C@@H](O)[C@@H]3O)c(O)ccc12
REMARK SMILES IDX 3 1 11 2 12 3 13 4 30 5 2 6 1 7 29 8 28 9 26 10 14 11 4 12
REMARK SMILES IDX 5 13 6 14 7 15 10 16 9 17 8 18 15 20 24 21 16 22 22 23 17 24
REMARK SMILES IDX 20 25 25 26 23 28 18 30 19 31 21 33 27 35
REMARK H PARENT 8 19 25 27 23 29 19 32 21 34 27 36
REMARK Flexibility Score: inf
ROOT
ATOM      1  C   UNL     1      24.043  40.238  35.329  1.00  0.00     0.065 A 
ATOM      2  C   UNL     1      24.163  38.848  35.544  1.00  0.00     0.208 A 
ATOM      3  O   UNL     1      24.777  38.004  34.661  1.00  0.00    -0.463 OA
ATOM      4  C   UNL     1      25.265  38.462  33.526  1.00  0.00     0.147 A 
ATOM      5  C   UNL     1      25.098  39.827  33.175  1.00  0.00     0.066 A 
ATOM      6  C   UNL     1      24.505  40.709  34.100  1.00  0.00     0.200 A 
ATOM      7  O   UNL     1      24.430  41.927  33.766  1.00  0.00    -0.288 OA
ATOM      8  C   UNL     1      25.507  40.243  31.895  1.00  0.00     0.020 A 
ATOM      9  C   UNL     1      25.721  39.340  30.907  1.00  0.00     0.047 A 
ATOM     10  C   UNL     1      26.013  37.977  31.218  1.00  0.00     0.125 A 
ATOM     11  C   UNL     1      26.059  37.609  32.642  1.00  0.00     0.069 A 
ENDROOT
BRANCH   1  12
ATOM     12  C   UNL     1      23.417  41.163  36.432  1.00  0.00    -0.011 A 
ATOM     13  C   UNL     1      22.055  41.635  36.329  1.00  0.00     0.013 A 
ATOM     14  C   UNL     1      21.473  42.396  37.355  1.00  0.00     0.047 A 
ATOM     15  C   UNL     1      22.071  42.467  38.610  1.00  0.00     0.115 A 
ATOM     16  C   UNL     1      23.997  41.279  37.741  1.00  0.00     0.013 A 
ATOM     17  C   UNL     1      23.331  41.923  38.792  1.00  0.00     0.047 A 
BRANCH  15  18
ATOM     18  O   UNL     1      21.446  43.222  39.599  1.00  0.00    -0.508 OA
ATOM     19  H   UNL     1      21.693  44.188  39.715  1.00  0.00     0.293 HD
ENDBRANCH  15  18
ENDBRANCH   1  12
BRANCH  11  20
ATOM     20  C   UNL     1      26.839  36.375  33.118  1.00  0.00     0.188 C 
ATOM     21  C   UNL     1      27.447  36.507  34.611  1.00  0.00     0.179 C 
ATOM     22  O   UNL     1      27.876  35.908  32.170  1.00  0.00    -0.362 OA
ATOM     23  C   UNL     1      28.661  37.435  34.505  1.00  0.00     0.177 C 
ATOM     24  C   UNL     1      29.224  36.483  32.121  1.00  0.00     0.176 C 
ATOM     25  C   UNL     1      29.786  37.031  33.498  1.00  0.00     0.177 C 
BRANCH  21  26
ATOM     26  O   UNL     1      27.591  35.271  35.315  1.00  0.00    -0.387 OA
ATOM     27  H   UNL     1      26.651  34.964  35.589  1.00  0.00     0.211 HD
ENDBRANCH  21  26
BRANCH  23  28
ATOM     28  O   UNL     1      28.165  38.696  34.114  1.00  0.00    -0.387 OA
ATOM     29  H   UNL     1      27.224  38.779  34.480  1.00  0.00     0.211 HD
ENDBRANCH  23  28
BRANCH  24  30
ATOM     30  C   UNL     1      29.490  37.147  30.742  1.00  0.00     0.191 C 
BRANCH  30  31
ATOM     31  O   UNL     1      29.207  38.531  30.763  1.00  0.00    -0.394 OA
ATOM     32  H   UNL     1      30.066  39.048  30.727  1.00  0.00     0.210 HD
ENDBRANCH  30  31
ENDBRANCH  24  30
BRANCH  25  33
ATOM     33  O   UNL     1      30.521  36.016  34.186  1.00  0.00    -0.388 OA
ATOM     34  H   UNL     1      31.497  36.234  33.987  1.00  0.00     0.211 HD
ENDBRANCH  25  33
ENDBRANCH  11  20
BRANCH  10  35
ATOM     35  O   UNL     1      26.347  37.181  30.124  1.00  0.00    -0.507 OA
ATOM     36  H   UNL     1      26.128  36.180  30.067  1.00  0.00     0.293 HD
ENDBRANCH  10  35
TORSDOF 9
ENDMDL
MODEL 2
REMARK VINA RESULT:    -5.606      2.469      8.157
REMARK INTER + INTRA:          -8.296
REMARK INTER:                  -7.562
REMARK INTRA:                  -0.735
REMARK UNBOUND:                -0.724
REMARK SMILES O=c1c(-c2ccc(O)cc2)coc2c([C@H]3O[C@@H](CO)[C@H](O)[C@@H](O)[C@@H]3O)c(O)ccc12
REMARK SMILES IDX 3 1 11 2 12 3 13 4 30 5 2 6 1 7 29 8 28 9 26 10 14 11 4 12
REMARK SMILES IDX 5 13 6 14 7 15 10 16 9 17 8 18 15 20 24 21 16 22 22 23 17 24
REMARK SMILES IDX 20 25 25 26 23 28 18 30 19 31 21 33 27 35
REMARK H PARENT 8 19 25 27 23 29 19 32 21 34 27 36
REMARK Flexibility Score: inf
ROOT
ATOM      1  C   UNL     1      28.818  38.625  30.128  1.00  0.00     0.065 A 
ATOM      2  C   UNL     1      27.663  39.387  29.845  1.00  0.00     0.208 A 
ATOM      3  O   UNL     1      26.456  39.164  30.446  1.00  0.00    -0.463 OA
ATOM      4  C   UNL     1      26.308  38.180  31.310  1.00  0.00     0.147 A 
ATOM      5  C   UNL     1      27.385  37.297  31.577  1.00  0.00     0.066 A 
ATOM      6  C   UNL     1      28.644  37.547  30.995  1.00  0.00     0.200 A 
ATOM      7  O   UNL     1      29.588  36.767  31.309  1.00  0.00    -0.288 OA
ATOM      8  C   UNL     1      27.145  36.179  32.396  1.00  0.00     0.020 A 
ATOM      9  C   UNL     1      25.881  35.752  32.636  1.00  0.00     0.047 A 
ATOM     10  C   UNL     1      24.774  36.643  32.496  1.00  0.00     0.125 A 
ATOM     11  C   UNL     1      25.072  38.023  32.076  1.00  0.00     0.069 A 
ENDROOT
BRANCH   1  12
ATOM     12  C   UNL     1      30.197  39.001  29.478  1.00  0.00    -0.011 A 
ATOM     13  C   UNL     1      30.412  38.879  28.054  1.00  0.00     0.013 A 
ATOM     14  C   UNL     1      31.618  39.290  27.466  1.00  0.00     0.047 A 
ATOM     15  C   UNL     1      32.514  40.089  28.172  1.00  0.00     0.115 A 
ATOM     16  C   UNL     1      31.161  39.816  30.164  1.00  0.00     0.013 A 
ATOM     17  C   UNL     1      32.289  40.335  29.516  1.00  0.00     0.047 A 
BRANCH  15  18
ATOM     18  O   UNL     1      33.690  40.483  27.539  1.00  0.00    -0.508 OA
ATOM     19  H   UNL     1      34.239  39.802  27.047  1.00  0.00     0.293 HD
ENDBRANCH  15  18
ENDBRANCH   1  12
BRANCH  11  20
ATOM     20  C   UNL     1      24.101  39.172  32.381  1.00  0.00     0.188 C 
ATOM     21  C   UNL     1      24.820  40.590  32.679  1.00  0.00     0.179 C 
ATOM     22  O   UNL     1      23.100  38.863  33.427  1.00  0.00    -0.362 OA
ATOM     23  C   UNL     1      25.403  40.492  34.093  1.00  0.00     0.177 C 
ATOM     24  C   UNL     1      23.382  38.998  34.860  1.00  0.00     0.176 C 
ATOM     25  C   UNL     1      24.417  40.133  35.251  1.00  0.00     0.177 C 
BRANCH  21  26
ATOM     26  O   UNL     1      24.047  41.742  32.337  1.00  0.00    -0.387 OA
ATOM     27  H   UNL     1      24.136  42.411  33.111  1.00  0.00     0.211 HD
ENDBRANCH  21  26
BRANCH  23  28
ATOM     28  O   UNL     1      26.396  39.491  34.046  1.00  0.00    -0.387 OA
ATOM     29  H   UNL     1      26.037  38.685  34.543  1.00  0.00     0.211 HD
ENDBRANCH  23  28
BRANCH  24  30
ATOM     30  C   UNL     1      23.282  37.622  35.574  1.00  0.00     0.191 C 
BRANCH  30  31
ATOM     31  O   UNL     1      24.553  37.036  35.763  1.00  0.00    -0.394 OA
ATOM     32  H   UNL     1      24.781  37.042  36.740  1.00  0.00     0.210 HD
ENDBRANCH  30  31
ENDBRANCH  24  30
BRANCH  25  33
ATOM     33  O   UNL     1      23.742  41.362  35.527  1.00  0.00    -0.388 OA
ATOM     34  H   UNL     1      24.238  41.745  36.332  1.00  0.00     0.211 HD
ENDBRANCH  25  33
ENDBRANCH  11  20
BRANCH  10  35
ATOM     35  O   UNL     1      23.545  36.127  32.902  1.00  0.00    -0.507 OA
ATOM     36  H   UNL     1      23.301  35.132  32.831  1.00  0.00     0.293 HD
ENDBRANCH  10  35
TORSDOF 9
ENDMDL
MODEL 3
REMARK VINA RESULT:    -5.384      2.326      8.027
REMARK INTER + INTRA:          -7.997
REMARK INTER:                  -7.237
REMARK INTRA:                  -0.760
REMARK UNBOUND:                -0.724
REMARK SMILES O=c1c(-c2ccc(O)cc2)coc2c([C@H]3O[C@@H](CO)[C@H](O)[C@@H](O)[C@@H]3O)c(O)ccc12
REMARK SMILES IDX 3 1 11 2 12 3 13 4 30 5 2 6 1 7 29 8 28 9 26 10 14 11 4 12
REMARK SMILES IDX 5 13 6 14 7 15 10 16 9 17 8 18 15 20 24 21 16 22 22 23 17 24
REMARK SMILES IDX 20 25 25 26 23 28 18 30 19 31 21 33 27 35
REMARK H PARENT 8 19 25 27 23 29 19 32 21 34 27 36
REMARK Flexibility Score: inf
ROOT
ATOM      1  C   UNL     1      27.100  36.994  32.169  1.00  0.00     0.065 A 
ATOM      2  C   UNL     1      27.001  37.144  33.570  1.00  0.00     0.208 A 
ATOM      3  O   UNL     1      26.270  38.134  34.166  1.00  0.00    -0.463 OA
ATOM      4  C   UNL     1      25.641  39.033  33.437  1.00  0.00     0.147 A 
ATOM      5  C   UNL     1      25.769  39.026  32.024  1.00  0.00     0.066 A 
ATOM      6  C   UNL     1      26.484  37.983  31.402  1.00  0.00     0.200 A 
ATOM      7  O   UNL     1      26.522  37.986  30.138  1.00  0.00    -0.288 OA
ATOM      8  C   UNL     1      25.198  40.084  31.295  1.00  0.00     0.020 A 
ATOM      9  C   UNL     1      24.850  41.242  31.909  1.00  0.00     0.047 A 
ATOM     10  C   UNL     1      24.593  41.272  33.313  1.00  0.00     0.125 A 
ATOM     11  C   UNL     1      24.732  40.003  34.048  1.00  0.00     0.069 A 
ENDROOT
BRANCH   1  12
ATOM     12  C   UNL     1      27.872  35.773  31.553  1.00  0.00    -0.011 A 
ATOM     13  C   UNL     1      29.314  35.699  31.601  1.00  0.00     0.013 A 
ATOM     14  C   UNL     1      29.997  34.570  31.120  1.00  0.00     0.047 A 
ATOM     15  C   UNL     1      29.312  33.385  30.863  1.00  0.00     0.115 A 
ATOM     16  C   UNL     1      27.214  34.530  31.261  1.00  0.00     0.013 A 
ATOM     17  C   UNL     1      27.929  33.375  30.920  1.00  0.00     0.047 A 
BRANCH  15  18
ATOM     18  O   UNL     1      30.037  32.289  30.402  1.00  0.00    -0.508 OA
ATOM     19  H   UNL     1      29.804  31.368  30.728  1.00  0.00     0.293 HD
ENDBRANCH  15  18
ENDBRANCH   1  12
BRANCH  11  20
ATOM     20  C   UNL     1      24.013  39.778  35.385  1.00  0.00     0.188 C 
ATOM     21  C   UNL     1      23.584  38.243  35.661  1.00  0.00     0.179 C 
ATOM     22  O   UNL     1      22.872  40.691  35.625  1.00  0.00    -0.362 OA
ATOM     23  C   UNL     1      22.366  37.967  34.775  1.00  0.00     0.177 C 
ATOM     24  C   UNL     1      21.528  40.437  35.097  1.00  0.00     0.176 C 
ATOM     25  C   UNL     1      21.131  38.910  34.940  1.00  0.00     0.177 C 
BRANCH  21  26
ATOM     26  O   UNL     1      23.524  37.871  37.040  1.00  0.00    -0.387 OA
ATOM     27  H   UNL     1      24.354  38.262  37.498  1.00  0.00     0.211 HD
ENDBRANCH  21  26
BRANCH  23  28
ATOM     28  O   UNL     1      22.812  38.071  33.440  1.00  0.00    -0.387 OA
ATOM     29  H   UNL     1      22.348  38.871  33.027  1.00  0.00     0.211 HD
ENDBRANCH  23  28
BRANCH  24  30
ATOM     30  C   UNL     1      21.102  41.557  34.109  1.00  0.00     0.191 C 
BRANCH  30  31
ATOM     31  O   UNL     1      21.414  42.842  34.607  1.00  0.00    -0.394 OA
ATOM     32  H   UNL     1      22.271  43.161  34.193  1.00  0.00     0.210 HD
ENDBRANCH  30  31
ENDBRANCH  24  30
BRANCH  25  33
ATOM     33  O   UNL     1      20.482  38.430  36.119  1.00  0.00    -0.388 OA
ATOM     34  H   UNL     1      19.709  39.080  36.262  1.00  0.00     0.211 HD
ENDBRANCH  25  33
ENDBRANCH  11  20
BRANCH  10  35
ATOM     35  O   UNL     1      24.112  42.486  33.799  1.00  0.00    -0.507 OA
ATOM     36  H   UNL     1      24.721  43.275  34.047  1.00  0.00     0.293 HD
ENDBRANCH  10  35
TORSDOF 9
ENDMDL
MODEL 4
REMARK VINA RESULT:    -5.296      2.367      8.221
REMARK INTER + INTRA:          -7.878
REMARK INTER:                  -7.251
REMARK INTRA:                  -0.628
REMARK UNBOUND:                -0.724
REMARK SMILES O=c1c(-c2ccc(O)cc2)coc2c([C@H]3O[C@@H](CO)[C@H](O)[C@@H](O)[C@@H]3O)c(O)ccc12
REMARK SMILES IDX 3 1 11 2 12 3 13 4 30 5 2 6 1 7 29 8 28 9 26 10 14 11 4 12
REMARK SMILES IDX 5 13 6 14 7 15 10 16 9 17 8 18 15 20 24 21 16 22 22 23 17 24
REMARK SMILES IDX 20 25 25 26 23 28 18 30 19 31 21 33 27 35
REMARK H PARENT 8 19 25 27 23 29 19 32 21 34 27 36
REMARK Flexibility Score: inf
ROOT
ATOM      1  C   UNL     1      28.471  38.250  30.875  1.00  0.00     0.065 A 
ATOM      2  C   UNL     1      27.286  38.681  30.241  1.00  0.00     0.208 A 
ATOM      3  O   UNL     1      26.058  38.633  30.840  1.00  0.00    -0.463 OA
ATOM      4  C   UNL     1      25.923  38.137  32.053  1.00  0.00     0.147 A 
ATOM      5  C   UNL     1      27.041  37.583  32.727  1.00  0.00     0.066 A 
ATOM      6  C   UNL     1      28.316  37.669  32.134  1.00  0.00     0.200 A 
ATOM      7  O   UNL     1      29.291  37.215  32.798  1.00  0.00    -0.288 OA
ATOM      8  C   UNL     1      26.827  36.939  33.959  1.00  0.00     0.020 A 
ATOM      9  C   UNL     1      25.585  36.541  34.328  1.00  0.00     0.047 A 
ATOM     10  C   UNL     1      24.426  37.156  33.763  1.00  0.00     0.125 A 
ATOM     11  C   UNL     1      24.649  38.219  32.768  1.00  0.00     0.069 A 
ENDROOT
BRANCH   1  12
ATOM     12  C   UNL     1      29.861  38.429  30.168  1.00  0.00    -0.011 A 
ATOM     13  C   UNL     1      30.576  39.684  30.227  1.00  0.00     0.013 A 
ATOM     14  C   UNL     1      31.853  39.817  29.660  1.00  0.00     0.047 A 
ATOM     15  C   UNL     1      32.586  38.690  29.295  1.00  0.00     0.115 A 
ATOM     16  C   UNL     1      30.656  37.303  29.764  1.00  0.00     0.013 A 
ATOM     17  C   UNL     1      31.981  37.446  29.335  1.00  0.00     0.047 A 
BRANCH  15  18
ATOM     18  O   UNL     1      33.855  38.874  28.752  1.00  0.00    -0.508 OA
ATOM     19  H   UNL     1      33.959  38.977  27.758  1.00  0.00     0.293 HD
ENDBRANCH  15  18
ENDBRANCH   1  12
BRANCH  11  20
ATOM     20  C   UNL     1      23.574  39.278  32.485  1.00  0.00     0.188 C 
ATOM     21  C   UNL     1      24.158  40.759  32.199  1.00  0.00     0.179 C 
ATOM     22  O   UNL     1      22.488  39.328  33.490  1.00  0.00    -0.362 OA
ATOM     23  C   UNL     1      24.587  41.326  33.555  1.00  0.00     0.177 C 
ATOM     24  C   UNL     1      22.602  40.080  34.743  1.00  0.00     0.176 C 
ATOM     25  C   UNL     1      23.508  41.380  34.683  1.00  0.00     0.177 C 
BRANCH  21  26
ATOM     26  O   UNL     1      23.349  41.571  31.344  1.00  0.00    -0.387 OA
ATOM     27  H   UNL     1      23.683  41.431  30.384  1.00  0.00     0.211 HD
ENDBRANCH  21  26
BRANCH  23  28
ATOM     28  O   UNL     1      25.646  40.511  34.009  1.00  0.00    -0.387 OA
ATOM     29  H   UNL     1      25.531  40.395  35.009  1.00  0.00     0.211 HD
ENDBRANCH  23  28
BRANCH  24  30
ATOM     30  C   UNL     1      22.519  39.128  35.967  1.00  0.00     0.191 C 
BRANCH  30  31
ATOM     31  O   UNL     1      23.788  38.907  36.547  1.00  0.00    -0.394 OA
ATOM     32  H   UNL     1      24.503  39.129  35.879  1.00  0.00     0.210 HD
ENDBRANCH  30  31
ENDBRANCH  24  30
BRANCH  25  33
ATOM     33  O   UNL     1      22.724  42.530  34.361  1.00  0.00    -0.388 OA
ATOM     34  H   UNL     1      22.165  42.237  33.560  1.00  0.00     0.211 HD
ENDBRANCH  25  33
ENDBRANCH  11  20
BRANCH  10  35
ATOM     35  O   UNL     1      23.215  36.758  34.322  1.00  0.00    -0.507 OA
ATOM     36  H   UNL     1      23.047  35.814  34.691  1.00  0.00     0.293 HD
ENDBRANCH  10  35
TORSDOF 9
ENDMDL
MODEL 5
REMARK VINA RESULT:    -5.221      1.986      2.349
REMARK INTER + INTRA:          -7.776
REMARK INTER:                  -7.000
REMARK INTRA:                  -0.776
REMARK UNBOUND:                -0.724
REMARK SMILES O=c1c(-c2ccc(O)cc2)coc2c([C@H]3O[C@@H](CO)[C@H](O)[C@@H](O)[C@@H]3O)c(O)ccc12
REMARK SMILES IDX 3 1 11 2 12 3 13 4 30 5 2 6 1 7 29 8 28 9 26 10 14 11 4 12
REMARK SMILES IDX 5 13 6 14 7 15 10 16 9 17 8 18 15 20 24 21 16 22 22 23 17 24
REMARK SMILES IDX 20 25 25 26 23 28 18 30 19 31 21 33 27 35
REMARK H PARENT 8 19 25 27 23 29 19 32 21 34 27 36
REMARK Flexibility Score: inf
ROOT
ATOM      1  C   UNL     1      23.937  39.025  34.644  1.00  0.00     0.065 A 
ATOM      2  C   UNL     1      23.552  37.690  34.895  1.00  0.00     0.208 A 
ATOM      3  O   UNL     1      24.060  36.623  34.207  1.00  0.00    -0.463 OA
ATOM      4  C   UNL     1      24.926  36.806  33.231  1.00  0.00     0.147 A 
ATOM      5  C   UNL     1      25.291  38.119  32.836  1.00  0.00     0.066 A 
ATOM      6  C   UNL     1      24.806  39.220  33.570  1.00  0.00     0.200 A 
ATOM      7  O   UNL     1      25.204  40.367  33.217  1.00  0.00    -0.288 OA
ATOM      8  C   UNL     1      26.107  38.273  31.701  1.00  0.00     0.020 A 
ATOM      9  C   UNL     1      26.254  37.263  30.809  1.00  0.00     0.047 A 
ATOM     10  C   UNL     1      26.014  35.909  31.197  1.00  0.00     0.125 A 
ATOM     11  C   UNL     1      25.596  35.675  32.590  1.00  0.00     0.069 A 
ENDROOT
BRANCH   1  12
ATOM     12  C   UNL     1      23.391  40.192  35.540  1.00  0.00    -0.011 A 
ATOM     13  C   UNL     1      21.982  40.511  35.577  1.00  0.00     0.013 A 
ATOM     14  C   UNL     1      21.486  41.503  36.438  1.00  0.00     0.047 A 
ATOM     15  C   UNL     1      22.271  41.992  37.479  1.00  0.00     0.115 A 
ATOM     16  C   UNL     1      24.160  40.740  36.622  1.00  0.00     0.013 A 
ATOM     17  C   UNL     1      23.603  41.621  37.557  1.00  0.00     0.047 A 
BRANCH  15  18
ATOM     18  O   UNL     1      21.729  42.964  38.316  1.00  0.00    -0.508 OA
ATOM     19  H   UNL     1      21.398  43.828  37.924  1.00  0.00     0.293 HD
ENDBRANCH  15  18
ENDBRANCH   1  12
BRANCH  11  20
ATOM     20  C   UNL     1      25.805  34.311  33.261  1.00  0.00     0.188 C 
ATOM     21  C   UNL     1      25.888  34.369  34.875  1.00  0.00     0.179 C 
ATOM     22  O   UNL     1      26.932  33.525  32.707  1.00  0.00    -0.362 OA
ATOM     23  C   UNL     1      27.270  34.931  35.220  1.00  0.00     0.177 C 
ATOM     24  C   UNL     1      28.320  33.717  33.138  1.00  0.00     0.176 C 
ATOM     25  C   UNL     1      28.513  34.180  34.642  1.00  0.00     0.177 C 
BRANCH  21  26
ATOM     26  O   UNL     1      25.445  33.186  35.545  1.00  0.00    -0.387 OA
ATOM     27  H   UNL     1      26.267  32.760  35.989  1.00  0.00     0.211 HD
ENDBRANCH  21  26
BRANCH  23  28
ATOM     28  O   UNL     1      27.297  36.252  34.725  1.00  0.00    -0.387 OA
ATOM     29  H   UNL     1      28.268  36.531  34.657  1.00  0.00     0.211 HD
ENDBRANCH  23  28
BRANCH  24  30
ATOM     30  C   UNL     1      29.204  34.198  31.955  1.00  0.00     0.191 C 
BRANCH  30  31
ATOM     31  O   UNL     1      28.789  33.635  30.728  1.00  0.00    -0.394 OA
ATOM     32  H   UNL     1      29.523  33.734  30.051  1.00  0.00     0.210 HD
ENDBRANCH  30  31
ENDBRANCH  24  30
BRANCH  25  33
ATOM     33  O   UNL     1      28.670  33.051  35.504  1.00  0.00    -0.388 OA
ATOM     34  H   UNL     1      29.608  33.156  35.888  1.00  0.00     0.211 HD
ENDBRANCH  25  33
ENDBRANCH  11  20
BRANCH  10  35
ATOM     35  O   UNL     1      26.331  34.955  30.234  1.00  0.00    -0.507 OA
ATOM     36  H   UNL     1      27.164  35.012  29.635  1.00  0.00     0.293 HD
ENDBRANCH  10  35
TORSDOF 9
ENDMDL
MODEL 6
REMARK VINA RESULT:    -5.218      4.283      8.258
REMARK INTER + INTRA:          -7.772
REMARK INTER:                  -7.035
REMARK INTRA:                  -0.737
REMARK UNBOUND:                -0.724
REMARK SMILES O=c1c(-c2ccc(O)cc2)coc2c([C@H]3O[C@@H](CO)[C@H](O)[C@@H](O)[C@@H]3O)c(O)ccc12
REMARK SMILES IDX 3 1 11 2 12 3 13 4 30 5 2 6 1 7 29 8 28 9 26 10 14 11 4 12
REMARK SMILES IDX 5 13 6 14 7 15 10 16 9 17 8 18 15 20 24 21 16 22 22 23 17 24
REMARK SMILES IDX 20 25 25 26 23 28 18 30 19 31 21 33 27 35
REMARK H PARENT 8 19 25 27 23 29 19 32 21 34 27 36
REMARK Flexibility Score: inf
ROOT
ATOM      1  C   UNL     1      30.726  38.854  30.247  1.00  0.00     0.065 A 
ATOM      2  C   UNL     1      30.902  38.403  31.573  1.00  0.00     0.208 A 
ATOM      3  O   UNL     1      29.876  37.934  32.346  1.00  0.00    -0.463 OA
ATOM      4  C   UNL     1      28.643  37.916  31.883  1.00  0.00     0.147 A 
ATOM      5  C   UNL     1      28.353  38.448  30.600  1.00  0.00     0.066 A 
ATOM      6  C   UNL     1      29.411  38.892  29.783  1.00  0.00     0.200 A 
ATOM      7  O   UNL     1      29.110  39.304  28.626  1.00  0.00    -0.288 OA
ATOM      8  C   UNL     1      27.007  38.540  30.203  1.00  0.00     0.020 A 
ATOM      9  C   UNL     1      26.007  38.464  31.116  1.00  0.00     0.047 A 
ATOM     10  C   UNL     1      26.219  37.828  32.377  1.00  0.00     0.125 A 
ATOM     11  C   UNL     1      27.561  37.278  32.633  1.00  0.00     0.069 A 
ENDROOT
BRANCH   1  12
ATOM     12  C   UNL     1      31.964  39.283  29.382  1.00  0.00    -0.011 A 
ATOM     13  C   UNL     1      32.431  38.466  28.286  1.00  0.00     0.013 A 
ATOM     14  C   UNL     1      33.489  38.890  27.466  1.00  0.00     0.047 A 
ATOM     15  C   UNL     1      33.916  40.215  27.491  1.00  0.00     0.115 A 
ATOM     16  C   UNL     1      32.452  40.634  29.376  1.00  0.00     0.013 A 
ATOM     17  C   UNL     1      33.408  41.073  28.452  1.00  0.00     0.047 A 
BRANCH  15  18
ATOM     18  O   UNL     1      34.958  40.590  26.647  1.00  0.00    -0.508 OA
ATOM     19  H   UNL     1      35.879  40.722  27.026  1.00  0.00     0.293 HD
ENDBRANCH  15  18
ENDBRANCH   1  12
BRANCH  11  20
ATOM     20  C   UNL     1      27.776  36.162  33.664  1.00  0.00     0.188 C 
ATOM     21  C   UNL     1      28.984  35.148  33.306  1.00  0.00     0.179 C 
ATOM     22  O   UNL     1      26.549  35.411  34.015  1.00  0.00    -0.362 OA
ATOM     23  C   UNL     1      28.469  34.236  32.189  1.00  0.00     0.177 C 
ATOM     24  C   UNL     1      26.050  34.289  33.215  1.00  0.00     0.176 C 
ATOM     25  C   UNL     1      27.156  33.435  32.466  1.00  0.00     0.177 C 
BRANCH  21  26
ATOM     26  O   UNL     1      29.625  34.550  34.435  1.00  0.00    -0.387 OA
ATOM     27  H   UNL     1      29.526  33.533  34.340  1.00  0.00     0.211 HD
ENDBRANCH  21  26
BRANCH  23  28
ATOM     28  O   UNL     1      28.239  35.066  31.071  1.00  0.00    -0.387 OA
ATOM     29  H   UNL     1      28.233  36.024  31.402  1.00  0.00     0.211 HD
ENDBRANCH  23  28
BRANCH  24  30
ATOM     30  C   UNL     1      24.648  34.610  32.628  1.00  0.00     0.191 C 
BRANCH  30  31
ATOM     31  O   UNL     1      24.733  35.096  31.304  1.00  0.00    -0.394 OA
ATOM     32  H   UNL     1      25.640  35.497  31.153  1.00  0.00     0.210 HD
ENDBRANCH  30  31
ENDBRANCH  24  30
BRANCH  25  33
ATOM     33  O   UNL     1      27.583  32.336  33.275  1.00  0.00    -0.388 OA
ATOM     34  H   UNL     1      27.004  32.401  34.112  1.00  0.00     0.211 HD
ENDBRANCH  25  33
ENDBRANCH  11  20
BRANCH  10  35
ATOM     35  O   UNL     1      25.081  37.693  33.168  1.00  0.00    -0.507 OA
ATOM     36  H   UNL     1      25.028  38.019  34.141  1.00  0.00     0.293 HD
ENDBRANCH  10  35
TORSDOF 9
ENDMDL
MODEL 7
REMARK VINA RESULT:    -5.153      4.811      6.563
REMARK INTER + INTRA:          -7.684
REMARK INTER:                  -7.185
REMARK INTRA:                  -0.499
REMARK UNBOUND:                -0.724
REMARK SMILES O=c1c(-c2ccc(O)cc2)coc2c([C@H]3O[C@@H](CO)[C@H](O)[C@@H](O)[C@@H]3O)c(O)ccc12
REMARK SMILES IDX 3 1 11 2 12 3 13 4 30 5 2 6 1 7 29 8 28 9 26 10 14 11 4 12
REMARK SMILES IDX 5 13 6 14 7 15 10 16 9 17 8 18 15 20 24 21 16 22 22 23 17 24
REMARK SMILES IDX 20 25 25 26 23 28 18 30 19 31 21 33 27 35
REMARK H PARENT 8 19 25 27 23 29 19 32 21 34 27 36
REMARK Flexibility Score: inf
ROOT
ATOM      1  C   UNL     1      25.675  34.910  32.615  1.00  0.00     0.065 A 
ATOM      2  C   UNL     1      26.576  34.146  31.843  1.00  0.00     0.208 A 
ATOM      3  O   UNL     1      27.916  34.410  31.778  1.00  0.00    -0.463 OA
ATOM      4  C   UNL     1      28.428  35.439  32.423  1.00  0.00     0.147 A 
ATOM      5  C   UNL     1      27.583  36.326  33.138  1.00  0.00     0.066 A 
ATOM      6  C   UNL     1      26.209  36.034  33.246  1.00  0.00     0.200 A 
ATOM      7  O   UNL     1      25.507  36.822  33.942  1.00  0.00    -0.288 OA
ATOM      8  C   UNL     1      28.150  37.488  33.693  1.00  0.00     0.020 A 
ATOM      9  C   UNL     1      29.359  37.937  33.276  1.00  0.00     0.047 A 
ATOM     10  C   UNL     1      30.292  37.050  32.658  1.00  0.00     0.125 A 
ATOM     11  C   UNL     1      29.874  35.648  32.491  1.00  0.00     0.069 A 
ENDROOT
BRANCH   1  12
ATOM     12  C   UNL     1      24.167  34.488  32.726  1.00  0.00    -0.011 A 
ATOM     13  C   UNL     1      23.214  34.839  31.698  1.00  0.00     0.013 A 
ATOM     14  C   UNL     1      21.884  34.394  31.761  1.00  0.00     0.047 A 
ATOM     15  C   UNL     1      21.520  33.374  32.636  1.00  0.00     0.115 A 
ATOM     16  C   UNL     1      23.735  33.449  33.618  1.00  0.00     0.013 A 
ATOM     17  C   UNL     1      22.439  32.919  33.566  1.00  0.00     0.047 A 
BRANCH  15  18
ATOM     18  O   UNL     1      20.192  32.956  32.650  1.00  0.00    -0.508 OA
ATOM     19  H   UNL     1      19.764  32.694  33.520  1.00  0.00     0.293 HD
ENDBRANCH  15  18
ENDBRANCH   1  12
BRANCH  11  20
ATOM     20  C   UNL     1      30.909  34.525  32.338  1.00  0.00     0.188 C 
ATOM     21  C   UNL     1      30.357  33.054  32.721  1.00  0.00     0.179 C 
ATOM     22  O   UNL     1      32.201  34.791  33.012  1.00  0.00    -0.362 OA
ATOM     23  C   UNL     1      30.287  33.000  34.250  1.00  0.00     0.177 C 
ATOM     24  C   UNL     1      32.424  34.519  34.436  1.00  0.00     0.176 C 
ATOM     25  C   UNL     1      31.601  33.305  35.039  1.00  0.00     0.177 C 
BRANCH  21  26
ATOM     26  O   UNL     1      30.987  31.974  32.028  1.00  0.00    -0.387 OA
ATOM     27  H   UNL     1      31.539  31.449  32.716  1.00  0.00     0.211 HD
ENDBRANCH  21  26
BRANCH  23  28
ATOM     28  O   UNL     1      29.320  33.952  34.637  1.00  0.00    -0.387 OA
ATOM     29  H   UNL     1      28.495  33.795  34.072  1.00  0.00     0.211 HD
ENDBRANCH  23  28
BRANCH  24  30
ATOM     30  C   UNL     1      32.737  35.831  35.205  1.00  0.00     0.191 C 
BRANCH  30  31
ATOM     31  O   UNL     1      33.623  35.608  36.283  1.00  0.00    -0.394 OA
ATOM     32  H   UNL     1      33.504  34.672  36.625  1.00  0.00     0.210 HD
ENDBRANCH  30  31
ENDBRANCH  24  30
BRANCH  25  33
ATOM     33  O   UNL     1      32.350  32.092  34.951  1.00  0.00    -0.388 OA
ATOM     34  H   UNL     1      32.416  31.767  35.915  1.00  0.00     0.211 HD
ENDBRANCH  25  33
ENDBRANCH  11  20
BRANCH  10  35
ATOM     35  O   UNL     1      31.546  37.598  32.400  1.00  0.00    -0.507 OA
ATOM     36  H   UNL     1      31.739  38.606  32.437  1.00  0.00     0.293 HD
ENDBRANCH  10  35
TORSDOF 9
ENDMDL
MODEL 8
REMARK VINA RESULT:    -5.124      2.429      8.174
REMARK INTER + INTRA:          -7.646
REMARK INTER:                  -6.942
REMARK INTRA:                  -0.703
REMARK UNBOUND:                -0.724
REMARK SMILES O=c1c(-c2ccc(O)cc2)coc2c([C@H]3O[C@@H](CO)[C@H](O)[C@@H](O)[C@@H]3O)c(O)ccc12
REMARK SMILES IDX 3 1 11 2 12 3 13 4 30 5 2 6 1 7 29 8 28 9 26 10 14 11 4 12
REMARK SMILES IDX 5 13 6 14 7 15 10 16 9 17 8 18 15 20 24 21 16 22 22 23 17 24
REMARK SMILES IDX 20 25 25 26 23 28 18 30 19 31 21 33 27 35
REMARK H PARENT 8 19 25 27 23 29 19 32 21 34 27 36
REMARK Flexibility Score: inf
ROOT
ATOM      1  C   UNL     1      26.453  35.911  32.153  1.00  0.00     0.065 A 
ATOM      2  C   UNL     1      26.133  37.071  31.414  1.00  0.00     0.208 A 
ATOM      3  O   UNL     1      25.094  37.899  31.735  1.00  0.00    -0.463 OA
ATOM      4  C   UNL     1      24.307  37.621  32.754  1.00  0.00     0.147 A 
ATOM      5  C   UNL     1      24.486  36.422  33.490  1.00  0.00     0.066 A 
ATOM      6  C   UNL     1      25.581  35.587  33.192  1.00  0.00     0.200 A 
ATOM      7  O   UNL     1      25.733  34.559  33.912  1.00  0.00    -0.288 OA
ATOM      8  C   UNL     1      23.539  36.095  34.477  1.00  0.00     0.020 A 
ATOM      9  C   UNL     1      22.322  36.694  34.497  1.00  0.00     0.047 A 
ATOM     10  C   UNL     1      22.125  37.962  33.871  1.00  0.00     0.125 A 
ATOM     11  C   UNL     1      23.290  38.571  33.207  1.00  0.00     0.069 A 
ENDROOT
BRANCH   1  12
ATOM     12  C   UNL     1      27.722  35.061  31.789  1.00  0.00    -0.011 A 
ATOM     13  C   UNL     1      27.600  33.740  31.216  1.00  0.00     0.013 A 
ATOM     14  C   UNL     1      28.734  33.015  30.819  1.00  0.00     0.047 A 
ATOM     15  C   UNL     1      29.968  33.648  30.687  1.00  0.00     0.115 A 
ATOM     16  C   UNL     1      29.020  35.660  31.648  1.00  0.00     0.013 A 
ATOM     17  C   UNL     1      30.107  34.957  31.114  1.00  0.00     0.047 A 
BRANCH  15  18
ATOM     18  O   UNL     1      31.060  32.888  30.276  1.00  0.00    -0.508 OA
ATOM     19  H   UNL     1      31.897  33.350  29.968  1.00  0.00     0.293 HD
ENDBRANCH  15  18
ENDBRANCH   1  12
BRANCH  11  20
ATOM     20  C   UNL     1      23.364  40.085  32.967  1.00  0.00     0.188 C 
ATOM     21  C   UNL     1      24.864  40.652  32.751  1.00  0.00     0.179 C 
ATOM     22  O   UNL     1      22.637  40.897  33.969  1.00  0.00    -0.362 OA
ATOM     23  C   UNL     1      25.523  40.676  34.133  1.00  0.00     0.177 C 
ATOM     24  C   UNL     1      23.225  41.283  35.255  1.00  0.00     0.176 C 
ATOM     25  C   UNL     1      24.797  41.483  35.258  1.00  0.00     0.177 C 
BRANCH  21  26
ATOM     26  O   UNL     1      24.955  41.819  31.930  1.00  0.00    -0.387 OA
ATOM     27  H   UNL     1      25.871  42.246  32.107  1.00  0.00     0.211 HD
ENDBRANCH  21  26
BRANCH  23  28
ATOM     28  O   UNL     1      25.612  39.332  34.555  1.00  0.00    -0.387 OA
ATOM     29  H   UNL     1      26.430  38.930  34.114  1.00  0.00     0.211 HD
ENDBRANCH  23  28
BRANCH  24  30
ATOM     30  C   UNL     1      22.419  40.673  36.434  1.00  0.00     0.191 C 
BRANCH  30  31
ATOM     31  O   UNL     1      21.048  40.537  36.118  1.00  0.00    -0.394 OA
ATOM     32  H   UNL     1      20.682  39.719  36.568  1.00  0.00     0.210 HD
ENDBRANCH  30  31
ENDBRANCH  24  30
BRANCH  25  33
ATOM     33  O   UNL     1      25.137  42.843  34.985  1.00  0.00    -0.388 OA
ATOM     34  H   UNL     1      24.542  43.382  35.615  1.00  0.00     0.211 HD
ENDBRANCH  25  33
ENDBRANCH  11  20
BRANCH  10  35
ATOM     35  O   UNL     1      20.872  38.534  34.079  1.00  0.00    -0.507 OA
ATOM     36  H   UNL     1      20.005  37.986  34.139  1.00  0.00     0.293 HD
ENDBRANCH  10  35
TORSDOF 9
ENDMDL
MODEL 9
REMARK VINA RESULT:    -5.119      3.576      8.060
REMARK INTER + INTRA:          -7.639
REMARK INTER:                  -6.887
REMARK INTRA:                  -0.752
REMARK UNBOUND:                -0.724
REMARK SMILES O=c1c(-c2ccc(O)cc2)coc2c([C@H]3O[C@@H](CO)[C@H](O)[C@@H](O)[C@@H]3O)c(O)ccc12
REMARK SMILES IDX 3 1 11 2 12 3 13 4 30 5 2 6 1 7 29 8 28 9 26 10 14 11 4 12
REMARK SMILES IDX 5 13 6 14 7 15 10 16 9 17 8 18 15 20 24 21 16 22 22 23 17 24
REMARK SMILES IDX 20 25 25 26 23 28 18 30 19 31 21 33 27 35
REMARK H PARENT 8 19 25 27 23 29 19 32 21 34 27 36
REMARK Flexibility Score: inf
ROOT
ATOM      1  C   UNL     1      30.941  39.211  30.617  1.00  0.00     0.065 A 
ATOM      2  C   UNL     1      29.676  39.405  30.020  1.00  0.00     0.208 A 
ATOM      3  O   UNL     1      28.624  38.552  30.204  1.00  0.00    -0.463 OA
ATOM      4  C   UNL     1      28.762  37.466  30.937  1.00  0.00     0.147 A 
ATOM      5  C   UNL     1      30.025  37.132  31.490  1.00  0.00     0.066 A 
ATOM      6  C   UNL     1      31.101  38.029  31.341  1.00  0.00     0.200 A 
ATOM      7  O   UNL     1      32.191  37.717  31.901  1.00  0.00    -0.288 OA
ATOM      8  C   UNL     1      30.162  35.895  32.145  1.00  0.00     0.020 A 
ATOM      9  C   UNL     1      29.253  34.907  31.959  1.00  0.00     0.047 A 
ATOM     10  C   UNL     1      27.929  35.209  31.518  1.00  0.00     0.125 A 
ATOM     11  C   UNL     1      27.612  36.625  31.271  1.00  0.00     0.069 A 
ENDROOT
BRANCH   1  12
ATOM     12  C   UNL     1      32.073  40.284  30.447  1.00  0.00    -0.011 A 
ATOM     13  C   UNL     1      32.598  40.618  29.143  1.00  0.00     0.013 A 
ATOM     14  C   UNL     1      33.555  41.633  28.985  1.00  0.00     0.047 A 
ATOM     15  C   UNL     1      33.803  42.537  30.015  1.00  0.00     0.115 A 
ATOM     16  C   UNL     1      32.377  41.236  31.479  1.00  0.00     0.013 A 
ATOM     17  C   UNL     1      33.227  42.326  31.256  1.00  0.00     0.047 A 
BRANCH  15  18
ATOM     18  O   UNL     1      34.750  43.536  29.804  1.00  0.00    -0.508 OA
ATOM     19  H   UNL     1      34.864  44.263  30.488  1.00  0.00     0.293 HD
ENDBRANCH  15  18
ENDBRANCH   1  12
BRANCH  11  20
ATOM     20  C   UNL     1      26.163  37.131  31.305  1.00  0.00     0.188 C 
ATOM     21  C   UNL     1      26.002  38.657  31.817  1.00  0.00     0.179 C 
ATOM     22  O   UNL     1      25.222  36.238  32.019  1.00  0.00    -0.362 OA
ATOM     23  C   UNL     1      26.198  38.629  33.336  1.00  0.00     0.177 C 
ATOM     24  C   UNL     1      25.048  36.269  33.475  1.00  0.00     0.176 C 
ATOM     25  C   UNL     1      25.268  37.682  34.161  1.00  0.00     0.177 C 
BRANCH  21  26
ATOM     26  O   UNL     1      24.873  39.355  31.287  1.00  0.00    -0.387 OA
ATOM     27  H   UNL     1      25.232  40.097  30.676  1.00  0.00     0.211 HD
ENDBRANCH  21  26
BRANCH  23  28
ATOM     28  O   UNL     1      27.531  38.223  33.557  1.00  0.00    -0.387 OA
ATOM     29  H   UNL     1      28.086  39.062  33.681  1.00  0.00     0.211 HD
ENDBRANCH  23  28
BRANCH  24  30
ATOM     30  C   UNL     1      25.464  34.915  34.110  1.00  0.00     0.191 C 
BRANCH  30  31
ATOM     31  O   UNL     1      24.922  33.817  33.406  1.00  0.00    -0.394 OA
ATOM     32  H   UNL     1      25.635  33.402  32.834  1.00  0.00     0.210 HD
ENDBRANCH  30  31
ENDBRANCH  24  30
BRANCH  25  33
ATOM     33  O   UNL     1      24.035  38.398  34.253  1.00  0.00    -0.388 OA
ATOM     34  H   UNL     1      23.323  37.670  34.287  1.00  0.00     0.211 HD
ENDBRANCH  25  33
ENDBRANCH  11  20
BRANCH  10  35
ATOM     35  O   UNL     1      27.053  34.127  31.499  1.00  0.00    -0.507 OA
ATOM     36  H   UNL     1      26.213  34.069  32.088  1.00  0.00     0.293 HD
ENDBRANCH  10  35
TORSDOF 9
ENDMDL
