MODEL 1
REMARK VINA RESULT:    -5.714      0.000      0.000
REMARK INTER + INTRA:         -10.202
REMARK INTER:                  -8.721
REMARK INTRA:                  -1.481
REMARK UNBOUND:                -1.481
REMARK SMILES CC(=O)CCC=C(C)CCC=C(C)CCC=C(C)C
REMARK SMILES IDX 10 1 11 2 12 3 13 4 14 5 15 6 16 7 18 8 17 9 19 10 9 11 7 12
REMARK SMILES IDX 6 13 8 14 5 15 4 16 2 17 3 18 1 19
REMARK H PARENT
REMARK Flexibility Score: inf
ROOT
ATOM      1  C   UNL     1       0.308 -21.065  -4.289  1.00  0.00     0.032 C 
ENDROOT
BRANCH   1   2
ATOM      2  C   UNL     1       0.880 -20.885  -5.676  1.00  0.00    -0.028 C 
ATOM      3  C   UNL     1       0.814 -21.804  -6.667  1.00  0.00    -0.077 C 
ATOM      4  C   UNL     1       0.216 -23.173  -6.452  1.00  0.00     0.039 C 
BRANCH   3   5
ATOM      5  C   UNL     1       1.394 -21.470  -8.024  1.00  0.00     0.034 C 
BRANCH   5   6
ATOM      6  C   UNL     1       2.664 -20.617  -7.906  1.00  0.00     0.032 C 
BRANCH   6   7
ATOM      7  C   UNL     1       3.756 -21.328  -7.143  1.00  0.00    -0.028 C 
ATOM      8  C   UNL     1       5.447 -21.664  -5.393  1.00  0.00     0.039 C 
ATOM      9  C   UNL     1       4.414 -20.810  -6.083  1.00  0.00    -0.080 C 
ATOM     10  C   UNL     1       4.159 -19.405  -5.590  1.00  0.00     0.039 C 
ENDBRANCH   6   7
ENDBRANCH   5   6
ENDBRANCH   3   5
ENDBRANCH   1   2
BRANCH   1  11
ATOM     11  C   UNL     1       0.151 -19.715  -3.580  1.00  0.00     0.034 C 
BRANCH  11  12
ATOM     12  C   UNL     1       1.461 -19.237  -2.989  1.00  0.00    -0.077 C 
ATOM     13  C   UNL     1       1.799 -17.933  -3.113  1.00  0.00    -0.028 C 
ATOM     14  C   UNL     1       2.367 -20.237  -2.310  1.00  0.00     0.039 C 
BRANCH  13  15
ATOM     15  C   UNL     1       3.065 -17.320  -2.563  1.00  0.00     0.035 C 
BRANCH  15  16
ATOM     16  C   UNL     1       2.817 -16.594  -1.234  1.00  0.00     0.079 C 
BRANCH  16  17
ATOM     17  C   UNL     1       2.256 -15.213  -1.453  1.00  0.00     0.130 C 
ATOM     18  O   UNL     1       2.865 -14.417  -2.150  1.00  0.00    -0.300 OA
ATOM     19  C   UNL     1       0.979 -14.786  -0.795  1.00  0.00     0.087 C 
ENDBRANCH  16  17
ENDBRANCH  15  16
ENDBRANCH  13  15
ENDBRANCH  11  12
ENDBRANCH   1  11
TORSDOF 9
ENDMDL
MODEL 2
REMARK VINA RESULT:    -5.675      2.351      4.573
REMARK INTER + INTRA:         -10.141
REMARK INTER:                  -8.304
REMARK INTRA:                  -1.837
REMARK UNBOUND:                -1.481
REMARK SMILES CC(=O)CCC=C(C)CCC=C(C)CCC=C(C)C
REMARK SMILES IDX 10 1 11 2 12 3 13 4 14 5 15 6 16 7 18 8 17 9 19 10 9 11 7 12
REMARK SMILES IDX 6 13 8 14 5 15 4 16 2 17 3 18 1 19
REMARK H PARENT
REMARK Flexibility Score: inf
ROOT
ATOM      1  C   UNL     1       2.557 -20.512  -7.936  1.00  0.00     0.032 C 
ENDROOT
BRANCH   1   2
ATOM      2  C   UNL     1       3.804 -21.275  -7.554  1.00  0.00    -0.028 C 
ATOM      3  C   UNL     1       4.615 -20.965  -6.516  1.00  0.00    -0.077 C 
ATOM      4  C   UNL     1       4.391 -19.741  -5.662  1.00  0.00     0.039 C 
BRANCH   3   5
ATOM      5  C   UNL     1       5.810 -21.847  -6.223  1.00  0.00     0.034 C 
BRANCH   5   6
ATOM      6  C   UNL     1       6.819 -21.839  -7.379  1.00  0.00     0.032 C 
BRANCH   6   7
ATOM      7  C   UNL     1       7.797 -20.693  -7.269  1.00  0.00    -0.028 C 
ATOM      8  C   UNL     1       8.765 -18.488  -7.753  1.00  0.00     0.039 C 
ATOM      9  C   UNL     1       7.745 -19.567  -8.014  1.00  0.00    -0.080 C 
ATOM     10  C   UNL     1       6.716 -19.372  -9.103  1.00  0.00     0.039 C 
ENDBRANCH   6   7
ENDBRANCH   5   6
ENDBRANCH   3   5
ENDBRANCH   1   2
BRANCH   1  11
ATOM     11  C   UNL     1       1.345 -21.447  -8.020  1.00  0.00     0.034 C 
BRANCH  11  12
ATOM     12  C   UNL     1       0.799 -21.783  -6.646  1.00  0.00    -0.077 C 
ATOM     13  C   UNL     1       0.856 -20.846  -5.672  1.00  0.00    -0.028 C 
ATOM     14  C   UNL     1       0.241 -23.164  -6.397  1.00  0.00     0.039 C 
BRANCH  13  15
ATOM     15  C   UNL     1       0.340 -21.040  -4.266  1.00  0.00     0.035 C 
BRANCH  15  16
ATOM     16  C   UNL     1       0.185 -19.705  -3.526  1.00  0.00     0.079 C 
BRANCH  16  17
ATOM     17  C   UNL     1       1.520 -19.057  -3.266  1.00  0.00     0.130 C 
ATOM     18  O   UNL     1       2.338 -19.621  -2.557  1.00  0.00    -0.300 OA
ATOM     19  C   UNL     1       1.845 -17.708  -3.833  1.00  0.00     0.087 C 
ENDBRANCH  16  17
ENDBRANCH  15  16
ENDBRANCH  13  15
ENDBRANCH  11  12
ENDBRANCH   1  11
TORSDOF 9
ENDMDL
MODEL 3
REMARK VINA RESULT:    -5.644      3.893      6.445
REMARK INTER + INTRA:         -10.095
REMARK INTER:                  -7.970
REMARK INTRA:                  -2.124
REMARK UNBOUND:                -1.481
REMARK SMILES CC(=O)CCC=C(C)CCC=C(C)CCC=C(C)C
REMARK SMILES IDX 10 1 11 2 12 3 13 4 14 5 15 6 16 7 18 8 17 9 19 10 9 11 7 12
REMARK SMILES IDX 6 13 8 14 5 15 4 16 2 17 3 18 1 19
REMARK H PARENT
REMARK Flexibility Score: inf
ROOT
ATOM      1  C   UNL     1       4.537 -20.846  -4.465  1.00  0.00     0.032 C 
ENDROOT
BRANCH   1   2
ATOM      2  C   UNL     1       3.992 -21.121  -5.848  1.00  0.00    -0.028 C 
ATOM      3  C   UNL     1       3.474 -20.186  -6.677  1.00  0.00    -0.077 C 
ATOM      4  C   UNL     1       3.307 -18.746  -6.256  1.00  0.00     0.039 C 
BRANCH   3   5
ATOM      5  C   UNL     1       3.004 -20.600  -8.055  1.00  0.00     0.034 C 
BRANCH   5   6
ATOM      6  C   UNL     1       1.479 -20.758  -8.113  1.00  0.00     0.032 C 
BRANCH   6   7
ATOM      7  C   UNL     1       1.037 -22.149  -7.725  1.00  0.00    -0.028 C 
ATOM      8  C   UNL     1       0.048 -23.899  -6.313  1.00  0.00     0.039 C 
ATOM      9  C   UNL     1       0.486 -22.474  -6.535  1.00  0.00    -0.080 C 
ATOM     10  C   UNL     1       0.318 -21.462  -5.426  1.00  0.00     0.039 C 
ENDBRANCH   6   7
ENDBRANCH   5   6
ENDBRANCH   3   5
ENDBRANCH   1   2
BRANCH   1  11
ATOM     11  C   UNL     1       5.980 -21.346  -4.333  1.00  0.00     0.034 C 
BRANCH  11  12
ATOM     12  C   UNL     1       6.897 -20.684  -5.341  1.00  0.00    -0.077 C 
ATOM     13  C   UNL     1       7.514 -21.450  -6.269  1.00  0.00    -0.028 C 
ATOM     14  C   UNL     1       7.122 -19.193  -5.257  1.00  0.00     0.039 C 
BRANCH  13  15
ATOM     15  C   UNL     1       8.440 -20.922  -7.338  1.00  0.00     0.035 C 
BRANCH  15  16
ATOM     16  C   UNL     1       7.736 -20.803  -8.696  1.00  0.00     0.079 C 
BRANCH  16  17
ATOM     17  C   UNL     1       7.490 -19.365  -9.069  1.00  0.00     0.130 C 
ATOM     18  O   UNL     1       8.384 -18.714  -9.589  1.00  0.00    -0.300 OA
ATOM     19  C   UNL     1       6.177 -18.706  -8.777  1.00  0.00     0.087 C 
ENDBRANCH  16  17
ENDBRANCH  15  16
ENDBRANCH  13  15
ENDBRANCH  11  12
ENDBRANCH   1  11
TORSDOF 9
ENDMDL
MODEL 4
REMARK VINA RESULT:    -5.565      2.635      6.115
REMARK INTER + INTRA:          -9.973
REMARK INTER:                  -8.173
REMARK INTRA:                  -1.800
REMARK UNBOUND:                -1.481
REMARK SMILES CC(=O)CCC=C(C)CCC=C(C)CCC=C(C)C
REMARK SMILES IDX 10 1 11 2 12 3 13 4 14 5 15 6 16 7 18 8 17 9 19 10 9 11 7 12
REMARK SMILES IDX 6 13 8 14 5 15 4 16 2 17 3 18 1 19
REMARK H PARENT
REMARK Flexibility Score: inf
ROOT
ATOM      1  C   UNL     1       3.624 -18.471  -2.216  1.00  0.00     0.032 C 
ENDROOT
BRANCH   1   2
ATOM      2  C   UNL     1       2.376 -19.244  -2.575  1.00  0.00    -0.028 C 
ATOM      3  C   UNL     1       1.366 -18.772  -3.342  1.00  0.00    -0.077 C 
ATOM      4  C   UNL     1       1.348 -17.355  -3.860  1.00  0.00     0.039 C 
BRANCH   3   5
ATOM      5  C   UNL     1       0.193 -19.676  -3.657  1.00  0.00     0.034 C 
BRANCH   5   6
ATOM      6  C   UNL     1       0.636 -20.947  -4.393  1.00  0.00     0.032 C 
BRANCH   6   7
ATOM      7  C   UNL     1       1.246 -20.640  -5.740  1.00  0.00    -0.028 C 
ATOM      8  C   UNL     1       1.794 -20.984  -8.110  1.00  0.00     0.039 C 
ATOM      9  C   UNL     1       1.179 -21.454  -6.816  1.00  0.00    -0.080 C 
ATOM     10  C   UNL     1       0.529 -22.816  -6.752  1.00  0.00     0.039 C 
ENDBRANCH   6   7
ENDBRANCH   5   6
ENDBRANCH   3   5
ENDBRANCH   1   2
BRANCH   1  11
ATOM     11  C   UNL     1       4.645 -18.514  -3.360  1.00  0.00     0.034 C 
BRANCH  11  12
ATOM     12  C   UNL     1       4.952 -19.935  -3.784  1.00  0.00    -0.077 C 
ATOM     13  C   UNL     1       4.618 -20.334  -5.033  1.00  0.00    -0.028 C 
ATOM     14  C   UNL     1       5.591 -20.875  -2.789  1.00  0.00     0.039 C 
BRANCH  13  15
ATOM     15  C   UNL     1       4.877 -21.713  -5.589  1.00  0.00     0.035 C 
BRANCH  15  16
ATOM     16  C   UNL     1       5.447 -21.656  -7.013  1.00  0.00     0.079 C 
BRANCH  16  17
ATOM     17  C   UNL     1       6.941 -21.848  -7.021  1.00  0.00     0.130 C 
ATOM     18  O   UNL     1       7.610 -21.419  -6.094  1.00  0.00    -0.300 OA
ATOM     19  C   UNL     1       7.626 -22.522  -8.171  1.00  0.00     0.087 C 
ENDBRANCH  16  17
ENDBRANCH  15  16
ENDBRANCH  13  15
ENDBRANCH  11  12
ENDBRANCH   1  11
TORSDOF 9
ENDMDL
MODEL 5
REMARK VINA RESULT:    -5.532      2.076      2.653
REMARK INTER + INTRA:          -9.924
REMARK INTER:                  -7.842
REMARK INTRA:                  -2.082
REMARK UNBOUND:                -1.481
REMARK SMILES CC(=O)CCC=C(C)CCC=C(C)CCC=C(C)C
REMARK SMILES IDX 10 1 11 2 12 3 13 4 14 5 15 6 16 7 18 8 17 9 19 10 9 11 7 12
REMARK SMILES IDX 6 13 8 14 5 15 4 16 2 17 3 18 1 19
REMARK H PARENT
REMARK Flexibility Score: inf
ROOT
ATOM      1  C   UNL     1       0.244 -21.004  -4.501  1.00  0.00     0.032 C 
ENDROOT
BRANCH   1   2
ATOM      2  C   UNL     1       1.205 -20.714  -5.631  1.00  0.00    -0.028 C 
ATOM      3  C   UNL     1       1.324 -21.456  -6.756  1.00  0.00    -0.077 C 
ATOM      4  C   UNL     1       0.544 -22.731  -6.962  1.00  0.00     0.039 C 
BRANCH   3   5
ATOM      5  C   UNL     1       2.301 -21.020  -7.827  1.00  0.00     0.034 C 
BRANCH   5   6
ATOM      6  C   UNL     1       3.262 -19.939  -7.316  1.00  0.00     0.032 C 
BRANCH   6   7
ATOM      7  C   UNL     1       4.706 -20.369  -7.417  1.00  0.00    -0.028 C 
ATOM      8  C   UNL     1       6.785 -21.497  -6.753  1.00  0.00     0.039 C 
ATOM      9  C   UNL     1       5.355 -21.101  -6.485  1.00  0.00    -0.080 C 
ATOM     10  C   UNL     1       4.700 -21.510  -5.188  1.00  0.00     0.039 C 
ENDBRANCH   6   7
ENDBRANCH   5   6
ENDBRANCH   3   5
ENDBRANCH   1   2
BRANCH   1  11
ATOM     11  C   UNL     1       0.179 -19.828  -3.520  1.00  0.00     0.034 C 
BRANCH  11  12
ATOM     12  C   UNL     1       1.561 -19.359  -3.114  1.00  0.00    -0.077 C 
ATOM     13  C   UNL     1       2.017 -18.176  -3.585  1.00  0.00    -0.028 C 
ATOM     14  C   UNL     1       2.402 -20.244  -2.224  1.00  0.00     0.039 C 
BRANCH  13  15
ATOM     15  C   UNL     1       3.366 -17.585  -3.252  1.00  0.00     0.035 C 
BRANCH  15  16
ATOM     16  C   UNL     1       4.407 -17.892  -4.337  1.00  0.00     0.079 C 
BRANCH  16  17
ATOM     17  C   UNL     1       5.720 -18.323  -3.739  1.00  0.00     0.130 C 
ATOM     18  O   UNL     1       6.716 -18.379  -4.444  1.00  0.00    -0.300 OA
ATOM     19  C   UNL     1       5.817 -18.725  -2.298  1.00  0.00     0.087 C 
ENDBRANCH  16  17
ENDBRANCH  15  16
ENDBRANCH  13  15
ENDBRANCH  11  12
ENDBRANCH   1  11
TORSDOF 9
ENDMDL
MODEL 6
REMARK VINA RESULT:    -5.516      2.488      5.738
REMARK INTER + INTRA:          -9.898
REMARK INTER:                  -7.633
REMARK INTRA:                  -2.266
REMARK UNBOUND:                -1.481
REMARK SMILES CC(=O)CCC=C(C)CCC=C(C)CCC=C(C)C
REMARK SMILES IDX 10 1 11 2 12 3 13 4 14 5 15 6 16 7 18 8 17 9 19 10 9 11 7 12
REMARK SMILES IDX 6 13 8 14 5 15 4 16 2 17 3 18 1 19
REMARK H PARENT
REMARK Flexibility Score: inf
ROOT
ATOM      1  C   UNL     1       2.828 -16.856  -4.130  1.00  0.00     0.032 C 
ENDROOT
BRANCH   1   2
ATOM      2  C   UNL     1       1.622 -17.766  -4.115  1.00  0.00    -0.028 C 
ATOM      3  C   UNL     1       1.617 -19.037  -3.649  1.00  0.00    -0.077 C 
ATOM      4  C   UNL     1       2.872 -19.717  -3.161  1.00  0.00     0.039 C 
BRANCH   3   5
ATOM      5  C   UNL     1       0.321 -19.820  -3.656  1.00  0.00     0.034 C 
BRANCH   5   6
ATOM      6  C   UNL     1       0.431 -21.093  -4.505  1.00  0.00     0.032 C 
BRANCH   6   7
ATOM      7  C   UNL     1       0.894 -20.799  -5.911  1.00  0.00    -0.028 C 
ATOM      8  C   UNL     1       1.307 -21.226  -8.295  1.00  0.00     0.039 C 
ATOM      9  C   UNL     1       0.856 -21.684  -6.932  1.00  0.00    -0.080 C 
ATOM     10  C   UNL     1       0.397 -23.111  -6.740  1.00  0.00     0.039 C 
ENDBRANCH   6   7
ENDBRANCH   5   6
ENDBRANCH   3   5
ENDBRANCH   1   2
BRANCH   1  11
ATOM     11  C   UNL     1       3.334 -16.637  -5.561  1.00  0.00     0.034 C 
BRANCH  11  12
ATOM     12  C   UNL     1       4.259 -17.752  -6.005  1.00  0.00    -0.077 C 
ATOM     13  C   UNL     1       3.756 -18.764  -6.749  1.00  0.00    -0.028 C 
ATOM     14  C   UNL     1       5.706 -17.719  -5.573  1.00  0.00     0.039 C 
BRANCH  13  15
ATOM     15  C   UNL     1       4.565 -19.929  -7.269  1.00  0.00     0.035 C 
BRANCH  15  16
ATOM     16  C   UNL     1       4.543 -21.116  -6.297  1.00  0.00     0.079 C 
BRANCH  16  17
ATOM     17  C   UNL     1       5.915 -21.410  -5.750  1.00  0.00     0.130 C 
ATOM     18  O   UNL     1       6.057 -21.622  -4.556  1.00  0.00    -0.300 OA
ATOM     19  C   UNL     1       7.118 -21.409  -6.643  1.00  0.00     0.087 C 
ENDBRANCH  16  17
ENDBRANCH  15  16
ENDBRANCH  13  15
ENDBRANCH  11  12
ENDBRANCH   1  11
TORSDOF 9
ENDMDL
MODEL 7
REMARK VINA RESULT:    -5.487      2.541      3.450
REMARK INTER + INTRA:          -9.854
REMARK INTER:                  -7.583
REMARK INTRA:                  -2.272
REMARK UNBOUND:                -1.481
REMARK SMILES CC(=O)CCC=C(C)CCC=C(C)CCC=C(C)C
REMARK SMILES IDX 10 1 11 2 12 3 13 4 14 5 15 6 16 7 18 8 17 9 19 10 9 11 7 12
REMARK SMILES IDX 6 13 8 14 5 15 4 16 2 17 3 18 1 19
REMARK H PARENT
REMARK Flexibility Score: inf
ROOT
ATOM      1  C   UNL     1       0.503 -19.935  -3.276  1.00  0.00     0.032 C 
ENDROOT
BRANCH   1   2
ATOM      2  C   UNL     1       0.614 -20.689  -4.581  1.00  0.00    -0.028 C 
ATOM      3  C   UNL     1       1.147 -20.191  -5.721  1.00  0.00    -0.077 C 
ATOM      4  C   UNL     1       1.620 -18.762  -5.827  1.00  0.00     0.039 C 
BRANCH   3   5
ATOM      5  C   UNL     1       1.233 -21.078  -6.945  1.00  0.00     0.034 C 
BRANCH   5   6
ATOM      6  C   UNL     1       2.478 -20.768  -7.786  1.00  0.00     0.032 C 
BRANCH   6   7
ATOM      7  C   UNL     1       3.725 -21.393  -7.206  1.00  0.00    -0.028 C 
ATOM      8  C   UNL     1       6.016 -21.478  -6.324  1.00  0.00     0.039 C 
ATOM      9  C   UNL     1       4.871 -20.725  -6.953  1.00  0.00    -0.080 C 
ATOM     10  C   UNL     1       5.042 -19.264  -7.299  1.00  0.00     0.039 C 
ENDBRANCH   6   7
ENDBRANCH   5   6
ENDBRANCH   3   5
ENDBRANCH   1   2
BRANCH   1  11
ATOM     11  C   UNL     1       1.586 -20.385  -2.288  1.00  0.00     0.034 C 
BRANCH  11  12
ATOM     12  C   UNL     1       2.865 -19.591  -2.458  1.00  0.00    -0.077 C 
ATOM     13  C   UNL     1       3.917 -20.169  -3.081  1.00  0.00    -0.028 C 
ATOM     14  C   UNL     1       2.938 -18.191  -1.897  1.00  0.00     0.039 C 
BRANCH  13  15
ATOM     15  C   UNL     1       5.244 -19.492  -3.329  1.00  0.00     0.035 C 
BRANCH  15  16
ATOM     16  C   UNL     1       6.380 -20.157  -2.542  1.00  0.00     0.079 C 
BRANCH  16  17
ATOM     17  C   UNL     1       6.911 -19.253  -1.461  1.00  0.00     0.130 C 
ATOM     18  O   UNL     1       7.588 -19.721  -0.560  1.00  0.00    -0.300 OA
ATOM     19  C   UNL     1       6.587 -17.789  -1.452  1.00  0.00     0.087 C 
ENDBRANCH  16  17
ENDBRANCH  15  16
ENDBRANCH  13  15
ENDBRANCH  11  12
ENDBRANCH   1  11
TORSDOF 9
ENDMDL
MODEL 8
REMARK VINA RESULT:    -5.428      2.421      5.154
REMARK INTER + INTRA:          -9.764
REMARK INTER:                  -7.876
REMARK INTRA:                  -1.888
REMARK UNBOUND:                -1.481
REMARK SMILES CC(=O)CCC=C(C)CCC=C(C)CCC=C(C)C
REMARK SMILES IDX 10 1 11 2 12 3 13 4 14 5 15 6 16 7 18 8 17 9 19 10 9 11 7 12
REMARK SMILES IDX 6 13 8 14 5 15 4 16 2 17 3 18 1 19
REMARK H PARENT
REMARK Flexibility Score: inf
ROOT
ATOM      1  C   UNL     1       0.033 -21.536  -5.481  1.00  0.00     0.032 C 
ENDROOT
BRANCH   1   2
ATOM      2  C   UNL     1       0.875 -20.380  -4.990  1.00  0.00    -0.028 C 
ATOM      3  C   UNL     1       1.108 -20.089  -3.690  1.00  0.00    -0.077 C 
ATOM      4  C   UNL     1       0.463 -20.864  -2.566  1.00  0.00     0.039 C 
BRANCH   3   5
ATOM      5  C   UNL     1       2.009 -18.923  -3.344  1.00  0.00     0.034 C 
BRANCH   5   6
ATOM      6  C   UNL     1       3.254 -19.375  -2.569  1.00  0.00     0.032 C 
BRANCH   6   7
ATOM      7  C   UNL     1       4.071 -20.381  -3.344  1.00  0.00    -0.028 C 
ATOM      8  C   UNL     1       6.044 -21.301  -4.482  1.00  0.00     0.039 C 
ATOM      9  C   UNL     1       5.340 -20.179  -3.761  1.00  0.00    -0.080 C 
ATOM     10  C   UNL     1       6.056 -18.867  -3.545  1.00  0.00     0.039 C 
ENDBRANCH   6   7
ENDBRANCH   5   6
ENDBRANCH   3   5
ENDBRANCH   1   2
BRANCH   1  11
ATOM     11  C   UNL     1       0.794 -22.366  -6.522  1.00  0.00     0.034 C 
BRANCH  11  12
ATOM     12  C   UNL     1       1.744 -21.511  -7.335  1.00  0.00    -0.077 C 
ATOM     13  C   UNL     1       2.989 -21.281  -6.859  1.00  0.00    -0.028 C 
ATOM     14  C   UNL     1       1.262 -20.912  -8.634  1.00  0.00     0.039 C 
BRANCH  13  15
ATOM     15  C   UNL     1       4.040 -20.460  -7.568  1.00  0.00     0.035 C 
BRANCH  15  16
ATOM     16  C   UNL     1       4.145 -19.044  -6.989  1.00  0.00     0.079 C 
BRANCH  16  17
ATOM     17  C   UNL     1       5.523 -18.467  -7.181  1.00  0.00     0.130 C 
ATOM     18  O   UNL     1       5.740 -17.305  -6.874  1.00  0.00    -0.300 OA
ATOM     19  C   UNL     1       6.625 -19.285  -7.781  1.00  0.00     0.087 C 
ENDBRANCH  16  17
ENDBRANCH  15  16
ENDBRANCH  13  15
ENDBRANCH  11  12
ENDBRANCH   1  11
TORSDOF 9
ENDMDL
MODEL 9
REMARK VINA RESULT:    -5.253     11.370     14.453
REMARK INTER + INTRA:          -9.498
REMARK INTER:                  -7.710
REMARK INTRA:                  -1.788
REMARK UNBOUND:                -1.481
REMARK SMILES CC(=O)CCC=C(C)CCC=C(C)CCC=C(C)C
REMARK SMILES IDX 10 1 11 2 12 3 13 4 14 5 15 6 16 7 18 8 17 9 19 10 9 11 7 12
REMARK SMILES IDX 6 13 8 14 5 15 4 16 2 17 3 18 1 19
REMARK H PARENT
REMARK Flexibility Score: inf
ROOT
ATOM      1  C   UNL     1      -5.571 -27.070  -3.386  1.00  0.00     0.032 C 
ENDROOT
BRANCH   1   2
ATOM      2  C   UNL     1      -6.487 -26.502  -2.326  1.00  0.00    -0.028 C 
ATOM      3  C   UNL     1      -7.818 -26.306  -2.477  1.00  0.00    -0.077 C 
ATOM      4  C   UNL     1      -8.523 -26.564  -3.787  1.00  0.00     0.039 C 
BRANCH   3   5
ATOM      5  C   UNL     1      -8.621 -25.769  -1.312  1.00  0.00     0.034 C 
BRANCH   5   6
ATOM      6  C   UNL     1      -9.642 -24.716  -1.763  1.00  0.00     0.032 C 
BRANCH   6   7
ATOM      7  C   UNL     1      -9.737 -23.565  -0.789  1.00  0.00    -0.028 C 
ATOM      8  C   UNL     1      -9.113 -21.439   0.271  1.00  0.00     0.039 C 
ATOM      9  C   UNL     1      -8.855 -22.543  -0.722  1.00  0.00    -0.080 C 
ATOM     10  C   UNL     1      -7.621 -22.491  -1.591  1.00  0.00     0.039 C 
ENDBRANCH   6   7
ENDBRANCH   5   6
ENDBRANCH   3   5
ENDBRANCH   1   2
BRANCH   1  11
ATOM     11  C   UNL     1      -5.140 -28.498  -3.031  1.00  0.00     0.034 C 
BRANCH  11  12
ATOM     12  C   UNL     1      -6.326 -29.436  -2.947  1.00  0.00    -0.077 C 
ATOM     13  C   UNL     1      -6.787 -29.802  -1.729  1.00  0.00    -0.028 C 
ATOM     14  C   UNL     1      -6.935 -29.964  -4.224  1.00  0.00     0.039 C 
BRANCH  13  15
ATOM     15  C   UNL     1      -7.965 -30.718  -1.498  1.00  0.00     0.035 C 
BRANCH  15  16
ATOM     16  C   UNL     1      -8.939 -30.144  -0.461  1.00  0.00     0.079 C 
BRANCH  16  17
ATOM     17  C   UNL     1     -10.024 -29.327  -1.111  1.00  0.00     0.130 C 
ATOM     18  O   UNL     1     -10.636 -28.501  -0.452  1.00  0.00    -0.300 OA
ATOM     19  C   UNL     1     -10.394 -29.540  -2.548  1.00  0.00     0.087 C 
ENDBRANCH  16  17
ENDBRANCH  15  16
ENDBRANCH  13  15
ENDBRANCH  11  12
ENDBRANCH   1  11
TORSDOF 9
ENDMDL
