MODEL 1
REMARK VINA RESULT:    -4.338      0.000      0.000
REMARK INTER + INTRA:          -5.959
REMARK INTER:                  -5.606
REMARK INTRA:                  -0.353
REMARK UNBOUND:                -0.353
REMARK SMILES C=CC(=O)CCCCC
REMARK SMILES IDX 6 1 7 2 8 3 9 4 5 5 3 6 4 7 2 8 1 9
REMARK H PARENT
REMARK Flexibility Score: inf
ROOT
ATOM      1  C   UNL     1      73.469  74.449  75.011  1.00  0.00     0.008 C 
ENDROOT
BRANCH   1   2
ATOM      2  C   UNL     1      74.841  73.842  75.341  1.00  0.00     0.000 C 
BRANCH   2   3
ATOM      3  C   UNL     1      75.614  74.663  76.385  1.00  0.00    -0.003 C 
ATOM      4  C   UNL     1      75.207  74.328  77.820  1.00  0.00     0.004 C 
ENDBRANCH   2   3
ENDBRANCH   1   2
BRANCH   1   5
ATOM      5  C   UNL     1      73.526  75.255  73.704  1.00  0.00     0.080 C 
BRANCH   5   6
ATOM      6  C   UNL     1      73.893  74.412  72.504  1.00  0.00     0.155 C 
ATOM      7  O   UNL     1      73.102  73.523  72.089  1.00  0.00    -0.295 OA
BRANCH   6   8
ATOM      8  C   UNL     1      75.173  74.594  71.788  1.00  0.00     0.039 C 
ATOM      9  C   UNL     1      76.194  75.301  72.270  1.00  0.00     0.012 C 
ENDBRANCH   6   8
ENDBRANCH   5   6
ENDBRANCH   1   5
TORSDOF 5
ENDMDL
MODEL 2
REMARK VINA RESULT:    -4.268      2.006      4.470
REMARK INTER + INTRA:          -5.869
REMARK INTER:                  -5.882
REMARK INTRA:                   0.013
REMARK UNBOUND:                -0.353
REMARK SMILES C=CC(=O)CCCCC
REMARK SMILES IDX 6 1 7 2 8 3 9 4 5 5 3 6 4 7 2 8 1 9
REMARK H PARENT
REMARK Flexibility Score: inf
ROOT
ATOM      1  C   UNL     1      76.113  74.906  72.795  1.00  0.00     0.008 C 
ENDROOT
BRANCH   1   2
ATOM      2  C   UNL     1      74.878  75.473  72.080  1.00  0.00     0.000 C 
BRANCH   2   3
ATOM      3  C   UNL     1      73.562  75.065  72.763  1.00  0.00    -0.003 C 
ATOM      4  C   UNL     1      72.850  73.923  72.038  1.00  0.00     0.004 C 
ENDBRANCH   2   3
ENDBRANCH   1   2
BRANCH   1   5
ATOM      5  C   UNL     1      75.703  73.983  73.952  1.00  0.00     0.080 C 
BRANCH   5   6
ATOM      6  C   UNL     1      75.693  74.683  75.292  1.00  0.00     0.155 C 
ATOM      7  O   UNL     1      76.449  75.671  75.495  1.00  0.00    -0.295 OA
BRANCH   6   8
ATOM      8  C   UNL     1      74.816  74.240  76.395  1.00  0.00     0.039 C 
ATOM      9  C   UNL     1      75.176  74.258  77.678  1.00  0.00     0.012 C 
ENDBRANCH   6   8
ENDBRANCH   5   6
ENDBRANCH   1   5
TORSDOF 5
ENDMDL
MODEL 3
REMARK VINA RESULT:    -3.993      1.951      3.882
REMARK INTER + INTRA:          -5.513
REMARK INTER:                  -5.104
REMARK INTRA:                  -0.409
REMARK UNBOUND:                -0.353
REMARK SMILES C=CC(=O)CCCCC
REMARK SMILES IDX 6 1 7 2 8 3 9 4 5 5 3 6 4 7 2 8 1 9
REMARK H PARENT
REMARK Flexibility Score: inf
ROOT
ATOM      1  C   UNL     1      73.498  74.996  73.757  1.00  0.00     0.008 C 
ENDROOT
BRANCH   1   2
ATOM      2  C   UNL     1      73.621  74.137  72.490  1.00  0.00     0.000 C 
BRANCH   2   3
ATOM      3  C   UNL     1      74.973  74.319  71.782  1.00  0.00    -0.003 C 
ATOM      4  C   UNL     1      75.564  75.714  71.987  1.00  0.00     0.004 C 
ENDBRANCH   2   3
ENDBRANCH   1   2
BRANCH   1   5
ATOM      5  C   UNL     1      73.408  74.114  75.012  1.00  0.00     0.080 C 
BRANCH   5   6
ATOM      6  C   UNL     1      74.666  74.147  75.850  1.00  0.00     0.155 C 
ATOM      7  O   UNL     1      74.623  73.833  77.070  1.00  0.00    -0.295 OA
BRANCH   6   8
ATOM      8  C   UNL     1      75.970  74.545  75.280  1.00  0.00     0.039 C 
ATOM      9  C   UNL     1      76.593  75.682  75.587  1.00  0.00     0.012 C 
ENDBRANCH   6   8
ENDBRANCH   5   6
ENDBRANCH   1   5
TORSDOF 5
ENDMDL
MODEL 4
REMARK VINA RESULT:    -3.725      1.535      2.411
REMARK INTER + INTRA:          -5.167
REMARK INTER:                  -4.862
REMARK INTRA:                  -0.305
REMARK UNBOUND:                -0.353
REMARK SMILES C=CC(=O)CCCCC
REMARK SMILES IDX 6 1 7 2 8 3 9 4 5 5 3 6 4 7 2 8 1 9
REMARK H PARENT
REMARK Flexibility Score: inf
ROOT
ATOM      1  C   UNL     1      76.076  74.139  73.939  1.00  0.00     0.008 C 
ENDROOT
BRANCH   1   2
ATOM      2  C   UNL     1      75.807  75.007  75.177  1.00  0.00     0.000 C 
BRANCH   2   3
ATOM      3  C   UNL     1      74.992  74.267  76.250  1.00  0.00    -0.003 C 
ATOM      4  C   UNL     1      73.576  73.927  75.787  1.00  0.00     0.004 C 
ENDBRANCH   2   3
ENDBRANCH   1   2
BRANCH   1   5
ATOM      5  C   UNL     1      75.688  74.882  72.651  1.00  0.00     0.080 C 
BRANCH   5   6
ATOM      6  C   UNL     1      74.234  75.299  72.625  1.00  0.00     0.155 C 
ATOM      7  O   UNL     1      73.917  76.502  72.828  1.00  0.00    -0.295 OA
BRANCH   6   8
ATOM      8  C   UNL     1      73.151  74.327  72.367  1.00  0.00     0.039 C 
ATOM      9  C   UNL     1      73.350  73.127  71.825  1.00  0.00     0.012 C 
ENDBRANCH   6   8
ENDBRANCH   5   6
ENDBRANCH   1   5
TORSDOF 5
ENDMDL
MODEL 5
REMARK VINA RESULT:    -3.636      1.737      2.255
REMARK INTER + INTRA:          -5.052
REMARK INTER:                  -4.879
REMARK INTRA:                  -0.173
REMARK UNBOUND:                -0.353
REMARK SMILES C=CC(=O)CCCCC
REMARK SMILES IDX 6 1 7 2 8 3 9 4 5 5 3 6 4 7 2 8 1 9
REMARK H PARENT
REMARK Flexibility Score: inf
ROOT
ATOM      1  C   UNL     1      75.966  75.304  74.780  1.00  0.00     0.008 C 
ENDROOT
BRANCH   1   2
ATOM      2  C   UNL     1      76.139  75.067  76.287  1.00  0.00     0.000 C 
BRANCH   2   3
ATOM      3  C   UNL     1      74.970  74.278  76.899  1.00  0.00    -0.003 C 
ATOM      4  C   UNL     1      74.957  74.328  78.427  1.00  0.00     0.004 C 
ENDBRANCH   2   3
ENDBRANCH   1   2
BRANCH   1   5
ATOM      5  C   UNL     1      75.802  73.973  74.030  1.00  0.00     0.080 C 
BRANCH   5   6
ATOM      6  C   UNL     1      75.306  74.149  72.613  1.00  0.00     0.155 C 
ATOM      7  O   UNL     1      76.009  74.765  71.768  1.00  0.00    -0.295 OA
BRANCH   6   8
ATOM      8  C   UNL     1      73.998  73.619  72.175  1.00  0.00     0.039 C 
ATOM      9  C   UNL     1      72.893  74.358  72.089  1.00  0.00     0.012 C 
ENDBRANCH   6   8
ENDBRANCH   5   6
ENDBRANCH   1   5
TORSDOF 5
ENDMDL
MODEL 6
REMARK VINA RESULT:    -3.157      2.246      4.353
REMARK INTER + INTRA:          -4.433
REMARK INTER:                  -3.983
REMARK INTRA:                  -0.450
REMARK UNBOUND:                -0.353
REMARK SMILES C=CC(=O)CCCCC
REMARK SMILES IDX 6 1 7 2 8 3 9 4 5 5 3 6 4 7 2 8 1 9
REMARK H PARENT
REMARK Flexibility Score: inf
ROOT
ATOM      1  C   UNL     1      75.802  75.272  74.097  1.00  0.00     0.008 C 
ENDROOT
BRANCH   1   2
ATOM      2  C   UNL     1      76.009  74.067  73.167  1.00  0.00     0.000 C 
BRANCH   2   3
ATOM      3  C   UNL     1      74.980  74.019  72.027  1.00  0.00    -0.003 C 
ATOM      4  C   UNL     1      73.884  75.076  72.174  1.00  0.00     0.004 C 
ENDBRANCH   2   3
ENDBRANCH   1   2
BRANCH   1   5
ATOM      5  C   UNL     1      76.192  74.924  75.542  1.00  0.00     0.080 C 
BRANCH   5   6
ATOM      6  C   UNL     1      75.014  74.493  76.385  1.00  0.00     0.155 C 
ATOM      7  O   UNL     1      75.193  74.105  77.571  1.00  0.00    -0.295 OA
BRANCH   6   8
ATOM      8  C   UNL     1      73.633  74.508  75.859  1.00  0.00     0.039 C 
ATOM      9  C   UNL     1      73.034  73.443  75.328  1.00  0.00     0.012 C 
ENDBRANCH   6   8
ENDBRANCH   5   6
ENDBRANCH   1   5
TORSDOF 5
ENDMDL
MODEL 7
REMARK VINA RESULT:    -2.863      8.772      9.448
REMARK INTER + INTRA:          -4.053
REMARK INTER:                  -3.663
REMARK INTRA:                  -0.391
REMARK UNBOUND:                -0.353
REMARK SMILES C=CC(=O)CCCCC
REMARK SMILES IDX 6 1 7 2 8 3 9 4 5 5 3 6 4 7 2 8 1 9
REMARK H PARENT
REMARK Flexibility Score: inf
ROOT
ATOM      1  C   UNL     1      72.660  73.627  83.467  1.00  0.00     0.008 C 
ENDROOT
BRANCH   1   2
ATOM      2  C   UNL     1      73.592  74.821  83.718  1.00  0.00     0.000 C 
BRANCH   2   3
ATOM      3  C   UNL     1      75.076  74.460  83.542  1.00  0.00    -0.003 C 
ATOM      4  C   UNL     1      75.825  75.455  82.656  1.00  0.00     0.004 C 
ENDBRANCH   2   3
ENDBRANCH   1   2
BRANCH   1   5
ATOM      5  C   UNL     1      73.115  72.825  82.237  1.00  0.00     0.080 C 
BRANCH   5   6
ATOM      6  C   UNL     1      73.001  71.330  82.431  1.00  0.00     0.155 C 
ATOM      7  O   UNL     1      71.872  70.799  82.608  1.00  0.00    -0.295 OA
BRANCH   6   8
ATOM      8  C   UNL     1      74.189  70.452  82.425  1.00  0.00     0.039 C 
ATOM      9  C   UNL     1      75.242  70.628  83.222  1.00  0.00     0.012 C 
ENDBRANCH   6   8
ENDBRANCH   5   6
ENDBRANCH   1   5
TORSDOF 5
ENDMDL
MODEL 8
REMARK VINA RESULT:    -2.845      8.860      9.624
REMARK INTER + INTRA:          -4.030
REMARK INTER:                  -3.890
REMARK INTRA:                  -0.140
REMARK UNBOUND:                -0.353
REMARK SMILES C=CC(=O)CCCCC
REMARK SMILES IDX 6 1 7 2 8 3 9 4 5 5 3 6 4 7 2 8 1 9
REMARK H PARENT
REMARK Flexibility Score: inf
ROOT
ATOM      1  C   UNL     1      75.961  76.188  82.292  1.00  0.00     0.008 C 
ENDROOT
BRANCH   1   2
ATOM      2  C   UNL     1      77.161  76.926  82.905  1.00  0.00     0.000 C 
BRANCH   2   3
ATOM      3  C   UNL     1      77.007  78.454  82.845  1.00  0.00    -0.003 C 
ATOM      4  C   UNL     1      75.657  78.891  82.276  1.00  0.00     0.004 C 
ENDBRANCH   2   3
ENDBRANCH   1   2
BRANCH   1   5
ATOM      5  C   UNL     1      75.627  74.921  83.095  1.00  0.00     0.080 C 
BRANCH   5   6
ATOM      6  C   UNL     1      74.142  74.649  83.179  1.00  0.00     0.155 C 
ATOM      7  O   UNL     1      73.404  75.381  83.891  1.00  0.00    -0.295 OA
BRANCH   6   8
ATOM      8  C   UNL     1      73.514  73.531  82.444  1.00  0.00     0.039 C 
ATOM      9  C   UNL     1      72.498  72.813  82.922  1.00  0.00     0.012 C 
ENDBRANCH   6   8
ENDBRANCH   5   6
ENDBRANCH   1   5
TORSDOF 5
ENDMDL
MODEL 9
REMARK VINA RESULT:    -2.832      8.829      9.452
REMARK INTER + INTRA:          -4.013
REMARK INTER:                  -3.786
REMARK INTRA:                  -0.227
REMARK UNBOUND:                -0.353
REMARK SMILES C=CC(=O)CCCCC
REMARK SMILES IDX 6 1 7 2 8 3 9 4 5 5 3 6 4 7 2 8 1 9
REMARK H PARENT
REMARK Flexibility Score: inf
ROOT
ATOM      1  C   UNL     1      73.497  73.401  82.146  1.00  0.00     0.008 C 
ENDROOT
BRANCH   1   2
ATOM      2  C   UNL     1      72.999  72.079  82.750  1.00  0.00     0.000 C 
BRANCH   2   3
ATOM      3  C   UNL     1      73.775  70.861  82.225  1.00  0.00    -0.003 C 
ATOM      4  C   UNL     1      75.071  70.609  82.996  1.00  0.00     0.004 C 
ENDBRANCH   2   3
ENDBRANCH   1   2
BRANCH   1   5
ATOM      5  C   UNL     1      73.812  74.424  83.248  1.00  0.00     0.080 C 
BRANCH   5   6
ATOM      6  C   UNL     1      75.282  74.767  83.334  1.00  0.00     0.155 C 
ATOM      7  O   UNL     1      76.049  74.086  84.067  1.00  0.00    -0.295 OA
BRANCH   6   8
ATOM      8  C   UNL     1      75.864  75.895  82.577  1.00  0.00     0.039 C 
ATOM      9  C   UNL     1      76.984  76.522  82.933  1.00  0.00     0.012 C 
ENDBRANCH   6   8
ENDBRANCH   5   6
ENDBRANCH   1   5
TORSDOF 5
ENDMDL
