MODEL 1
REMARK VINA RESULT:    -2.569      0.000      0.000
REMARK INTER + INTRA:          -3.529
REMARK INTER:                  -3.321
REMARK INTRA:                  -0.209
REMARK UNBOUND:                -0.209
REMARK SMILES CCCCCCC(=O)[O-]
REMARK SMILES IDX 5 1 6 2 7 3 8 4 9 5 4 6 3 7 2 8 1 9
REMARK H PARENT
REMARK Flexibility Score: inf
ROOT
ATOM      1  C   UNL     1       7.631  40.087  14.714  1.00  0.00     0.006 C 
ENDROOT
BRANCH   1   2
ATOM      2  C   UNL     1       8.758  40.056  15.757  1.00  0.00     0.053 C 
BRANCH   2   3
ATOM      3  C   UNL     1       9.771  38.995  15.451  1.00  0.00     0.041 C 
ATOM      4  O   UNL     1       9.502  38.081  14.628  1.00  0.00    -0.550 OA
ATOM      5  O   UNL     1      11.002  39.002  16.095  1.00  0.00    -0.550 OA
ENDBRANCH   2   3
ENDBRANCH   1   2
BRANCH   1   6
ATOM      6  C   UNL     1       6.259  39.770  15.333  1.00  0.00     0.000 C 
BRANCH   6   7
ATOM      7  C   UNL     1       6.011  38.259  15.496  1.00  0.00    -0.000 C 
BRANCH   7   8
ATOM      8  C   UNL     1       4.607  37.884  16.003  1.00  0.00    -0.003 C 
ATOM      9  C   UNL     1       3.539  38.907  15.617  1.00  0.00     0.004 C 
ENDBRANCH   7   8
ENDBRANCH   6   7
ENDBRANCH   1   6
TORSDOF 5
ENDMDL
MODEL 2
REMARK VINA RESULT:    -1.682      1.514      2.077
REMARK INTER + INTRA:          -2.383
REMARK INTER:                  -2.265
REMARK INTRA:                  -0.118
REMARK UNBOUND:                -0.209
REMARK SMILES CCCCCCC(=O)[O-]
REMARK SMILES IDX 5 1 6 2 7 3 8 4 9 5 4 6 3 7 2 8 1 9
REMARK H PARENT
REMARK Flexibility Score: inf
ROOT
ATOM      1  C   UNL     1       6.322  38.734  16.125  1.00  0.00     0.006 C 
ENDROOT
BRANCH   1   2
ATOM      2  C   UNL     1       7.775  38.311  15.861  1.00  0.00     0.053 C 
BRANCH   2   3
ATOM      3  C   UNL     1       8.537  39.367  15.120  1.00  0.00     0.041 C 
ATOM      4  O   UNL     1       8.125  40.557  15.112  1.00  0.00    -0.550 OA
ATOM      5  O   UNL     1       9.687  39.032  14.416  1.00  0.00    -0.550 OA
ENDBRANCH   2   3
ENDBRANCH   1   2
BRANCH   1   6
ATOM      6  C   UNL     1       5.391  38.371  14.956  1.00  0.00     0.000 C 
BRANCH   6   7
ATOM      7  C   UNL     1       3.990  38.993  15.091  1.00  0.00    -0.000 C 
BRANCH   7   8
ATOM      8  C   UNL     1       3.044  38.258  16.057  1.00  0.00    -0.003 C 
ATOM      9  C   UNL     1       1.711  37.875  15.414  1.00  0.00     0.004 C 
ENDBRANCH   7   8
ENDBRANCH   6   7
ENDBRANCH   1   6
TORSDOF 5
ENDMDL
