MODEL 1
REMARK VINA RESULT:    -3.815      0.000      0.000
REMARK INTER + INTRA:          -4.275
REMARK INTER:                  -4.261
REMARK INTRA:                  -0.014
REMARK UNBOUND:                -0.014
REMARK SMILES CCCC(=O)[O-]
REMARK SMILES IDX 3 1 4 2 5 3 6 4 2 5 1 6
REMARK H PARENT
REMARK Flexibility Score: inf
ROOT
ATOM      1  C   UNL     1      -1.562  -1.144   4.082  1.00  0.00     0.052 C 
ENDROOT
BRANCH   1   2
ATOM      2  C   UNL     1      -1.313  -0.655   5.474  1.00  0.00     0.041 C 
ATOM      3  O   UNL     1      -1.167  -1.477   6.418  1.00  0.00    -0.550 OA
ATOM      4  O   UNL     1      -1.192   0.707   5.722  1.00  0.00    -0.550 OA
ENDBRANCH   1   2
BRANCH   1   5
ATOM      5  C   UNL     1      -1.546  -2.675   4.041  1.00  0.00     0.003 C 
ATOM      6  C   UNL     1      -1.286  -3.185   2.627  1.00  0.00     0.004 C 
ENDBRANCH   1   5
TORSDOF 2
ENDMDL
MODEL 2
REMARK VINA RESULT:    -3.716      2.095      3.373
REMARK INTER + INTRA:          -4.165
REMARK INTER:                  -4.153
REMARK INTRA:                  -0.012
REMARK UNBOUND:                -0.014
REMARK SMILES CCCC(=O)[O-]
REMARK SMILES IDX 3 1 4 2 5 3 6 4 2 5 1 6
REMARK H PARENT
REMARK Flexibility Score: inf
ROOT
ATOM      1  C   UNL     1      -1.524  -1.212   4.098  1.00  0.00     0.052 C 
ENDROOT
BRANCH   1   2
ATOM      2  C   UNL     1      -1.495  -2.700   3.937  1.00  0.00     0.041 C 
ATOM      3  O   UNL     1      -1.599  -3.448   4.945  1.00  0.00    -0.550 OA
ATOM      4  O   UNL     1      -1.403  -3.260   2.669  1.00  0.00    -0.550 OA
ENDBRANCH   1   2
BRANCH   1   5
ATOM      5  C   UNL     1      -1.365  -0.830   5.573  1.00  0.00     0.003 C 
ATOM      6  C   UNL     1      -1.166   0.674   5.733  1.00  0.00     0.004 C 
ENDBRANCH   1   5
TORSDOF 2
ENDMDL
MODEL 3
REMARK VINA RESULT:    -3.357      2.058      3.841
REMARK INTER + INTRA:          -3.764
REMARK INTER:                  -3.733
REMARK INTRA:                  -0.031
REMARK UNBOUND:                -0.014
REMARK SMILES CCCC(=O)[O-]
REMARK SMILES IDX 3 1 4 2 5 3 6 4 2 5 1 6
REMARK H PARENT
REMARK Flexibility Score: inf
ROOT
ATOM      1  C   UNL     1      -1.136   0.318   6.241  1.00  0.00     0.052 C 
ENDROOT
BRANCH   1   2
ATOM      2  C   UNL     1      -1.420  -0.885   5.398  1.00  0.00     0.041 C 
ATOM      3  O   UNL     1      -1.754  -0.749   4.191  1.00  0.00    -0.550 OA
ATOM      4  O   UNL     1      -1.268  -2.159   5.931  1.00  0.00    -0.550 OA
ENDBRANCH   1   2
BRANCH   1   5
ATOM      5  C   UNL     1      -1.630   0.097   7.673  1.00  0.00     0.003 C 
ATOM      6  C   UNL     1      -0.461  -0.073   8.638  1.00  0.00     0.004 C 
ENDBRANCH   1   5
TORSDOF 2
ENDMDL
MODEL 4
REMARK VINA RESULT:    -3.147     11.400     12.258
REMARK INTER + INTRA:          -3.529
REMARK INTER:                  -3.514
REMARK INTRA:                  -0.015
REMARK UNBOUND:                -0.014
REMARK SMILES CCCC(=O)[O-]
REMARK SMILES IDX 3 1 4 2 5 3 6 4 2 5 1 6
REMARK H PARENT
REMARK Flexibility Score: inf
ROOT
ATOM      1  C   UNL     1       4.264   9.039   5.584  1.00  0.00     0.052 C 
ENDROOT
BRANCH   1   2
ATOM      2  C   UNL     1       4.815   9.468   6.908  1.00  0.00     0.041 C 
ATOM      3  O   UNL     1       6.000   9.888   6.995  1.00  0.00    -0.550 OA
ATOM      4  O   UNL     1       4.006   9.450   8.037  1.00  0.00    -0.550 OA
ENDBRANCH   1   2
BRANCH   1   5
ATOM      5  C   UNL     1       5.398   8.639   4.636  1.00  0.00     0.003 C 
ATOM      6  C   UNL     1       5.032   7.394   3.835  1.00  0.00     0.004 C 
ENDBRANCH   1   5
TORSDOF 2
ENDMDL
MODEL 5
REMARK VINA RESULT:    -3.146      2.203      2.863
REMARK INTER + INTRA:          -3.528
REMARK INTER:                  -3.522
REMARK INTRA:                  -0.005
REMARK UNBOUND:                -0.014
REMARK SMILES CCCC(=O)[O-]
REMARK SMILES IDX 3 1 4 2 5 3 6 4 2 5 1 6
REMARK H PARENT
REMARK Flexibility Score: inf
ROOT
ATOM      1  C   UNL     1      -1.184  -0.899   6.803  1.00  0.00     0.052 C 
ENDROOT
BRANCH   1   2
ATOM      2  C   UNL     1      -1.154  -0.000   8.000  1.00  0.00     0.041 C 
ATOM      3  O   UNL     1      -0.055   0.315   8.528  1.00  0.00    -0.550 OA
ATOM      4  O   UNL     1      -2.337   0.528   8.501  1.00  0.00    -0.550 OA
ENDBRANCH   1   2
BRANCH   1   5
ATOM      5  C   UNL     1      -1.289  -0.075   5.517  1.00  0.00     0.003 C 
ATOM      6  C   UNL     1      -1.510  -0.973   4.304  1.00  0.00     0.004 C 
ENDBRANCH   1   5
TORSDOF 2
ENDMDL
MODEL 6
REMARK VINA RESULT:    -2.997      5.633      6.509
REMARK INTER + INTRA:          -3.362
REMARK INTER:                  -3.356
REMARK INTRA:                  -0.005
REMARK UNBOUND:                -0.014
REMARK SMILES CCCC(=O)[O-]
REMARK SMILES IDX 3 1 4 2 5 3 6 4 2 5 1 6
REMARK H PARENT
REMARK Flexibility Score: inf
ROOT
ATOM      1  C   UNL     1       0.547  -5.529   8.478  1.00  0.00     0.052 C 
ENDROOT
BRANCH   1   2
ATOM      2  C   UNL     1      -0.197  -5.818   7.212  1.00  0.00     0.041 C 
ATOM      3  O   UNL     1      -0.468  -4.885   6.409  1.00  0.00    -0.550 OA
ATOM      4  O   UNL     1      -0.549  -7.124   6.894  1.00  0.00    -0.550 OA
ENDBRANCH   1   2
BRANCH   1   5
ATOM      5  C   UNL     1       2.027  -5.269   8.182  1.00  0.00     0.003 C 
ATOM      6  C   UNL     1       2.862  -5.330   9.457  1.00  0.00     0.004 C 
ENDBRANCH   1   5
TORSDOF 2
ENDMDL
MODEL 7
REMARK VINA RESULT:    -2.987      5.658      6.069
REMARK INTER + INTRA:          -3.350
REMARK INTER:                  -3.298
REMARK INTRA:                  -0.053
REMARK UNBOUND:                -0.014
REMARK SMILES CCCC(=O)[O-]
REMARK SMILES IDX 3 1 4 2 5 3 6 4 2 5 1 6
REMARK H PARENT
REMARK Flexibility Score: inf
ROOT
ATOM      1  C   UNL     1       0.220  -4.875   8.044  1.00  0.00     0.052 C 
ENDROOT
BRANCH   1   2
ATOM      2  C   UNL     1       1.446  -5.290   8.795  1.00  0.00     0.041 C 
ATOM      3  O   UNL     1       1.354  -5.683   9.988  1.00  0.00    -0.550 OA
ATOM      4  O   UNL     1       2.683  -5.290   8.162  1.00  0.00    -0.550 OA
ENDBRANCH   1   2
BRANCH   1   5
ATOM      5  C   UNL     1       0.044  -5.734   6.789  1.00  0.00     0.003 C 
ATOM      6  C   UNL     1      -0.731  -7.010   7.100  1.00  0.00     0.004 C 
ENDBRANCH   1   5
TORSDOF 2
ENDMDL
MODEL 8
REMARK VINA RESULT:    -2.950      8.002      8.600
REMARK INTER + INTRA:          -3.309
REMARK INTER:                  -3.278
REMARK INTRA:                  -0.031
REMARK UNBOUND:                -0.014
REMARK SMILES CCCC(=O)[O-]
REMARK SMILES IDX 3 1 4 2 5 3 6 4 2 5 1 6
REMARK H PARENT
REMARK Flexibility Score: inf
ROOT
ATOM      1  C   UNL     1       5.791  -0.130   7.890  1.00  0.00     0.052 C 
ENDROOT
BRANCH   1   2
ATOM      2  C   UNL     1       5.071   0.862   8.748  1.00  0.00     0.041 C 
ATOM      3  O   UNL     1       3.855   0.693   9.028  1.00  0.00    -0.550 OA
ATOM      4  O   UNL     1       5.755   1.949   9.278  1.00  0.00    -0.550 OA
ENDBRANCH   1   2
BRANCH   1   5
ATOM      5  C   UNL     1       7.260  -0.235   8.310  1.00  0.00     0.003 C 
ATOM      6  C   UNL     1       8.188  -0.093   7.108  1.00  0.00     0.004 C 
ENDBRANCH   1   5
TORSDOF 2
ENDMDL
MODEL 9
REMARK VINA RESULT:    -2.845     11.164     11.890
REMARK INTER + INTRA:          -3.192
REMARK INTER:                  -3.170
REMARK INTRA:                  -0.022
REMARK UNBOUND:                -0.014
REMARK SMILES CCCC(=O)[O-]
REMARK SMILES IDX 3 1 4 2 5 3 6 4 2 5 1 6
REMARK H PARENT
REMARK Flexibility Score: inf
ROOT
ATOM      1  C   UNL     1      -6.032   8.652  -0.033  1.00  0.00     0.052 C 
ENDROOT
BRANCH   1   2
ATOM      2  C   UNL     1      -6.628   7.600   0.848  1.00  0.00     0.041 C 
ATOM      3  O   UNL     1      -6.993   6.497   0.361  1.00  0.00    -0.550 OA
ATOM      4  O   UNL     1      -6.737   7.818   2.216  1.00  0.00    -0.550 OA
ENDBRANCH   1   2
BRANCH   1   5
ATOM      5  C   UNL     1      -5.441   9.785   0.811  1.00  0.00     0.003 C 
ATOM      6  C   UNL     1      -4.010  10.099   0.386  1.00  0.00     0.004 C 
ENDBRANCH   1   5
TORSDOF 2
ENDMDL
