MODEL 1
REMARK VINA RESULT:    -7.372      0.000      0.000
REMARK INTER + INTRA:          -8.236
REMARK INTER:                  -8.019
REMARK INTRA:                  -0.218
REMARK UNBOUND:                -0.218
REMARK SMILES CC1(C)CC[C@@]2(C(=O)[O-])CC[C@@]3(C)C(=CC[C@H]4[C@]5(C)CC[C@H](O)C(C)(C)[C@H]5CC[C@@]43C)[C@H]2C1
REMARK SMILES IDX 6 1 5 2 10 3 32 4 4 5 11 6 14 7 33 8 2 9 12 10 15 11 1 12
REMARK SMILES IDX 3 13 13 14 30 15 16 16 17 17 29 18 31 19 18 20 28 21 27 22
REMARK SMILES IDX 20 23 19 24 24 25 21 26 22 27 25 28 26 29 7 30 8 31 9 32
REMARK SMILES IDX 23 33
REMARK H PARENT 23 34
REMARK Flexibility Score: inf
ROOT
ATOM      1  C   UNL     1      99.227  87.209  83.384  1.00  0.00     0.017 C 
ATOM      2  C   UNL     1      99.715  88.688  83.600  1.00  0.00     0.014 C 
ATOM      3  C   UNL     1      97.909  86.976  84.166  1.00  0.00     0.014 C 
ATOM      4  C   UNL     1      99.025  86.833  81.863  1.00  0.00     0.028 C 
ATOM      5  C   UNL     1     100.845  89.108  82.661  1.00  0.00     0.007 C 
ATOM      6  C   UNL     1      96.695  87.662  83.535  1.00  0.00     0.013 C 
ATOM      7  C   UNL     1      97.579  86.735  81.315  1.00  0.00    -0.064 C 
ATOM      8  C   UNL     1     100.028  87.517  80.877  1.00  0.00     0.015 C 
ATOM      9  C   UNL     1     100.462  88.977  81.181  1.00  0.00    -0.035 C 
ATOM     10  C   UNL     1      96.320  87.172  82.091  1.00  0.00    -0.006 C 
ATOM     11  C   UNL     1      97.419  85.969  80.197  1.00  0.00    -0.027 C 
ATOM     12  C   UNL     1      99.350  89.977  80.814  1.00  0.00     0.011 C 
ATOM     13  C   UNL     1     101.701  89.317  80.317  1.00  0.00     0.011 C 
ATOM     14  C   UNL     1      95.744  88.423  81.333  1.00  0.00     0.017 C 
ATOM     15  C   UNL     1      95.271  85.932  82.092  1.00  0.00    -0.020 C 
ATOM     16  C   UNL     1      96.116  85.436  79.669  1.00  0.00     0.032 C 
ATOM     17  C   UNL     1      94.875  85.631  80.588  1.00  0.00     0.006 C 
ATOM     18  C   UNL     1      93.953  86.258  82.877  1.00  0.00     0.008 C 
ATOM     19  C   UNL     1      95.933  84.687  82.768  1.00  0.00     0.012 C 
ATOM     20  C   UNL     1      93.643  84.653  80.288  1.00  0.00    -0.025 C 
ATOM     21  C   UNL     1      92.865  85.193  82.691  1.00  0.00     0.005 C 
ATOM     22  C   UNL     1      92.439  85.094  81.204  1.00  0.00     0.003 C 
ATOM     23  C   UNL     1      93.224  84.823  78.770  1.00  0.00     0.010 C 
ATOM     24  C   UNL     1      93.998  83.138  80.512  1.00  0.00     0.012 C 
ATOM     25  C   UNL     1      91.049  84.358  80.937  1.00  0.00    -0.006 C 
ATOM     26  C   UNL     1      91.726  85.051  78.520  1.00  0.00     0.033 C 
ATOM     27  C   UNL     1      90.843  84.134  79.388  1.00  0.00     0.120 C 
ATOM     28  C   UNL     1      89.897  85.233  81.534  1.00  0.00     0.014 C 
ATOM     29  C   UNL     1      90.933  82.974  81.651  1.00  0.00     0.014 C 
ENDROOT
BRANCH   1  30
ATOM     30  C   UNL     1     100.267  86.244  83.997  1.00  0.00     0.048 C 
ATOM     31  O   UNL     1     100.509  85.138  83.447  1.00  0.00    -0.550 OA
ATOM     32  O   UNL     1     100.980  86.560  85.149  1.00  0.00    -0.550 OA
ENDBRANCH   1  30
BRANCH  27  33
ATOM     33  O   UNL     1      89.493  84.247  78.995  1.00  0.00    -0.393 OA
ATOM     34  H   UNL     1      88.935  84.233  79.819  1.00  0.00     0.210 HD
ENDBRANCH  27  33
TORSDOF 2
ENDMDL
MODEL 2
REMARK VINA RESULT:    -6.755      4.415      6.937
REMARK INTER + INTRA:          -7.565
REMARK INTER:                  -7.373
REMARK INTRA:                  -0.192
REMARK UNBOUND:                -0.218
REMARK SMILES CC1(C)CC[C@@]2(C(=O)[O-])CC[C@@]3(C)C(=CC[C@H]4[C@]5(C)CC[C@H](O)C(C)(C)[C@H]5CC[C@@]43C)[C@H]2C1
REMARK SMILES IDX 6 1 5 2 10 3 32 4 4 5 11 6 14 7 33 8 2 9 12 10 15 11 1 12
REMARK SMILES IDX 3 13 13 14 30 15 16 16 17 17 29 18 31 19 18 20 28 21 27 22
REMARK SMILES IDX 20 23 19 24 24 25 21 26 22 27 25 28 26 29 7 30 8 31 9 32
REMARK SMILES IDX 23 33
REMARK H PARENT 23 34
REMARK Flexibility Score: inf
ROOT
ATOM      1  C   UNL     1      93.621  87.209  84.003  1.00  0.00     0.017 C 
ATOM      2  C   UNL     1      94.737  86.748  85.010  1.00  0.00     0.014 C 
ATOM      3  C   UNL     1      93.578  86.240  82.795  1.00  0.00     0.014 C 
ATOM      4  C   UNL     1      92.189  87.314  84.662  1.00  0.00     0.028 C 
ATOM      5  C   UNL     1      94.682  87.462  86.360  1.00  0.00     0.007 C 
ATOM      6  C   UNL     1      92.970  84.874  83.128  1.00  0.00     0.013 C 
ATOM      7  C   UNL     1      91.151  86.208  84.345  1.00  0.00    -0.064 C 
ATOM      8  C   UNL     1      92.184  87.773  86.156  1.00  0.00     0.015 C 
ATOM      9  C   UNL     1      93.336  87.276  87.072  1.00  0.00    -0.035 C 
ATOM     10  C   UNL     1      91.470  84.900  83.591  1.00  0.00    -0.006 C 
ATOM     11  C   UNL     1      89.843  86.557  84.511  1.00  0.00    -0.027 C 
ATOM     12  C   UNL     1      93.131  85.805  87.477  1.00  0.00     0.011 C 
ATOM     13  C   UNL     1      93.340  88.123  88.369  1.00  0.00     0.011 C 
ATOM     14  C   UNL     1      91.307  83.737  84.634  1.00  0.00     0.017 C 
ATOM     15  C   UNL     1      90.421  84.758  82.359  1.00  0.00    -0.020 C 
ATOM     16  C   UNL     1      88.653  85.819  83.966  1.00  0.00     0.032 C 
ATOM     17  C   UNL     1      88.963  84.660  82.973  1.00  0.00     0.006 C 
ATOM     18  C   UNL     1      90.667  83.467  81.505  1.00  0.00     0.008 C 
ATOM     19  C   UNL     1      90.558  85.993  81.409  1.00  0.00     0.012 C 
ATOM     20  C   UNL     1      87.748  84.228  82.025  1.00  0.00    -0.025 C 
ATOM     21  C   UNL     1      89.550  83.198  80.488  1.00  0.00     0.005 C 
ATOM     22  C   UNL     1      88.197  82.958  81.207  1.00  0.00     0.003 C 
ATOM     23  C   UNL     1      86.513  83.841  82.938  1.00  0.00     0.010 C 
ATOM     24  C   UNL     1      87.281  85.383  81.066  1.00  0.00     0.012 C 
ATOM     25  C   UNL     1      87.068  82.257  80.325  1.00  0.00    -0.006 C 
ATOM     26  C   UNL     1      85.848  82.495  82.614  1.00  0.00     0.033 C 
ATOM     27  C   UNL     1      85.691  82.271  81.097  1.00  0.00     0.120 C 
ATOM     28  C   UNL     1      87.518  80.791  80.012  1.00  0.00     0.014 C 
ATOM     29  C   UNL     1      86.857  82.934  78.935  1.00  0.00     0.014 C 
ENDROOT
BRANCH   1  30
ATOM     30  C   UNL     1      94.004  88.592  83.431  1.00  0.00     0.048 C 
ATOM     31  O   UNL     1      95.214  88.897  83.262  1.00  0.00    -0.550 OA
ATOM     32  O   UNL     1      93.046  89.533  83.065  1.00  0.00    -0.550 OA
ENDBRANCH   1  30
BRANCH  27  33
ATOM     33  O   UNL     1      84.917  81.117  80.855  1.00  0.00    -0.393 OA
ATOM     34  H   UNL     1      84.070  81.407  80.418  1.00  0.00     0.210 HD
ENDBRANCH  27  33
TORSDOF 2
ENDMDL
MODEL 3
REMARK VINA RESULT:    -6.726      2.303      8.403
REMARK INTER + INTRA:          -7.533
REMARK INTER:                  -7.448
REMARK INTRA:                  -0.085
REMARK UNBOUND:                -0.218
REMARK SMILES CC1(C)CC[C@@]2(C(=O)[O-])CC[C@@]3(C)C(=CC[C@H]4[C@]5(C)CC[C@H](O)C(C)(C)[C@H]5CC[C@@]43C)[C@H]2C1
REMARK SMILES IDX 6 1 5 2 10 3 32 4 4 5 11 6 14 7 33 8 2 9 12 10 15 11 1 12
REMARK SMILES IDX 3 13 13 14 30 15 16 16 17 17 29 18 31 19 18 20 28 21 27 22
REMARK SMILES IDX 20 23 19 24 24 25 21 26 22 27 25 28 26 29 7 30 8 31 9 32
REMARK SMILES IDX 23 33
REMARK H PARENT 23 34
REMARK Flexibility Score: inf
ROOT
ATOM      1  C   UNL     1      94.915  84.678  80.703  1.00  0.00     0.017 C 
ATOM      2  C   UNL     1      93.373  84.922  80.517  1.00  0.00     0.014 C 
ATOM      3  C   UNL     1      95.692  85.349  79.542  1.00  0.00     0.014 C 
ATOM      4  C   UNL     1      95.467  85.192  82.091  1.00  0.00     0.028 C 
ATOM      5  C   UNL     1      92.537  84.547  81.740  1.00  0.00     0.007 C 
ATOM      6  C   UNL     1      95.736  86.877  79.640  1.00  0.00     0.013 C 
ATOM      7  C   UNL     1      96.299  86.499  82.112  1.00  0.00    -0.064 C 
ATOM      8  C   UNL     1      94.467  85.063  83.286  1.00  0.00     0.015 C 
ATOM      9  C   UNL     1      92.960  85.310  83.001  1.00  0.00    -0.035 C 
ATOM     10  C   UNL     1      96.466  87.449  80.908  1.00  0.00    -0.006 C 
ATOM     11  C   UNL     1      97.138  86.651  83.178  1.00  0.00    -0.027 C 
ATOM     12  C   UNL     1      92.661  86.814  82.856  1.00  0.00     0.011 C 
ATOM     13  C   UNL     1      92.135  84.782  84.201  1.00  0.00     0.011 C 
ATOM     14  C   UNL     1      95.720  88.779  81.287  1.00  0.00     0.017 C 
ATOM     15  C   UNL     1      98.054  87.693  80.673  1.00  0.00    -0.020 C 
ATOM     16  C   UNL     1      98.278  87.626  83.276  1.00  0.00     0.032 C 
ATOM     17  C   UNL     1      98.634  88.394  81.970  1.00  0.00     0.006 C 
ATOM     18  C   UNL     1      98.345  88.633  79.452  1.00  0.00     0.008 C 
ATOM     19  C   UNL     1      98.760  86.325  80.400  1.00  0.00     0.012 C 
ATOM     20  C   UNL     1     100.108  89.017  81.924  1.00  0.00    -0.025 C 
ATOM     21  C   UNL     1      99.815  89.059  79.358  1.00  0.00     0.005 C 
ATOM     22  C   UNL     1     100.232  89.876  80.608  1.00  0.00     0.003 C 
ATOM     23  C   UNL     1     100.290  89.969  83.177  1.00  0.00     0.010 C 
ATOM     24  C   UNL     1     101.235  87.925  81.995  1.00  0.00     0.012 C 
ATOM     25  C   UNL     1     101.570  90.731  80.453  1.00  0.00    -0.006 C 
ATOM     26  C   UNL     1     100.839  91.369  82.869  1.00  0.00     0.033 C 
ATOM     27  C   UNL     1     101.994  91.332  81.849  1.00  0.00     0.120 C 
ATOM     28  C   UNL     1     101.317  91.868  79.408  1.00  0.00     0.014 C 
ATOM     29  C   UNL     1     102.770  89.908  79.890  1.00  0.00     0.014 C 
ENDROOT
BRANCH   1  30
ATOM     30  C   UNL     1      95.199  83.163  80.590  1.00  0.00     0.048 C 
ATOM     31  O   UNL     1      96.341  82.708  80.861  1.00  0.00    -0.550 OA
ATOM     32  O   UNL     1      94.217  82.252  80.212  1.00  0.00    -0.550 OA
ENDBRANCH   1  30
BRANCH  27  33
ATOM     33  O   UNL     1     102.583  92.609  81.738  1.00  0.00    -0.393 OA
ATOM     34  H   UNL     1     102.494  93.061  82.620  1.00  0.00     0.210 HD
ENDBRANCH  27  33
TORSDOF 2
ENDMDL
MODEL 4
REMARK VINA RESULT:    -6.693      2.599      9.562
REMARK INTER + INTRA:          -7.498
REMARK INTER:                  -7.406
REMARK INTRA:                  -0.092
REMARK UNBOUND:                -0.218
REMARK SMILES CC1(C)CC[C@@]2(C(=O)[O-])CC[C@@]3(C)C(=CC[C@H]4[C@]5(C)CC[C@H](O)C(C)(C)[C@H]5CC[C@@]43C)[C@H]2C1
REMARK SMILES IDX 6 1 5 2 10 3 32 4 4 5 11 6 14 7 33 8 2 9 12 10 15 11 1 12
REMARK SMILES IDX 3 13 13 14 30 15 16 16 17 17 29 18 31 19 18 20 28 21 27 22
REMARK SMILES IDX 20 23 19 24 24 25 21 26 22 27 25 28 26 29 7 30 8 31 9 32
REMARK SMILES IDX 23 33
REMARK H PARENT 23 34
REMARK Flexibility Score: inf
ROOT
ATOM      1  C   UNL     1      87.764  85.016  81.469  1.00  0.00     0.017 C 
ATOM      2  C   UNL     1      86.729  84.021  82.110  1.00  0.00     0.014 C 
ATOM      3  C   UNL     1      88.721  85.548  82.566  1.00  0.00     0.014 C 
ATOM      4  C   UNL     1      88.597  84.378  80.288  1.00  0.00     0.028 C 
ATOM      5  C   UNL     1      85.920  83.228  81.084  1.00  0.00     0.007 C 
ATOM      6  C   UNL     1      89.740  84.510  83.044  1.00  0.00     0.013 C 
ATOM      7  C   UNL     1      90.073  83.989  80.556  1.00  0.00    -0.064 C 
ATOM      8  C   UNL     1      87.818  83.336  79.421  1.00  0.00     0.015 C 
ATOM      9  C   UNL     1      86.807  82.403  80.142  1.00  0.00    -0.035 C 
ATOM     10  C   UNL     1      90.739  83.992  81.948  1.00  0.00    -0.006 C 
ATOM     11  C   UNL     1      90.874  83.908  79.455  1.00  0.00    -0.027 C 
ATOM     12  C   UNL     1      87.533  81.286  80.914  1.00  0.00     0.011 C 
ATOM     13  C   UNL     1      85.907  81.729  79.077  1.00  0.00     0.011 C 
ATOM     14  C   UNL     1      91.042  82.491  82.297  1.00  0.00     0.017 C 
ATOM     15  C   UNL     1      92.097  84.877  81.856  1.00  0.00    -0.020 C 
ATOM     16  C   UNL     1      92.377  83.889  79.453  1.00  0.00     0.032 C 
ATOM     17  C   UNL     1      93.067  84.172  80.820  1.00  0.00     0.006 C 
ATOM     18  C   UNL     1      92.851  84.968  83.229  1.00  0.00     0.008 C 
ATOM     19  C   UNL     1      91.745  86.333  81.408  1.00  0.00     0.012 C 
ATOM     20  C   UNL     1      94.591  84.651  80.730  1.00  0.00    -0.025 C 
ATOM     21  C   UNL     1      94.244  85.598  83.108  1.00  0.00     0.005 C 
ATOM     22  C   UNL     1      95.160  84.740  82.198  1.00  0.00     0.003 C 
ATOM     23  C   UNL     1      95.413  83.562  79.926  1.00  0.00     0.010 C 
ATOM     24  C   UNL     1      94.758  86.019  79.975  1.00  0.00     0.012 C 
ATOM     25  C   UNL     1      96.722  85.032  82.328  1.00  0.00    -0.006 C 
ATOM     26  C   UNL     1      96.713  83.089  80.594  1.00  0.00     0.033 C 
ATOM     27  C   UNL     1      97.514  84.256  81.203  1.00  0.00     0.120 C 
ATOM     28  C   UNL     1      97.197  84.590  83.752  1.00  0.00     0.014 C 
ATOM     29  C   UNL     1      97.081  86.547  82.221  1.00  0.00     0.014 C 
ENDROOT
BRANCH   1  30
ATOM     30  C   UNL     1      87.004  86.248  80.928  1.00  0.00     0.048 C 
ATOM     31  O   UNL     1      86.759  87.226  81.683  1.00  0.00    -0.550 OA
ATOM     32  O   UNL     1      86.585  86.336  79.604  1.00  0.00    -0.550 OA
ENDBRANCH   1  30
BRANCH  27  33
ATOM     33  O   UNL     1      98.777  83.802  81.639  1.00  0.00    -0.393 OA
ATOM     34  H   UNL     1      98.740  83.710  82.629  1.00  0.00     0.210 HD
ENDBRANCH  27  33
TORSDOF 2
ENDMDL
MODEL 5
REMARK VINA RESULT:    -6.609      3.405      4.671
REMARK INTER + INTRA:          -7.406
REMARK INTER:                  -7.299
REMARK INTRA:                  -0.107
REMARK UNBOUND:                -0.218
REMARK SMILES CC1(C)CC[C@@]2(C(=O)[O-])CC[C@@]3(C)C(=CC[C@H]4[C@]5(C)CC[C@H](O)C(C)(C)[C@H]5CC[C@@]43C)[C@H]2C1
REMARK SMILES IDX 6 1 5 2 10 3 32 4 4 5 11 6 14 7 33 8 2 9 12 10 15 11 1 12
REMARK SMILES IDX 3 13 13 14 30 15 16 16 17 17 29 18 31 19 18 20 28 21 27 22
REMARK SMILES IDX 20 23 19 24 24 25 21 26 22 27 25 28 26 29 7 30 8 31 9 32
REMARK SMILES IDX 23 33
REMARK H PARENT 23 34
REMARK Flexibility Score: inf
ROOT
ATOM      1  C   UNL     1      94.565  86.099  86.959  1.00  0.00     0.017 C 
ATOM      2  C   UNL     1      95.059  87.474  87.540  1.00  0.00     0.014 C 
ATOM      3  C   UNL     1      93.017  86.042  87.000  1.00  0.00     0.014 C 
ATOM      4  C   UNL     1      95.077  85.820  85.491  1.00  0.00     0.028 C 
ATOM      5  C   UNL     1      96.542  87.751  87.293  1.00  0.00     0.007 C 
ATOM      6  C   UNL     1      92.346  86.934  85.952  1.00  0.00     0.013 C 
ATOM      7  C   UNL     1      94.072  85.970  84.321  1.00  0.00    -0.064 C 
ATOM      8  C   UNL     1      96.502  86.379  85.174  1.00  0.00     0.015 C 
ATOM      9  C   UNL     1      96.905  87.740  85.803  1.00  0.00    -0.035 C 
ATOM     10  C   UNL     1      92.656  86.566  84.457  1.00  0.00    -0.006 C 
ATOM     11  C   UNL     1      94.380  85.282  83.183  1.00  0.00    -0.027 C 
ATOM     12  C   UNL     1      96.232  88.914  85.069  1.00  0.00     0.011 C 
ATOM     13  C   UNL     1      98.437  87.918  85.665  1.00  0.00     0.011 C 
ATOM     14  C   UNL     1      92.667  87.919  83.659  1.00  0.00     0.017 C 
ATOM     15  C   UNL     1      91.599  85.504  83.830  1.00  0.00    -0.020 C 
ATOM     16  C   UNL     1      93.440  84.980  82.050  1.00  0.00     0.032 C 
ATOM     17  C   UNL     1      91.942  85.328  82.293  1.00  0.00     0.006 C 
ATOM     18  C   UNL     1      90.115  85.999  83.934  1.00  0.00     0.008 C 
ATOM     19  C   UNL     1      91.703  84.145  84.597  1.00  0.00     0.012 C 
ATOM     20  C   UNL     1      90.901  84.566  81.346  1.00  0.00    -0.025 C 
ATOM     21  C   UNL     1      89.133  85.124  83.144  1.00  0.00     0.005 C 
ATOM     22  C   UNL     1      89.466  85.152  81.630  1.00  0.00     0.003 C 
ATOM     23  C   UNL     1      91.286  84.859  79.838  1.00  0.00     0.010 C 
ATOM     24  C   UNL     1      90.924  83.007  81.543  1.00  0.00     0.012 C 
ATOM     25  C   UNL     1      88.300  84.652  80.664  1.00  0.00    -0.006 C 
ATOM     26  C   UNL     1      90.131  85.327  78.940  1.00  0.00     0.033 C 
ATOM     27  C   UNL     1      88.839  84.524  79.185  1.00  0.00     0.120 C 
ATOM     28  C   UNL     1      87.115  85.670  80.741  1.00  0.00     0.014 C 
ATOM     29  C   UNL     1      87.694  83.276  81.083  1.00  0.00     0.014 C 
ENDROOT
BRANCH   1  30
ATOM     30  C   UNL     1      95.061  84.961  87.880  1.00  0.00     0.048 C 
ATOM     31  O   UNL     1      94.977  83.761  87.508  1.00  0.00    -0.550 OA
ATOM     32  O   UNL     1      95.629  85.211  89.125  1.00  0.00    -0.550 OA
ENDBRANCH   1  30
BRANCH  27  33
ATOM     33  O   UNL     1      87.868  84.861  78.218  1.00  0.00    -0.393 OA
ATOM     34  H   UNL     1      88.315  85.413  77.521  1.00  0.00     0.210 HD
ENDBRANCH  27  33
TORSDOF 2
ENDMDL
MODEL 6
REMARK VINA RESULT:    -6.600      3.644      7.025
REMARK INTER + INTRA:          -7.396
REMARK INTER:                  -7.253
REMARK INTRA:                  -0.143
REMARK UNBOUND:                -0.218
REMARK SMILES CC1(C)CC[C@@]2(C(=O)[O-])CC[C@@]3(C)C(=CC[C@H]4[C@]5(C)CC[C@H](O)C(C)(C)[C@H]5CC[C@@]43C)[C@H]2C1
REMARK SMILES IDX 6 1 5 2 10 3 32 4 4 5 11 6 14 7 33 8 2 9 12 10 15 11 1 12
REMARK SMILES IDX 3 13 13 14 30 15 16 16 17 17 29 18 31 19 18 20 28 21 27 22
REMARK SMILES IDX 20 23 19 24 24 25 21 26 22 27 25 28 26 29 7 30 8 31 9 32
REMARK SMILES IDX 23 33
REMARK H PARENT 23 34
REMARK Flexibility Score: inf
ROOT
ATOM      1  C   UNL     1      97.512  85.051  85.554  1.00  0.00     0.017 C 
ATOM      2  C   UNL     1      96.462  83.904  85.788  1.00  0.00     0.014 C 
ATOM      3  C   UNL     1      98.171  84.876  84.163  1.00  0.00     0.014 C 
ATOM      4  C   UNL     1      96.895  86.499  85.682  1.00  0.00     0.028 C 
ATOM      5  C   UNL     1      95.558  84.134  86.999  1.00  0.00     0.007 C 
ATOM      6  C   UNL     1      97.245  85.238  82.998  1.00  0.00     0.013 C 
ATOM      7  C   UNL     1      96.646  87.309  84.384  1.00  0.00    -0.064 C 
ATOM      8  C   UNL     1      95.754  86.638  86.741  1.00  0.00     0.015 C 
ATOM      9  C   UNL     1      94.771  85.447  86.909  1.00  0.00    -0.035 C 
ATOM     10  C   UNL     1      96.767  86.733  82.958  1.00  0.00    -0.006 C 
ATOM     11  C   UNL     1      96.584  88.664  84.533  1.00  0.00    -0.027 C 
ATOM     12  C   UNL     1      93.755  85.397  85.754  1.00  0.00     0.011 C 
ATOM     13  C   UNL     1      93.977  85.641  88.225  1.00  0.00     0.011 C 
ATOM     14  C   UNL     1      95.313  86.718  82.361  1.00  0.00     0.017 C 
ATOM     15  C   UNL     1      97.759  87.697  82.107  1.00  0.00    -0.020 C 
ATOM     16  C   UNL     1      96.693  89.681  83.431  1.00  0.00     0.032 C 
ATOM     17  C   UNL     1      97.094  89.132  82.031  1.00  0.00     0.006 C 
ATOM     18  C   UNL     1      97.974  87.192  80.637  1.00  0.00     0.008 C 
ATOM     19  C   UNL     1      99.159  87.752  82.802  1.00  0.00     0.012 C 
ATOM     20  C   UNL     1      97.696  90.217  81.019  1.00  0.00    -0.025 C 
ATOM     21  C   UNL     1      98.715  88.207  79.757  1.00  0.00     0.005 C 
ATOM     22  C   UNL     1      97.898  89.518  79.621  1.00  0.00     0.003 C 
ATOM     23  C   UNL     1      96.646  91.392  80.859  1.00  0.00     0.010 C 
ATOM     24  C   UNL     1      99.038  90.852  81.532  1.00  0.00     0.012 C 
ATOM     25  C   UNL     1      98.327  90.470  78.416  1.00  0.00    -0.006 C 
ATOM     26  C   UNL     1      96.316  91.790  79.413  1.00  0.00     0.033 C 
ATOM     27  C   UNL     1      97.572  91.852  78.523  1.00  0.00     0.120 C 
ATOM     28  C   UNL     1      97.990  89.752  77.067  1.00  0.00     0.014 C 
ATOM     29  C   UNL     1      99.861  90.753  78.365  1.00  0.00     0.014 C 
ENDROOT
BRANCH   1  30
ATOM     30  C   UNL     1      98.650  84.905  86.590  1.00  0.00     0.048 C 
ATOM     31  O   UNL     1      99.445  83.931  86.527  1.00  0.00    -0.550 OA
ATOM     32  O   UNL     1      98.852  85.837  87.603  1.00  0.00    -0.550 OA
ENDBRANCH   1  30
BRANCH  27  33
ATOM     33  O   UNL     1      97.247  92.396  77.262  1.00  0.00    -0.393 OA
ATOM     34  H   UNL     1      97.549  91.751  76.568  1.00  0.00     0.210 HD
ENDBRANCH  27  33
TORSDOF 2
ENDMDL
MODEL 7
REMARK VINA RESULT:    -6.501      1.678      3.628
REMARK INTER + INTRA:          -7.289
REMARK INTER:                  -7.078
REMARK INTRA:                  -0.210
REMARK UNBOUND:                -0.218
REMARK SMILES CC1(C)CC[C@@]2(C(=O)[O-])CC[C@@]3(C)C(=CC[C@H]4[C@]5(C)CC[C@H](O)C(C)(C)[C@H]5CC[C@@]43C)[C@H]2C1
REMARK SMILES IDX 6 1 5 2 10 3 32 4 4 5 11 6 14 7 33 8 2 9 12 10 15 11 1 12
REMARK SMILES IDX 3 13 13 14 30 15 16 16 17 17 29 18 31 19 18 20 28 21 27 22
REMARK SMILES IDX 20 23 19 24 24 25 21 26 22 27 25 28 26 29 7 30 8 31 9 32
REMARK SMILES IDX 23 33
REMARK H PARENT 23 34
REMARK Flexibility Score: inf
ROOT
ATOM      1  C   UNL     1      99.542  86.817  82.132  1.00  0.00     0.017 C 
ATOM      2  C   UNL     1     100.858  85.959  82.076  1.00  0.00     0.014 C 
ATOM      3  C   UNL     1      98.803  86.727  80.772  1.00  0.00     0.014 C 
ATOM      4  C   UNL     1      98.569  86.395  83.303  1.00  0.00     0.028 C 
ATOM      5  C   UNL     1     101.517  85.751  83.439  1.00  0.00     0.007 C 
ATOM      6  C   UNL     1      98.129  85.373  80.532  1.00  0.00     0.013 C 
ATOM      7  C   UNL     1      97.294  85.590  82.946  1.00  0.00    -0.064 C 
ATOM      8  C   UNL     1      99.281  85.902  84.604  1.00  0.00     0.015 C 
ATOM      9  C   UNL     1     100.584  85.070  84.448  1.00  0.00    -0.035 C 
ATOM     10  C   UNL     1      96.998  84.994  81.554  1.00  0.00    -0.006 C 
ATOM     11  C   UNL     1      96.275  85.662  83.850  1.00  0.00    -0.027 C 
ATOM     12  C   UNL     1     100.274  83.625  84.017  1.00  0.00     0.011 C 
ATOM     13  C   UNL     1     101.300  85.007  85.820  1.00  0.00     0.011 C 
ATOM     14  C   UNL     1      97.054  83.433  81.720  1.00  0.00     0.017 C 
ATOM     15  C   UNL     1      95.526  85.500  81.091  1.00  0.00    -0.020 C 
ATOM     16  C   UNL     1      94.843  85.274  83.604  1.00  0.00     0.032 C 
ATOM     17  C   UNL     1      94.470  84.937  82.130  1.00  0.00     0.006 C 
ATOM     18  C   UNL     1      95.126  84.969  79.670  1.00  0.00     0.008 C 
ATOM     19  C   UNL     1      95.500  87.062  81.041  1.00  0.00     0.012 C 
ATOM     20  C   UNL     1      92.911  85.028  81.782  1.00  0.00    -0.025 C 
ATOM     21  C   UNL     1      93.658  85.241  79.319  1.00  0.00     0.005 C 
ATOM     22  C   UNL     1      92.711  84.511  80.307  1.00  0.00     0.003 C 
ATOM     23  C   UNL     1      92.119  84.077  82.771  1.00  0.00     0.010 C 
ATOM     24  C   UNL     1      92.330  86.478  81.958  1.00  0.00     0.012 C 
ATOM     25  C   UNL     1      91.201  84.353  79.818  1.00  0.00    -0.006 C 
ATOM     26  C   UNL     1      91.124  83.115  82.107  1.00  0.00     0.033 C 
ATOM     27  C   UNL     1      90.306  83.797  80.994  1.00  0.00     0.120 C 
ATOM     28  C   UNL     1      91.173  83.386  78.588  1.00  0.00     0.014 C 
ATOM     29  C   UNL     1      90.570  85.688  79.312  1.00  0.00     0.014 C 
ENDROOT
BRANCH   1  30
ATOM     30  C   UNL     1      99.921  88.304  82.316  1.00  0.00     0.048 C 
ATOM     31  O   UNL     1     100.918  88.785  81.715  1.00  0.00    -0.550 OA
ATOM     32  O   UNL     1      99.180  89.162  83.123  1.00  0.00    -0.550 OA
ENDBRANCH   1  30
BRANCH  27  33
ATOM     33  O   UNL     1      89.286  82.933  80.542  1.00  0.00    -0.393 OA
ATOM     34  H   UNL     1      89.073  83.182  79.602  1.00  0.00     0.210 HD
ENDBRANCH  27  33
TORSDOF 2
ENDMDL
MODEL 8
REMARK VINA RESULT:    -6.386      5.289      7.831
REMARK INTER + INTRA:          -7.164
REMARK INTER:                  -7.089
REMARK INTRA:                  -0.075
REMARK UNBOUND:                -0.218
REMARK SMILES CC1(C)CC[C@@]2(C(=O)[O-])CC[C@@]3(C)C(=CC[C@H]4[C@]5(C)CC[C@H](O)C(C)(C)[C@H]5CC[C@@]43C)[C@H]2C1
REMARK SMILES IDX 6 1 5 2 10 3 32 4 4 5 11 6 14 7 33 8 2 9 12 10 15 11 1 12
REMARK SMILES IDX 3 13 13 14 30 15 16 16 17 17 29 18 31 19 18 20 28 21 27 22
REMARK SMILES IDX 20 23 19 24 24 25 21 26 22 27 25 28 26 29 7 30 8 31 9 32
REMARK SMILES IDX 23 33
REMARK H PARENT 23 34
REMARK Flexibility Score: inf
ROOT
ATOM      1  C   UNL     1      99.479  90.306  79.584  1.00  0.00     0.017 C 
ATOM      2  C   UNL     1     100.384  90.259  78.300  1.00  0.00     0.014 C 
ATOM      3  C   UNL     1      98.882  88.901  79.852  1.00  0.00     0.014 C 
ATOM      4  C   UNL     1     100.241  90.822  80.868  1.00  0.00     0.028 C 
ATOM      5  C   UNL     1     101.239  91.510  78.102  1.00  0.00     0.007 C 
ATOM      6  C   UNL     1      99.904  87.895  80.388  1.00  0.00     0.013 C 
ATOM      7  C   UNL     1     100.648  89.788  81.947  1.00  0.00    -0.064 C 
ATOM      8  C   UNL     1     101.331  91.909  80.594  1.00  0.00     0.015 C 
ATOM      9  C   UNL     1     102.168  91.785  79.291  1.00  0.00    -0.035 C 
ATOM     10  C   UNL     1     100.544  88.258  81.775  1.00  0.00    -0.006 C 
ATOM     11  C   UNL     1     100.848  90.286  83.202  1.00  0.00    -0.027 C 
ATOM     12  C   UNL     1     103.235  90.682  79.418  1.00  0.00     0.011 C 
ATOM     13  C   UNL     1     102.905  93.125  79.045  1.00  0.00     0.011 C 
ATOM     14  C   UNL     1     102.018  87.715  81.741  1.00  0.00     0.017 C 
ATOM     15  C   UNL     1      99.710  87.664  83.036  1.00  0.00    -0.020 C 
ATOM     16  C   UNL     1     100.911  89.486  84.473  1.00  0.00     0.032 C 
ATOM     17  C   UNL     1     100.531  87.982  84.353  1.00  0.00     0.006 C 
ATOM     18  C   UNL     1      99.523  86.109  82.954  1.00  0.00     0.008 C 
ATOM     19  C   UNL     1      98.289  88.314  83.078  1.00  0.00     0.012 C 
ATOM     20  C   UNL     1     100.107  87.273  85.724  1.00  0.00    -0.025 C 
ATOM     21  C   UNL     1      98.946  85.505  84.241  1.00  0.00     0.005 C 
ATOM     22  C   UNL     1      99.907  85.736  85.436  1.00  0.00     0.003 C 
ATOM     23  C   UNL     1     101.285  87.451  86.767  1.00  0.00     0.010 C 
ATOM     24  C   UNL     1      98.815  87.901  86.362  1.00  0.00     0.012 C 
ATOM     25  C   UNL     1      99.651  84.811  86.710  1.00  0.00    -0.006 C 
ATOM     26  C   UNL     1     101.735  86.168  87.481  1.00  0.00     0.033 C 
ATOM     27  C   UNL     1     100.544  85.294  87.918  1.00  0.00     0.120 C 
ATOM     28  C   UNL     1      99.981  83.331  86.327  1.00  0.00     0.014 C 
ATOM     29  C   UNL     1      98.162  84.798  87.177  1.00  0.00     0.014 C 
ENDROOT
BRANCH   1  30
ATOM     30  C   UNL     1      98.277  91.239  79.315  1.00  0.00     0.048 C 
ATOM     31  O   UNL     1      97.483  91.538  80.246  1.00  0.00    -0.550 OA
ATOM     32  O   UNL     1      98.038  91.795  78.062  1.00  0.00    -0.550 OA
ENDBRANCH   1  30
BRANCH  27  33
ATOM     33  O   UNL     1     100.995  84.228  88.725  1.00  0.00    -0.393 OA
ATOM     34  H   UNL     1     100.788  83.379  88.247  1.00  0.00     0.210 HD
ENDBRANCH  27  33
TORSDOF 2
ENDMDL
MODEL 9
REMARK VINA RESULT:    -6.228      3.164      8.045
REMARK INTER + INTRA:          -6.992
REMARK INTER:                  -6.778
REMARK INTRA:                  -0.213
REMARK UNBOUND:                -0.218
REMARK SMILES CC1(C)CC[C@@]2(C(=O)[O-])CC[C@@]3(C)C(=CC[C@H]4[C@]5(C)CC[C@H](O)C(C)(C)[C@H]5CC[C@@]43C)[C@H]2C1
REMARK SMILES IDX 6 1 5 2 10 3 32 4 4 5 11 6 14 7 33 8 2 9 12 10 15 11 1 12
REMARK SMILES IDX 3 13 13 14 30 15 16 16 17 17 29 18 31 19 18 20 28 21 27 22
REMARK SMILES IDX 20 23 19 24 24 25 21 26 22 27 25 28 26 29 7 30 8 31 9 32
REMARK SMILES IDX 23 33
REMARK H PARENT 23 34
REMARK Flexibility Score: inf
ROOT
ATOM      1  C   UNL     1      91.778  88.233  84.608  1.00  0.00     0.017 C 
ATOM      2  C   UNL     1      90.805  87.889  85.795  1.00  0.00     0.014 C 
ATOM      3  C   UNL     1      93.196  88.517  85.164  1.00  0.00     0.014 C 
ATOM      4  C   UNL     1      91.845  87.101  83.508  1.00  0.00     0.028 C 
ATOM      5  C   UNL     1      89.458  87.324  85.345  1.00  0.00     0.007 C 
ATOM      6  C   UNL     1      93.928  87.259  85.641  1.00  0.00     0.013 C 
ATOM      7  C   UNL     1      93.102  86.196  83.460  1.00  0.00    -0.064 C 
ATOM      8  C   UNL     1      90.505  86.331  83.272  1.00  0.00     0.015 C 
ATOM      9  C   UNL     1      89.604  86.049  84.505  1.00  0.00    -0.035 C 
ATOM     10  C   UNL     1      94.211  86.183  84.532  1.00  0.00    -0.006 C 
ATOM     11  C   UNL     1      93.351  85.590  82.263  1.00  0.00    -0.027 C 
ATOM     12  C   UNL     1      90.168  84.897  85.356  1.00  0.00     0.011 C 
ATOM     13  C   UNL     1      88.201  85.621  84.007  1.00  0.00     0.011 C 
ATOM     14  C   UNL     1      94.125  84.783  85.241  1.00  0.00     0.017 C 
ATOM     15  C   UNL     1      95.638  86.396  83.787  1.00  0.00    -0.020 C 
ATOM     16  C   UNL     1      94.647  84.953  81.846  1.00  0.00     0.032 C 
ATOM     17  C   UNL     1      95.857  85.176  82.801  1.00  0.00     0.006 C 
ATOM     18  C   UNL     1      96.843  86.422  84.790  1.00  0.00     0.008 C 
ATOM     19  C   UNL     1      95.629  87.758  83.017  1.00  0.00     0.012 C 
ATOM     20  C   UNL     1      97.298  84.959  82.140  1.00  0.00    -0.025 C 
ATOM     21  C   UNL     1      98.207  86.388  84.089  1.00  0.00     0.005 C 
ATOM     22  C   UNL     1      98.379  85.076  83.281  1.00  0.00     0.003 C 
ATOM     23  C   UNL     1      97.355  83.499  81.527  1.00  0.00     0.010 C 
ATOM     24  C   UNL     1      97.594  85.970  80.974  1.00  0.00     0.012 C 
ATOM     25  C   UNL     1      99.877  84.718  82.867  1.00  0.00    -0.006 C 
ATOM     26  C   UNL     1      98.585  82.666  81.916  1.00  0.00     0.033 C 
ATOM     27  C   UNL     1      99.886  83.491  81.873  1.00  0.00     0.120 C 
ATOM     28  C   UNL     1     100.690  84.393  84.164  1.00  0.00     0.014 C 
ATOM     29  C   UNL     1     100.634  85.902  82.188  1.00  0.00     0.014 C 
ENDROOT
BRANCH   1  30
ATOM     30  C   UNL     1      91.307  89.544  83.940  1.00  0.00     0.048 C 
ATOM     31  O   UNL     1      91.486  89.728  82.707  1.00  0.00    -0.550 OA
ATOM     32  O   UNL     1      90.661  90.548  84.654  1.00  0.00    -0.550 OA
ENDBRANCH   1  30
BRANCH  27  33
ATOM     33  O   UNL     1     101.001  82.647  82.057  1.00  0.00    -0.393 OA
ATOM     34  H   UNL     1     101.432  82.517  81.169  1.00  0.00     0.210 HD
ENDBRANCH  27  33
TORSDOF 2
ENDMDL
