MODEL 1
REMARK VINA RESULT:    -2.747      0.000      0.000
REMARK INTER + INTRA:          -2.988
REMARK INTER:                  -2.988
REMARK INTRA:                   0.000
REMARK UNBOUND:                 0.000
REMARK SMILES [NH3+]CC(=O)[O-]
REMARK SMILES IDX 2 1 1 2 3 6 4 7 5 8
REMARK H PARENT 1 3 1 4 1 5
REMARK Flexibility Score: inf
ROOT
ATOM      1  C   UNL     1      45.979  16.412  76.610  1.00  0.00     0.312 C 
ENDROOT
BRANCH   1   2
ATOM      2  N   UNL     1      46.756  15.962  77.764  1.00  0.00    -0.353 N 
ATOM      3  H   UNL     1      47.095  16.786  78.312  1.00  0.00     0.344 HD
ATOM      4  H   UNL     1      47.582  15.416  77.428  1.00  0.00     0.344 HD
ATOM      5  H   UNL     1      46.168  15.348  78.374  1.00  0.00     0.344 HD
ENDBRANCH   1   2
BRANCH   1   6
ATOM      6  C   UNL     1      45.845  17.905  76.614  1.00  0.00     0.096 C 
ATOM      7  O   UNL     1      45.491  18.505  77.662  1.00  0.00    -0.544 OA
ATOM      8  O   UNL     1      46.062  18.625  75.446  1.00  0.00    -0.544 OA
ENDBRANCH   1   6
TORSDOF 2
ENDMDL
MODEL 2
REMARK VINA RESULT:    -2.716      0.286      1.447
REMARK INTER + INTRA:          -2.954
REMARK INTER:                  -2.954
REMARK INTRA:                   0.000
REMARK UNBOUND:                 0.000
REMARK SMILES [NH3+]CC(=O)[O-]
REMARK SMILES IDX 2 1 1 2 3 6 4 7 5 8
REMARK H PARENT 1 3 1 4 1 5
REMARK Flexibility Score: inf
ROOT
ATOM      1  C   UNL     1      45.962  16.473  76.642  1.00  0.00     0.312 C 
ENDROOT
BRANCH   1   2
ATOM      2  N   UNL     1      46.756  15.937  77.746  1.00  0.00    -0.353 N 
ATOM      3  H   UNL     1      46.995  16.700  78.421  1.00  0.00     0.344 HD
ATOM      4  H   UNL     1      47.642  15.531  77.364  1.00  0.00     0.344 HD
ATOM      5  H   UNL     1      46.223  15.183  78.239  1.00  0.00     0.344 HD
ENDBRANCH   1   2
BRANCH   1   6
ATOM      6  C   UNL     1      45.943  17.971  76.685  1.00  0.00     0.096 C 
ATOM      7  O   UNL     1      45.920  18.633  75.615  1.00  0.00    -0.544 OA
ATOM      8  O   UNL     1      46.002  18.632  77.905  1.00  0.00    -0.544 OA
ENDBRANCH   1   6
TORSDOF 2
ENDMDL
MODEL 3
REMARK VINA RESULT:    -2.586      8.511      8.939
REMARK INTER + INTRA:          -2.813
REMARK INTER:                  -2.813
REMARK INTRA:                   0.000
REMARK UNBOUND:                 0.000
REMARK SMILES [NH3+]CC(=O)[O-]
REMARK SMILES IDX 2 1 1 2 3 6 4 7 5 8
REMARK H PARENT 1 3 1 4 1 5
REMARK Flexibility Score: inf
ROOT
ATOM      1  C   UNL     1      37.456  17.974  80.021  1.00  0.00     0.312 C 
ENDROOT
BRANCH   1   2
ATOM      2  N   UNL     1      38.440  17.184  79.282  1.00  0.00    -0.353 N 
ATOM      3  H   UNL     1      38.496  16.218  79.678  1.00  0.00     0.344 HD
ATOM      4  H   UNL     1      39.378  17.641  79.367  1.00  0.00     0.344 HD
ATOM      5  H   UNL     1      38.176  17.138  78.270  1.00  0.00     0.344 HD
ENDBRANCH   1   2
BRANCH   1   6
ATOM      6  C   UNL     1      38.114  19.140  80.694  1.00  0.00     0.096 C 
ATOM      7  O   UNL     1      39.175  19.626  80.223  1.00  0.00    -0.544 OA
ATOM      8  O   UNL     1      37.581  19.655  81.869  1.00  0.00    -0.544 OA
ENDBRANCH   1   6
TORSDOF 2
ENDMDL
MODEL 4
REMARK VINA RESULT:    -2.460     20.730     21.060
REMARK INTER + INTRA:          -2.676
REMARK INTER:                  -2.676
REMARK INTRA:                   0.000
REMARK UNBOUND:                 0.000
REMARK SMILES [NH3+]CC(=O)[O-]
REMARK SMILES IDX 2 1 1 2 3 6 4 7 5 8
REMARK H PARENT 1 3 1 4 1 5
REMARK Flexibility Score: inf
ROOT
ATOM      1  C   UNL     1      44.101  31.910  93.124  1.00  0.00     0.312 C 
ENDROOT
BRANCH   1   2
ATOM      2  N   UNL     1      44.642  33.267  93.056  1.00  0.00    -0.353 N 
ATOM      3  H   UNL     1      45.071  33.435  92.116  1.00  0.00     0.344 HD
ATOM      4  H   UNL     1      45.379  33.378  93.790  1.00  0.00     0.344 HD
ATOM      5  H   UNL     1      43.883  33.965  93.229  1.00  0.00     0.344 HD
ENDBRANCH   1   2
BRANCH   1   6
ATOM      6  C   UNL     1      44.650  31.066  92.014  1.00  0.00     0.096 C 
ATOM      7  O   UNL     1      44.799  31.555  90.863  1.00  0.00    -0.544 OA
ATOM      8  O   UNL     1      44.947  29.729  92.239  1.00  0.00    -0.544 OA
ENDBRANCH   1   6
TORSDOF 2
ENDMDL
MODEL 5
REMARK VINA RESULT:    -2.388      1.655      2.243
REMARK INTER + INTRA:          -2.598
REMARK INTER:                  -2.598
REMARK INTRA:                   0.000
REMARK UNBOUND:                 0.000
REMARK SMILES [NH3+]CC(=O)[O-]
REMARK SMILES IDX 2 1 1 2 3 6 4 7 5 8
REMARK H PARENT 1 3 1 4 1 5
REMARK Flexibility Score: inf
ROOT
ATOM      1  C   UNL     1      46.155  18.929  77.922  1.00  0.00     0.312 C 
ENDROOT
BRANCH   1   2
ATOM      2  N   UNL     1      47.198  18.340  78.761  1.00  0.00    -0.353 N 
ATOM      3  H   UNL     1      47.035  18.589  79.764  1.00  0.00     0.344 HD
ATOM      4  H   UNL     1      48.128  18.716  78.464  1.00  0.00     0.344 HD
ATOM      5  H   UNL     1      47.202  17.300  78.650  1.00  0.00     0.344 HD
ENDBRANCH   1   2
BRANCH   1   6
ATOM      6  C   UNL     1      45.934  18.099  76.694  1.00  0.00     0.096 C 
ATOM      7  O   UNL     1      45.909  18.643  75.559  1.00  0.00    -0.544 OA
ATOM      8  O   UNL     1      45.705  16.734  76.810  1.00  0.00    -0.544 OA
ENDBRANCH   1   6
TORSDOF 2
ENDMDL
MODEL 6
REMARK VINA RESULT:    -2.316      9.023      9.292
REMARK INTER + INTRA:          -2.519
REMARK INTER:                  -2.519
REMARK INTRA:                   0.000
REMARK UNBOUND:                 0.000
REMARK SMILES [NH3+]CC(=O)[O-]
REMARK SMILES IDX 2 1 1 2 3 6 4 7 5 8
REMARK H PARENT 1 3 1 4 1 5
REMARK Flexibility Score: inf
ROOT
ATOM      1  C   UNL     1      55.538  17.903  73.480  1.00  0.00     0.312 C 
ENDROOT
BRANCH   1   2
ATOM      2  N   UNL     1      55.248  16.617  74.111  1.00  0.00    -0.353 N 
ATOM      3  H   UNL     1      54.405  16.700  74.726  1.00  0.00     0.344 HD
ATOM      4  H   UNL     1      56.067  16.332  74.696  1.00  0.00     0.344 HD
ATOM      5  H   UNL     1      55.083  15.887  73.380  1.00  0.00     0.344 HD
ENDBRANCH   1   2
BRANCH   1   6
ATOM      6  C   UNL     1      54.452  18.893  73.775  1.00  0.00     0.096 C 
ATOM      7  O   UNL     1      53.471  19.006  72.993  1.00  0.00    -0.544 OA
ATOM      8  O   UNL     1      54.551  19.723  74.883  1.00  0.00    -0.544 OA
ENDBRANCH   1   6
TORSDOF 2
ENDMDL
MODEL 7
REMARK VINA RESULT:    -2.262     19.833     20.293
REMARK INTER + INTRA:          -2.460
REMARK INTER:                  -2.460
REMARK INTRA:                   0.000
REMARK UNBOUND:                 0.000
REMARK SMILES [NH3+]CC(=O)[O-]
REMARK SMILES IDX 2 1 1 2 3 6 4 7 5 8
REMARK H PARENT 1 3 1 4 1 5
REMARK Flexibility Score: inf
ROOT
ATOM      1  C   UNL     1      49.027  34.725  85.407  1.00  0.00     0.312 C 
ENDROOT
BRANCH   1   2
ATOM      2  N   UNL     1      48.173  35.636  84.647  1.00  0.00    -0.353 N 
ATOM      3  H   UNL     1      47.388  35.979  85.248  1.00  0.00     0.344 HD
ATOM      4  H   UNL     1      47.773  35.125  83.826  1.00  0.00     0.344 HD
ATOM      5  H   UNL     1      48.734  36.449  84.300  1.00  0.00     0.344 HD
ENDBRANCH   1   2
BRANCH   1   6
ATOM      6  C   UNL     1      48.759  34.852  86.876  1.00  0.00     0.096 C 
ATOM      7  O   UNL     1      48.325  33.866  87.527  1.00  0.00    -0.544 OA
ATOM      8  O   UNL     1      48.941  36.073  87.512  1.00  0.00    -0.544 OA
ENDBRANCH   1   6
TORSDOF 2
ENDMDL
MODEL 8
REMARK VINA RESULT:    -2.172      2.253      2.708
REMARK INTER + INTRA:          -2.362
REMARK INTER:                  -2.362
REMARK INTRA:                   0.000
REMARK UNBOUND:                 0.000
REMARK SMILES [NH3+]CC(=O)[O-]
REMARK SMILES IDX 2 1 1 2 3 6 4 7 5 8
REMARK H PARENT 1 3 1 4 1 5
REMARK Flexibility Score: inf
ROOT
ATOM      1  C   UNL     1      46.161  19.098  75.433  1.00  0.00     0.312 C 
ENDROOT
BRANCH   1   2
ATOM      2  N   UNL     1      46.408  18.299  74.234  1.00  0.00    -0.353 N 
ATOM      3  H   UNL     1      46.829  18.895  73.485  1.00  0.00     0.344 HD
ATOM      4  H   UNL     1      45.499  17.912  73.889  1.00  0.00     0.344 HD
ATOM      5  H   UNL     1      47.051  17.504  74.459  1.00  0.00     0.344 HD
ENDBRANCH   1   2
BRANCH   1   6
ATOM      6  C   UNL     1      45.825  18.215  76.597  1.00  0.00     0.096 C 
ATOM      7  O   UNL     1      45.903  16.964  76.484  1.00  0.00    -0.544 OA
ATOM      8  O   UNL     1      45.378  18.774  77.787  1.00  0.00    -0.544 OA
ENDBRANCH   1   6
TORSDOF 2
ENDMDL
MODEL 9
REMARK VINA RESULT:    -2.098      8.590      8.937
REMARK INTER + INTRA:          -2.282
REMARK INTER:                  -2.282
REMARK INTRA:                   0.000
REMARK UNBOUND:                 0.000
REMARK SMILES [NH3+]CC(=O)[O-]
REMARK SMILES IDX 2 1 1 2 3 6 4 7 5 8
REMARK H PARENT 1 3 1 4 1 5
REMARK Flexibility Score: inf
ROOT
ATOM      1  C   UNL     1      38.954  20.013  80.116  1.00  0.00     0.312 C 
ENDROOT
BRANCH   1   2
ATOM      2  N   UNL     1      40.171  19.204  80.067  1.00  0.00    -0.353 N 
ATOM      3  H   UNL     1      39.979  18.244  80.435  1.00  0.00     0.344 HD
ATOM      4  H   UNL     1      40.904  19.655  80.662  1.00  0.00     0.344 HD
ATOM      5  H   UNL     1      40.522  19.144  79.084  1.00  0.00     0.344 HD
ENDBRANCH   1   2
BRANCH   1   6
ATOM      6  C   UNL     1      37.826  19.233  80.721  1.00  0.00     0.096 C 
ATOM      7  O   UNL     1      37.375  19.549  81.853  1.00  0.00    -0.544 OA
ATOM      8  O   UNL     1      37.310  18.128  80.057  1.00  0.00    -0.544 OA
ENDBRANCH   1   6
TORSDOF 2
ENDMDL
