MODEL 1
REMARK VINA RESULT:    -4.422      0.000      0.000
REMARK INTER + INTRA:          -6.229
REMARK INTER:                  -5.973
REMARK INTRA:                  -0.256
REMARK UNBOUND:                -0.256
REMARK SMILES CCCCCCCC(=O)[O-]
REMARK SMILES IDX 5 1 6 2 7 3 8 4 9 5 10 6 4 7 3 8 2 9 1 10
REMARK H PARENT
REMARK Flexibility Score: inf
ROOT
ATOM      1  C   UNL     1     -21.892 -62.437   0.885  1.00  0.00     0.000 C 
ENDROOT
BRANCH   1   2
ATOM      2  C   UNL     1     -22.110 -60.940   0.636  1.00  0.00     0.006 C 
BRANCH   2   3
ATOM      3  C   UNL     1     -21.924 -60.595  -0.845  1.00  0.00     0.053 C 
BRANCH   3   4
ATOM      4  C   UNL     1     -22.908 -59.551  -1.268  1.00  0.00     0.041 C 
ATOM      5  O   UNL     1     -24.034 -59.889  -1.721  1.00  0.00    -0.550 OA
ATOM      6  O   UNL     1     -22.603 -58.205  -1.116  1.00  0.00    -0.550 OA
ENDBRANCH   3   4
ENDBRANCH   2   3
ENDBRANCH   1   2
BRANCH   1   7
ATOM      7  C   UNL     1     -23.021 -63.022   1.745  1.00  0.00     0.000 C 
BRANCH   7   8
ATOM      8  C   UNL     1     -24.046 -61.965   2.191  1.00  0.00    -0.000 C 
BRANCH   8   9
ATOM      9  C   UNL     1     -25.118 -62.476   3.170  1.00  0.00    -0.003 C 
ATOM     10  C   UNL     1     -24.936 -63.946   3.542  1.00  0.00     0.004 C 
ENDBRANCH   8   9
ENDBRANCH   7   8
ENDBRANCH   1   7
TORSDOF 6
ENDMDL
MODEL 2
REMARK VINA RESULT:    -4.374      0.211      1.042
REMARK INTER + INTRA:          -6.165
REMARK INTER:                  -5.900
REMARK INTRA:                  -0.264
REMARK UNBOUND:                -0.256
REMARK SMILES CCCCCCCC(=O)[O-]
REMARK SMILES IDX 5 1 6 2 7 3 8 4 9 5 10 6 4 7 3 8 2 9 1 10
REMARK H PARENT
REMARK Flexibility Score: inf
ROOT
ATOM      1  C   UNL     1     -21.928 -62.473   0.758  1.00  0.00     0.000 C 
ENDROOT
BRANCH   1   2
ATOM      2  C   UNL     1     -21.944 -60.954   0.547  1.00  0.00     0.006 C 
BRANCH   2   3
ATOM      3  C   UNL     1     -21.876 -60.606  -0.944  1.00  0.00     0.053 C 
BRANCH   3   4
ATOM      4  C   UNL     1     -22.840 -59.510  -1.270  1.00  0.00     0.041 C 
ATOM      5  O   UNL     1     -22.478 -58.306  -1.196  1.00  0.00    -0.550 OA
ATOM      6  O   UNL     1     -24.123 -59.817  -1.703  1.00  0.00    -0.550 OA
ENDBRANCH   3   4
ENDBRANCH   2   3
ENDBRANCH   1   2
BRANCH   1   7
ATOM      7  C   UNL     1     -23.016 -62.901   1.754  1.00  0.00     0.000 C 
BRANCH   7   8
ATOM      8  C   UNL     1     -23.955 -61.748   2.151  1.00  0.00    -0.000 C 
BRANCH   8   9
ATOM      9  C   UNL     1     -25.148 -62.159   3.033  1.00  0.00    -0.003 C 
ATOM     10  C   UNL     1     -25.091 -63.621   3.471  1.00  0.00     0.004 C 
ENDBRANCH   8   9
ENDBRANCH   7   8
ENDBRANCH   1   7
TORSDOF 6
ENDMDL
MODEL 3
REMARK VINA RESULT:    -4.310      1.099      1.535
REMARK INTER + INTRA:          -6.078
REMARK INTER:                  -5.823
REMARK INTRA:                  -0.255
REMARK UNBOUND:                -0.256
REMARK SMILES CCCCCCCC(=O)[O-]
REMARK SMILES IDX 5 1 6 2 7 3 8 4 9 5 10 6 4 7 3 8 2 9 1 10
REMARK H PARENT
REMARK Flexibility Score: inf
ROOT
ATOM      1  C   UNL     1     -22.553 -62.130   1.817  1.00  0.00     0.000 C 
ENDROOT
BRANCH   1   2
ATOM      2  C   UNL     1     -22.081 -61.586   0.463  1.00  0.00     0.006 C 
BRANCH   2   3
ATOM      3  C   UNL     1     -22.138 -60.055   0.435  1.00  0.00     0.053 C 
BRANCH   3   4
ATOM      4  C   UNL     1     -22.205 -59.559  -0.974  1.00  0.00     0.041 C 
ATOM      5  O   UNL     1     -22.481 -58.353  -1.208  1.00  0.00    -0.550 OA
ATOM      6  O   UNL     1     -21.915 -60.416  -2.028  1.00  0.00    -0.550 OA
ENDBRANCH   3   4
ENDBRANCH   2   3
ENDBRANCH   1   2
BRANCH   1   7
ATOM      7  C   UNL     1     -23.453 -61.114   2.535  1.00  0.00     0.000 C 
BRANCH   7   8
ATOM      8  C   UNL     1     -24.846 -61.676   2.869  1.00  0.00    -0.000 C 
BRANCH   8   9
ATOM      9  C   UNL     1     -24.868 -63.168   3.248  1.00  0.00    -0.003 C 
ATOM     10  C   UNL     1     -26.034 -63.535   4.163  1.00  0.00     0.004 C 
ENDBRANCH   8   9
ENDBRANCH   7   8
ENDBRANCH   1   7
TORSDOF 6
ENDMDL
MODEL 4
REMARK VINA RESULT:    -4.208      1.399      2.286
REMARK INTER + INTRA:          -5.940
REMARK INTER:                  -5.467
REMARK INTRA:                  -0.473
REMARK UNBOUND:                -0.256
REMARK SMILES CCCCCCCC(=O)[O-]
REMARK SMILES IDX 5 1 6 2 7 3 8 4 9 5 10 6 4 7 3 8 2 9 1 10
REMARK H PARENT
REMARK Flexibility Score: inf
ROOT
ATOM      1  C   UNL     1     -24.268 -60.224   1.145  1.00  0.00     0.000 C 
ENDROOT
BRANCH   1   2
ATOM      2  C   UNL     1     -23.146 -59.207   1.386  1.00  0.00     0.006 C 
BRANCH   2   3
ATOM      3  C   UNL     1     -21.875 -59.599   0.625  1.00  0.00     0.053 C 
BRANCH   3   4
ATOM      4  C   UNL     1     -22.107 -59.531  -0.851  1.00  0.00     0.041 C 
ATOM      5  O   UNL     1     -21.876 -60.535  -1.575  1.00  0.00    -0.550 OA
ATOM      6  O   UNL     1     -22.623 -58.375  -1.421  1.00  0.00    -0.550 OA
ENDBRANCH   3   4
ENDBRANCH   2   3
ENDBRANCH   1   2
BRANCH   1   7
ATOM      7  C   UNL     1     -24.548 -61.046   2.411  1.00  0.00     0.000 C 
BRANCH   7   8
ATOM      8  C   UNL     1     -23.407 -62.019   2.759  1.00  0.00    -0.000 C 
BRANCH   8   9
ATOM      9  C   UNL     1     -23.355 -63.291   1.894  1.00  0.00    -0.003 C 
ATOM     10  C   UNL     1     -22.252 -63.250   0.837  1.00  0.00     0.004 C 
ENDBRANCH   8   9
ENDBRANCH   7   8
ENDBRANCH   1   7
TORSDOF 6
ENDMDL
MODEL 5
REMARK VINA RESULT:    -4.145      1.419      2.416
REMARK INTER + INTRA:          -5.855
REMARK INTER:                  -5.480
REMARK INTRA:                  -0.375
REMARK UNBOUND:                -0.256
REMARK SMILES CCCCCCCC(=O)[O-]
REMARK SMILES IDX 5 1 6 2 7 3 8 4 9 5 10 6 4 7 3 8 2 9 1 10
REMARK H PARENT
REMARK Flexibility Score: inf
ROOT
ATOM      1  C   UNL     1     -21.912 -60.327   0.005  1.00  0.00     0.000 C 
ENDROOT
BRANCH   1   2
ATOM      2  C   UNL     1     -22.685 -59.893  -1.245  1.00  0.00     0.006 C 
BRANCH   2   3
ATOM      3  C   UNL     1     -24.173 -59.700  -0.931  1.00  0.00     0.053 C 
BRANCH   3   4
ATOM      4  C   UNL     1     -24.837 -58.905  -2.011  1.00  0.00     0.041 C 
ATOM      5  O   UNL     1     -24.660 -57.660  -2.080  1.00  0.00    -0.550 OA
ATOM      6  O   UNL     1     -25.612 -59.545  -2.969  1.00  0.00    -0.550 OA
ENDBRANCH   3   4
ENDBRANCH   2   3
ENDBRANCH   1   2
BRANCH   1   7
ATOM      7  C   UNL     1     -22.085 -61.831   0.266  1.00  0.00     0.000 C 
BRANCH   7   8
ATOM      8  C   UNL     1     -22.285 -62.163   1.755  1.00  0.00    -0.000 C 
BRANCH   8   9
ATOM      9  C   UNL     1     -23.682 -62.696   2.117  1.00  0.00    -0.003 C 
ATOM     10  C   UNL     1     -24.676 -61.587   2.455  1.00  0.00     0.004 C 
ENDBRANCH   8   9
ENDBRANCH   7   8
ENDBRANCH   1   7
TORSDOF 6
ENDMDL
MODEL 6
REMARK VINA RESULT:    -4.020      1.802      2.067
REMARK INTER + INTRA:          -5.686
REMARK INTER:                  -5.398
REMARK INTRA:                  -0.289
REMARK UNBOUND:                -0.256
REMARK SMILES CCCCCCCC(=O)[O-]
REMARK SMILES IDX 5 1 6 2 7 3 8 4 9 5 10 6 4 7 3 8 2 9 1 10
REMARK H PARENT
REMARK Flexibility Score: inf
ROOT
ATOM      1  C   UNL     1     -23.613 -61.319   1.714  1.00  0.00     0.000 C 
ENDROOT
BRANCH   1   2
ATOM      2  C   UNL     1     -22.318 -61.304   0.894  1.00  0.00     0.006 C 
BRANCH   2   3
ATOM      3  C   UNL     1     -21.889 -59.869   0.570  1.00  0.00     0.053 C 
BRANCH   3   4
ATOM      4  C   UNL     1     -22.081 -59.581  -0.886  1.00  0.00     0.041 C 
ATOM      5  O   UNL     1     -21.875 -60.482  -1.742  1.00  0.00    -0.550 OA
ATOM      6  O   UNL     1     -22.531 -58.333  -1.294  1.00  0.00    -0.550 OA
ENDBRANCH   3   4
ENDBRANCH   2   3
ENDBRANCH   1   2
BRANCH   1   7
ATOM      7  C   UNL     1     -23.806 -62.673   2.413  1.00  0.00     0.000 C 
BRANCH   7   8
ATOM      8  C   UNL     1     -23.317 -62.671   3.872  1.00  0.00    -0.000 C 
BRANCH   8   9
ATOM      9  C   UNL     1     -23.732 -61.436   4.692  1.00  0.00    -0.003 C 
ATOM     10  C   UNL     1     -22.617 -60.918   5.599  1.00  0.00     0.004 C 
ENDBRANCH   8   9
ENDBRANCH   7   8
ENDBRANCH   1   7
TORSDOF 6
ENDMDL
MODEL 7
REMARK VINA RESULT:    -3.851      3.041      4.817
REMARK INTER + INTRA:          -5.458
REMARK INTER:                  -5.074
REMARK INTRA:                  -0.384
REMARK UNBOUND:                -0.256
REMARK SMILES CCCCCCCC(=O)[O-]
REMARK SMILES IDX 5 1 6 2 7 3 8 4 9 5 10 6 4 7 3 8 2 9 1 10
REMARK H PARENT
REMARK Flexibility Score: inf
ROOT
ATOM      1  C   UNL     1     -21.875 -61.064   0.021  1.00  0.00     0.000 C 
ENDROOT
BRANCH   1   2
ATOM      2  C   UNL     1     -22.205 -62.177   1.022  1.00  0.00     0.006 C 
BRANCH   2   3
ATOM      3  C   UNL     1     -23.496 -61.864   1.786  1.00  0.00     0.053 C 
BRANCH   3   4
ATOM      4  C   UNL     1     -23.920 -63.043   2.603  1.00  0.00     0.041 C 
ATOM      5  O   UNL     1     -25.079 -63.091   3.092  1.00  0.00    -0.550 OA
ATOM      6  O   UNL     1     -23.051 -64.111   2.786  1.00  0.00    -0.550 OA
ENDBRANCH   3   4
ENDBRANCH   2   3
ENDBRANCH   1   2
BRANCH   1   7
ATOM      7  C   UNL     1     -22.043 -59.679   0.662  1.00  0.00     0.000 C 
BRANCH   7   8
ATOM      8  C   UNL     1     -22.842 -58.702  -0.218  1.00  0.00    -0.000 C 
BRANCH   8   9
ATOM      9  C   UNL     1     -24.352 -58.992  -0.300  1.00  0.00    -0.003 C 
ATOM     10  C   UNL     1     -24.799 -59.443  -1.690  1.00  0.00     0.004 C 
ENDBRANCH   8   9
ENDBRANCH   7   8
ENDBRANCH   1   7
TORSDOF 6
ENDMDL
MODEL 8
REMARK VINA RESULT:    -3.562      3.613      5.522
REMARK INTER + INTRA:          -5.067
REMARK INTER:                  -4.753
REMARK INTRA:                  -0.315
REMARK UNBOUND:                -0.256
REMARK SMILES CCCCCCCC(=O)[O-]
REMARK SMILES IDX 5 1 6 2 7 3 8 4 9 5 10 6 4 7 3 8 2 9 1 10
REMARK H PARENT
REMARK Flexibility Score: inf
ROOT
ATOM      1  C   UNL     1     -23.537 -60.862   2.462  1.00  0.00     0.000 C 
ENDROOT
BRANCH   1   2
ATOM      2  C   UNL     1     -23.014 -62.243   2.048  1.00  0.00     0.006 C 
BRANCH   2   3
ATOM      3  C   UNL     1     -23.920 -63.357   2.584  1.00  0.00     0.053 C 
BRANCH   3   4
ATOM      4  C   UNL     1     -23.335 -63.958   3.822  1.00  0.00     0.041 C 
ATOM      5  O   UNL     1     -22.381 -63.386   4.414  1.00  0.00    -0.550 OA
ATOM      6  O   UNL     1     -23.873 -65.124   4.351  1.00  0.00    -0.550 OA
ENDBRANCH   3   4
ENDBRANCH   2   3
ENDBRANCH   1   2
BRANCH   1   7
ATOM      7  C   UNL     1     -23.072 -59.780   1.476  1.00  0.00     0.000 C 
BRANCH   7   8
ATOM      8  C   UNL     1     -24.017 -59.618   0.272  1.00  0.00    -0.000 C 
BRANCH   8   9
ATOM      9  C   UNL     1     -23.368 -59.879  -1.099  1.00  0.00    -0.003 C 
ATOM     10  C   UNL     1     -21.877 -60.196  -1.005  1.00  0.00     0.004 C 
ENDBRANCH   8   9
ENDBRANCH   7   8
ENDBRANCH   1   7
TORSDOF 6
ENDMDL
