MODEL 1
REMARK VINA RESULT:    -4.164      0.000      0.000
REMARK INTER + INTRA:          -6.499
REMARK INTER:                  -6.112
REMARK INTRA:                  -0.388
REMARK UNBOUND:                -0.388
REMARK SMILES O=C([O-])CCCCCCCC(=O)[O-]
REMARK SMILES IDX 7 1 6 2 5 3 4 4 2 5 1 6 3 7 8 8 9 9 10 10 11 11 12 12 13 13
REMARK H PARENT
REMARK Flexibility Score: inf
ROOT
ATOM      1  C   UNL     1      58.448  -5.461  82.714  1.00  0.00     0.000 C 
ENDROOT
BRANCH   1   2
ATOM      2  C   UNL     1      59.280  -6.565  83.390  1.00  0.00     0.000 C 
BRANCH   2   3
ATOM      3  C   UNL     1      60.682  -6.704  82.777  1.00  0.00     0.006 C 
BRANCH   3   4
ATOM      4  C   UNL     1      60.831  -7.967  81.918  1.00  0.00     0.053 C 
BRANCH   4   5
ATOM      5  C   UNL     1      61.378  -7.619  80.569  1.00  0.00     0.041 C 
ATOM      6  O   UNL     1      62.116  -6.609  80.426  1.00  0.00    -0.550 OA
ATOM      7  O   UNL     1      61.113  -8.439  79.480  1.00  0.00    -0.550 OA
ENDBRANCH   4   5
ENDBRANCH   3   4
ENDBRANCH   2   3
ENDBRANCH   1   2
BRANCH   1   8
ATOM      8  C   UNL     1      59.265  -4.185  82.449  1.00  0.00     0.000 C 
BRANCH   8   9
ATOM      9  C   UNL     1      58.456  -3.106  81.707  1.00  0.00     0.006 C 
BRANCH   9  10
ATOM     10  C   UNL     1      57.867  -2.064  82.667  1.00  0.00     0.053 C 
BRANCH  10  11
ATOM     11  C   UNL     1      56.394  -2.255  82.860  1.00  0.00     0.041 C 
ATOM     12  O   UNL     1      55.760  -1.524  83.666  1.00  0.00    -0.550 OA
ATOM     13  O   UNL     1      55.715  -3.221  82.127  1.00  0.00    -0.550 OA
ENDBRANCH  10  11
ENDBRANCH   9  10
ENDBRANCH   8   9
ENDBRANCH   1   8
TORSDOF 8
ENDMDL
MODEL 2
REMARK VINA RESULT:    -4.037      0.402      6.575
REMARK INTER + INTRA:          -6.313
REMARK INTER:                  -5.960
REMARK INTRA:                  -0.353
REMARK UNBOUND:                -0.388
REMARK SMILES O=C([O-])CCCCCCCC(=O)[O-]
REMARK SMILES IDX 7 1 6 2 5 3 4 4 2 5 1 6 3 7 8 8 9 9 10 10 11 11 12 12 13 13
REMARK H PARENT
REMARK Flexibility Score: inf
ROOT
ATOM      1  C   UNL     1      58.872  -5.646  82.729  1.00  0.00     0.000 C 
ENDROOT
BRANCH   1   2
ATOM      2  C   UNL     1      59.360  -4.202  82.523  1.00  0.00     0.000 C 
BRANCH   2   3
ATOM      3  C   UNL     1      58.332  -3.333  81.780  1.00  0.00     0.006 C 
BRANCH   3   4
ATOM      4  C   UNL     1      57.979  -2.050  82.544  1.00  0.00     0.053 C 
BRANCH   4   5
ATOM      5  C   UNL     1      56.536  -2.061  82.943  1.00  0.00     0.041 C 
ATOM      6  O   UNL     1      55.769  -2.963  82.517  1.00  0.00    -0.550 OA
ATOM      7  O   UNL     1      56.052  -1.105  83.826  1.00  0.00    -0.550 OA
ENDBRANCH   4   5
ENDBRANCH   3   4
ENDBRANCH   2   3
ENDBRANCH   1   2
BRANCH   1   8
ATOM      8  C   UNL     1      59.777  -6.445  83.682  1.00  0.00     0.000 C 
BRANCH   8   9
ATOM      9  C   UNL     1      60.892  -7.206  82.942  1.00  0.00     0.006 C 
BRANCH   9  10
ATOM     10  C   UNL     1      60.351  -8.005  81.749  1.00  0.00     0.053 C 
BRANCH  10  11
ATOM     11  C   UNL     1      61.203  -7.830  80.529  1.00  0.00     0.041 C 
ATOM     12  O   UNL     1      62.125  -6.972  80.517  1.00  0.00    -0.550 OA
ATOM     13  O   UNL     1      60.998  -8.636  79.416  1.00  0.00    -0.550 OA
ENDBRANCH  10  11
ENDBRANCH   9  10
ENDBRANCH   8   9
ENDBRANCH   1   8
TORSDOF 8
ENDMDL
MODEL 3
REMARK VINA RESULT:    -4.008      3.016      3.599
REMARK INTER + INTRA:          -6.270
REMARK INTER:                  -5.785
REMARK INTRA:                  -0.484
REMARK UNBOUND:                -0.388
REMARK SMILES O=C([O-])CCCCCCCC(=O)[O-]
REMARK SMILES IDX 7 1 6 2 5 3 4 4 2 5 1 6 3 7 8 8 9 9 10 10 11 11 12 12 13 13
REMARK H PARENT
REMARK Flexibility Score: inf
ROOT
ATOM      1  C   UNL     1      58.715  -6.370  83.210  1.00  0.00     0.000 C 
ENDROOT
BRANCH   1   2
ATOM      2  C   UNL     1      60.187  -6.807  83.112  1.00  0.00     0.000 C 
BRANCH   2   3
ATOM      3  C   UNL     1      60.480  -7.610  81.834  1.00  0.00     0.006 C 
BRANCH   3   4
ATOM      4  C   UNL     1      59.641  -8.890  81.734  1.00  0.00     0.053 C 
BRANCH   4   5
ATOM      5  C   UNL     1      59.363  -9.222  80.301  1.00  0.00     0.041 C 
ATOM      6  O   UNL     1      60.280  -9.139  79.443  1.00  0.00    -0.550 OA
ATOM      7  O   UNL     1      58.104  -9.669  79.923  1.00  0.00    -0.550 OA
ENDBRANCH   4   5
ENDBRANCH   3   4
ENDBRANCH   2   3
ENDBRANCH   1   2
BRANCH   1   8
ATOM      8  C   UNL     1      58.450  -5.029  82.504  1.00  0.00     0.000 C 
BRANCH   8   9
ATOM      9  C   UNL     1      59.623  -4.043  82.644  1.00  0.00     0.006 C 
BRANCH   9  10
ATOM     10  C   UNL     1      59.807  -3.182  81.387  1.00  0.00     0.053 C 
BRANCH  10  11
ATOM     11  C   UNL     1      61.108  -3.469  80.702  1.00  0.00     0.041 C 
ATOM     12  O   UNL     1      61.531  -4.652  80.613  1.00  0.00    -0.550 OA
ATOM     13  O   UNL     1      61.839  -2.433  80.134  1.00  0.00    -0.550 OA
ENDBRANCH  10  11
ENDBRANCH   9  10
ENDBRANCH   8   9
ENDBRANCH   1   8
TORSDOF 8
ENDMDL
MODEL 4
REMARK VINA RESULT:    -3.982     12.755     14.890
REMARK INTER + INTRA:          -6.232
REMARK INTER:                  -5.607
REMARK INTRA:                  -0.625
REMARK UNBOUND:                -0.388
REMARK SMILES O=C([O-])CCCCCCCC(=O)[O-]
REMARK SMILES IDX 7 1 6 2 5 3 4 4 2 5 1 6 3 7 8 8 9 9 10 10 11 11 12 12 13 13
REMARK H PARENT
REMARK Flexibility Score: inf
ROOT
ATOM      1  C   UNL     1      49.417  -2.252  73.267  1.00  0.00     0.000 C 
ENDROOT
BRANCH   1   2
ATOM      2  C   UNL     1      49.115  -1.674  71.873  1.00  0.00     0.000 C 
BRANCH   2   3
ATOM      3  C   UNL     1      48.228  -0.420  71.935  1.00  0.00     0.006 C 
BRANCH   3   4
ATOM      4  C   UNL     1      48.296   0.287  73.295  1.00  0.00     0.053 C 
BRANCH   4   5
ATOM      5  C   UNL     1      48.407   1.768  73.109  1.00  0.00     0.041 C 
ATOM      6  O   UNL     1      47.432   2.423  72.655  1.00  0.00    -0.550 OA
ATOM      7  O   UNL     1      49.568   2.430  73.483  1.00  0.00    -0.550 OA
ENDBRANCH   4   5
ENDBRANCH   3   4
ENDBRANCH   2   3
ENDBRANCH   1   2
BRANCH   1   8
ATOM      8  C   UNL     1      50.913  -2.545  73.472  1.00  0.00     0.000 C 
BRANCH   8   9
ATOM      9  C   UNL     1      51.723  -2.438  72.167  1.00  0.00     0.006 C 
BRANCH   9  10
ATOM     10  C   UNL     1      52.991  -1.592  72.343  1.00  0.00     0.053 C 
BRANCH  10  11
ATOM     11  C   UNL     1      52.909  -0.302  71.586  1.00  0.00     0.041 C 
ATOM     12  O   UNL     1      53.840   0.040  70.810  1.00  0.00    -0.550 OA
ATOM     13  O   UNL     1      51.789   0.511  71.715  1.00  0.00    -0.550 OA
ENDBRANCH  10  11
ENDBRANCH   9  10
ENDBRANCH   8   9
ENDBRANCH   1   8
TORSDOF 8
ENDMDL
MODEL 5
REMARK VINA RESULT:    -3.953      1.918      7.496
REMARK INTER + INTRA:          -6.189
REMARK INTER:                  -5.980
REMARK INTRA:                  -0.209
REMARK UNBOUND:                -0.388
REMARK SMILES O=C([O-])CCCCCCCC(=O)[O-]
REMARK SMILES IDX 7 1 6 2 5 3 4 4 2 5 1 6 3 7 8 8 9 9 10 10 11 11 12 12 13 13
REMARK H PARENT
REMARK Flexibility Score: inf
ROOT
ATOM      1  C   UNL     1      58.280  -2.578  81.890  1.00  0.00     0.000 C 
ENDROOT
BRANCH   1   2
ATOM      2  C   UNL     1      57.821  -1.588  82.976  1.00  0.00     0.000 C 
BRANCH   2   3
ATOM      3  C   UNL     1      56.314  -1.685  83.261  1.00  0.00     0.006 C 
BRANCH   3   4
ATOM      4  C   UNL     1      55.896  -0.904  84.513  1.00  0.00     0.053 C 
BRANCH   4   5
ATOM      5  C   UNL     1      54.938   0.188  84.153  1.00  0.00     0.041 C 
ATOM      6  O   UNL     1      53.996  -0.037  83.347  1.00  0.00    -0.550 OA
ATOM      7  O   UNL     1      55.054   1.438  84.745  1.00  0.00    -0.550 OA
ENDBRANCH   4   5
ENDBRANCH   3   4
ENDBRANCH   2   3
ENDBRANCH   1   2
BRANCH   1   8
ATOM      8  C   UNL     1      58.152  -4.044  82.337  1.00  0.00     0.000 C 
BRANCH   8   9
ATOM      9  C   UNL     1      59.517  -4.741  82.484  1.00  0.00     0.006 C 
BRANCH   9  10
ATOM     10  C   UNL     1      59.381  -6.168  83.029  1.00  0.00     0.053 C 
BRANCH  10  11
ATOM     11  C   UNL     1      60.537  -7.031  82.626  1.00  0.00     0.041 C 
ATOM     12  O   UNL     1      61.435  -7.320  83.461  1.00  0.00    -0.550 OA
ATOM     13  O   UNL     1      60.609  -7.540  81.336  1.00  0.00    -0.550 OA
ENDBRANCH  10  11
ENDBRANCH   9  10
ENDBRANCH   8   9
ENDBRANCH   1   8
TORSDOF 8
ENDMDL
MODEL 6
REMARK VINA RESULT:    -3.919     12.821     14.096
REMARK INTER + INTRA:          -6.140
REMARK INTER:                  -5.562
REMARK INTRA:                  -0.578
REMARK UNBOUND:                -0.388
REMARK SMILES O=C([O-])CCCCCCCC(=O)[O-]
REMARK SMILES IDX 7 1 6 2 5 3 4 4 2 5 1 6 3 7 8 8 9 9 10 10 11 11 12 12 13 13
REMARK H PARENT
REMARK Flexibility Score: inf
ROOT
ATOM      1  C   UNL     1      48.985  -0.950  71.619  1.00  0.00     0.000 C 
ENDROOT
BRANCH   1   2
ATOM      2  C   UNL     1      49.624  -1.952  72.597  1.00  0.00     0.000 C 
BRANCH   2   3
ATOM      3  C   UNL     1      51.146  -2.065  72.413  1.00  0.00     0.006 C 
BRANCH   3   4
ATOM      4  C   UNL     1      51.807  -0.719  72.089  1.00  0.00     0.053 C 
BRANCH   4   5
ATOM      5  C   UNL     1      53.231  -0.922  71.678  1.00  0.00     0.041 C 
ATOM      6  O   UNL     1      53.788  -2.037  71.852  1.00  0.00    -0.550 OA
ATOM      7  O   UNL     1      53.928   0.106  71.056  1.00  0.00    -0.550 OA
ENDBRANCH   4   5
ENDBRANCH   3   4
ENDBRANCH   2   3
ENDBRANCH   1   2
BRANCH   1   8
ATOM      8  C   UNL     1      48.018   0.021  72.317  1.00  0.00     0.000 C 
BRANCH   8   9
ATOM      9  C   UNL     1      48.625   0.655  73.581  1.00  0.00     0.006 C 
BRANCH   9  10
ATOM     10  C   UNL     1      49.461   1.901  73.258  1.00  0.00     0.053 C 
BRANCH  10  11
ATOM     11  C   UNL     1      48.767   3.161  73.675  1.00  0.00     0.041 C 
ATOM     12  O   UNL     1      49.295   3.926  74.525  1.00  0.00    -0.550 OA
ATOM     13  O   UNL     1      47.549   3.507  73.102  1.00  0.00    -0.550 OA
ENDBRANCH  10  11
ENDBRANCH   9  10
ENDBRANCH   8   9
ENDBRANCH   1   8
TORSDOF 8
ENDMDL
MODEL 7
REMARK VINA RESULT:    -3.851      2.470      3.963
REMARK INTER + INTRA:          -6.039
REMARK INTER:                  -5.478
REMARK INTRA:                  -0.562
REMARK UNBOUND:                -0.388
REMARK SMILES O=C([O-])CCCCCCCC(=O)[O-]
REMARK SMILES IDX 7 1 6 2 5 3 4 4 2 5 1 6 3 7 8 8 9 9 10 10 11 11 12 12 13 13
REMARK H PARENT
REMARK Flexibility Score: inf
ROOT
ATOM      1  C   UNL     1      61.766  -6.777  80.826  1.00  0.00     0.000 C 
ENDROOT
BRANCH   1   2
ATOM      2  C   UNL     1      62.050  -7.986  79.917  1.00  0.00     0.000 C 
BRANCH   2   3
ATOM      3  C   UNL     1      60.784  -8.801  79.610  1.00  0.00     0.006 C 
BRANCH   3   4
ATOM      4  C   UNL     1      60.975 -10.305  79.848  1.00  0.00     0.053 C 
BRANCH   4   5
ATOM      5  C   UNL     1      60.466 -10.688  81.202  1.00  0.00     0.041 C 
ATOM      6  O   UNL     1      61.229 -10.641  82.202  1.00  0.00    -0.550 OA
ATOM      7  O   UNL     1      59.135 -11.049  81.367  1.00  0.00    -0.550 OA
ENDBRANCH   4   5
ENDBRANCH   3   4
ENDBRANCH   2   3
ENDBRANCH   1   2
BRANCH   1   8
ATOM      8  C   UNL     1      61.397  -7.191  82.260  1.00  0.00     0.000 C 
BRANCH   8   9
ATOM      9  C   UNL     1      59.894  -7.032  82.555  1.00  0.00     0.006 C 
BRANCH   9  10
ATOM     10  C   UNL     1      59.599  -5.778  83.388  1.00  0.00     0.053 C 
BRANCH  10  11
ATOM     11  C   UNL     1      59.131  -4.640  82.533  1.00  0.00     0.041 C 
ATOM     12  O   UNL     1      57.906  -4.501  82.274  1.00  0.00    -0.550 OA
ATOM     13  O   UNL     1      60.045  -3.713  82.047  1.00  0.00    -0.550 OA
ENDBRANCH  10  11
ENDBRANCH   9  10
ENDBRANCH   8   9
ENDBRANCH   1   8
TORSDOF 8
ENDMDL
MODEL 8
REMARK VINA RESULT:    -3.845      2.306      6.654
REMARK INTER + INTRA:          -6.031
REMARK INTER:                  -5.557
REMARK INTRA:                  -0.474
REMARK UNBOUND:                -0.388
REMARK SMILES O=C([O-])CCCCCCCC(=O)[O-]
REMARK SMILES IDX 7 1 6 2 5 3 4 4 2 5 1 6 3 7 8 8 9 9 10 10 11 11 12 12 13 13
REMARK H PARENT
REMARK Flexibility Score: inf
ROOT
ATOM      1  C   UNL     1      61.515  -6.596  81.490  1.00  0.00     0.000 C 
ENDROOT
BRANCH   1   2
ATOM      2  C   UNL     1      60.900  -7.323  82.699  1.00  0.00     0.000 C 
BRANCH   2   3
ATOM      3  C   UNL     1      59.929  -6.431  83.491  1.00  0.00     0.006 C 
BRANCH   3   4
ATOM      4  C   UNL     1      58.624  -6.156  82.733  1.00  0.00     0.053 C 
BRANCH   4   5
ATOM      5  C   UNL     1      58.473  -4.691  82.469  1.00  0.00     0.041 C 
ATOM      6  O   UNL     1      57.371  -4.230  82.071  1.00  0.00    -0.550 OA
ATOM      7  O   UNL     1      59.533  -3.828  82.711  1.00  0.00    -0.550 OA
ENDBRANCH   4   5
ENDBRANCH   3   4
ENDBRANCH   2   3
ENDBRANCH   1   2
BRANCH   1   8
ATOM      8  C   UNL     1      62.033  -7.569  80.418  1.00  0.00     0.000 C 
BRANCH   8   9
ATOM      9  C   UNL     1      61.358  -8.950  80.494  1.00  0.00     0.006 C 
BRANCH   9  10
ATOM     10  C   UNL     1      60.227  -9.097  79.467  1.00  0.00     0.053 C 
BRANCH  10  11
ATOM     11  C   UNL     1      60.269 -10.427  78.780  1.00  0.00     0.041 C 
ATOM     12  O   UNL     1      60.924 -11.380  79.279  1.00  0.00    -0.550 OA
ATOM     13  O   UNL     1      59.559 -10.624  77.602  1.00  0.00    -0.550 OA
ENDBRANCH  10  11
ENDBRANCH   9  10
ENDBRANCH   8   9
ENDBRANCH   1   8
TORSDOF 8
ENDMDL
MODEL 9
REMARK VINA RESULT:    -3.840      1.656      6.150
REMARK INTER + INTRA:          -6.024
REMARK INTER:                  -5.585
REMARK INTRA:                  -0.439
REMARK UNBOUND:                -0.388
REMARK SMILES O=C([O-])CCCCCCCC(=O)[O-]
REMARK SMILES IDX 7 1 6 2 5 3 4 4 2 5 1 6 3 7 8 8 9 9 10 10 11 11 12 12 13 13
REMARK H PARENT
REMARK Flexibility Score: inf
ROOT
ATOM      1  C   UNL     1      60.509  -6.870  82.813  1.00  0.00     0.000 C 
ENDROOT
BRANCH   1   2
ATOM      2  C   UNL     1      59.592  -5.675  83.130  1.00  0.00     0.000 C 
BRANCH   2   3
ATOM      3  C   UNL     1      59.716  -4.547  82.092  1.00  0.00     0.006 C 
BRANCH   3   4
ATOM      4  C   UNL     1      59.495  -3.156  82.700  1.00  0.00     0.053 C 
BRANCH   4   5
ATOM      5  C   UNL     1      58.128  -2.649  82.358  1.00  0.00     0.041 C 
ATOM      6  O   UNL     1      57.786  -1.482  82.685  1.00  0.00    -0.550 OA
ATOM      7  O   UNL     1      57.252  -3.447  81.636  1.00  0.00    -0.550 OA
ENDBRANCH   4   5
ENDBRANCH   3   4
ENDBRANCH   2   3
ENDBRANCH   1   2
BRANCH   1   8
ATOM      8  C   UNL     1      61.532  -6.553  81.710  1.00  0.00     0.000 C 
BRANCH   8   9
ATOM      9  C   UNL     1      61.638  -7.673  80.660  1.00  0.00     0.006 C 
BRANCH   9  10
ATOM     10  C   UNL     1      60.866  -8.931  81.077  1.00  0.00     0.053 C 
BRANCH  10  11
ATOM     11  C   UNL     1      59.746  -9.237  80.131  1.00  0.00     0.041 C 
ATOM     12  O   UNL     1      59.993  -9.602  78.951  1.00  0.00    -0.550 OA
ATOM     13  O   UNL     1      58.427  -9.148  80.561  1.00  0.00    -0.550 OA
ENDBRANCH  10  11
ENDBRANCH   9  10
ENDBRANCH   8   9
ENDBRANCH   1   8
TORSDOF 8
ENDMDL
