MODEL 1
REMARK VINA RESULT:    10.808      0.000      0.000
REMARK INTER + INTRA:          11.516
REMARK INTER:                  11.756
REMARK INTRA:                  -0.240
REMARK UNBOUND:                -0.240
REMARK SMILES CC1=C2C[C@H](C(C)(C)O)CC[C@@]2(C)CCC1
REMARK SMILES IDX 6 1 7 2 8 3 5 4 1 5 2 6 3 7 16 8 4 9 12 10 15 11 11 12 14 13
REMARK SMILES IDX 13 14 10 15 9 16
REMARK H PARENT 9 17
REMARK Flexibility Score: inf
ROOT
ATOM      1  C   UNL     1     -18.506 -11.887  13.588  1.00  0.00     0.062 C 
ATOM      2  C   UNL     1     -17.025 -11.532  13.828  1.00  0.00     0.042 C 
ATOM      3  C   UNL     1     -19.124 -12.318  14.943  1.00  0.00     0.042 C 
ENDROOT
BRANCH   1   4
ATOM      4  C   UNL     1     -18.629 -12.998  12.479  1.00  0.00     0.024 C 
ATOM      5  C   UNL     1     -17.640 -12.311   8.677  1.00  0.00     0.039 C 
ATOM      6  C   UNL     1     -17.857 -13.732   9.145  1.00  0.00    -0.074 C 
ATOM      7  C   UNL     1     -17.662 -14.106  10.448  1.00  0.00    -0.065 C 
ATOM      8  C   UNL     1     -18.264 -14.739   8.091  1.00  0.00     0.031 C 
ATOM      9  C   UNL     1     -17.399 -13.078  11.542  1.00  0.00     0.038 C 
ATOM     10  C   UNL     1     -17.944 -15.538  10.948  1.00  0.00    -0.011 C 
ATOM     11  C   UNL     1     -19.108 -15.855   8.686  1.00  0.00     0.005 C 
ATOM     12  C   UNL     1     -19.125 -15.463  11.958  1.00  0.00     0.011 C 
ATOM     13  C   UNL     1     -18.319 -16.527   9.801  1.00  0.00     0.011 C 
ATOM     14  C   UNL     1     -16.687 -16.117  11.645  1.00  0.00     0.016 C 
ATOM     15  C   UNL     1     -18.937 -14.403  13.062  1.00  0.00     0.008 C 
ENDBRANCH   1   4
BRANCH   1  16
ATOM     16  O   UNL     1     -19.125 -10.702  13.133  1.00  0.00    -0.390 OA
ATOM     17  H   UNL     1     -18.493 -10.214  12.543  1.00  0.00     0.211 HD
ENDBRANCH   1  16
TORSDOF 2
ENDMDL
MODEL 2
REMARK VINA RESULT:    11.902      1.079      2.755
REMARK INTER + INTRA:          12.706
REMARK INTER:                  12.923
REMARK INTRA:                  -0.218
REMARK UNBOUND:                -0.240
REMARK SMILES CC1=C2C[C@H](C(C)(C)O)CC[C@@]2(C)CCC1
REMARK SMILES IDX 6 1 7 2 8 3 5 4 1 5 2 6 3 7 16 8 4 9 12 10 15 11 11 12 14 13
REMARK SMILES IDX 13 14 10 15 9 16
REMARK H PARENT 9 17
REMARK Flexibility Score: inf
ROOT
ATOM      1  C   UNL     1     -18.335 -11.750  13.661  1.00  0.00     0.062 C 
ATOM      2  C   UNL     1     -17.066 -11.133  14.282  1.00  0.00     0.042 C 
ATOM      3  C   UNL     1     -19.125 -12.464  14.789  1.00  0.00     0.042 C 
ENDROOT
BRANCH   1   4
ATOM      4  C   UNL     1     -17.950 -12.716  12.478  1.00  0.00     0.024 C 
ATOM      5  C   UNL     1     -19.069 -16.542  12.419  1.00  0.00     0.039 C 
ATOM      6  C   UNL     1     -18.519 -15.908  11.161  1.00  0.00    -0.074 C 
ATOM      7  C   UNL     1     -18.621 -14.563  10.922  1.00  0.00    -0.065 C 
ATOM      8  C   UNL     1     -17.882 -16.839  10.154  1.00  0.00     0.031 C 
ATOM      9  C   UNL     1     -19.123 -13.599  11.989  1.00  0.00     0.038 C 
ATOM     10  C   UNL     1     -18.005 -13.898   9.674  1.00  0.00    -0.011 C 
ATOM     11  C   UNL     1     -16.796 -16.135   9.355  1.00  0.00     0.005 C 
ATOM     12  C   UNL     1     -16.878 -12.940  10.155  1.00  0.00     0.011 C 
ATOM     13  C   UNL     1     -17.403 -14.922   8.664  1.00  0.00     0.011 C 
ATOM     14  C   UNL     1     -19.088 -13.097   8.907  1.00  0.00     0.016 C 
ATOM     15  C   UNL     1     -17.316 -11.971  11.273  1.00  0.00     0.008 C 
ENDBRANCH   1   4
BRANCH   1  16
ATOM     16  O   UNL     1     -19.090 -10.670  13.156  1.00  0.00    -0.390 OA
ATOM     17  H   UNL     1     -18.982 -10.633  12.170  1.00  0.00     0.211 HD
ENDBRANCH   1  16
TORSDOF 2
ENDMDL
