MODEL 1
REMARK VINA RESULT:    -1.512      0.000      0.000
REMARK INTER + INTRA:          -2.943
REMARK INTER:                  -2.130
REMARK INTRA:                  -0.813
REMARK UNBOUND:                -0.813
REMARK SMILES CCCCCCCCC(=O)[O-]
REMARK SMILES IDX 6 1 7 2 8 3 9 4 10 5 11 6 5 7 4 8 3 9 2 10 1 11
REMARK H PARENT
REMARK Flexibility Score: inf
ROOT
ATOM      1  C   UNL     1     142.782  55.357 -12.785  1.00  0.00     0.000 C 
ENDROOT
BRANCH   1   2
ATOM      2  C   UNL     1     141.916  54.486 -13.711  1.00  0.00     0.006 C 
BRANCH   2   3
ATOM      3  C   UNL     1     141.234  53.339 -12.955  1.00  0.00     0.053 C 
BRANCH   3   4
ATOM      4  C   UNL     1     139.959  52.921 -13.619  1.00  0.00     0.041 C 
ATOM      5  O   UNL     1     139.851  51.770 -14.119  1.00  0.00    -0.550 OA
ATOM      6  O   UNL     1     138.876  53.791 -13.655  1.00  0.00    -0.550 OA
ENDBRANCH   3   4
ENDBRANCH   2   3
ENDBRANCH   1   2
BRANCH   1   7
ATOM      7  C   UNL     1     142.135  56.717 -12.467  1.00  0.00     0.000 C 
BRANCH   7   8
ATOM      8  C   UNL     1     140.863  57.040 -13.277  1.00  0.00    -0.000 C 
BRANCH   8   9
ATOM      9  C   UNL     1     139.552  57.020 -12.471  1.00  0.00    -0.000 C 
BRANCH   9  10
ATOM     10  C   UNL     1     139.778  56.780 -10.971  1.00  0.00    -0.003 C 
ATOM     11  C   UNL     1     139.216  55.428 -10.540  1.00  0.00     0.004 C 
ENDBRANCH   9  10
ENDBRANCH   8   9
ENDBRANCH   7   8
ENDBRANCH   1   7
TORSDOF 7
ENDMDL
MODEL 2
REMARK VINA RESULT:    -1.394      1.278      2.638
REMARK INTER + INTRA:          -2.777
REMARK INTER:                  -1.936
REMARK INTRA:                  -0.842
REMARK UNBOUND:                -0.813
REMARK SMILES CCCCCCCCC(=O)[O-]
REMARK SMILES IDX 6 1 7 2 8 3 9 4 10 5 11 6 5 7 4 8 3 9 2 10 1 11
REMARK H PARENT
REMARK Flexibility Score: inf
ROOT
ATOM      1  C   UNL     1     139.437  54.165 -10.320  1.00  0.00     0.000 C 
ENDROOT
BRANCH   1   2
ATOM      2  C   UNL     1     140.533  53.243 -10.881  1.00  0.00     0.006 C 
BRANCH   2   3
ATOM      3  C   UNL     1     140.545  53.225 -12.415  1.00  0.00     0.053 C 
BRANCH   3   4
ATOM      4  C   UNL     1     139.199  52.880 -12.974  1.00  0.00     0.041 C 
ATOM      5  O   UNL     1     138.654  51.783 -12.684  1.00  0.00    -0.550 OA
ATOM      6  O   UNL     1     138.531  53.787 -13.788  1.00  0.00    -0.550 OA
ENDBRANCH   3   4
ENDBRANCH   2   3
ENDBRANCH   1   2
BRANCH   1   7
ATOM      7  C   UNL     1     140.006  55.366  -9.543  1.00  0.00     0.000 C 
BRANCH   7   8
ATOM      8  C   UNL     1     140.371  56.589 -10.409  1.00  0.00    -0.000 C 
BRANCH   8   9
ATOM      9  C   UNL     1     139.382  56.902 -11.547  1.00  0.00    -0.000 C 
BRANCH   9  10
ATOM     10  C   UNL     1     140.059  56.965 -12.924  1.00  0.00    -0.003 C 
ATOM     11  C   UNL     1     141.574  56.828 -12.797  1.00  0.00     0.004 C 
ENDBRANCH   9  10
ENDBRANCH   8   9
ENDBRANCH   7   8
ENDBRANCH   1   7
TORSDOF 7
ENDMDL
MODEL 3
REMARK VINA RESULT:    -1.370      1.689      2.298
REMARK INTER + INTRA:          -2.744
REMARK INTER:                  -2.087
REMARK INTRA:                  -0.657
REMARK UNBOUND:                -0.813
REMARK SMILES CCCCCCCCC(=O)[O-]
REMARK SMILES IDX 6 1 7 2 8 3 9 4 10 5 11 6 5 7 4 8 3 9 2 10 1 11
REMARK H PARENT
REMARK Flexibility Score: inf
ROOT
ATOM      1  C   UNL     1     140.613  55.290 -13.005  1.00  0.00     0.000 C 
ENDROOT
BRANCH   1   2
ATOM      2  C   UNL     1     139.384  54.366 -12.984  1.00  0.00     0.006 C 
BRANCH   2   3
ATOM      3  C   UNL     1     139.537  53.222 -11.975  1.00  0.00     0.053 C 
BRANCH   3   4
ATOM      4  C   UNL     1     138.771  52.006 -12.398  1.00  0.00     0.041 C 
ATOM      5  O   UNL     1     138.056  52.034 -13.434  1.00  0.00    -0.550 OA
ATOM      6  O   UNL     1     138.874  50.830 -11.665  1.00  0.00    -0.550 OA
ENDBRANCH   3   4
ENDBRANCH   2   3
ENDBRANCH   1   2
BRANCH   1   7
ATOM      7  C   UNL     1     140.257  56.765 -12.743  1.00  0.00     0.000 C 
BRANCH   7   8
ATOM      8  C   UNL     1     139.382  57.013 -11.498  1.00  0.00    -0.000 C 
BRANCH   8   9
ATOM      9  C   UNL     1     140.107  56.864 -10.149  1.00  0.00    -0.000 C 
BRANCH   9  10
ATOM     10  C   UNL     1     139.460  55.811  -9.238  1.00  0.00    -0.003 C 
ATOM     11  C   UNL     1     137.940  55.942  -9.241  1.00  0.00     0.004 C 
ENDBRANCH   9  10
ENDBRANCH   8   9
ENDBRANCH   7   8
ENDBRANCH   1   7
TORSDOF 7
ENDMDL
MODEL 4
REMARK VINA RESULT:    -1.293      3.752      5.425
REMARK INTER + INTRA:          -2.635
REMARK INTER:                  -2.278
REMARK INTRA:                  -0.357
REMARK UNBOUND:                -0.813
REMARK SMILES CCCCCCCCC(=O)[O-]
REMARK SMILES IDX 6 1 7 2 8 3 9 4 10 5 11 6 5 7 4 8 3 9 2 10 1 11
REMARK H PARENT
REMARK Flexibility Score: inf
ROOT
ATOM      1  C   UNL     1     139.368  55.466 -10.505  1.00  0.00     0.000 C 
ENDROOT
BRANCH   1   2
ATOM      2  C   UNL     1     138.498  55.546  -9.239  1.00  0.00     0.006 C 
BRANCH   2   3
ATOM      3  C   UNL     1     137.551  56.751  -9.263  1.00  0.00     0.053 C 
BRANCH   3   4
ATOM      4  C   UNL     1     136.649  56.770  -8.067  1.00  0.00     0.041 C 
ATOM      5  O   UNL     1     137.134  56.868  -6.908  1.00  0.00    -0.550 OA
ATOM      6  O   UNL     1     135.271  56.714  -8.234  1.00  0.00    -0.550 OA
ENDBRANCH   3   4
ENDBRANCH   2   3
ENDBRANCH   1   2
BRANCH   1   7
ATOM      7  C   UNL     1     139.563  56.834 -11.184  1.00  0.00     0.000 C 
BRANCH   7   8
ATOM      8  C   UNL     1     139.629  56.795 -12.724  1.00  0.00    -0.000 C 
BRANCH   8   9
ATOM      9  C   UNL     1     141.006  57.125 -13.327  1.00  0.00    -0.000 C 
BRANCH   9  10
ATOM     10  C   UNL     1     141.892  55.883 -13.502  1.00  0.00    -0.003 C 
ATOM     11  C   UNL     1     142.953  55.807 -12.409  1.00  0.00     0.004 C 
ENDBRANCH   9  10
ENDBRANCH   8   9
ENDBRANCH   7   8
ENDBRANCH   1   7
TORSDOF 7
ENDMDL
MODEL 5
REMARK VINA RESULT:    -1.267      3.653      4.965
REMARK INTER + INTRA:          -2.598
REMARK INTER:                  -1.856
REMARK INTRA:                  -0.742
REMARK UNBOUND:                -0.813
REMARK SMILES CCCCCCCCC(=O)[O-]
REMARK SMILES IDX 6 1 7 2 8 3 9 4 10 5 11 6 5 7 4 8 3 9 2 10 1 11
REMARK H PARENT
REMARK Flexibility Score: inf
ROOT
ATOM      1  C   UNL     1     139.324  56.864 -10.781  1.00  0.00     0.000 C 
ENDROOT
BRANCH   1   2
ATOM      2  C   UNL     1     140.657  56.750 -10.022  1.00  0.00     0.006 C 
BRANCH   2   3
ATOM      3  C   UNL     1     140.654  55.589  -9.020  1.00  0.00     0.053 C 
BRANCH   3   4
ATOM      4  C   UNL     1     140.567  56.077  -7.607  1.00  0.00     0.041 C 
ATOM      5  O   UNL     1     141.305  55.579  -6.716  1.00  0.00    -0.550 OA
ATOM      6  O   UNL     1     139.695  57.109  -7.281  1.00  0.00    -0.550 OA
ENDBRANCH   3   4
ENDBRANCH   2   3
ENDBRANCH   1   2
BRANCH   1   7
ATOM      7  C   UNL     1     139.509  56.910 -12.309  1.00  0.00     0.000 C 
BRANCH   7   8
ATOM      8  C   UNL     1     140.248  55.700 -12.913  1.00  0.00    -0.000 C 
BRANCH   8   9
ATOM      9  C   UNL     1     139.450  54.383 -12.919  1.00  0.00    -0.000 C 
BRANCH   9  10
ATOM     10  C   UNL     1     140.084  53.298 -12.038  1.00  0.00    -0.003 C 
ATOM     11  C   UNL     1     141.602  53.447 -11.989  1.00  0.00     0.004 C 
ENDBRANCH   9  10
ENDBRANCH   8   9
ENDBRANCH   7   8
ENDBRANCH   1   7
TORSDOF 7
ENDMDL
MODEL 6
REMARK VINA RESULT:    -1.261      1.590      2.013
REMARK INTER + INTRA:          -2.589
REMARK INTER:                  -1.718
REMARK INTRA:                  -0.871
REMARK UNBOUND:                -0.813
REMARK SMILES CCCCCCCCC(=O)[O-]
REMARK SMILES IDX 6 1 7 2 8 3 9 4 10 5 11 6 5 7 4 8 3 9 2 10 1 11
REMARK H PARENT
REMARK Flexibility Score: inf
ROOT
ATOM      1  C   UNL     1     141.377  54.854 -13.361  1.00  0.00     0.000 C 
ENDROOT
BRANCH   1   2
ATOM      2  C   UNL     1     142.333  54.043 -12.469  1.00  0.00     0.006 C 
BRANCH   2   3
ATOM      3  C   UNL     1     141.673  53.615 -11.153  1.00  0.00     0.053 C 
BRANCH   3   4
ATOM      4  C   UNL     1     140.387  52.885 -11.392  1.00  0.00     0.041 C 
ATOM      5  O   UNL     1     139.301  53.356 -10.962  1.00  0.00    -0.550 OA
ATOM      6  O   UNL     1     140.384  51.702 -12.120  1.00  0.00    -0.550 OA
ENDBRANCH   3   4
ENDBRANCH   2   3
ENDBRANCH   1   2
BRANCH   1   7
ATOM      7  C   UNL     1     141.242  56.321 -12.915  1.00  0.00     0.000 C 
BRANCH   7   8
ATOM      8  C   UNL     1     139.795  56.805 -12.693  1.00  0.00    -0.000 C 
BRANCH   8   9
ATOM      9  C   UNL     1     139.341  56.856 -11.223  1.00  0.00    -0.000 C 
BRANCH   9  10
ATOM     10  C   UNL     1     140.515  56.977 -10.241  1.00  0.00    -0.003 C 
ATOM     11  C   UNL     1     140.218  56.242  -8.937  1.00  0.00     0.004 C 
ENDBRANCH   9  10
ENDBRANCH   8   9
ENDBRANCH   7   8
ENDBRANCH   1   7
TORSDOF 7
ENDMDL
MODEL 7
REMARK VINA RESULT:    -1.248      2.672      4.026
REMARK INTER + INTRA:          -2.571
REMARK INTER:                  -1.761
REMARK INTRA:                  -0.810
REMARK UNBOUND:                -0.813
REMARK SMILES CCCCCCCCC(=O)[O-]
REMARK SMILES IDX 6 1 7 2 8 3 9 4 10 5 11 6 5 7 4 8 3 9 2 10 1 11
REMARK H PARENT
REMARK Flexibility Score: inf
ROOT
ATOM      1  C   UNL     1     139.692  56.802 -12.625  1.00  0.00     0.000 C 
ENDROOT
BRANCH   1   2
ATOM      2  C   UNL     1     141.046  56.642 -13.339  1.00  0.00     0.006 C 
BRANCH   2   3
ATOM      3  C   UNL     1     142.216  57.121 -12.472  1.00  0.00     0.053 C 
BRANCH   3   4
ATOM      4  C   UNL     1     143.424  56.251 -12.645  1.00  0.00     0.041 C 
ATOM      5  O   UNL     1     143.405  55.295 -13.464  1.00  0.00    -0.550 OA
ATOM      6  O   UNL     1     144.582  56.519 -11.925  1.00  0.00    -0.550 OA
ENDBRANCH   3   4
ENDBRANCH   2   3
ENDBRANCH   1   2
BRANCH   1   7
ATOM      7  C   UNL     1     139.816  56.753 -11.091  1.00  0.00     0.000 C 
BRANCH   7   8
ATOM      8  C   UNL     1     139.128  55.546 -10.420  1.00  0.00    -0.000 C 
BRANCH   8   9
ATOM      9  C   UNL     1     140.041  54.688  -9.526  1.00  0.00    -0.000 C 
BRANCH   9  10
ATOM     10  C   UNL     1     141.382  54.351 -10.194  1.00  0.00    -0.003 C 
ATOM     11  C   UNL     1     141.200  53.322 -11.306  1.00  0.00     0.004 C 
ENDBRANCH   9  10
ENDBRANCH   8   9
ENDBRANCH   7   8
ENDBRANCH   1   7
TORSDOF 7
ENDMDL
MODEL 8
REMARK VINA RESULT:    -1.246      3.114      4.780
REMARK INTER + INTRA:          -2.568
REMARK INTER:                  -1.997
REMARK INTRA:                  -0.570
REMARK UNBOUND:                -0.813
REMARK SMILES CCCCCCCCC(=O)[O-]
REMARK SMILES IDX 6 1 7 2 8 3 9 4 10 5 11 6 5 7 4 8 3 9 2 10 1 11
REMARK H PARENT
REMARK Flexibility Score: inf
ROOT
ATOM      1  C   UNL     1     139.867  56.776 -10.764  1.00  0.00     0.000 C 
ENDROOT
BRANCH   1   2
ATOM      2  C   UNL     1     138.559  57.125 -10.033  1.00  0.00     0.006 C 
BRANCH   2   3
ATOM      3  C   UNL     1     138.709  57.041  -8.509  1.00  0.00     0.053 C 
BRANCH   3   4
ATOM      4  C   UNL     1     138.819  55.622  -8.042  1.00  0.00     0.041 C 
ATOM      5  O   UNL     1     139.895  55.200  -7.542  1.00  0.00    -0.550 OA
ATOM      6  O   UNL     1     137.720  54.775  -8.127  1.00  0.00    -0.550 OA
ENDBRANCH   3   4
ENDBRANCH   2   3
ENDBRANCH   1   2
BRANCH   1   7
ATOM      7  C   UNL     1     139.706  56.740 -12.294  1.00  0.00     0.000 C 
BRANCH   7   8
ATOM      8  C   UNL     1     140.314  55.503 -12.985  1.00  0.00    -0.000 C 
BRANCH   8   9
ATOM      9  C   UNL     1     139.413  54.254 -12.999  1.00  0.00    -0.000 C 
BRANCH   9  10
ATOM     10  C   UNL     1     140.010  53.080 -12.210  1.00  0.00    -0.003 C 
ATOM     11  C   UNL     1     139.522  53.087 -10.764  1.00  0.00     0.004 C 
ENDBRANCH   9  10
ENDBRANCH   8   9
ENDBRANCH   7   8
ENDBRANCH   1   7
TORSDOF 7
ENDMDL
MODEL 9
REMARK VINA RESULT:    -1.234      2.989      3.867
REMARK INTER + INTRA:          -2.551
REMARK INTER:                  -1.767
REMARK INTRA:                  -0.784
REMARK UNBOUND:                -0.813
REMARK SMILES CCCCCCCCC(=O)[O-]
REMARK SMILES IDX 6 1 7 2 8 3 9 4 10 5 11 6 5 7 4 8 3 9 2 10 1 11
REMARK H PARENT
REMARK Flexibility Score: inf
ROOT
ATOM      1  C   UNL     1     139.510  54.163 -11.494  1.00  0.00     0.000 C 
ENDROOT
BRANCH   1   2
ATOM      2  C   UNL     1     140.661  53.151 -11.361  1.00  0.00     0.006 C 
BRANCH   2   3
ATOM      3  C   UNL     1     141.902  53.768 -10.706  1.00  0.00     0.053 C 
BRANCH   3   4
ATOM      4  C   UNL     1     142.317  53.009  -9.483  1.00  0.00     0.041 C 
ATOM      5  O   UNL     1     143.489  52.563  -9.381  1.00  0.00    -0.550 OA
ATOM      6  O   UNL     1     141.416  52.825  -8.440  1.00  0.00    -0.550 OA
ENDBRANCH   3   4
ENDBRANCH   2   3
ENDBRANCH   1   2
BRANCH   1   7
ATOM      7  C   UNL     1     139.707  55.411 -10.613  1.00  0.00     0.000 C 
BRANCH   7   8
ATOM      8  C   UNL     1     139.461  56.756 -11.324  1.00  0.00    -0.000 C 
BRANCH   8   9
ATOM      9  C   UNL     1     139.819  56.779 -12.822  1.00  0.00    -0.000 C 
BRANCH   9  10
ATOM     10  C   UNL     1     141.293  57.125 -13.076  1.00  0.00    -0.003 C 
ATOM     11  C   UNL     1     142.018  55.969 -13.759  1.00  0.00     0.004 C 
ENDBRANCH   9  10
ENDBRANCH   8   9
ENDBRANCH   7   8
ENDBRANCH   1   7
TORSDOF 7
ENDMDL
