MODEL 1
REMARK VINA RESULT:    -4.557      0.000      0.000
REMARK INTER + INTRA:          -5.679
REMARK INTER:                  -5.489
REMARK INTRA:                  -0.190
REMARK UNBOUND:                -0.190
REMARK SMILES [NH3+][C@H](Cc1cnc[nH]1)C(=O)[O-]
REMARK SMILES IDX 3 1 2 2 1 3 9 7 10 8 11 9 4 10 5 11 8 12 6 13 7 14
REMARK H PARENT 1 4 1 5 1 6 8 15
REMARK Flexibility Score: inf
ROOT
ATOM      1  C   UNL     1     -17.252  -8.005  42.989  1.00  0.00     0.127 C 
ENDROOT
BRANCH   1   2
ATOM      2  C   UNL     1     -16.714  -8.789  41.775  1.00  0.00     0.233 C 
BRANCH   2   3
ATOM      3  N   UNL     1     -16.232  -7.886  40.721  1.00  0.00    -0.350 N 
ATOM      4  H   UNL     1     -16.528  -8.244  39.783  1.00  0.00     0.345 HD
ATOM      5  H   UNL     1     -16.650  -6.935  40.845  1.00  0.00     0.345 HD
ATOM      6  H   UNL     1     -15.190  -7.809  40.745  1.00  0.00     0.345 HD
ENDBRANCH   2   3
BRANCH   2   7
ATOM      7  C   UNL     1     -15.609  -9.713  42.214  1.00  0.00     0.099 C 
ATOM      8  O   UNL     1     -14.439  -9.566  41.771  1.00  0.00    -0.544 OA
ATOM      9  O   UNL     1     -15.874 -10.725  43.128  1.00  0.00    -0.544 OA
ENDBRANCH   2   7
ENDBRANCH   1   2
BRANCH   1  10
ATOM     10  C   UNL     1     -18.681  -8.349  43.282  1.00  0.00     0.041 A 
ATOM     11  C   UNL     1     -19.375  -9.440  42.811  1.00  0.00     0.134 A 
ATOM     12  N   UNL     1     -19.518  -7.586  44.003  1.00  0.00    -0.348 N 
ATOM     13  N   UNL     1     -20.649  -9.373  43.243  1.00  0.00    -0.245 NA
ATOM     14  C   UNL     1     -20.699  -8.232  43.965  1.00  0.00     0.196 A 
ATOM     15  H   UNL     1     -19.308  -6.682  44.479  1.00  0.00     0.167 HD
ENDBRANCH   1  10
TORSDOF 4
ENDMDL
MODEL 2
REMARK VINA RESULT:    -4.521      1.644      2.116
REMARK INTER + INTRA:          -5.637
REMARK INTER:                  -5.491
REMARK INTRA:                  -0.146
REMARK UNBOUND:                -0.190
REMARK SMILES [NH3+][C@H](Cc1cnc[nH]1)C(=O)[O-]
REMARK SMILES IDX 3 1 2 2 1 3 9 7 10 8 11 9 4 10 5 11 8 12 6 13 7 14
REMARK H PARENT 1 4 1 5 1 6 8 15
REMARK Flexibility Score: inf
ROOT
ATOM      1  C   UNL     1     -18.582  -8.616  43.778  1.00  0.00     0.127 C 
ENDROOT
BRANCH   1   2
ATOM      2  C   UNL     1     -17.482  -7.847  43.022  1.00  0.00     0.233 C 
BRANCH   2   3
ATOM      3  N   UNL     1     -16.520  -7.232  43.947  1.00  0.00    -0.350 N 
ATOM      4  H   UNL     1     -16.699  -6.203  44.017  1.00  0.00     0.345 HD
ATOM      5  H   UNL     1     -16.632  -7.641  44.904  1.00  0.00     0.345 HD
ATOM      6  H   UNL     1     -15.539  -7.387  43.620  1.00  0.00     0.345 HD
ENDBRANCH   2   3
BRANCH   2   7
ATOM      7  C   UNL     1     -16.770  -8.774  42.072  1.00  0.00     0.099 C 
ATOM      8  O   UNL     1     -16.741 -10.014  42.292  1.00  0.00    -0.544 OA
ATOM      9  O   UNL     1     -16.158  -8.265  40.934  1.00  0.00    -0.544 OA
ENDBRANCH   2   7
ENDBRANCH   1   2
BRANCH   1  10
ATOM     10  C   UNL     1     -19.949  -8.098  43.447  1.00  0.00     0.041 A 
ATOM     11  C   UNL     1     -20.891  -8.717  42.657  1.00  0.00     0.134 A 
ATOM     12  N   UNL     1     -20.425  -6.902  43.826  1.00  0.00    -0.348 N 
ATOM     13  N   UNL     1     -21.969  -7.915  42.546  1.00  0.00    -0.245 NA
ATOM     14  C   UNL     1     -21.649  -6.821  43.270  1.00  0.00     0.196 A 
ATOM     15  H   UNL     1     -19.949  -6.182  44.413  1.00  0.00     0.167 HD
ENDBRANCH   1  10
TORSDOF 4
ENDMDL
MODEL 3
REMARK VINA RESULT:    -4.433      3.395      3.992
REMARK INTER + INTRA:          -5.530
REMARK INTER:                  -5.346
REMARK INTRA:                  -0.184
REMARK UNBOUND:                -0.190
REMARK SMILES [NH3+][C@H](Cc1cnc[nH]1)C(=O)[O-]
REMARK SMILES IDX 3 1 2 2 1 3 9 7 10 8 11 9 4 10 5 11 8 12 6 13 7 14
REMARK H PARENT 1 4 1 5 1 6 8 15
REMARK Flexibility Score: inf
ROOT
ATOM      1  C   UNL     1     -15.998 -10.469  43.172  1.00  0.00     0.127 C 
ENDROOT
BRANCH   1   2
ATOM      2  C   UNL     1     -16.266  -9.568  44.394  1.00  0.00     0.233 C 
BRANCH   2   3
ATOM      3  N   UNL     1     -15.194  -9.680  45.392  1.00  0.00    -0.350 N 
ATOM      4  H   UNL     1     -15.604  -9.715  46.354  1.00  0.00     0.345 HD
ATOM      5  H   UNL     1     -14.656 -10.564  45.242  1.00  0.00     0.345 HD
ATOM      6  H   UNL     1     -14.541  -8.866  45.328  1.00  0.00     0.345 HD
ENDBRANCH   2   3
BRANCH   2   7
ATOM      7  C   UNL     1     -16.417  -8.137  43.950  1.00  0.00     0.099 C 
ATOM      8  O   UNL     1     -15.664  -7.241  44.414  1.00  0.00    -0.544 OA
ATOM      9  O   UNL     1     -17.380  -7.802  43.006  1.00  0.00    -0.544 OA
ENDBRANCH   2   7
ENDBRANCH   1   2
BRANCH   1  10
ATOM     10  C   UNL     1     -17.049 -11.527  43.022  1.00  0.00     0.041 A 
ATOM     11  C   UNL     1     -18.377 -11.419  43.370  1.00  0.00     0.134 A 
ATOM     12  N   UNL     1     -16.820 -12.775  42.585  1.00  0.00    -0.348 N 
ATOM     13  N   UNL     1     -18.990 -12.597  43.142  1.00  0.00    -0.245 NA
ATOM     14  C   UNL     1     -18.012 -13.397  42.665  1.00  0.00     0.196 A 
ATOM     15  H   UNL     1     -15.915 -13.183  42.265  1.00  0.00     0.167 HD
ENDBRANCH   1  10
TORSDOF 4
ENDMDL
MODEL 4
REMARK VINA RESULT:    -4.431     11.341     12.123
REMARK INTER + INTRA:          -5.527
REMARK INTER:                  -5.385
REMARK INTRA:                  -0.143
REMARK UNBOUND:                -0.190
REMARK SMILES [NH3+][C@H](Cc1cnc[nH]1)C(=O)[O-]
REMARK SMILES IDX 3 1 2 2 1 3 9 7 10 8 11 9 4 10 5 11 8 12 6 13 7 14
REMARK H PARENT 1 4 1 5 1 6 8 15
REMARK Flexibility Score: inf
ROOT
ATOM      1  C   UNL     1     -21.969 -15.889  33.979  1.00  0.00     0.127 C 
ENDROOT
BRANCH   1   2
ATOM      2  C   UNL     1     -22.690 -17.249  34.060  1.00  0.00     0.233 C 
BRANCH   2   3
ATOM      3  N   UNL     1     -23.978 -17.219  33.354  1.00  0.00    -0.350 N 
ATOM      4  H   UNL     1     -24.155 -18.144  32.897  1.00  0.00     0.345 HD
ATOM      5  H   UNL     1     -24.755 -17.045  34.033  1.00  0.00     0.345 HD
ATOM      6  H   UNL     1     -23.985 -16.469  32.625  1.00  0.00     0.345 HD
ENDBRANCH   2   3
BRANCH   2   7
ATOM      7  C   UNL     1     -21.809 -18.328  33.490  1.00  0.00     0.099 C 
ATOM      8  O   UNL     1     -20.703 -18.038  32.961  1.00  0.00    -0.544 OA
ATOM      9  O   UNL     1     -22.206 -19.658  33.563  1.00  0.00    -0.544 OA
ENDBRANCH   2   7
ENDBRANCH   1   2
BRANCH   1  10
ATOM     10  C   UNL     1     -22.333 -14.998  35.129  1.00  0.00     0.041 A 
ATOM     11  C   UNL     1     -21.994 -13.672  35.277  1.00  0.00     0.134 A 
ATOM     12  N   UNL     1     -22.992 -15.399  36.226  1.00  0.00    -0.348 N 
ATOM     13  N   UNL     1     -22.450 -13.231  36.466  1.00  0.00    -0.245 NA
ATOM     14  C   UNL     1     -23.052 -14.309  37.015  1.00  0.00     0.196 A 
ATOM     15  H   UNL     1     -23.368 -16.350  36.434  1.00  0.00     0.167 HD
ENDBRANCH   1  10
TORSDOF 4
ENDMDL
MODEL 5
REMARK VINA RESULT:    -4.424      3.272      4.849
REMARK INTER + INTRA:          -5.520
REMARK INTER:                  -5.437
REMARK INTRA:                  -0.083
REMARK UNBOUND:                -0.190
REMARK SMILES [NH3+][C@H](Cc1cnc[nH]1)C(=O)[O-]
REMARK SMILES IDX 3 1 2 2 1 3 9 7 10 8 11 9 4 10 5 11 8 12 6 13 7 14
REMARK H PARENT 1 4 1 5 1 6 8 15
REMARK Flexibility Score: inf
ROOT
ATOM      1  C   UNL     1     -19.127  -8.602  42.982  1.00  0.00     0.127 C 
ENDROOT
BRANCH   1   2
ATOM      2  C   UNL     1     -20.208  -8.286  44.033  1.00  0.00     0.233 C 
BRANCH   2   3
ATOM      3  N   UNL     1     -20.396  -6.837  44.194  1.00  0.00    -0.350 N 
ATOM      4  H   UNL     1     -19.469  -6.353  44.173  1.00  0.00     0.345 HD
ATOM      5  H   UNL     1     -20.971  -6.461  43.405  1.00  0.00     0.345 HD
ATOM      6  H   UNL     1     -20.873  -6.623  45.100  1.00  0.00     0.345 HD
ENDBRANCH   2   3
BRANCH   2   7
ATOM      7  C   UNL     1     -21.507  -8.939  43.642  1.00  0.00     0.099 C 
ATOM      8  O   UNL     1     -21.531 -10.141  43.268  1.00  0.00    -0.544 OA
ATOM      9  O   UNL     1     -22.693  -8.219  43.710  1.00  0.00    -0.544 OA
ENDBRANCH   2   7
ENDBRANCH   1   2
BRANCH   1  10
ATOM     10  C   UNL     1     -17.745  -8.412  43.533  1.00  0.00     0.041 A 
ATOM     11  C   UNL     1     -16.958  -9.377  44.119  1.00  0.00     0.134 A 
ATOM     12  N   UNL     1     -17.102  -7.236  43.595  1.00  0.00    -0.348 N 
ATOM     13  N   UNL     1     -15.810  -8.812  44.542  1.00  0.00    -0.245 NA
ATOM     14  C   UNL     1     -15.934  -7.509  44.206  1.00  0.00     0.196 A 
ATOM     15  H   UNL     1     -17.435  -6.307  43.255  1.00  0.00     0.167 HD
ENDBRANCH   1  10
TORSDOF 4
ENDMDL
MODEL 6
REMARK VINA RESULT:    -4.392      2.063      2.228
REMARK INTER + INTRA:          -5.480
REMARK INTER:                  -5.223
REMARK INTRA:                  -0.257
REMARK UNBOUND:                -0.190
REMARK SMILES [NH3+][C@H](Cc1cnc[nH]1)C(=O)[O-]
REMARK SMILES IDX 3 1 2 2 1 3 9 7 10 8 11 9 4 10 5 11 8 12 6 13 7 14
REMARK H PARENT 1 4 1 5 1 6 8 15
REMARK Flexibility Score: inf
ROOT
ATOM      1  C   UNL     1     -17.334  -9.205  42.690  1.00  0.00     0.127 C 
ENDROOT
BRANCH   1   2
ATOM      2  C   UNL     1     -16.531  -9.988  43.747  1.00  0.00     0.233 C 
BRANCH   2   3
ATOM      3  N   UNL     1     -15.671 -11.006  43.127  1.00  0.00    -0.350 N 
ATOM      4  H   UNL     1     -14.721 -10.607  42.946  1.00  0.00     0.345 HD
ATOM      5  H   UNL     1     -15.558 -11.821  43.772  1.00  0.00     0.345 HD
ATOM      6  H   UNL     1     -16.081 -11.337  42.223  1.00  0.00     0.345 HD
ENDBRANCH   2   3
BRANCH   2   7
ATOM      7  C   UNL     1     -15.701  -9.036  44.567  1.00  0.00     0.099 C 
ATOM      8  O   UNL     1     -14.844  -9.472  45.380  1.00  0.00    -0.544 OA
ATOM      9  O   UNL     1     -15.865  -7.665  44.413  1.00  0.00    -0.544 OA
ENDBRANCH   2   7
ENDBRANCH   1   2
BRANCH   1  10
ATOM     10  C   UNL     1     -18.698  -8.836  43.191  1.00  0.00     0.041 A 
ATOM     11  C   UNL     1     -19.850  -9.575  43.050  1.00  0.00     0.134 A 
ATOM     12  N   UNL     1     -19.002  -7.677  43.795  1.00  0.00    -0.348 N 
ATOM     13  N   UNL     1     -20.883  -8.887  43.576  1.00  0.00    -0.245 NA
ATOM     14  C   UNL     1     -20.328  -7.738  44.020  1.00  0.00     0.196 A 
ATOM     15  H   UNL     1     -18.357  -6.891  44.030  1.00  0.00     0.167 HD
ENDBRANCH   1  10
TORSDOF 4
ENDMDL
MODEL 7
REMARK VINA RESULT:    -4.323      3.449      5.145
REMARK INTER + INTRA:          -5.398
REMARK INTER:                  -5.222
REMARK INTRA:                  -0.176
REMARK UNBOUND:                -0.190
REMARK SMILES [NH3+][C@H](Cc1cnc[nH]1)C(=O)[O-]
REMARK SMILES IDX 3 1 2 2 1 3 9 7 10 8 11 9 4 10 5 11 8 12 6 13 7 14
REMARK H PARENT 1 4 1 5 1 6 8 15
REMARK Flexibility Score: inf
ROOT
ATOM      1  C   UNL     1     -15.636  -9.583  42.203  1.00  0.00     0.127 C 
ENDROOT
BRANCH   1   2
ATOM      2  C   UNL     1     -15.474  -8.149  41.661  1.00  0.00     0.233 C 
BRANCH   2   3
ATOM      3  N   UNL     1     -16.133  -7.988  40.358  1.00  0.00    -0.350 N 
ATOM      4  H   UNL     1     -17.172  -8.041  40.474  1.00  0.00     0.345 HD
ATOM      5  H   UNL     1     -15.905  -7.050  39.955  1.00  0.00     0.345 HD
ATOM      6  H   UNL     1     -15.824  -8.732  39.691  1.00  0.00     0.345 HD
ENDBRANCH   2   3
BRANCH   2   7
ATOM      7  C   UNL     1     -16.035  -7.163  42.653  1.00  0.00     0.099 C 
ATOM      8  O   UNL     1     -16.233  -5.965  42.320  1.00  0.00    -0.544 OA
ATOM      9  O   UNL     1     -16.354  -7.579  43.939  1.00  0.00    -0.544 OA
ENDBRANCH   2   7
ENDBRANCH   1   2
BRANCH   1  10
ATOM     10  C   UNL     1     -14.333 -10.140  42.693  1.00  0.00     0.041 A 
ATOM     11  C   UNL     1     -13.995 -10.404  44.001  1.00  0.00     0.134 A 
ATOM     12  N   UNL     1     -13.271 -10.398  41.914  1.00  0.00    -0.348 N 
ATOM     13  N   UNL     1     -12.720 -10.839  44.048  1.00  0.00    -0.245 NA
ATOM     14  C   UNL     1     -12.313 -10.822  42.760  1.00  0.00     0.196 A 
ATOM     15  H   UNL     1     -13.195 -10.283  40.880  1.00  0.00     0.167 HD
ENDBRANCH   1  10
TORSDOF 4
ENDMDL
MODEL 8
REMARK VINA RESULT:    -4.293      5.261      5.961
REMARK INTER + INTRA:          -5.362
REMARK INTER:                  -5.213
REMARK INTRA:                  -0.148
REMARK UNBOUND:                -0.190
REMARK SMILES [NH3+][C@H](Cc1cnc[nH]1)C(=O)[O-]
REMARK SMILES IDX 3 1 2 2 1 3 9 7 10 8 11 9 4 10 5 11 8 12 6 13 7 14
REMARK H PARENT 1 4 1 5 1 6 8 15
REMARK Flexibility Score: inf
ROOT
ATOM      1  C   UNL     1     -19.441 -13.840  42.646  1.00  0.00     0.127 C 
ENDROOT
BRANCH   1   2
ATOM      2  C   UNL     1     -17.996 -13.486  43.050  1.00  0.00     0.233 C 
BRANCH   2   3
ATOM      3  N   UNL     1     -17.016 -14.128  42.164  1.00  0.00    -0.350 N 
ATOM      4  H   UNL     1     -16.063 -13.731  42.340  1.00  0.00     0.345 HD
ATOM      5  H   UNL     1     -16.974 -15.155  42.360  1.00  0.00     0.345 HD
ATOM      6  H   UNL     1     -17.269 -13.979  41.161  1.00  0.00     0.345 HD
ENDBRANCH   2   3
BRANCH   2   7
ATOM      7  C   UNL     1     -17.813 -11.991  43.032  1.00  0.00     0.099 C 
ATOM      8  O   UNL     1     -16.677 -11.489  42.827  1.00  0.00    -0.544 OA
ATOM      9  O   UNL     1     -18.907 -11.156  43.224  1.00  0.00    -0.544 OA
ENDBRANCH   2   7
ENDBRANCH   1   2
BRANCH   1  10
ATOM     10  C   UNL     1     -20.044 -14.852  43.574  1.00  0.00     0.041 A 
ATOM     11  C   UNL     1     -20.735 -15.986  43.212  1.00  0.00     0.134 A 
ATOM     12  N   UNL     1     -20.054 -14.752  44.912  1.00  0.00    -0.348 N 
ATOM     13  N   UNL     1     -21.173 -16.609  44.323  1.00  0.00    -0.245 NA
ATOM     14  C   UNL     1     -20.739 -15.829  45.337  1.00  0.00     0.196 A 
ATOM     15  H   UNL     1     -19.634 -13.998  45.499  1.00  0.00     0.167 HD
ENDBRANCH   1  10
TORSDOF 4
ENDMDL
MODEL 9
REMARK VINA RESULT:    -4.283      3.905      5.212
REMARK INTER + INTRA:          -5.349
REMARK INTER:                  -5.290
REMARK INTRA:                  -0.059
REMARK UNBOUND:                -0.190
REMARK SMILES [NH3+][C@H](Cc1cnc[nH]1)C(=O)[O-]
REMARK SMILES IDX 3 1 2 2 1 3 9 7 10 8 11 9 4 10 5 11 8 12 6 13 7 14
REMARK H PARENT 1 4 1 5 1 6 8 15
REMARK Flexibility Score: inf
ROOT
ATOM      1  C   UNL     1     -17.785 -12.102  43.595  1.00  0.00     0.127 C 
ENDROOT
BRANCH   1   2
ATOM      2  C   UNL     1     -18.149 -13.187  42.562  1.00  0.00     0.233 C 
BRANCH   2   3
ATOM      3  N   UNL     1     -17.015 -14.083  42.299  1.00  0.00    -0.350 N 
ATOM      4  H   UNL     1     -17.073 -14.452  41.321  1.00  0.00     0.345 HD
ATOM      5  H   UNL     1     -16.115 -13.557  42.388  1.00  0.00     0.345 HD
ATOM      6  H   UNL     1     -17.012 -14.885  42.969  1.00  0.00     0.345 HD
ENDBRANCH   2   3
BRANCH   2   7
ATOM      7  C   UNL     1     -19.335 -13.977  43.049  1.00  0.00     0.099 C 
ATOM      8  O   UNL     1     -20.171 -14.445  42.232  1.00  0.00    -0.544 OA
ATOM      9  O   UNL     1     -19.500 -14.212  44.409  1.00  0.00    -0.544 OA
ENDBRANCH   2   7
ENDBRANCH   1   2
BRANCH   1  10
ATOM     10  C   UNL     1     -16.915 -11.037  42.997  1.00  0.00     0.041 A 
ATOM     11  C   UNL     1     -17.337  -9.851  42.439  1.00  0.00     0.134 A 
ATOM     12  N   UNL     1     -15.584 -11.128  42.857  1.00  0.00    -0.348 N 
ATOM     13  N   UNL     1     -16.269  -9.186  41.956  1.00  0.00    -0.245 NA
ATOM     14  C   UNL     1     -15.221  -9.994  42.228  1.00  0.00     0.196 A 
ATOM     15  H   UNL     1     -14.962 -11.911  43.156  1.00  0.00     0.167 HD
ENDBRANCH   1  10
TORSDOF 4
ENDMDL
