MODEL 1
REMARK VINA RESULT:    27.929      0.000      0.000
REMARK INTER + INTRA:          34.097
REMARK INTER:                  34.460
REMARK INTRA:                  -0.363
REMARK UNBOUND:                -0.363
REMARK SMILES Oc1cc(O)c2cc(O)c(-c3cc(O)c(O)c(O)c3)[o+]c2c1
REMARK SMILES IDX 10 1 20 2 21 3 22 4 2 5 3 6 4 7 6 8 7 9 8 10 11 11 12 12
REMARK SMILES IDX 13 13 19 14 15 15 17 16 14 17 16 19 18 21 9 23 1 25 5 27
REMARK H PARENT 14 18 16 20 18 22 9 24 1 26 5 28
REMARK Flexibility Score: inf
ROOT
ATOM      1  C   UNL     1      20.087 -12.715 -16.364  1.00  0.00     0.402 A 
ATOM      2  O   UNL     1      21.231 -12.214 -15.907  1.00  0.00    -0.202 OA
ATOM      3  C   UNL     1      22.213 -11.794 -16.699  1.00  0.00     0.368 A 
ATOM      4  C   UNL     1      23.379 -11.284 -16.124  1.00  0.00     0.162 A 
ATOM      5  C   UNL     1      24.428 -10.839 -16.935  1.00  0.00     0.128 A 
ATOM      6  C   UNL     1      24.309 -10.906 -18.325  1.00  0.00     0.093 A 
ATOM      7  C   UNL     1      23.150 -11.413 -18.925  1.00  0.00     0.136 A 
ATOM      8  C   UNL     1      22.081 -11.863 -18.107  1.00  0.00     0.125 A 
ATOM      9  C   UNL     1      20.878 -12.374 -18.621  1.00  0.00     0.078 A 
ATOM     10  C   UNL     1      19.867 -12.795 -17.751  1.00  0.00     0.223 A 
ENDROOT
BRANCH   1  11
ATOM     11  C   UNL     1      19.074 -13.159 -15.379  1.00  0.00     0.091 A 
ATOM     12  C   UNL     1      18.966 -14.523 -15.069  1.00  0.00     0.068 A 
ATOM     13  C   UNL     1      18.006 -14.981 -14.158  1.00  0.00     0.162 A 
ATOM     14  C   UNL     1      18.181 -12.253 -14.790  1.00  0.00     0.068 A 
ATOM     15  C   UNL     1      17.123 -14.057 -13.550  1.00  0.00     0.200 A 
ATOM     16  C   UNL     1      17.215 -12.696 -13.877  1.00  0.00     0.162 A 
BRANCH  13  17
ATOM     17  O   UNL     1      17.966 -16.351 -13.889  1.00  0.00    -0.504 OA
ATOM     18  H   UNL     1      17.923 -16.745 -12.961  1.00  0.00     0.293 HD
ENDBRANCH  13  17
BRANCH  15  19
ATOM     19  O   UNL     1      16.147 -14.446 -12.629  1.00  0.00    -0.502 OA
ATOM     20  H   UNL     1      15.588 -15.282 -12.715  1.00  0.00     0.293 HD
ENDBRANCH  15  19
BRANCH  16  21
ATOM     21  O   UNL     1      16.335 -11.788 -13.291  1.00  0.00    -0.504 OA
ATOM     22  H   UNL     1      16.240 -10.840 -13.639  1.00  0.00     0.293 HD
ENDBRANCH  16  21
ENDBRANCH   1  11
BRANCH  10  23
ATOM     23  O   UNL     1      18.654 -13.256 -18.261  1.00  0.00    -0.500 OA
ATOM     24  H   UNL     1      17.848 -12.648 -18.348  1.00  0.00     0.294 HD
ENDBRANCH  10  23
BRANCH   5  25
ATOM     25  O   UNL     1      25.594 -10.329 -16.369  1.00  0.00    -0.507 OA
ATOM     26  H   UNL     1      25.807  -9.338 -16.394  1.00  0.00     0.293 HD
ENDBRANCH   5  25
BRANCH   7  27
ATOM     27  O   UNL     1      23.111 -11.448 -20.322  1.00  0.00    -0.507 OA
ATOM     28  H   UNL     1      22.526 -12.070 -20.861  1.00  0.00     0.293 HD
ENDBRANCH   7  27
TORSDOF 7
ENDMDL
MODEL 2
REMARK VINA RESULT:    28.195      1.074      2.564
REMARK INTER + INTRA:          34.425
REMARK INTER:                  34.800
REMARK INTRA:                  -0.375
REMARK UNBOUND:                -0.363
REMARK SMILES Oc1cc(O)c2cc(O)c(-c3cc(O)c(O)c(O)c3)[o+]c2c1
REMARK SMILES IDX 10 1 20 2 21 3 22 4 2 5 3 6 4 7 6 8 7 9 8 10 11 11 12 12
REMARK SMILES IDX 13 13 19 14 15 15 17 16 14 17 16 19 18 21 9 23 1 25 5 27
REMARK H PARENT 14 18 16 20 18 22 9 24 1 26 5 28
REMARK Flexibility Score: inf
ROOT
ATOM      1  C   UNL     1      20.185 -12.682 -15.535  1.00  0.00     0.402 A 
ATOM      2  O   UNL     1      20.234 -12.774 -16.862  1.00  0.00    -0.202 OA
ATOM      3  C   UNL     1      21.274 -12.371 -17.584  1.00  0.00     0.368 A 
ATOM      4  C   UNL     1      21.230 -12.507 -18.974  1.00  0.00     0.162 A 
ATOM      5  C   UNL     1      22.309 -12.089 -19.758  1.00  0.00     0.128 A 
ATOM      6  C   UNL     1      23.435 -11.531 -19.149  1.00  0.00     0.093 A 
ATOM      7  C   UNL     1      23.504 -11.383 -17.758  1.00  0.00     0.136 A 
ATOM      8  C   UNL     1      22.412 -11.810 -16.957  1.00  0.00     0.125 A 
ATOM      9  C   UNL     1      22.398 -11.713 -15.557  1.00  0.00     0.078 A 
ATOM     10  C   UNL     1      21.287 -12.158 -14.834  1.00  0.00     0.223 A 
ENDROOT
BRANCH   1  11
ATOM     11  C   UNL     1      18.964 -13.156 -14.844  1.00  0.00     0.091 A 
ATOM     12  C   UNL     1      18.779 -14.531 -14.639  1.00  0.00     0.068 A 
ATOM     13  C   UNL     1      17.628 -15.017 -14.006  1.00  0.00     0.162 A 
ATOM     14  C   UNL     1      17.961 -12.264 -14.438  1.00  0.00     0.068 A 
ATOM     15  C   UNL     1      16.630 -14.109 -13.579  1.00  0.00     0.200 A 
ATOM     16  C   UNL     1      16.804 -12.736 -13.805  1.00  0.00     0.162 A 
BRANCH  13  17
ATOM     17  O   UNL     1      17.519 -16.397 -13.826  1.00  0.00    -0.504 OA
ATOM     18  H   UNL     1      18.143 -17.073 -14.242  1.00  0.00     0.293 HD
ENDBRANCH  13  17
BRANCH  15  19
ATOM     19  O   UNL     1      15.462 -14.526 -12.937  1.00  0.00    -0.502 OA
ATOM     20  H   UNL     1      14.625 -13.966 -12.866  1.00  0.00     0.293 HD
ENDBRANCH  15  19
BRANCH  16  21
ATOM     21  O   UNL     1      15.814 -11.842 -13.399  1.00  0.00    -0.504 OA
ATOM     22  H   UNL     1      16.043 -10.922 -13.042  1.00  0.00     0.293 HD
ENDBRANCH  16  21
ENDBRANCH   1  11
BRANCH  10  23
ATOM     23  O   UNL     1      21.293 -12.108 -13.440  1.00  0.00    -0.500 OA
ATOM     24  H   UNL     1      20.433 -12.106 -12.904  1.00  0.00     0.294 HD
ENDBRANCH  10  23
BRANCH   5  25
ATOM     25  O   UNL     1      22.272 -12.222 -21.144  1.00  0.00    -0.507 OA
ATOM     26  H   UNL     1      22.210 -11.414 -21.753  1.00  0.00     0.293 HD
ENDBRANCH   5  25
BRANCH   7  27
ATOM     27  O   UNL     1      24.665 -10.814 -17.227  1.00  0.00    -0.507 OA
ATOM     28  H   UNL     1      25.583 -10.905 -17.636  1.00  0.00     0.293 HD
ENDBRANCH   7  27
TORSDOF 7
ENDMDL
MODEL 3
REMARK VINA RESULT:    29.296      1.471      7.269
REMARK INTER + INTRA:          35.783
REMARK INTER:                  36.166
REMARK INTRA:                  -0.384
REMARK UNBOUND:                -0.363
REMARK SMILES Oc1cc(O)c2cc(O)c(-c3cc(O)c(O)c(O)c3)[o+]c2c1
REMARK SMILES IDX 10 1 20 2 21 3 22 4 2 5 3 6 4 7 6 8 7 9 8 10 11 11 12 12
REMARK SMILES IDX 13 13 19 14 15 15 17 16 14 17 16 19 18 21 9 23 1 25 5 27
REMARK H PARENT 14 18 16 20 18 22 9 24 1 26 5 28
REMARK Flexibility Score: inf
ROOT
ATOM      1  C   UNL     1      19.827 -13.068 -15.648  1.00  0.00     0.402 A 
ATOM      2  O   UNL     1      19.683 -14.389 -15.601  1.00  0.00    -0.202 OA
ATOM      3  C   UNL     1      18.710 -14.995 -14.928  1.00  0.00     0.368 A 
ATOM      4  C   UNL     1      18.643 -16.390 -14.938  1.00  0.00     0.162 A 
ATOM      5  C   UNL     1      17.632 -17.053 -14.236  1.00  0.00     0.128 A 
ATOM      6  C   UNL     1      16.685 -16.316 -13.522  1.00  0.00     0.093 A 
ATOM      7  C   UNL     1      16.729 -14.917 -13.496  1.00  0.00     0.136 A 
ATOM      8  C   UNL     1      17.752 -14.239 -14.210  1.00  0.00     0.125 A 
ATOM      9  C   UNL     1      17.868 -12.840 -14.252  1.00  0.00     0.078 A 
ATOM     10  C   UNL     1      18.902 -12.244 -14.981  1.00  0.00     0.223 A 
ENDROOT
BRANCH   1  11
ATOM     11  C   UNL     1      20.959 -12.512 -16.423  1.00  0.00     0.091 A 
ATOM     12  C   UNL     1      20.839 -12.372 -17.814  1.00  0.00     0.068 A 
ATOM     13  C   UNL     1      21.897 -11.869 -18.582  1.00  0.00     0.162 A 
ATOM     14  C   UNL     1      22.173 -12.175 -15.806  1.00  0.00     0.068 A 
ATOM     15  C   UNL     1      23.110 -11.510 -17.949  1.00  0.00     0.200 A 
ATOM     16  C   UNL     1      23.240 -11.672 -16.562  1.00  0.00     0.162 A 
BRANCH  13  17
ATOM     17  O   UNL     1      21.698 -11.746 -19.959  1.00  0.00    -0.504 OA
ATOM     18  H   UNL     1      22.436 -11.810 -20.645  1.00  0.00     0.293 HD
ENDBRANCH  13  17
BRANCH  15  19
ATOM     19  O   UNL     1      24.201 -10.997 -18.654  1.00  0.00    -0.502 OA
ATOM     20  H   UNL     1      24.851 -10.322 -18.279  1.00  0.00     0.293 HD
ENDBRANCH  15  19
BRANCH  16  21
ATOM     21  O   UNL     1      24.440 -11.332 -15.940  1.00  0.00    -0.504 OA
ATOM     22  H   UNL     1      25.125 -10.740 -16.396  1.00  0.00     0.293 HD
ENDBRANCH  16  21
ENDBRANCH   1  11
BRANCH  10  23
ATOM     23  O   UNL     1      18.987 -10.854 -15.063  1.00  0.00    -0.500 OA
ATOM     24  H   UNL     1      19.000 -10.373 -15.955  1.00  0.00     0.294 HD
ENDBRANCH  10  23
BRANCH   5  25
ATOM     25  O   UNL     1      17.559 -18.444 -14.241  1.00  0.00    -0.507 OA
ATOM     26  H   UNL     1      16.722 -18.930 -14.542  1.00  0.00     0.293 HD
ENDBRANCH   5  25
BRANCH   7  27
ATOM     27  O   UNL     1      15.746 -14.254 -12.756  1.00  0.00    -0.507 OA
ATOM     28  H   UNL     1      15.470 -13.295 -12.905  1.00  0.00     0.293 HD
ENDBRANCH   7  27
TORSDOF 7
ENDMDL
MODEL 4
REMARK VINA RESULT:    30.663      4.771      8.214
REMARK INTER + INTRA:          37.470
REMARK INTER:                  37.843
REMARK INTRA:                  -0.373
REMARK UNBOUND:                -0.363
REMARK SMILES Oc1cc(O)c2cc(O)c(-c3cc(O)c(O)c(O)c3)[o+]c2c1
REMARK SMILES IDX 10 1 20 2 21 3 22 4 2 5 3 6 4 7 6 8 7 9 8 10 11 11 12 12
REMARK SMILES IDX 13 13 19 14 15 15 17 16 14 17 16 19 18 21 9 23 1 25 5 27
REMARK H PARENT 14 18 16 20 18 22 9 24 1 26 5 28
REMARK Flexibility Score: inf
ROOT
ATOM      1  C   UNL     1      22.615  -8.134 -18.351  1.00  0.00     0.402 A 
ATOM      2  O   UNL     1      22.218  -9.128 -19.140  1.00  0.00    -0.202 OA
ATOM      3  C   UNL     1      22.416 -10.411 -18.855  1.00  0.00     0.368 A 
ATOM      4  C   UNL     1      21.963 -11.384 -19.749  1.00  0.00     0.162 A 
ATOM      5  C   UNL     1      22.161 -12.741 -19.475  1.00  0.00     0.128 A 
ATOM      6  C   UNL     1      22.814 -13.124 -18.302  1.00  0.00     0.093 A 
ATOM      7  C   UNL     1      23.277 -12.169 -17.389  1.00  0.00     0.136 A 
ATOM      8  C   UNL     1      23.077 -10.790 -17.662  1.00  0.00     0.125 A 
ATOM      9  C   UNL     1      23.495  -9.764 -16.799  1.00  0.00     0.078 A 
ATOM     10  C   UNL     1      23.257  -8.427 -17.134  1.00  0.00     0.223 A 
ENDROOT
BRANCH   1  11
ATOM     11  C   UNL     1      22.346  -6.744 -18.785  1.00  0.00     0.091 A 
ATOM     12  C   UNL     1      23.353  -6.019 -19.439  1.00  0.00     0.068 A 
ATOM     13  C   UNL     1      23.141  -4.696 -19.846  1.00  0.00     0.162 A 
ATOM     14  C   UNL     1      21.124  -6.115 -18.506  1.00  0.00     0.068 A 
ATOM     15  C   UNL     1      21.897  -4.076 -19.581  1.00  0.00     0.200 A 
ATOM     16  C   UNL     1      20.898  -4.791 -18.906  1.00  0.00     0.162 A 
BRANCH  13  17
ATOM     17  O   UNL     1      24.186  -4.043 -20.503  1.00  0.00    -0.504 OA
ATOM     18  H   UNL     1      24.907  -4.515 -21.028  1.00  0.00     0.293 HD
ENDBRANCH  13  17
BRANCH  15  19
ATOM     19  O   UNL     1      21.617  -2.762 -19.965  1.00  0.00    -0.502 OA
ATOM     20  H   UNL     1      22.240  -1.982 -19.811  1.00  0.00     0.293 HD
ENDBRANCH  15  19
BRANCH  16  21
ATOM     21  O   UNL     1      19.678  -4.175 -18.632  1.00  0.00    -0.504 OA
ATOM     22  H   UNL     1      18.810  -4.511 -19.035  1.00  0.00     0.293 HD
ENDBRANCH  16  21
ENDBRANCH   1  11
BRANCH  10  23
ATOM     23  O   UNL     1      23.628  -7.410 -16.254  1.00  0.00    -0.500 OA
ATOM     24  H   UNL     1      23.084  -7.197 -15.426  1.00  0.00     0.294 HD
ENDBRANCH  10  23
BRANCH   5  25
ATOM     25  O   UNL     1      21.712 -13.717 -20.362  1.00  0.00    -0.507 OA
ATOM     26  H   UNL     1      21.602 -13.524 -21.351  1.00  0.00     0.293 HD
ENDBRANCH   5  25
BRANCH   7  27
ATOM     27  O   UNL     1      23.924 -12.634 -16.240  1.00  0.00    -0.507 OA
ATOM     28  H   UNL     1      24.754 -12.219 -15.846  1.00  0.00     0.293 HD
ENDBRANCH   7  27
TORSDOF 7
ENDMDL
