MODEL 1
REMARK VINA RESULT:    -0.291      0.000      0.000
REMARK INTER + INTRA:           0.676
REMARK INTER:                  -0.334
REMARK INTRA:                   1.010
REMARK UNBOUND:                 1.010
REMARK SMILES CC1(C)CC[C@@]23CO[C@]4(C=C[C@H]5[C@@]6(C)CC[C@@H](O)[C@@](C)(CO)[C@H]6CC[C@@]5(C)[C@@]4(C)C[C@@H]2O)[C@H]3C1
REMARK SMILES IDX 1 1 2 2 4 3 5 4 6 5 7 6 8 7 9 8 33 9 34 10 10 11 11 12 12 13
REMARK SMILES IDX 13 14 15 15 16 16 17 17 19 18 23 19 24 20 25 21 26 22 28 23
REMARK SMILES IDX 30 24 31 25 29 26 27 27 20 28 14 29 3 30 32 31 21 33 22 34
REMARK SMILES IDX 18 36
REMARK H PARENT 32 32 22 35 18 37
REMARK Flexibility Score: inf
ROOT
ATOM      1  C   UNL     1       6.554  -6.992  -1.241  1.00  0.00     0.011 C 
ATOM      2  C   UNL     1       7.639  -7.634  -0.350  1.00  0.00    -0.035 C 
ATOM      3  C   UNL     1       9.017  -7.523  -1.082  1.00  0.00     0.007 C 
ATOM      4  C   UNL     1      10.249  -7.812  -0.189  1.00  0.00     0.013 C 
ATOM      5  C   UNL     1      10.212  -7.044   1.157  1.00  0.00     0.026 C 
ATOM      6  C   UNL     1      11.125  -7.645   2.235  1.00  0.00     0.171 C 
ATOM      7  O   UNL     1      10.507  -7.404   3.494  1.00  0.00    -0.369 OA
ATOM      8  C   UNL     1       9.254  -6.774   3.256  1.00  0.00     0.096 C 
ATOM      9  C   UNL     1       8.900  -7.281   1.846  1.00  0.00     0.037 C 
ATOM     10  C   UNL     1       7.661  -6.882   1.021  1.00  0.00     0.014 C 
ATOM     11  C   UNL     1       8.255  -7.277   4.265  1.00  0.00     0.005 C 
ATOM     12  C   UNL     1       7.980  -6.648   5.419  1.00  0.00    -0.024 C 
ATOM     13  C   UNL     1       8.576  -5.301   5.876  1.00  0.00     0.024 C 
ATOM     14  C   UNL     1       8.922  -5.359   7.431  1.00  0.00    -0.022 C 
ATOM     15  C   UNL     1       7.605  -5.539   8.269  1.00  0.00     0.010 C 
ATOM     16  C   UNL     1       7.828  -6.333   9.546  1.00  0.00     0.033 C 
ATOM     17  C   UNL     1       8.231  -7.756   9.184  1.00  0.00     0.123 C 
ATOM     18  C   UNL     1       9.648  -7.817   8.501  1.00  0.00     0.020 C 
ATOM     19  C   UNL     1      10.042  -6.470   7.696  1.00  0.00     0.006 C 
ATOM     20  C   UNL     1      10.917  -6.727   6.428  1.00  0.00     0.005 C 
ATOM     21  C   UNL     1      11.119  -5.501   5.506  1.00  0.00     0.008 C 
ATOM     22  C   UNL     1       9.788  -4.838   4.944  1.00  0.00    -0.017 C 
ATOM     23  C   UNL     1       9.438  -5.209   3.395  1.00  0.00     0.009 C 
ATOM     24  C   UNL     1      10.561  -4.758   2.377  1.00  0.00     0.043 C 
ATOM     25  C   UNL     1      10.564  -5.518   1.014  1.00  0.00     0.124 C 
ATOM     26  C   UNL     1       8.110  -4.468   2.990  1.00  0.00     0.015 C 
ATOM     27  C   UNL     1       9.968  -3.271   5.034  1.00  0.00     0.013 C 
ATOM     28  C   UNL     1      10.689  -8.015   9.645  1.00  0.00     0.017 C 
ATOM     29  C   UNL     1       9.473  -3.985   7.942  1.00  0.00     0.012 C 
ATOM     30  C   UNL     1       7.263  -9.125  -0.160  1.00  0.00     0.011 C 
ENDROOT
BRANCH  25  31
ATOM     31  O   UNL     1       9.711  -4.871   0.107  1.00  0.00    -0.392 OA
ATOM     32  H   UNL     1       8.805  -4.858   0.512  1.00  0.00     0.210 HD
ENDBRANCH  25  31
BRANCH  18  33
ATOM     33  C   UNL     1       9.694  -9.125   7.636  1.00  0.00     0.165 C 
BRANCH  33  34
ATOM     34  O   UNL     1       8.965  -8.997   6.443  1.00  0.00    -0.396 OA
ATOM     35  H   UNL     1       9.447  -9.538   5.765  1.00  0.00     0.210 HD
ENDBRANCH  33  34
ENDBRANCH  18  33
BRANCH  17  36
ATOM     36  O   UNL     1       7.238  -8.332   8.366  1.00  0.00    -0.392 OA
ATOM     37  H   UNL     1       7.580  -8.318   7.432  1.00  0.00     0.210 HD
ENDBRANCH  17  36
TORSDOF 4
ENDMDL
