MODEL 1
REMARK VINA RESULT:    -3.193      0.000      0.000
REMARK INTER + INTRA:          -4.307
REMARK INTER:                  -4.126
REMARK INTRA:                  -0.181
REMARK UNBOUND:                -0.181
REMARK SMILES CCCCCCC(=O)[O-]
REMARK SMILES IDX 5 1 6 2 7 3 8 4 9 5 4 6 3 7 2 8 1 9
REMARK H PARENT
REMARK Flexibility Score: inf
ROOT
ATOM      1  C   UNL     1     130.986 146.748 119.954  1.00  0.00     0.006 C 
ENDROOT
BRANCH   1   2
ATOM      2  C   UNL     1     132.340 146.159 120.360  1.00  0.00     0.053 C 
BRANCH   2   3
ATOM      3  C   UNL     1     132.813 146.770 121.641  1.00  0.00     0.041 C 
ATOM      4  O   UNL     1     131.984 147.098 122.531  1.00  0.00    -0.550 OA
ATOM      5  O   UNL     1     134.165 147.023 121.833  1.00  0.00    -0.550 OA
ENDBRANCH   2   3
ENDBRANCH   1   2
BRANCH   1   6
ATOM      6  C   UNL     1     129.934 145.645 119.781  1.00  0.00     0.000 C 
BRANCH   6   7
ATOM      7  C   UNL     1     128.636 146.002 120.514  1.00  0.00    -0.000 C 
BRANCH   7   8
ATOM      8  C   UNL     1     127.410 145.648 119.664  1.00  0.00    -0.003 C 
ATOM      9  C   UNL     1     127.806 144.812 118.450  1.00  0.00     0.004 C 
ENDBRANCH   7   8
ENDBRANCH   6   7
ENDBRANCH   1   6
TORSDOF 5
ENDMDL
MODEL 2
REMARK VINA RESULT:    -3.189      1.368      2.160
REMARK INTER + INTRA:          -4.302
REMARK INTER:                  -3.935
REMARK INTRA:                  -0.368
REMARK UNBOUND:                -0.181
REMARK SMILES CCCCCCC(=O)[O-]
REMARK SMILES IDX 5 1 6 2 7 3 8 4 9 5 4 6 3 7 2 8 1 9
REMARK H PARENT
REMARK Flexibility Score: inf
ROOT
ATOM      1  C   UNL     1     129.903 144.953 119.748  1.00  0.00     0.006 C 
ENDROOT
BRANCH   1   2
ATOM      2  C   UNL     1     130.516 146.355 119.687  1.00  0.00     0.053 C 
BRANCH   2   3
ATOM      3  C   UNL     1     131.232 146.669 120.961  1.00  0.00     0.041 C 
ATOM      4  O   UNL     1     130.604 146.688 122.053  1.00  0.00    -0.550 OA
ATOM      5  O   UNL     1     132.583 146.990 120.939  1.00  0.00    -0.550 OA
ENDBRANCH   2   3
ENDBRANCH   1   2
BRANCH   1   6
ATOM      6  C   UNL     1     128.509 144.932 119.106  1.00  0.00     0.000 C 
BRANCH   6   7
ATOM      7  C   UNL     1     127.533 145.825 119.880  1.00  0.00    -0.000 C 
BRANCH   7   8
ATOM      8  C   UNL     1     127.225 145.236 121.261  1.00  0.00    -0.003 C 
ATOM      9  C   UNL     1     127.049 146.338 122.303  1.00  0.00     0.004 C 
ENDBRANCH   7   8
ENDBRANCH   6   7
ENDBRANCH   1   6
TORSDOF 5
ENDMDL
MODEL 3
REMARK VINA RESULT:    -3.176      3.515      4.278
REMARK INTER + INTRA:          -4.286
REMARK INTER:                  -4.013
REMARK INTRA:                  -0.274
REMARK UNBOUND:                -0.181
REMARK SMILES CCCCCCC(=O)[O-]
REMARK SMILES IDX 5 1 6 2 7 3 8 4 9 5 4 6 3 7 2 8 1 9
REMARK H PARENT
REMARK Flexibility Score: inf
ROOT
ATOM      1  C   UNL     1     128.000 146.096 120.449  1.00  0.00     0.006 C 
ENDROOT
BRANCH   1   2
ATOM      2  C   UNL     1     126.977 146.482 121.521  1.00  0.00     0.053 C 
BRANCH   2   3
ATOM      3  C   UNL     1     127.511 146.184 122.886  1.00  0.00     0.041 C 
ATOM      4  O   UNL     1     127.221 145.099 123.456  1.00  0.00    -0.550 OA
ATOM      5  O   UNL     1     128.287 147.125 123.550  1.00  0.00    -0.550 OA
ENDBRANCH   2   3
ENDBRANCH   1   2
BRANCH   1   6
ATOM      6  C   UNL     1     127.309 145.500 119.216  1.00  0.00     0.000 C 
BRANCH   6   7
ATOM      7  C   UNL     1     128.017 144.222 118.752  1.00  0.00    -0.000 C 
BRANCH   7   8
ATOM      8  C   UNL     1     128.446 143.365 119.948  1.00  0.00    -0.003 C 
ATOM      9  C   UNL     1     127.283 142.528 120.471  1.00  0.00     0.004 C 
ENDBRANCH   7   8
ENDBRANCH   6   7
ENDBRANCH   1   6
TORSDOF 5
ENDMDL
MODEL 4
REMARK VINA RESULT:    -3.166      2.420      4.231
REMARK INTER + INTRA:          -4.273
REMARK INTER:                  -3.937
REMARK INTRA:                  -0.336
REMARK UNBOUND:                -0.181
REMARK SMILES CCCCCCC(=O)[O-]
REMARK SMILES IDX 5 1 6 2 7 3 8 4 9 5 4 6 3 7 2 8 1 9
REMARK H PARENT
REMARK Flexibility Score: inf
ROOT
ATOM      1  C   UNL     1     127.241 145.275 121.223  1.00  0.00     0.006 C 
ENDROOT
BRANCH   1   2
ATOM      2  C   UNL     1     126.962 146.422 122.199  1.00  0.00     0.053 C 
BRANCH   2   3
ATOM      3  C   UNL     1     128.006 146.464 123.269  1.00  0.00     0.041 C 
ATOM      4  O   UNL     1     129.185 146.809 122.991  1.00  0.00    -0.550 OA
ATOM      5  O   UNL     1     127.690 146.075 124.564  1.00  0.00    -0.550 OA
ENDBRANCH   2   3
ENDBRANCH   1   2
BRANCH   1   6
ATOM      6  C   UNL     1     127.209 145.768 119.770  1.00  0.00     0.000 C 
BRANCH   6   7
ATOM      7  C   UNL     1     128.328 145.123 118.944  1.00  0.00    -0.000 C 
BRANCH   7   8
ATOM      8  C   UNL     1     129.632 145.053 119.746  1.00  0.00    -0.003 C 
ATOM      9  C   UNL     1     130.413 146.361 119.642  1.00  0.00     0.004 C 
ENDBRANCH   7   8
ENDBRANCH   6   7
ENDBRANCH   1   6
TORSDOF 5
ENDMDL
MODEL 5
REMARK VINA RESULT:    -3.124      1.652      2.582
REMARK INTER + INTRA:          -4.218
REMARK INTER:                  -3.818
REMARK INTRA:                  -0.401
REMARK UNBOUND:                -0.181
REMARK SMILES CCCCCCC(=O)[O-]
REMARK SMILES IDX 5 1 6 2 7 3 8 4 9 5 4 6 3 7 2 8 1 9
REMARK H PARENT
REMARK Flexibility Score: inf
ROOT
ATOM      1  C   UNL     1     128.203 146.332 121.865  1.00  0.00     0.006 C 
ENDROOT
BRANCH   1   2
ATOM      2  C   UNL     1     129.558 145.676 122.146  1.00  0.00     0.053 C 
BRANCH   2   3
ATOM      3  C   UNL     1     130.641 146.363 121.375  1.00  0.00     0.041 C 
ATOM      4  O   UNL     1     131.557 146.980 121.982  1.00  0.00    -0.550 OA
ATOM      5  O   UNL     1     130.614 146.364 119.987  1.00  0.00    -0.550 OA
ENDBRANCH   2   3
ENDBRANCH   1   2
BRANCH   1   6
ATOM      6  C   UNL     1     127.290 145.391 121.069  1.00  0.00     0.000 C 
BRANCH   6   7
ATOM      7  C   UNL     1     127.019 145.943 119.665  1.00  0.00    -0.000 C 
BRANCH   7   8
ATOM      8  C   UNL     1     127.710 145.089 118.596  1.00  0.00    -0.003 C 
ATOM      9  C   UNL     1     128.238 143.786 119.189  1.00  0.00     0.004 C 
ENDBRANCH   7   8
ENDBRANCH   6   7
ENDBRANCH   1   6
TORSDOF 5
ENDMDL
MODEL 6
REMARK VINA RESULT:    -3.086      4.084      4.917
REMARK INTER + INTRA:          -4.169
REMARK INTER:                  -3.850
REMARK INTRA:                  -0.319
REMARK UNBOUND:                -0.181
REMARK SMILES CCCCCCC(=O)[O-]
REMARK SMILES IDX 5 1 6 2 7 3 8 4 9 5 4 6 3 7 2 8 1 9
REMARK H PARENT
REMARK Flexibility Score: inf
ROOT
ATOM      1  C   UNL     1     128.344 143.080 119.745  1.00  0.00     0.006 C 
ENDROOT
BRANCH   1   2
ATOM      2  C   UNL     1     127.361 142.593 120.813  1.00  0.00     0.053 C 
BRANCH   2   3
ATOM      3  C   UNL     1     128.012 142.587 122.160  1.00  0.00     0.041 C 
ATOM      4  O   UNL     1     128.893 141.731 122.434  1.00  0.00    -0.550 OA
ATOM      5  O   UNL     1     127.610 143.496 123.130  1.00  0.00    -0.550 OA
ENDBRANCH   2   3
ENDBRANCH   1   2
BRANCH   1   6
ATOM      6  C   UNL     1     127.756 144.253 118.949  1.00  0.00     0.000 C 
BRANCH   6   7
ATOM      7  C   UNL     1     128.127 145.595 119.591  1.00  0.00    -0.000 C 
BRANCH   7   8
ATOM      8  C   UNL     1     126.875 146.342 120.064  1.00  0.00    -0.003 C 
ATOM      9  C   UNL     1     126.885 146.527 121.579  1.00  0.00     0.004 C 
ENDBRANCH   7   8
ENDBRANCH   6   7
ENDBRANCH   1   6
TORSDOF 5
ENDMDL
MODEL 7
REMARK VINA RESULT:    -3.041      3.595      5.123
REMARK INTER + INTRA:          -4.112
REMARK INTER:                  -3.800
REMARK INTRA:                  -0.312
REMARK UNBOUND:                -0.181
REMARK SMILES CCCCCCC(=O)[O-]
REMARK SMILES IDX 5 1 6 2 7 3 8 4 9 5 4 6 3 7 2 8 1 9
REMARK H PARENT
REMARK Flexibility Score: inf
ROOT
ATOM      1  C   UNL     1     128.289 143.268 119.651  1.00  0.00     0.006 C 
ENDROOT
BRANCH   1   2
ATOM      2  C   UNL     1     127.285 142.399 120.414  1.00  0.00     0.053 C 
BRANCH   2   3
ATOM      3  C   UNL     1     127.670 142.298 121.856  1.00  0.00     0.041 C 
ATOM      4  O   UNL     1     127.667 143.324 122.585  1.00  0.00    -0.550 OA
ATOM      5  O   UNL     1     128.080 141.080 122.382  1.00  0.00    -0.550 OA
ENDBRANCH   2   3
ENDBRANCH   1   2
BRANCH   1   6
ATOM      6  C   UNL     1     127.600 144.490 119.030  1.00  0.00     0.000 C 
BRANCH   6   7
ATOM      7  C   UNL     1     128.141 145.792 119.631  1.00  0.00    -0.000 C 
BRANCH   7   8
ATOM      8  C   UNL     1     129.493 145.562 120.315  1.00  0.00    -0.003 C 
ATOM      9  C   UNL     1     130.582 146.427 119.686  1.00  0.00     0.004 C 
ENDBRANCH   7   8
ENDBRANCH   6   7
ENDBRANCH   1   6
TORSDOF 5
ENDMDL
MODEL 8
REMARK VINA RESULT:    -3.025      3.420      4.076
REMARK INTER + INTRA:          -4.091
REMARK INTER:                  -3.684
REMARK INTRA:                  -0.406
REMARK UNBOUND:                -0.181
REMARK SMILES CCCCCCC(=O)[O-]
REMARK SMILES IDX 5 1 6 2 7 3 8 4 9 5 4 6 3 7 2 8 1 9
REMARK H PARENT
REMARK Flexibility Score: inf
ROOT
ATOM      1  C   UNL     1     129.631 146.003 121.693  1.00  0.00     0.006 C 
ENDROOT
BRANCH   1   2
ATOM      2  C   UNL     1     128.219 146.406 122.127  1.00  0.00     0.053 C 
BRANCH   2   3
ATOM      3  C   UNL     1     127.564 145.293 122.881  1.00  0.00     0.041 C 
ATOM      4  O   UNL     1     127.043 145.511 124.007  1.00  0.00    -0.550 OA
ATOM      5  O   UNL     1     127.573 144.004 122.365  1.00  0.00    -0.550 OA
ENDBRANCH   2   3
ENDBRANCH   1   2
BRANCH   1   6
ATOM      6  C   UNL     1     129.722 145.875 120.167  1.00  0.00     0.000 C 
BRANCH   6   7
ATOM      7  C   UNL     1     129.984 144.423 119.750  1.00  0.00    -0.000 C 
BRANCH   7   8
ATOM      8  C   UNL     1     128.749 143.813 119.078  1.00  0.00    -0.003 C 
ATOM      9  C   UNL     1     127.749 144.894 118.679  1.00  0.00     0.004 C 
ENDBRANCH   7   8
ENDBRANCH   6   7
ENDBRANCH   1   6
TORSDOF 5
ENDMDL
MODEL 9
REMARK VINA RESULT:    -2.983     13.880     15.351
REMARK INTER + INTRA:          -4.037
REMARK INTER:                  -3.794
REMARK INTRA:                  -0.243
REMARK UNBOUND:                -0.181
REMARK SMILES CCCCCCC(=O)[O-]
REMARK SMILES IDX 5 1 6 2 7 3 8 4 9 5 4 6 3 7 2 8 1 9
REMARK H PARENT
REMARK Flexibility Score: inf
ROOT
ATOM      1  C   UNL     1     143.901 142.710 119.922  1.00  0.00     0.006 C 
ENDROOT
BRANCH   1   2
ATOM      2  C   UNL     1     144.474 144.130 119.955  1.00  0.00     0.053 C 
BRANCH   2   3
ATOM      3  C   UNL     1     144.926 144.479 121.337  1.00  0.00     0.041 C 
ATOM      4  O   UNL     1     145.639 143.675 121.993  1.00  0.00    -0.550 OA
ATOM      5  O   UNL     1     144.518 145.671 121.922  1.00  0.00    -0.550 OA
ENDBRANCH   2   3
ENDBRANCH   1   2
BRANCH   1   6
ATOM      6  C   UNL     1     144.573 141.870 118.828  1.00  0.00     0.000 C 
BRANCH   6   7
ATOM      7  C   UNL     1     145.952 141.375 119.282  1.00  0.00    -0.000 C 
BRANCH   7   8
ATOM      8  C   UNL     1     145.830 140.088 120.105  1.00  0.00    -0.003 C 
ATOM      9  C   UNL     1     147.125 139.791 120.856  1.00  0.00     0.004 C 
ENDBRANCH   7   8
ENDBRANCH   6   7
ENDBRANCH   1   6
TORSDOF 5
ENDMDL
