MODEL 1
REMARK VINA RESULT:    -3.717      0.000      0.000
REMARK INTER + INTRA:          -4.799
REMARK INTER:                  -4.477
REMARK INTRA:                  -0.322
REMARK UNBOUND:                -0.322
REMARK SMILES O=c1c(O)c(-c2ccc(O)c(O)c2)oc2cc(O)cc(O)c12
REMARK SMILES IDX 5 1 3 2 2 3 1 4 22 5 20 6 19 7 17 8 16 9 15 10 14 11 6 12
REMARK SMILES IDX 7 13 8 14 9 15 13 16 11 17 10 18 12 20 4 22 21 24 18 26
REMARK H PARENT 10 19 12 21 4 23 21 25 18 27
REMARK Flexibility Score: inf
ROOT
ATOM      1  C   UNL     1      22.207  48.169  87.910  1.00  0.00     0.180 A 
ATOM      2  C   UNL     1      21.881  49.485  88.282  1.00  0.00     0.208 A 
ATOM      3  C   UNL     1      20.553  49.786  88.624  1.00  0.00     0.238 A 
ATOM      4  O   UNL     1      20.278  50.953  89.007  1.00  0.00    -0.285 OA
ATOM      5  C   UNL     1      19.565  48.774  88.573  1.00  0.00     0.111 A 
ATOM      6  C   UNL     1      18.181  48.977  88.859  1.00  0.00     0.134 A 
ATOM      7  C   UNL     1      17.317  47.876  88.905  1.00  0.00     0.093 A 
ATOM      8  C   UNL     1      17.774  46.589  88.611  1.00  0.00     0.123 A 
ATOM      9  C   UNL     1      19.110  46.389  88.273  1.00  0.00     0.094 A 
ATOM     10  C   UNL     1      20.004  47.463  88.254  1.00  0.00     0.146 A 
ATOM     11  O   UNL     1      21.271  47.227  87.936  1.00  0.00    -0.452 OA
ENDROOT
BRANCH   1  12
ATOM     12  C   UNL     1      23.580  47.779  87.513  1.00  0.00     0.025 A 
ATOM     13  C   UNL     1      24.050  47.991  86.205  1.00  0.00     0.016 A 
ATOM     14  C   UNL     1      25.341  47.592  85.845  1.00  0.00     0.051 A 
ATOM     15  C   UNL     1      26.173  46.966  86.782  1.00  0.00     0.157 A 
ATOM     16  C   UNL     1      24.411  47.132  88.441  1.00  0.00     0.062 A 
ATOM     17  C   UNL     1      25.706  46.732  88.081  1.00  0.00     0.158 A 
BRANCH  15  18
ATOM     18  O   UNL     1      27.461  46.569  86.427  1.00  0.00    -0.504 OA
ATOM     19  H   UNL     1      28.246  46.693  87.056  1.00  0.00     0.293 HD
ENDBRANCH  15  18
BRANCH  17  20
ATOM     20  O   UNL     1      26.534  46.102  89.009  1.00  0.00    -0.504 OA
ATOM     21  H   UNL     1      26.294  46.064  89.993  1.00  0.00     0.293 HD
ENDBRANCH  17  20
ENDBRANCH   1  12
BRANCH   2  22
ATOM     22  O   UNL     1      22.877  50.463  88.345  1.00  0.00    -0.502 OA
ATOM     23  H   UNL     1      23.576  50.480  89.078  1.00  0.00     0.293 HD
ENDBRANCH   2  22
BRANCH   6  24
ATOM     24  O   UNL     1      17.606  50.232  89.077  1.00  0.00    -0.507 OA
ATOM     25  H   UNL     1      16.614  50.412  89.105  1.00  0.00     0.293 HD
ENDBRANCH   6  24
BRANCH   8  26
ATOM     26  O   UNL     1      16.904  45.501  88.644  1.00  0.00    -0.508 OA
ATOM     27  H   UNL     1      16.998  44.728  87.996  1.00  0.00     0.293 HD
ENDBRANCH   8  26
TORSDOF 6
ENDMDL
MODEL 2
REMARK VINA RESULT:    -3.715      2.654      7.632
REMARK INTER + INTRA:          -4.797
REMARK INTER:                  -4.516
REMARK INTRA:                  -0.281
REMARK UNBOUND:                -0.322
REMARK SMILES O=c1c(O)c(-c2ccc(O)c(O)c2)oc2cc(O)cc(O)c12
REMARK SMILES IDX 5 1 3 2 2 3 1 4 22 5 20 6 19 7 17 8 16 9 15 10 14 11 6 12
REMARK SMILES IDX 7 13 8 14 9 15 13 16 11 17 10 18 12 20 4 22 21 24 18 26
REMARK H PARENT 10 19 12 21 4 23 21 25 18 27
REMARK Flexibility Score: inf
ROOT
ATOM      1  C   UNL     1      23.506  49.665  87.377  1.00  0.00     0.180 A 
ATOM      2  C   UNL     1      23.760  48.434  88.004  1.00  0.00     0.208 A 
ATOM      3  C   UNL     1      24.857  47.667  87.580  1.00  0.00     0.238 A 
ATOM      4  O   UNL     1      25.111  46.592  88.181  1.00  0.00    -0.285 OA
ATOM      5  C   UNL     1      25.676  48.133  86.523  1.00  0.00     0.111 A 
ATOM      6  C   UNL     1      26.790  47.420  85.986  1.00  0.00     0.134 A 
ATOM      7  C   UNL     1      27.608  48.036  85.030  1.00  0.00     0.093 A 
ATOM      8  C   UNL     1      27.315  49.312  84.546  1.00  0.00     0.123 A 
ATOM      9  C   UNL     1      26.196  49.993  85.021  1.00  0.00     0.094 A 
ATOM     10  C   UNL     1      25.382  49.419  86.001  1.00  0.00     0.146 A 
ATOM     11  O   UNL     1      24.331  50.106  86.434  1.00  0.00    -0.452 OA
ENDROOT
BRANCH   1  12
ATOM     12  C   UNL     1      22.355  50.519  87.752  1.00  0.00     0.025 A 
ATOM     13  C   UNL     1      22.516  51.640  88.585  1.00  0.00     0.016 A 
ATOM     14  C   UNL     1      21.413  52.417  88.946  1.00  0.00     0.051 A 
ATOM     15  C   UNL     1      20.132  52.078  88.491  1.00  0.00     0.157 A 
ATOM     16  C   UNL     1      21.066  50.172  87.315  1.00  0.00     0.062 A 
ATOM     17  C   UNL     1      19.957  50.952  87.677  1.00  0.00     0.158 A 
BRANCH  15  18
ATOM     18  O   UNL     1      19.029  52.852  88.847  1.00  0.00    -0.504 OA
ATOM     19  H   UNL     1      19.129  53.818  89.134  1.00  0.00     0.293 HD
ENDBRANCH  15  18
BRANCH  17  20
ATOM     20  O   UNL     1      18.681  50.613  87.232  1.00  0.00    -0.504 OA
ATOM     21  H   UNL     1      18.533  50.176  86.329  1.00  0.00     0.293 HD
ENDBRANCH  17  20
ENDBRANCH   1  12
BRANCH   2  22
ATOM     22  O   UNL     1      22.951  48.003  89.059  1.00  0.00    -0.502 OA
ATOM     23  H   UNL     1      22.472  47.110  89.047  1.00  0.00     0.293 HD
ENDBRANCH   2  22
BRANCH   6  24
ATOM     24  O   UNL     1      27.116  46.106  86.334  1.00  0.00    -0.507 OA
ATOM     25  H   UNL     1      27.480  45.416  85.695  1.00  0.00     0.293 HD
ENDBRANCH   6  24
BRANCH   8  26
ATOM     26  O   UNL     1      28.125  49.912  83.584  1.00  0.00    -0.508 OA
ATOM     27  H   UNL     1      28.923  50.479  83.842  1.00  0.00     0.293 HD
ENDBRANCH   8  26
TORSDOF 6
ENDMDL
MODEL 3
REMARK VINA RESULT:    -3.709      1.345      3.273
REMARK INTER + INTRA:          -4.790
REMARK INTER:                  -4.478
REMARK INTRA:                  -0.312
REMARK UNBOUND:                -0.322
REMARK SMILES O=c1c(O)c(-c2ccc(O)c(O)c2)oc2cc(O)cc(O)c12
REMARK SMILES IDX 5 1 3 2 2 3 1 4 22 5 20 6 19 7 17 8 16 9 15 10 14 11 6 12
REMARK SMILES IDX 7 13 8 14 9 15 13 16 11 17 10 18 12 20 4 22 21 24 18 26
REMARK H PARENT 10 19 12 21 4 23 21 25 18 27
REMARK Flexibility Score: inf
ROOT
ATOM      1  C   UNL     1      22.308  47.705  88.205  1.00  0.00     0.180 A 
ATOM      2  C   UNL     1      21.265  46.763  88.229  1.00  0.00     0.208 A 
ATOM      3  C   UNL     1      19.947  47.211  88.411  1.00  0.00     0.238 A 
ATOM      4  O   UNL     1      19.013  46.368  88.378  1.00  0.00    -0.285 OA
ATOM      5  C   UNL     1      19.689  48.592  88.585  1.00  0.00     0.111 A 
ATOM      6  C   UNL     1      18.397  49.152  88.818  1.00  0.00     0.134 A 
ATOM      7  C   UNL     1      18.243  50.544  88.844  1.00  0.00     0.093 A 
ATOM      8  C   UNL     1      19.343  51.393  88.711  1.00  0.00     0.123 A 
ATOM      9  C   UNL     1      20.617  50.855  88.542  1.00  0.00     0.094 A 
ATOM     10  C   UNL     1      20.798  49.471  88.476  1.00  0.00     0.146 A 
ATOM     11  O   UNL     1      22.027  48.999  88.305  1.00  0.00    -0.452 OA
ENDROOT
BRANCH   1  12
ATOM     12  C   UNL     1      23.726  47.309  88.041  1.00  0.00     0.025 A 
ATOM     13  C   UNL     1      24.479  46.822  89.125  1.00  0.00     0.016 A 
ATOM     14  C   UNL     1      25.822  46.477  88.954  1.00  0.00     0.051 A 
ATOM     15  C   UNL     1      26.435  46.626  87.702  1.00  0.00     0.157 A 
ATOM     16  C   UNL     1      24.351  47.476  86.795  1.00  0.00     0.062 A 
ATOM     17  C   UNL     1      25.699  47.130  86.622  1.00  0.00     0.158 A 
BRANCH  15  18
ATOM     18  O   UNL     1      27.774  46.281  87.527  1.00  0.00    -0.504 OA
ATOM     19  H   UNL     1      28.046  45.480  86.971  1.00  0.00     0.293 HD
ENDBRANCH  15  18
BRANCH  17  20
ATOM     20  O   UNL     1      26.314  47.284  85.381  1.00  0.00    -0.504 OA
ATOM     21  H   UNL     1      25.828  47.064  84.519  1.00  0.00     0.293 HD
ENDBRANCH  17  20
ENDBRANCH   1  12
BRANCH   2  22
ATOM     22  O   UNL     1      21.541  45.407  88.034  1.00  0.00    -0.502 OA
ATOM     23  H   UNL     1      22.256  45.084  87.393  1.00  0.00     0.293 HD
ENDBRANCH   2  22
BRANCH   6  24
ATOM     24  O   UNL     1      17.248  48.391  89.055  1.00  0.00    -0.507 OA
ATOM     25  H   UNL     1      16.890  48.162  89.969  1.00  0.00     0.293 HD
ENDBRANCH   6  24
BRANCH   8  26
ATOM     26  O   UNL     1      19.183  52.777  88.754  1.00  0.00    -0.508 OA
ATOM     27  H   UNL     1      18.265  53.205  88.723  1.00  0.00     0.293 HD
ENDBRANCH   8  26
TORSDOF 6
ENDMDL
MODEL 4
REMARK VINA RESULT:    -3.605      1.796      7.432
REMARK INTER + INTRA:          -4.664
REMARK INTER:                  -4.492
REMARK INTRA:                  -0.172
REMARK UNBOUND:                -0.322
REMARK SMILES O=c1c(O)c(-c2ccc(O)c(O)c2)oc2cc(O)cc(O)c12
REMARK SMILES IDX 5 1 3 2 2 3 1 4 22 5 20 6 19 7 17 8 16 9 15 10 14 11 6 12
REMARK SMILES IDX 7 13 8 14 9 15 13 16 11 17 10 18 12 20 4 22 21 24 18 26
REMARK H PARENT 10 19 12 21 4 23 21 25 18 27
REMARK Flexibility Score: inf
ROOT
ATOM      1  C   UNL     1      23.319  47.999  87.526  1.00  0.00     0.180 A 
ATOM      2  C   UNL     1      24.098  46.964  88.072  1.00  0.00     0.208 A 
ATOM      3  C   UNL     1      25.417  46.795  87.622  1.00  0.00     0.238 A 
ATOM      4  O   UNL     1      26.126  45.901  88.153  1.00  0.00    -0.285 OA
ATOM      5  C   UNL     1      25.936  47.651  86.621  1.00  0.00     0.111 A 
ATOM      6  C   UNL     1      27.245  47.545  86.063  1.00  0.00     0.134 A 
ATOM      7  C   UNL     1      27.699  48.527  85.173  1.00  0.00     0.093 A 
ATOM      8  C   UNL     1      26.866  49.574  84.772  1.00  0.00     0.123 A 
ATOM      9  C   UNL     1      25.566  49.654  85.266  1.00  0.00     0.094 A 
ATOM     10  C   UNL     1      25.098  48.709  86.183  1.00  0.00     0.146 A 
ATOM     11  O   UNL     1      23.856  48.827  86.637  1.00  0.00    -0.452 OA
ENDROOT
BRANCH   1  12
ATOM     12  C   UNL     1      21.913  48.226  87.931  1.00  0.00     0.025 A 
ATOM     13  C   UNL     1      21.534  49.375  88.648  1.00  0.00     0.016 A 
ATOM     14  C   UNL     1      20.206  49.557  89.041  1.00  0.00     0.051 A 
ATOM     15  C   UNL     1      19.240  48.588  88.735  1.00  0.00     0.157 A 
ATOM     16  C   UNL     1      20.945  47.249  87.646  1.00  0.00     0.062 A 
ATOM     17  C   UNL     1      19.611  47.431  88.040  1.00  0.00     0.158 A 
BRANCH  15  18
ATOM     18  O   UNL     1      17.914  48.767  89.124  1.00  0.00    -0.504 OA
ATOM     19  H   UNL     1      17.308  49.429  88.654  1.00  0.00     0.293 HD
ENDBRANCH  15  18
BRANCH  17  20
ATOM     20  O   UNL     1      18.650  46.466  87.744  1.00  0.00    -0.504 OA
ATOM     21  H   UNL     1      18.900  45.582  87.315  1.00  0.00     0.293 HD
ENDBRANCH  17  20
ENDBRANCH   1  12
BRANCH   2  22
ATOM     22  O   UNL     1      23.572  46.144  89.074  1.00  0.00    -0.502 OA
ATOM     23  H   UNL     1      24.131  45.808  89.850  1.00  0.00     0.293 HD
ENDBRANCH   2  22
BRANCH   6  24
ATOM     24  O   UNL     1      28.122  46.489  86.327  1.00  0.00    -0.507 OA
ATOM     25  H   UNL     1      28.847  46.174  85.700  1.00  0.00     0.293 HD
ENDBRANCH   6  24
BRANCH   8  26
ATOM     26  O   UNL     1      27.319  50.539  83.874  1.00  0.00    -0.508 OA
ATOM     27  H   UNL     1      27.674  51.433  84.192  1.00  0.00     0.293 HD
ENDBRANCH   8  26
TORSDOF 6
ENDMDL
MODEL 5
REMARK VINA RESULT:    -3.589      1.543      6.853
REMARK INTER + INTRA:          -4.645
REMARK INTER:                  -4.530
REMARK INTRA:                  -0.114
REMARK UNBOUND:                -0.322
REMARK SMILES O=c1c(O)c(-c2ccc(O)c(O)c2)oc2cc(O)cc(O)c12
REMARK SMILES IDX 5 1 3 2 2 3 1 4 22 5 20 6 19 7 17 8 16 9 15 10 14 11 6 12
REMARK SMILES IDX 7 13 8 14 9 15 13 16 11 17 10 18 12 20 4 22 21 24 18 26
REMARK H PARENT 10 19 12 21 4 23 21 25 18 27
REMARK Flexibility Score: inf
ROOT
ATOM      1  C   UNL     1      22.206  47.915  87.525  1.00  0.00     0.180 A 
ATOM      2  C   UNL     1      22.715  48.701  86.478  1.00  0.00     0.208 A 
ATOM      3  C   UNL     1      24.083  48.623  86.171  1.00  0.00     0.238 A 
ATOM      4  O   UNL     1      24.523  49.288  85.198  1.00  0.00    -0.285 OA
ATOM      5  C   UNL     1      24.928  47.775  86.927  1.00  0.00     0.111 A 
ATOM      6  C   UNL     1      26.336  47.649  86.730  1.00  0.00     0.134 A 
ATOM      7  C   UNL     1      27.050  46.682  87.448  1.00  0.00     0.093 A 
ATOM      8  C   UNL     1      26.417  45.882  88.403  1.00  0.00     0.123 A 
ATOM      9  C   UNL     1      25.054  46.038  88.644  1.00  0.00     0.094 A 
ATOM     10  C   UNL     1      24.309  46.970  87.917  1.00  0.00     0.146 A 
ATOM     11  O   UNL     1      23.010  47.080  88.172  1.00  0.00    -0.452 OA
ENDROOT
BRANCH   1  12
ATOM     12  C   UNL     1      20.780  47.960  87.924  1.00  0.00     0.025 A 
ATOM     13  C   UNL     1      20.168  49.164  88.317  1.00  0.00     0.016 A 
ATOM     14  C   UNL     1      18.828  49.179  88.712  1.00  0.00     0.051 A 
ATOM     15  C   UNL     1      18.084  47.991  88.733  1.00  0.00     0.157 A 
ATOM     16  C   UNL     1      20.036  46.770  87.967  1.00  0.00     0.062 A 
ATOM     17  C   UNL     1      18.691  46.784  88.363  1.00  0.00     0.158 A 
BRANCH  15  18
ATOM     18  O   UNL     1      16.747  48.003  89.125  1.00  0.00    -0.504 OA
ATOM     19  H   UNL     1      16.465  47.722  90.056  1.00  0.00     0.293 HD
ENDBRANCH  15  18
BRANCH  17  20
ATOM     20  O   UNL     1      17.951  45.603  88.392  1.00  0.00    -0.504 OA
ATOM     21  H   UNL     1      18.142  44.842  87.751  1.00  0.00     0.293 HD
ENDBRANCH  17  20
ENDBRANCH   1  12
BRANCH   2  22
ATOM     22  O   UNL     1      21.859  49.516  85.731  1.00  0.00    -0.502 OA
ATOM     23  H   UNL     1      20.854  49.387  85.726  1.00  0.00     0.293 HD
ENDBRANCH   2  22
BRANCH   6  24
ATOM     24  O   UNL     1      27.079  48.461  85.868  1.00  0.00    -0.507 OA
ATOM     25  H   UNL     1      27.712  49.187  86.166  1.00  0.00     0.293 HD
ENDBRANCH   6  24
BRANCH   8  26
ATOM     26  O   UNL     1      27.138  44.932  89.125  1.00  0.00    -0.508 OA
ATOM     27  H   UNL     1      27.306  45.038  90.118  1.00  0.00     0.293 HD
ENDBRANCH   8  26
TORSDOF 6
ENDMDL
MODEL 6
REMARK VINA RESULT:    -3.549      2.753      6.335
REMARK INTER + INTRA:          -4.596
REMARK INTER:                  -5.050
REMARK INTRA:                   0.454
REMARK UNBOUND:                -0.322
REMARK SMILES O=c1c(O)c(-c2ccc(O)c(O)c2)oc2cc(O)cc(O)c12
REMARK SMILES IDX 5 1 3 2 2 3 1 4 22 5 20 6 19 7 17 8 16 9 15 10 14 11 6 12
REMARK SMILES IDX 7 13 8 14 9 15 13 16 11 17 10 18 12 20 4 22 21 24 18 26
REMARK H PARENT 10 19 12 21 4 23 21 25 18 27
REMARK Flexibility Score: inf
ROOT
ATOM      1  C   UNL     1      19.834  49.530  88.563  1.00  0.00     0.180 A 
ATOM      2  C   UNL     1      19.244  50.781  88.813  1.00  0.00     0.208 A 
ATOM      3  C   UNL     1      20.032  51.939  88.706  1.00  0.00     0.238 A 
ATOM      4  O   UNL     1      19.485  53.059  88.879  1.00  0.00    -0.285 OA
ATOM      5  C   UNL     1      21.402  51.830  88.368  1.00  0.00     0.111 A 
ATOM      6  C   UNL     1      22.302  52.933  88.272  1.00  0.00     0.134 A 
ATOM      7  C   UNL     1      23.605  52.723  87.802  1.00  0.00     0.093 A 
ATOM      8  C   UNL     1      24.058  51.440  87.487  1.00  0.00     0.123 A 
ATOM      9  C   UNL     1      23.204  50.349  87.634  1.00  0.00     0.094 A 
ATOM     10  C   UNL     1      21.888  50.532  88.066  1.00  0.00     0.146 A 
ATOM     11  O   UNL     1      21.105  49.466  88.183  1.00  0.00    -0.452 OA
ENDROOT
BRANCH   1  12
ATOM     12  C   UNL     1      19.076  48.263  88.678  1.00  0.00     0.025 A 
ATOM     13  C   UNL     1      17.676  48.259  88.819  1.00  0.00     0.016 A 
ATOM     14  C   UNL     1      16.983  47.053  88.951  1.00  0.00     0.051 A 
ATOM     15  C   UNL     1      17.679  45.836  88.958  1.00  0.00     0.157 A 
ATOM     16  C   UNL     1      19.769  47.042  88.707  1.00  0.00     0.062 A 
ATOM     17  C   UNL     1      19.074  45.831  88.840  1.00  0.00     0.158 A 
BRANCH  15  18
ATOM     18  O   UNL     1      16.990  44.631  89.087  1.00  0.00    -0.504 OA
ATOM     19  H   UNL     1      16.034  44.600  89.419  1.00  0.00     0.293 HD
ENDBRANCH  15  18
BRANCH  17  20
ATOM     20  O   UNL     1      19.764  44.620  88.854  1.00  0.00    -0.504 OA
ATOM     21  H   UNL     1      19.387  43.790  88.411  1.00  0.00     0.293 HD
ENDBRANCH  17  20
ENDBRANCH   1  12
BRANCH   2  22
ATOM     22  O   UNL     1      17.885  50.866  89.125  1.00  0.00    -0.502 OA
ATOM     23  H   UNL     1      17.486  50.419  89.942  1.00  0.00     0.293 HD
ENDBRANCH   2  22
BRANCH   6  24
ATOM     24  O   UNL     1      21.978  54.240  88.649  1.00  0.00    -0.507 OA
ATOM     25  H   UNL     1      21.060  54.545  88.933  1.00  0.00     0.293 HD
ENDBRANCH   6  24
BRANCH   8  26
ATOM     26  O   UNL     1      25.360  51.236  87.034  1.00  0.00    -0.508 OA
ATOM     27  H   UNL     1      26.100  51.899  87.234  1.00  0.00     0.293 HD
ENDBRANCH   8  26
TORSDOF 6
ENDMDL
MODEL 7
REMARK VINA RESULT:    -3.546      2.566      7.775
REMARK INTER + INTRA:          -4.593
REMARK INTER:                  -4.465
REMARK INTRA:                  -0.128
REMARK UNBOUND:                -0.322
REMARK SMILES O=c1c(O)c(-c2ccc(O)c(O)c2)oc2cc(O)cc(O)c12
REMARK SMILES IDX 5 1 3 2 2 3 1 4 22 5 20 6 19 7 17 8 16 9 15 10 14 11 6 12
REMARK SMILES IDX 7 13 8 14 9 15 13 16 11 17 10 18 12 20 4 22 21 24 18 26
REMARK H PARENT 10 19 12 21 4 23 21 25 18 27
REMARK Flexibility Score: inf
ROOT
ATOM      1  C   UNL     1      22.922  49.517  87.012  1.00  0.00     0.180 A 
ATOM      2  C   UNL     1      23.374  48.324  86.423  1.00  0.00     0.208 A 
ATOM      3  C   UNL     1      24.675  48.275  85.898  1.00  0.00     0.238 A 
ATOM      4  O   UNL     1      25.092  47.189  85.420  1.00  0.00    -0.285 OA
ATOM      5  C   UNL     1      25.501  49.423  85.953  1.00  0.00     0.111 A 
ATOM      6  C   UNL     1      26.821  49.498  85.416  1.00  0.00     0.134 A 
ATOM      7  C   UNL     1      27.596  50.642  85.644  1.00  0.00     0.093 A 
ATOM      8  C   UNL     1      27.074  51.739  86.333  1.00  0.00     0.123 A 
ATOM      9  C   UNL     1      25.766  51.699  86.810  1.00  0.00     0.094 A 
ATOM     10  C   UNL     1      24.982  50.557  86.629  1.00  0.00     0.146 A 
ATOM     11  O   UNL     1      23.743  50.556  87.109  1.00  0.00    -0.452 OA
ENDROOT
BRANCH   1  12
ATOM     12  C   UNL     1      21.555  49.655  87.566  1.00  0.00     0.025 A 
ATOM     13  C   UNL     1      21.114  48.852  88.634  1.00  0.00     0.016 A 
ATOM     14  C   UNL     1      19.812  48.981  89.125  1.00  0.00     0.051 A 
ATOM     15  C   UNL     1      18.929  49.905  88.549  1.00  0.00     0.157 A 
ATOM     16  C   UNL     1      20.659  50.563  86.980  1.00  0.00     0.062 A 
ATOM     17  C   UNL     1      19.352  50.694  87.472  1.00  0.00     0.158 A 
BRANCH  15  18
ATOM     18  O   UNL     1      17.631  50.038  89.037  1.00  0.00    -0.504 OA
ATOM     19  H   UNL     1      17.440  50.079  90.031  1.00  0.00     0.293 HD
ENDBRANCH  15  18
BRANCH  17  20
ATOM     20  O   UNL     1      18.469  51.606  86.896  1.00  0.00    -0.504 OA
ATOM     21  H   UNL     1      18.761  52.545  86.654  1.00  0.00     0.293 HD
ENDBRANCH  17  20
ENDBRANCH   1  12
BRANCH   2  22
ATOM     22  O   UNL     1      22.548  47.197  86.398  1.00  0.00    -0.502 OA
ATOM     23  H   UNL     1      22.300  46.724  85.537  1.00  0.00     0.293 HD
ENDBRANCH   2  22
BRANCH   6  24
ATOM     24  O   UNL     1      27.404  48.495  84.635  1.00  0.00    -0.507 OA
ATOM     25  H   UNL     1      27.492  47.530  84.912  1.00  0.00     0.293 HD
ENDBRANCH   6  24
BRANCH   8  26
ATOM     26  O   UNL     1      27.846  52.880  86.542  1.00  0.00    -0.508 OA
ATOM     27  H   UNL     1      27.637  53.531  87.290  1.00  0.00     0.293 HD
ENDBRANCH   8  26
TORSDOF 6
ENDMDL
MODEL 8
REMARK VINA RESULT:    -3.365      2.397      3.269
REMARK INTER + INTRA:          -4.376
REMARK INTER:                  -4.108
REMARK INTRA:                  -0.268
REMARK UNBOUND:                -0.322
REMARK SMILES O=c1c(O)c(-c2ccc(O)c(O)c2)oc2cc(O)cc(O)c12
REMARK SMILES IDX 5 1 3 2 2 3 1 4 22 5 20 6 19 7 17 8 16 9 15 10 14 11 6 12
REMARK SMILES IDX 7 13 8 14 9 15 13 16 11 17 10 18 12 20 4 22 21 24 18 26
REMARK H PARENT 10 19 12 21 4 23 21 25 18 27
REMARK Flexibility Score: inf
ROOT
ATOM      1  C   UNL     1      23.995  50.266  87.327  1.00  0.00     0.180 A 
ATOM      2  C   UNL     1      24.246  51.512  87.925  1.00  0.00     0.208 A 
ATOM      3  C   UNL     1      23.163  52.269  88.401  1.00  0.00     0.238 A 
ATOM      4  O   UNL     1      23.398  53.359  88.984  1.00  0.00    -0.285 OA
ATOM      5  C   UNL     1      21.843  51.778  88.258  1.00  0.00     0.111 A 
ATOM      6  C   UNL     1      20.669  52.479  88.667  1.00  0.00     0.134 A 
ATOM      7  C   UNL     1      19.424  51.841  88.597  1.00  0.00     0.093 A 
ATOM      8  C   UNL     1      19.304  50.552  88.071  1.00  0.00     0.123 A 
ATOM      9  C   UNL     1      20.437  49.883  87.614  1.00  0.00     0.094 A 
ATOM     10  C   UNL     1      21.697  50.480  87.705  1.00  0.00     0.146 A 
ATOM     11  O   UNL     1      22.752  49.802  87.267  1.00  0.00    -0.452 OA
ENDROOT
BRANCH   1  12
ATOM     12  C   UNL     1      25.082  49.421  86.780  1.00  0.00     0.025 A 
ATOM     13  C   UNL     1      25.733  49.754  85.578  1.00  0.00     0.016 A 
ATOM     14  C   UNL     1      26.739  48.930  85.067  1.00  0.00     0.051 A 
ATOM     15  C   UNL     1      27.100  47.756  85.741  1.00  0.00     0.157 A 
ATOM     16  C   UNL     1      25.433  48.232  87.439  1.00  0.00     0.062 A 
ATOM     17  C   UNL     1      26.443  47.404  86.927  1.00  0.00     0.158 A 
BRANCH  15  18
ATOM     18  O   UNL     1      28.104  46.932  85.235  1.00  0.00    -0.504 OA
ATOM     19  H   UNL     1      28.281  46.013  85.623  1.00  0.00     0.293 HD
ENDBRANCH  15  18
BRANCH  17  20
ATOM     20  O   UNL     1      26.799  46.231  87.591  1.00  0.00    -0.504 OA
ATOM     21  H   UNL     1      27.176  46.249  88.532  1.00  0.00     0.293 HD
ENDBRANCH  17  20
ENDBRANCH   1  12
BRANCH   2  22
ATOM     22  O   UNL     1      25.559  51.968  88.075  1.00  0.00    -0.502 OA
ATOM     23  H   UNL     1      25.864  52.869  87.727  1.00  0.00     0.293 HD
ENDBRANCH   2  22
BRANCH   6  24
ATOM     24  O   UNL     1      20.668  53.801  89.121  1.00  0.00    -0.507 OA
ATOM     25  H   UNL     1      20.232  54.573  88.640  1.00  0.00     0.293 HD
ENDBRANCH   6  24
BRANCH   8  26
ATOM     26  O   UNL     1      18.060  49.930  87.990  1.00  0.00    -0.508 OA
ATOM     27  H   UNL     1      17.661  49.658  87.099  1.00  0.00     0.293 HD
ENDBRANCH   8  26
TORSDOF 6
ENDMDL
