MODEL 1
REMARK VINA RESULT:    -3.517      0.000      0.000
REMARK INTER + INTRA:          -8.368
REMARK INTER:                  -6.395
REMARK INTRA:                  -1.972
REMARK UNBOUND:                -1.972
REMARK SMILES CCCCCCCCCCCCCCCC(=O)[O-]
REMARK SMILES IDX 9 1 10 2 11 3 12 4 13 5 14 6 15 7 16 8 17 9 18 10 8 11 7 12
REMARK SMILES IDX 6 13 5 14 4 15 3 16 2 17 1 18
REMARK H PARENT
REMARK Flexibility Score: inf
ROOT
ATOM      1  C   UNL     1      43.383  28.699  89.557  1.00  0.00     0.000 C 
ENDROOT
BRANCH   1   2
ATOM      2  C   UNL     1      42.655  29.336  90.753  1.00  0.00     0.000 C 
BRANCH   2   3
ATOM      3  C   UNL     1      43.296  28.968  92.101  1.00  0.00     0.000 C 
BRANCH   3   4
ATOM      4  C   UNL     1      44.625  29.700  92.340  1.00  0.00     0.000 C 
BRANCH   4   5
ATOM      5  C   UNL     1      44.472  31.207  92.103  1.00  0.00     0.000 C 
BRANCH   5   6
ATOM      6  C   UNL     1      45.473  31.704  91.050  1.00  0.00     0.006 C 
BRANCH   6   7
ATOM      7  C   UNL     1      46.426  30.595  90.584  1.00  0.00     0.053 C 
BRANCH   7   8
ATOM      8  C   UNL     1      47.672  31.157  89.972  1.00  0.00     0.041 C 
ATOM      9  O   UNL     1      48.794  30.931  90.496  1.00  0.00    -0.550 OA
ATOM     10  O   UNL     1      47.596  31.904  88.802  1.00  0.00    -0.550 OA
ENDBRANCH   7   8
ENDBRANCH   6   7
ENDBRANCH   5   6
ENDBRANCH   4   5
ENDBRANCH   3   4
ENDBRANCH   2   3
ENDBRANCH   1   2
BRANCH   1  11
ATOM     11  C   UNL     1      43.555  29.676  88.383  1.00  0.00     0.000 C 
BRANCH  11  12
ATOM     12  C   UNL     1      42.685  30.935  88.534  1.00  0.00    -0.000 C 
BRANCH  12  13
ATOM     13  C   UNL     1      41.552  30.995  87.497  1.00  0.00    -0.000 C 
BRANCH  13  14
ATOM     14  C   UNL     1      40.157  30.916  88.141  1.00  0.00    -0.000 C 
BRANCH  14  15
ATOM     15  C   UNL     1      39.816  29.501  88.636  1.00  0.00    -0.000 C 
BRANCH  15  16
ATOM     16  C   UNL     1      40.077  28.424  87.569  1.00  0.00    -0.000 C 
BRANCH  16  17
ATOM     17  C   UNL     1      38.875  28.219  86.634  1.00  0.00    -0.003 C 
ATOM     18  C   UNL     1      37.535  28.324  87.363  1.00  0.00     0.004 C 
ENDBRANCH  16  17
ENDBRANCH  15  16
ENDBRANCH  14  15
ENDBRANCH  13  14
ENDBRANCH  12  13
ENDBRANCH  11  12
ENDBRANCH   1  11
TORSDOF 14
ENDMDL
MODEL 2
REMARK VINA RESULT:    -3.412      1.416      3.145
REMARK INTER + INTRA:          -8.176
REMARK INTER:                  -6.248
REMARK INTRA:                  -1.928
REMARK UNBOUND:                -1.972
REMARK SMILES CCCCCCCCCCCCCCCC(=O)[O-]
REMARK SMILES IDX 9 1 10 2 11 3 12 4 13 5 14 6 15 7 16 8 17 9 18 10 8 11 7 12
REMARK SMILES IDX 6 13 5 14 4 15 3 16 2 17 1 18
REMARK H PARENT
REMARK Flexibility Score: inf
ROOT
ATOM      1  C   UNL     1      42.633  29.323  91.202  1.00  0.00     0.000 C 
ENDROOT
BRANCH   1   2
ATOM      2  C   UNL     1      43.849  29.499  92.128  1.00  0.00     0.000 C 
BRANCH   2   3
ATOM      3  C   UNL     1      44.149  30.975  92.434  1.00  0.00     0.000 C 
BRANCH   3   4
ATOM      4  C   UNL     1      45.069  31.620  91.387  1.00  0.00     0.000 C 
BRANCH   4   5
ATOM      5  C   UNL     1      46.095  30.608  90.861  1.00  0.00     0.000 C 
BRANCH   5   6
ATOM      6  C   UNL     1      47.085  31.278  89.897  1.00  0.00     0.006 C 
BRANCH   6   7
ATOM      7  C   UNL     1      48.545  30.969  90.255  1.00  0.00     0.053 C 
BRANCH   7   8
ATOM      8  C   UNL     1      48.902  29.548  89.943  1.00  0.00     0.041 C 
ATOM      9  O   UNL     1      48.524  29.021  88.864  1.00  0.00    -0.550 OA
ATOM     10  O   UNL     1      49.682  28.816  90.831  1.00  0.00    -0.550 OA
ENDBRANCH   7   8
ENDBRANCH   6   7
ENDBRANCH   5   6
ENDBRANCH   4   5
ENDBRANCH   3   4
ENDBRANCH   2   3
ENDBRANCH   1   2
BRANCH   1  11
ATOM     11  C   UNL     1      42.674  27.998  90.423  1.00  0.00     0.000 C 
BRANCH  11  12
ATOM     12  C   UNL     1      41.474  27.836  89.474  1.00  0.00    -0.000 C 
BRANCH  12  13
ATOM     13  C   UNL     1      40.390  28.899  89.709  1.00  0.00    -0.000 C 
BRANCH  13  14
ATOM     14  C   UNL     1      39.896  29.538  88.399  1.00  0.00    -0.000 C 
BRANCH  14  15
ATOM     15  C   UNL     1      40.396  30.981  88.222  1.00  0.00    -0.000 C 
BRANCH  15  16
ATOM     16  C   UNL     1      41.684  31.060  87.384  1.00  0.00    -0.000 C 
BRANCH  16  17
ATOM     17  C   UNL     1      42.938  31.248  88.251  1.00  0.00    -0.003 C 
ATOM     18  C   UNL     1      44.054  30.266  87.896  1.00  0.00     0.004 C 
ENDBRANCH  16  17
ENDBRANCH  15  16
ENDBRANCH  14  15
ENDBRANCH  13  14
ENDBRANCH  12  13
ENDBRANCH  11  12
ENDBRANCH   1  11
TORSDOF 14
ENDMDL
MODEL 3
REMARK VINA RESULT:    -3.406      3.221      6.632
REMARK INTER + INTRA:          -8.167
REMARK INTER:                  -5.863
REMARK INTRA:                  -2.304
REMARK UNBOUND:                -1.972
REMARK SMILES CCCCCCCCCCCCCCCC(=O)[O-]
REMARK SMILES IDX 9 1 10 2 11 3 12 4 13 5 14 6 15 7 16 8 17 9 18 10 8 11 7 12
REMARK SMILES IDX 6 13 5 14 4 15 3 16 2 17 1 18
REMARK H PARENT
REMARK Flexibility Score: inf
ROOT
ATOM      1  C   UNL     1      44.634  27.943  89.128  1.00  0.00     0.000 C 
ENDROOT
BRANCH   1   2
ATOM      2  C   UNL     1      43.489  28.462  88.241  1.00  0.00     0.000 C 
BRANCH   2   3
ATOM      3  C   UNL     1      43.781  29.851  87.652  1.00  0.00     0.000 C 
BRANCH   3   4
ATOM      4  C   UNL     1      42.845  30.935  88.208  1.00  0.00     0.000 C 
BRANCH   4   5
ATOM      5  C   UNL     1      41.640  31.146  87.284  1.00  0.00     0.000 C 
BRANCH   5   6
ATOM      6  C   UNL     1      40.325  31.107  88.076  1.00  0.00     0.006 C 
BRANCH   6   7
ATOM      7  C   UNL     1      40.378  30.111  89.242  1.00  0.00     0.053 C 
BRANCH   7   8
ATOM      8  C   UNL     1      39.833  28.771  88.851  1.00  0.00     0.041 C 
ATOM      9  O   UNL     1      39.978  27.780  89.614  1.00  0.00    -0.550 OA
ATOM     10  O   UNL     1      39.137  28.625  87.657  1.00  0.00    -0.550 OA
ENDBRANCH   7   8
ENDBRANCH   6   7
ENDBRANCH   5   6
ENDBRANCH   4   5
ENDBRANCH   3   4
ENDBRANCH   2   3
ENDBRANCH   1   2
BRANCH   1  11
ATOM     11  C   UNL     1      44.167  27.599  90.551  1.00  0.00     0.000 C 
BRANCH  11  12
ATOM     12  C   UNL     1      43.130  28.601  91.088  1.00  0.00    -0.000 C 
BRANCH  12  13
ATOM     13  C   UNL     1      43.566  29.244  92.415  1.00  0.00    -0.000 C 
BRANCH  13  14
ATOM     14  C   UNL     1      44.865  30.057  92.277  1.00  0.00    -0.000 C 
BRANCH  14  15
ATOM     15  C   UNL     1      44.704  31.273  91.350  1.00  0.00    -0.000 C 
BRANCH  15  16
ATOM     16  C   UNL     1      45.863  31.407  90.347  1.00  0.00    -0.000 C 
BRANCH  16  17
ATOM     17  C   UNL     1      46.932  30.319  90.535  1.00  0.00    -0.003 C 
ATOM     18  C   UNL     1      48.341  30.812  90.203  1.00  0.00     0.004 C 
ENDBRANCH  16  17
ENDBRANCH  15  16
ENDBRANCH  14  15
ENDBRANCH  13  14
ENDBRANCH  12  13
ENDBRANCH  11  12
ENDBRANCH   1  11
TORSDOF 14
ENDMDL
MODEL 4
REMARK VINA RESULT:    -3.363      3.444      5.314
REMARK INTER + INTRA:          -8.088
REMARK INTER:                  -7.014
REMARK INTRA:                  -1.074
REMARK UNBOUND:                -1.972
REMARK SMILES CCCCCCCCCCCCCCCC(=O)[O-]
REMARK SMILES IDX 9 1 10 2 11 3 12 4 13 5 14 6 15 7 16 8 17 9 18 10 8 11 7 12
REMARK SMILES IDX 6 13 5 14 4 15 3 16 2 17 1 18
REMARK H PARENT
REMARK Flexibility Score: inf
ROOT
ATOM      1  C   UNL     1      47.145  31.181  89.815  1.00  0.00     0.000 C 
ENDROOT
BRANCH   1   2
ATOM      2  C   UNL     1      47.088  32.030  88.533  1.00  0.00     0.000 C 
BRANCH   2   3
ATOM      3  C   UNL     1      47.759  31.339  87.336  1.00  0.00     0.000 C 
BRANCH   3   4
ATOM      4  C   UNL     1      48.728  32.266  86.587  1.00  0.00     0.000 C 
BRANCH   4   5
ATOM      5  C   UNL     1      48.584  33.714  87.068  1.00  0.00     0.000 C 
BRANCH   5   6
ATOM      6  C   UNL     1      49.426  34.668  86.207  1.00  0.00     0.006 C 
BRANCH   6   7
ATOM      7  C   UNL     1      50.420  35.483  87.044  1.00  0.00     0.053 C 
BRANCH   7   8
ATOM      8  C   UNL     1      51.748  34.799  87.148  1.00  0.00     0.041 C 
ATOM      9  O   UNL     1      52.729  35.212  86.475  1.00  0.00    -0.550 OA
ATOM     10  O   UNL     1      51.911  33.724  88.014  1.00  0.00    -0.550 OA
ENDBRANCH   7   8
ENDBRANCH   6   7
ENDBRANCH   5   6
ENDBRANCH   4   5
ENDBRANCH   3   4
ENDBRANCH   2   3
ENDBRANCH   1   2
BRANCH   1  11
ATOM     11  C   UNL     1      46.072  31.586  90.838  1.00  0.00     0.000 C 
BRANCH  11  12
ATOM     12  C   UNL     1      44.647  31.274  90.352  1.00  0.00    -0.000 C 
BRANCH  12  13
ATOM     13  C   UNL     1      44.533  29.878  89.719  1.00  0.00    -0.000 C 
BRANCH  13  14
ATOM     14  C   UNL     1      43.453  29.812  88.625  1.00  0.00    -0.000 C 
BRANCH  14  15
ATOM     15  C   UNL     1      42.974  31.205  88.185  1.00  0.00    -0.000 C 
BRANCH  15  16
ATOM     16  C   UNL     1      41.519  31.199  87.688  1.00  0.00    -0.000 C 
BRANCH  16  17
ATOM     17  C   UNL     1      40.562  30.518  88.678  1.00  0.00    -0.003 C 
ATOM     18  C   UNL     1      39.682  29.458  88.016  1.00  0.00     0.004 C 
ENDBRANCH  16  17
ENDBRANCH  15  16
ENDBRANCH  14  15
ENDBRANCH  13  14
ENDBRANCH  12  13
ENDBRANCH  11  12
ENDBRANCH   1  11
TORSDOF 14
ENDMDL
MODEL 5
REMARK VINA RESULT:    -3.339      3.468      6.442
REMARK INTER + INTRA:          -8.044
REMARK INTER:                  -5.694
REMARK INTRA:                  -2.350
REMARK UNBOUND:                -1.972
REMARK SMILES CCCCCCCCCCCCCCCC(=O)[O-]
REMARK SMILES IDX 9 1 10 2 11 3 12 4 13 5 14 6 15 7 16 8 17 9 18 10 8 11 7 12
REMARK SMILES IDX 6 13 5 14 4 15 3 16 2 17 1 18
REMARK H PARENT
REMARK Flexibility Score: inf
ROOT
ATOM      1  C   UNL     1      43.950  30.064  87.731  1.00  0.00     0.000 C 
ENDROOT
BRANCH   1   2
ATOM      2  C   UNL     1      42.923  31.078  88.266  1.00  0.00     0.000 C 
BRANCH   2   3
ATOM      3  C   UNL     1      41.616  31.078  87.457  1.00  0.00     0.000 C 
BRANCH   3   4
ATOM      4  C   UNL     1      40.372  30.925  88.345  1.00  0.00     0.000 C 
BRANCH   4   5
ATOM      5  C   UNL     1      39.587  29.661  87.977  1.00  0.00     0.000 C 
BRANCH   5   6
ATOM      6  C   UNL     1      40.033  28.467  88.833  1.00  0.00     0.006 C 
BRANCH   6   7
ATOM      7  C   UNL     1      40.882  27.466  88.038  1.00  0.00     0.053 C 
BRANCH   7   8
ATOM      8  C   UNL     1      40.106  26.849  86.916  1.00  0.00     0.041 C 
ATOM      9  O   UNL     1      40.573  26.846  85.747  1.00  0.00    -0.550 OA
ATOM     10  O   UNL     1      38.878  26.247  87.168  1.00  0.00    -0.550 OA
ENDBRANCH   7   8
ENDBRANCH   6   7
ENDBRANCH   5   6
ENDBRANCH   4   5
ENDBRANCH   3   4
ENDBRANCH   2   3
ENDBRANCH   1   2
BRANCH   1  11
ATOM     11  C   UNL     1      45.329  30.219  88.392  1.00  0.00     0.000 C 
BRANCH  11  12
ATOM     12  C   UNL     1      45.445  31.512  89.217  1.00  0.00    -0.000 C 
BRANCH  12  13
ATOM     13  C   UNL     1      45.889  31.249  90.664  1.00  0.00    -0.000 C 
BRANCH  13  14
ATOM     14  C   UNL     1      44.750  31.460  91.678  1.00  0.00    -0.000 C 
BRANCH  14  15
ATOM     15  C   UNL     1      44.218  30.136  92.250  1.00  0.00    -0.000 C 
BRANCH  15  16
ATOM     16  C   UNL     1      42.898  29.698  91.593  1.00  0.00    -0.000 C 
BRANCH  16  17
ATOM     17  C   UNL     1      42.978  28.285  90.996  1.00  0.00    -0.003 C 
ATOM     18  C   UNL     1      44.397  27.718  91.009  1.00  0.00     0.004 C 
ENDBRANCH  16  17
ENDBRANCH  15  16
ENDBRANCH  14  15
ENDBRANCH  13  14
ENDBRANCH  12  13
ENDBRANCH  11  12
ENDBRANCH   1  11
TORSDOF 14
ENDMDL
MODEL 6
REMARK VINA RESULT:    -3.316      2.829      5.271
REMARK INTER + INTRA:          -8.003
REMARK INTER:                  -6.631
REMARK INTRA:                  -1.372
REMARK UNBOUND:                -1.972
REMARK SMILES CCCCCCCCCCCCCCCC(=O)[O-]
REMARK SMILES IDX 9 1 10 2 11 3 12 4 13 5 14 6 15 7 16 8 17 9 18 10 8 11 7 12
REMARK SMILES IDX 6 13 5 14 4 15 3 16 2 17 1 18
REMARK H PARENT
REMARK Flexibility Score: inf
ROOT
ATOM      1  C   UNL     1      47.766  29.753  90.017  1.00  0.00     0.000 C 
ENDROOT
BRANCH   1   2
ATOM      2  C   UNL     1      49.263  29.440  89.848  1.00  0.00     0.000 C 
BRANCH   2   3
ATOM      3  C   UNL     1      50.154  30.673  90.068  1.00  0.00     0.000 C 
BRANCH   3   4
ATOM      4  C   UNL     1      51.029  30.994  88.848  1.00  0.00     0.000 C 
BRANCH   4   5
ATOM      5  C   UNL     1      50.650  32.350  88.243  1.00  0.00     0.000 C 
BRANCH   5   6
ATOM      6  C   UNL     1      49.579  32.188  87.153  1.00  0.00     0.006 C 
BRANCH   6   7
ATOM      7  C   UNL     1      48.575  33.348  87.147  1.00  0.00     0.053 C 
BRANCH   7   8
ATOM      8  C   UNL     1      49.185  34.605  86.607  1.00  0.00     0.041 C 
ATOM      9  O   UNL     1      48.989  35.706  87.186  1.00  0.00    -0.550 OA
ATOM     10  O   UNL     1      49.996  34.556  85.479  1.00  0.00    -0.550 OA
ENDBRANCH   7   8
ENDBRANCH   6   7
ENDBRANCH   5   6
ENDBRANCH   4   5
ENDBRANCH   3   4
ENDBRANCH   2   3
ENDBRANCH   1   2
BRANCH   1  11
ATOM     11  C   UNL     1      47.492  31.259  90.156  1.00  0.00     0.000 C 
BRANCH  11  12
ATOM     12  C   UNL     1      45.992  31.592  90.105  1.00  0.00    -0.000 C 
BRANCH  12  13
ATOM     13  C   UNL     1      45.116  30.441  90.626  1.00  0.00    -0.000 C 
BRANCH  13  14
ATOM     14  C   UNL     1      43.755  30.367  89.912  1.00  0.00    -0.000 C 
BRANCH  14  15
ATOM     15  C   UNL     1      43.679  31.294  88.689  1.00  0.00    -0.000 C 
BRANCH  15  16
ATOM     16  C   UNL     1      42.311  31.235  87.988  1.00  0.00    -0.000 C 
BRANCH  16  17
ATOM     17  C   UNL     1      41.300  30.360  88.745  1.00  0.00    -0.003 C 
ATOM     18  C   UNL     1      39.850  30.703  88.405  1.00  0.00     0.004 C 
ENDBRANCH  16  17
ENDBRANCH  15  16
ENDBRANCH  14  15
ENDBRANCH  13  14
ENDBRANCH  12  13
ENDBRANCH  11  12
ENDBRANCH   1  11
TORSDOF 14
ENDMDL
MODEL 7
REMARK VINA RESULT:    -3.314      2.871      5.956
REMARK INTER + INTRA:          -7.998
REMARK INTER:                  -5.349
REMARK INTRA:                  -2.649
REMARK UNBOUND:                -1.972
REMARK SMILES CCCCCCCCCCCCCCCC(=O)[O-]
REMARK SMILES IDX 9 1 10 2 11 3 12 4 13 5 14 6 15 7 16 8 17 9 18 10 8 11 7 12
REMARK SMILES IDX 6 13 5 14 4 15 3 16 2 17 1 18
REMARK H PARENT
REMARK Flexibility Score: inf
ROOT
ATOM      1  C   UNL     1      45.825  28.496  91.617  1.00  0.00     0.000 C 
ENDROOT
BRANCH   1   2
ATOM      2  C   UNL     1      45.193  27.587  90.549  1.00  0.00     0.000 C 
BRANCH   2   3
ATOM      3  C   UNL     1      43.731  27.232  90.864  1.00  0.00     0.000 C 
BRANCH   3   4
ATOM      4  C   UNL     1      42.774  27.611  89.724  1.00  0.00     0.000 C 
BRANCH   4   5
ATOM      5  C   UNL     1      41.439  28.123  90.277  1.00  0.00     0.000 C 
BRANCH   5   6
ATOM      6  C   UNL     1      40.527  28.618  89.145  1.00  0.00     0.006 C 
BRANCH   6   7
ATOM      7  C   UNL     1      40.684  30.123  88.887  1.00  0.00     0.053 C 
BRANCH   7   8
ATOM      8  C   UNL     1      41.268  30.395  87.535  1.00  0.00     0.041 C 
ATOM      9  O   UNL     1      41.450  29.452  86.721  1.00  0.00    -0.550 OA
ATOM     10  O   UNL     1      41.581  31.697  87.162  1.00  0.00    -0.550 OA
ENDBRANCH   7   8
ENDBRANCH   6   7
ENDBRANCH   5   6
ENDBRANCH   4   5
ENDBRANCH   3   4
ENDBRANCH   2   3
ENDBRANCH   1   2
BRANCH   1  11
ATOM     11  C   UNL     1      44.784  29.361  92.345  1.00  0.00     0.000 C 
BRANCH  11  12
ATOM     12  C   UNL     1      44.730  30.799  91.801  1.00  0.00    -0.000 C 
BRANCH  12  13
ATOM     13  C   UNL     1      43.725  30.955  90.649  1.00  0.00    -0.000 C 
BRANCH  13  14
ATOM     14  C   UNL     1      44.360  31.575  89.392  1.00  0.00    -0.000 C 
BRANCH  14  15
ATOM     15  C   UNL     1      44.867  30.513  88.403  1.00  0.00    -0.000 C 
BRANCH  15  16
ATOM     16  C   UNL     1      46.368  30.661  88.097  1.00  0.00    -0.000 C 
BRANCH  16  17
ATOM     17  C   UNL     1      47.059  31.674  89.023  1.00  0.00    -0.003 C 
ATOM     18  C   UNL     1      48.018  31.012  90.012  1.00  0.00     0.004 C 
ENDBRANCH  16  17
ENDBRANCH  15  16
ENDBRANCH  14  15
ENDBRANCH  13  14
ENDBRANCH  12  13
ENDBRANCH  11  12
ENDBRANCH   1  11
TORSDOF 14
ENDMDL
MODEL 8
REMARK VINA RESULT:    -3.309      2.968      6.091
REMARK INTER + INTRA:          -7.990
REMARK INTER:                  -5.646
REMARK INTRA:                  -2.344
REMARK UNBOUND:                -1.972
REMARK SMILES CCCCCCCCCCCCCCCC(=O)[O-]
REMARK SMILES IDX 9 1 10 2 11 3 12 4 13 5 14 6 15 7 16 8 17 9 18 10 8 11 7 12
REMARK SMILES IDX 6 13 5 14 4 15 3 16 2 17 1 18
REMARK H PARENT
REMARK Flexibility Score: inf
ROOT
ATOM      1  C   UNL     1      44.116  29.589  88.030  1.00  0.00     0.000 C 
ENDROOT
BRANCH   1   2
ATOM      2  C   UNL     1      43.537  29.375  86.620  1.00  0.00     0.000 C 
BRANCH   2   3
ATOM      3  C   UNL     1      42.116  29.940  86.472  1.00  0.00     0.000 C 
BRANCH   3   4
ATOM      4  C   UNL     1      41.837  31.098  87.443  1.00  0.00     0.000 C 
BRANCH   4   5
ATOM      5  C   UNL     1      40.521  30.876  88.197  1.00  0.00     0.000 C 
BRANCH   5   6
ATOM      6  C   UNL     1      40.752  30.067  89.482  1.00  0.00     0.006 C 
BRANCH   6   7
ATOM      7  C   UNL     1      40.149  28.658  89.398  1.00  0.00     0.053 C 
BRANCH   7   8
ATOM      8  C   UNL     1      41.208  27.611  89.238  1.00  0.00     0.041 C 
ATOM      9  O   UNL     1      42.087  27.455  90.126  1.00  0.00    -0.550 OA
ATOM     10  O   UNL     1      41.205  26.784  88.120  1.00  0.00    -0.550 OA
ENDBRANCH   7   8
ENDBRANCH   6   7
ENDBRANCH   5   6
ENDBRANCH   4   5
ENDBRANCH   3   4
ENDBRANCH   2   3
ENDBRANCH   1   2
BRANCH   1  11
ATOM     11  C   UNL     1      45.537  30.172  88.001  1.00  0.00     0.000 C 
BRANCH  11  12
ATOM     12  C   UNL     1      45.784  31.179  89.137  1.00  0.00    -0.000 C 
BRANCH  12  13
ATOM     13  C   UNL     1      44.484  31.610  89.834  1.00  0.00    -0.000 C 
BRANCH  13  14
ATOM     14  C   UNL     1      44.529  31.388  91.356  1.00  0.00    -0.000 C 
BRANCH  14  15
ATOM     15  C   UNL     1      43.764  30.128  91.791  1.00  0.00    -0.000 C 
BRANCH  15  16
ATOM     16  C   UNL     1      44.691  29.043  92.366  1.00  0.00    -0.000 C 
BRANCH  16  17
ATOM     17  C   UNL     1      45.337  28.181  91.271  1.00  0.00    -0.003 C 
ATOM     18  C   UNL     1      46.759  27.745  91.624  1.00  0.00     0.004 C 
ENDBRANCH  16  17
ENDBRANCH  15  16
ENDBRANCH  14  15
ENDBRANCH  13  14
ENDBRANCH  12  13
ENDBRANCH  11  12
ENDBRANCH   1  11
TORSDOF 14
ENDMDL
MODEL 9
REMARK VINA RESULT:    -3.206      3.304      6.120
REMARK INTER + INTRA:          -7.801
REMARK INTER:                  -5.487
REMARK INTRA:                  -2.315
REMARK UNBOUND:                -1.972
REMARK SMILES CCCCCCCCCCCCCCCC(=O)[O-]
REMARK SMILES IDX 9 1 10 2 11 3 12 4 13 5 14 6 15 7 16 8 17 9 18 10 8 11 7 12
REMARK SMILES IDX 6 13 5 14 4 15 3 16 2 17 1 18
REMARK H PARENT
REMARK Flexibility Score: inf
ROOT
ATOM      1  C   UNL     1      45.186  30.482  88.926  1.00  0.00     0.000 C 
ENDROOT
BRANCH   1   2
ATOM      2  C   UNL     1      43.917  31.294  88.611  1.00  0.00     0.000 C 
BRANCH   2   3
ATOM      3  C   UNL     1      42.800  30.433  88.000  1.00  0.00     0.000 C 
BRANCH   3   4
ATOM      4  C   UNL     1      41.608  31.271  87.516  1.00  0.00     0.000 C 
BRANCH   4   5
ATOM      5  C   UNL     1      40.318  30.853  88.231  1.00  0.00     0.000 C 
BRANCH   5   6
ATOM      6  C   UNL     1      40.523  29.553  89.022  1.00  0.00     0.006 C 
BRANCH   6   7
ATOM      7  C   UNL     1      39.491  28.479  88.652  1.00  0.00     0.053 C 
BRANCH   7   8
ATOM      8  C   UNL     1      39.443  28.243  87.173  1.00  0.00     0.041 C 
ATOM      9  O   UNL     1      38.342  28.258  86.563  1.00  0.00    -0.550 OA
ATOM     10  O   UNL     1      40.621  28.038  86.463  1.00  0.00    -0.550 OA
ENDBRANCH   7   8
ENDBRANCH   6   7
ENDBRANCH   5   6
ENDBRANCH   4   5
ENDBRANCH   3   4
ENDBRANCH   2   3
ENDBRANCH   1   2
BRANCH   1  11
ATOM     11  C   UNL     1      45.856  30.922  90.237  1.00  0.00     0.000 C 
BRANCH  11  12
ATOM     12  C   UNL     1      45.583  29.945  91.394  1.00  0.00    -0.000 C 
BRANCH  12  13
ATOM     13  C   UNL     1      44.409  30.394  92.278  1.00  0.00    -0.000 C 
BRANCH  13  14
ATOM     14  C   UNL     1      43.079  29.734  91.871  1.00  0.00    -0.000 C 
BRANCH  14  15
ATOM     15  C   UNL     1      43.005  28.254  92.281  1.00  0.00    -0.000 C 
BRANCH  15  16
ATOM     16  C   UNL     1      42.550  27.345  91.127  1.00  0.00    -0.000 C 
BRANCH  16  17
ATOM     17  C   UNL     1      43.590  27.260  89.999  1.00  0.00    -0.003 C 
ATOM     18  C   UNL     1      42.989  26.789  88.675  1.00  0.00     0.004 C 
ENDBRANCH  16  17
ENDBRANCH  15  16
ENDBRANCH  14  15
ENDBRANCH  13  14
ENDBRANCH  12  13
ENDBRANCH  11  12
ENDBRANCH   1  11
TORSDOF 14
ENDMDL
