MODEL 1
REMARK VINA RESULT:    -3.832      0.000      0.000
REMARK INTER + INTRA:          -5.581
REMARK INTER:                  -5.400
REMARK INTRA:                  -0.182
REMARK UNBOUND:                -0.182
REMARK SMILES CC1=CCC(=C(C)C)C(=O)CC(C)=CCC1
REMARK SMILES IDX 12 1 14 2 13 3 15 4 16 5 2 6 1 7 3 8 11 10 9 11 10 12 5 13
REMARK SMILES IDX 6 14 7 15 8 16 4 17
REMARK H PARENT
REMARK Flexibility Score: 60.00
ROOT
ATOM      1  C   UNL     1      15.132  -0.474  60.049  1.00  0.00    -0.070 C 
ATOM      2  C   UNL     1      15.240  -0.191  58.730  1.00  0.00    -0.027 C 
ATOM      3  C   UNL     1      15.388  -1.890  60.495  1.00  0.00     0.039 C 
ENDROOT
BRANCH   2   4
ATOM      4  C   UNL     1      14.878   1.128  58.097  1.00  0.00     0.032 C 
BRANCH   4   5
ATOM      5  C   UNL     1      16.146   1.951  57.845  1.00  0.00     0.034 C 
BRANCH   5   6
ATOM      6  C   UNL     1      15.950   3.425  58.139  1.00  0.00    -0.077 C 
ATOM      7  C   UNL     1      15.272   4.284  57.102  1.00  0.00     0.039 C 
ATOM      8  C   UNL     1      16.289   4.006  59.318  1.00  0.00    -0.023 CG0
ATOM      9  G   UNL     1      17.027   3.371  60.482  1.00  0.00     0.000 G0
ENDBRANCH   5   6
ENDBRANCH   4   5
ENDBRANCH   2   4
BRANCH   1  10
ATOM     10  C   UNL     1      14.786   0.564  61.099  1.00  0.00     0.111 C 
BRANCH  10  11
ATOM     11  C   UNL     1      16.017   1.263  61.627  1.00  0.00     0.163 C 
ATOM     12  O   UNL     1      16.939   0.534  62.084  1.00  0.00    -0.294 OA
BRANCH  11  13
ATOM     13  C   UNL     1      16.200   2.753  61.615  1.00  0.00    -0.002 C 
ATOM     14  C   UNL     1      15.758   3.516  62.663  1.00  0.00    -0.069 C 
ATOM     15  C   UNL     1      16.125   4.976  62.801  1.00  0.00     0.039 C 
ATOM     16  C   UNL     1      14.832   2.951  63.717  1.00  0.00     0.039 C 
BRANCH  13  17
ATOM     17  C   UNL     1      17.047   3.356  60.501  1.00  0.00     0.066 CG0
ATOM     18  G   UNL     1      16.293   3.994  59.349  1.00  0.00     0.000 G0
ENDBRANCH  13  17
ENDBRANCH  11  13
ENDBRANCH  10  11
ENDBRANCH   1  10
TORSDOF 0
ENDMDL
MODEL 2
REMARK VINA RESULT:    -3.728      4.211      6.404
REMARK INTER + INTRA:          -5.435
REMARK INTER:                  -5.340
REMARK INTRA:                  -0.095
REMARK UNBOUND:                -0.182
REMARK SMILES CC1=CCC(=C(C)C)C(=O)CC(C)=CCC1
REMARK SMILES IDX 12 1 14 2 13 3 15 4 16 5 2 6 1 7 3 8 11 10 9 11 10 12 5 13
REMARK SMILES IDX 6 14 7 15 8 16 4 17
REMARK H PARENT
REMARK Flexibility Score: 60.00
ROOT
ATOM      1  C   UNL     1      14.593  -1.252  61.320  1.00  0.00    -0.070 C 
ATOM      2  C   UNL     1      14.129  -2.410  61.844  1.00  0.00    -0.027 C 
ATOM      3  C   UNL     1      13.787   0.002  61.544  1.00  0.00     0.039 C 
ENDROOT
BRANCH   2   4
ATOM      4  C   UNL     1      14.725  -3.771  61.594  1.00  0.00     0.032 C 
BRANCH   4   5
ATOM      5  C   UNL     1      15.789  -4.077  62.654  1.00  0.00     0.034 C 
BRANCH   5   6
ATOM      6  C   UNL     1      17.057  -4.652  62.055  1.00  0.00    -0.077 C 
ATOM      7  C   UNL     1      17.026  -6.061  61.516  1.00  0.00     0.039 C 
ATOM      8  C   UNL     1      18.207  -3.946  61.911  1.00  0.00    -0.023 CG0
ATOM      9  G   UNL     1      18.500  -2.546  62.420  1.00  0.00     0.000 G0
ENDBRANCH   5   6
ENDBRANCH   4   5
ENDBRANCH   2   4
BRANCH   1  10
ATOM     10  C   UNL     1      15.888  -1.151  60.538  1.00  0.00     0.111 C 
BRANCH  10  11
ATOM     11  C   UNL     1      17.036  -0.693  61.406  1.00  0.00     0.163 C 
ATOM     12  O   UNL     1      16.839   0.322  62.129  1.00  0.00    -0.294 OA
BRANCH  11  13
ATOM     13  C   UNL     1      18.366  -1.385  61.465  1.00  0.00    -0.002 C 
ATOM     14  C   UNL     1      19.444  -0.879  60.789  1.00  0.00    -0.069 C 
ATOM     15  C   UNL     1      20.844  -1.407  61.004  1.00  0.00     0.039 C 
ATOM     16  C   UNL     1      19.285   0.204  59.746  1.00  0.00     0.039 C 
BRANCH  13  17
ATOM     17  C   UNL     1      18.520  -2.549  62.437  1.00  0.00     0.066 CG0
ATOM     18  G   UNL     1      18.191  -3.929  61.898  1.00  0.00     0.000 G0
ENDBRANCH  13  17
ENDBRANCH  11  13
ENDBRANCH  10  11
ENDBRANCH   1  10
TORSDOF 0
ENDMDL
MODEL 3
REMARK VINA RESULT:    -3.727      2.968      5.082
REMARK INTER + INTRA:          -5.433
REMARK INTER:                  -5.523
REMARK INTRA:                   0.089
REMARK UNBOUND:                -0.182
REMARK SMILES CC1=CCC(=C(C)C)C(=O)CC(C)=CCC1
REMARK SMILES IDX 12 1 14 2 13 3 15 4 16 5 2 6 1 7 3 8 11 10 9 11 10 12 5 13
REMARK SMILES IDX 6 14 7 15 8 16 4 17
REMARK H PARENT
REMARK Flexibility Score: 60.00
ROOT
ATOM      1  C   UNL     1      14.322  -0.188  61.217  1.00  0.00    -0.070 C 
ATOM      2  C   UNL     1      14.663   0.970  61.827  1.00  0.00    -0.027 C 
ATOM      3  C   UNL     1      13.297  -1.068  61.886  1.00  0.00     0.039 C 
ENDROOT
BRANCH   2   4
ATOM      4  C   UNL     1      15.769   1.890  61.376  1.00  0.00     0.032 C 
BRANCH   4   5
ATOM      5  C   UNL     1      17.027   1.643  62.216  1.00  0.00     0.034 C 
BRANCH   5   6
ATOM      6  C   UNL     1      18.104   0.905  61.445  1.00  0.00    -0.077 C 
ATOM      7  C   UNL     1      19.084   1.708  60.626  1.00  0.00     0.039 C 
ATOM      8  C   UNL     1      18.283  -0.438  61.506  1.00  0.00    -0.023 CG0
ATOM      9  G   UNL     1      17.403  -1.456  62.208  1.00  0.00     0.000 G0
ENDBRANCH   5   6
ENDBRANCH   4   5
ENDBRANCH   2   4
BRANCH   1  10
ATOM     10  C   UNL     1      14.902  -0.634  59.889  1.00  0.00     0.111 C 
BRANCH  10  11
ATOM     11  C   UNL     1      15.993  -1.663  60.068  1.00  0.00     0.163 C 
ATOM     12  O   UNL     1      16.604  -2.037  59.030  1.00  0.00    -0.294 OA
BRANCH  11  13
ATOM     13  C   UNL     1      16.392  -2.235  61.397  1.00  0.00    -0.002 C 
ATOM     14  C   UNL     1      15.975  -3.484  61.770  1.00  0.00    -0.069 C 
ATOM     15  C   UNL     1      16.536  -4.187  62.985  1.00  0.00     0.039 C 
ATOM     16  C   UNL     1      14.886  -4.212  61.013  1.00  0.00     0.039 C 
BRANCH  13  17
ATOM     17  C   UNL     1      17.414  -1.464  62.225  1.00  0.00     0.066 CG0
ATOM     18  G   UNL     1      18.252  -0.440  61.483  1.00  0.00     0.000 G0
ENDBRANCH  13  17
ENDBRANCH  11  13
ENDBRANCH  10  11
ENDBRANCH   1  10
TORSDOF 0
ENDMDL
MODEL 4
REMARK VINA RESULT:    -3.617      2.925      4.283
REMARK INTER + INTRA:          -5.279
REMARK INTER:                  -5.385
REMARK INTRA:                   0.107
REMARK UNBOUND:                -0.182
REMARK SMILES CC1=CCC(=C(C)C)C(=O)CC(C)=CCC1
REMARK SMILES IDX 12 1 14 2 13 3 15 4 16 5 2 6 1 7 3 8 11 10 9 11 10 12 5 13
REMARK SMILES IDX 6 14 7 15 8 16 4 17
REMARK H PARENT
REMARK Flexibility Score: 60.00
ROOT
ATOM      1  C   UNL     1      15.397   0.620  60.630  1.00  0.00    -0.070 C 
ATOM      2  C   UNL     1      15.211   1.372  59.521  1.00  0.00    -0.027 C 
ATOM      3  C   UNL     1      15.758   1.324  61.913  1.00  0.00     0.039 C 
ENDROOT
BRANCH   2   4
ATOM      4  C   UNL     1      14.993   0.825  58.134  1.00  0.00     0.032 C 
BRANCH   4   5
ATOM      5  C   UNL     1      16.177   1.197  57.234  1.00  0.00     0.034 C 
BRANCH   5   6
ATOM      6  C   UNL     1      17.011  -0.006  56.844  1.00  0.00    -0.077 C 
ATOM      7  C   UNL     1      16.810  -0.612  55.477  1.00  0.00     0.039 C 
ATOM      8  C   UNL     1      17.985  -0.531  57.630  1.00  0.00    -0.023 CG0
ATOM      9  G   UNL     1      18.334  -0.136  59.054  1.00  0.00     0.000 G0
ENDBRANCH   5   6
ENDBRANCH   4   5
ENDBRANCH   2   4
BRANCH   1  10
ATOM     10  C   UNL     1      15.239  -0.888  60.652  1.00  0.00     0.111 C 
BRANCH  10  11
ATOM     11  C   UNL     1      16.451  -1.589  60.085  1.00  0.00     0.163 C 
ATOM     12  O   UNL     1      16.253  -2.679  59.483  1.00  0.00    -0.294 OA
BRANCH  11  13
ATOM     13  C   UNL     1      17.849  -1.051  60.184  1.00  0.00    -0.002 C 
ATOM     14  C   UNL     1      18.696  -1.493  61.164  1.00  0.00    -0.069 C 
ATOM     15  C   UNL     1      20.170  -1.157  61.160  1.00  0.00     0.039 C 
ATOM     16  C   UNL     1      18.193  -2.304  62.338  1.00  0.00     0.039 C 
BRANCH  13  17
ATOM     17  C   UNL     1      18.345  -0.148  59.061  1.00  0.00     0.066 CG0
ATOM     18  G   UNL     1      17.985  -0.567  57.647  1.00  0.00     0.000 G0
ENDBRANCH  13  17
ENDBRANCH  11  13
ENDBRANCH  10  11
ENDBRANCH   1  10
TORSDOF 0
ENDMDL
MODEL 5
REMARK VINA RESULT:    -3.613      2.120      4.357
REMARK INTER + INTRA:          -5.273
REMARK INTER:                  -5.142
REMARK INTRA:                  -0.131
REMARK UNBOUND:                -0.182
REMARK SMILES CC1=CCC(=C(C)C)C(=O)CC(C)=CCC1
REMARK SMILES IDX 12 1 14 2 13 3 15 4 16 5 2 6 1 7 3 8 11 10 9 11 10 12 5 13
REMARK SMILES IDX 6 14 7 15 8 16 4 17
REMARK H PARENT
REMARK Flexibility Score: 60.00
ROOT
ATOM      1  C   UNL     1      15.474   0.517  58.176  1.00  0.00    -0.070 C 
ATOM      2  C   UNL     1      15.615   1.829  58.475  1.00  0.00    -0.027 C 
ATOM      3  C   UNL     1      15.630   0.097  56.737  1.00  0.00     0.039 C 
ENDROOT
BRANCH   2   4
ATOM      4  C   UNL     1      15.349   2.440  59.827  1.00  0.00     0.032 C 
BRANCH   4   5
ATOM      5  C   UNL     1      16.675   2.764  60.523  1.00  0.00     0.034 C 
BRANCH   5   6
ATOM      6  C   UNL     1      16.702   2.300  61.966  1.00  0.00    -0.077 C 
ATOM      7  C   UNL     1      16.144   3.213  63.029  1.00  0.00     0.039 C 
ATOM      8  C   UNL     1      17.137   1.074  62.351  1.00  0.00    -0.023 CG0
ATOM      9  G   UNL     1      17.789   0.011  61.486  1.00  0.00     0.000 G0
ENDBRANCH   5   6
ENDBRANCH   4   5
ENDBRANCH   2   4
BRANCH   1  10
ATOM     10  C   UNL     1      15.188  -0.549  59.215  1.00  0.00     0.111 C 
BRANCH  10  11
ATOM     11  C   UNL     1      16.449  -1.242  59.673  1.00  0.00     0.163 C 
ATOM     12  O   UNL     1      17.105  -1.875  58.802  1.00  0.00    -0.294 OA
BRANCH  11  13
ATOM     13  C   UNL     1      16.959  -1.198  61.084  1.00  0.00    -0.002 C 
ATOM     14  C   UNL     1      16.794  -2.273  61.917  1.00  0.00    -0.069 C 
ATOM     15  C   UNL     1      17.489  -2.362  63.256  1.00  0.00     0.039 C 
ATOM     16  C   UNL     1      15.863  -3.410  61.564  1.00  0.00     0.039 C 
BRANCH  13  17
ATOM     17  C   UNL     1      17.818  -0.007  61.494  1.00  0.00     0.066 CG0
ATOM     18  G   UNL     1      17.138   1.059  62.335  1.00  0.00     0.000 G0
ENDBRANCH  13  17
ENDBRANCH  11  13
ENDBRANCH  10  11
ENDBRANCH   1  10
TORSDOF 0
ENDMDL
MODEL 6
REMARK VINA RESULT:    -3.479      3.070      5.103
REMARK INTER + INTRA:          -5.084
REMARK INTER:                  -4.910
REMARK INTRA:                  -0.174
REMARK UNBOUND:                -0.182
REMARK SMILES CC1=CCC(=C(C)C)C(=O)CC(C)=CCC1
REMARK SMILES IDX 12 1 14 2 13 3 15 4 16 5 2 6 1 7 3 8 11 10 9 11 10 12 5 13
REMARK SMILES IDX 6 14 7 15 8 16 4 17
REMARK H PARENT
REMARK Flexibility Score: 60.00
ROOT
ATOM      1  C   UNL     1      19.181  -1.556  61.428  1.00  0.00    -0.070 C 
ATOM      2  C   UNL     1      18.313  -2.431  61.986  1.00  0.00    -0.027 C 
ATOM      3  C   UNL     1      20.610  -1.997  61.239  1.00  0.00     0.039 C 
ENDROOT
BRANCH   2   4
ATOM      4  C   UNL     1      16.895  -2.107  62.381  1.00  0.00     0.032 C 
BRANCH   4   5
ATOM      5  C   UNL     1      15.926  -2.614  61.307  1.00  0.00     0.034 C 
BRANCH   5   6
ATOM      6  C   UNL     1      14.823  -1.620  61.003  1.00  0.00    -0.077 C 
ATOM      7  C   UNL     1      13.643  -1.542  61.940  1.00  0.00     0.039 C 
ATOM      8  C   UNL     1      14.868  -0.741  59.970  1.00  0.00    -0.023 CG0
ATOM      9  G   UNL     1      15.910  -0.664  58.869  1.00  0.00     0.000 G0
ENDBRANCH   5   6
ENDBRANCH   4   5
ENDBRANCH   2   4
BRANCH   1  10
ATOM     10  C   UNL     1      18.786  -0.167  60.968  1.00  0.00     0.111 C 
BRANCH  10  11
ATOM     11  C   UNL     1      18.364  -0.152  59.518  1.00  0.00     0.163 C 
ATOM     12  O   UNL     1      19.183  -0.617  58.678  1.00  0.00    -0.294 OA
BRANCH  11  13
ATOM     13  C   UNL     1      17.037   0.359  59.039  1.00  0.00    -0.002 C 
ATOM     14  C   UNL     1      16.901   1.656  58.622  1.00  0.00    -0.069 C 
ATOM     15  C   UNL     1      15.654   2.145  57.920  1.00  0.00     0.039 C 
ATOM     16  C   UNL     1      17.974   2.688  58.887  1.00  0.00     0.039 C 
BRANCH  13  17
ATOM     17  C   UNL     1      15.908  -0.649  58.862  1.00  0.00     0.066 CG0
ATOM     18  G   UNL     1      14.886  -0.724  59.982  1.00  0.00     0.000 G0
ENDBRANCH  13  17
ENDBRANCH  11  13
ENDBRANCH  10  11
ENDBRANCH   1  10
TORSDOF 0
ENDMDL
MODEL 7
REMARK VINA RESULT:    -3.433     14.124     15.597
REMARK INTER + INTRA:          -5.020
REMARK INTER:                  -5.094
REMARK INTRA:                   0.074
REMARK UNBOUND:                -0.182
REMARK SMILES CC1=CCC(=C(C)C)C(=O)CC(C)=CCC1
REMARK SMILES IDX 12 1 14 2 13 3 15 4 16 5 2 6 1 7 3 8 11 10 9 11 10 12 5 13
REMARK SMILES IDX 6 14 7 15 8 16 4 17
REMARK H PARENT
REMARK Flexibility Score: 60.00
ROOT
ATOM      1  C   UNL     1      27.701  -1.863  52.136  1.00  0.00    -0.070 C 
ATOM      2  C   UNL     1      29.009  -1.659  52.415  1.00  0.00    -0.027 C 
ATOM      3  C   UNL     1      26.714  -0.799  52.540  1.00  0.00     0.039 C 
ENDROOT
BRANCH   2   4
ATOM      4  C   UNL     1      30.103  -2.676  52.216  1.00  0.00     0.032 C 
BRANCH   4   5
ATOM      5  C   UNL     1      30.524  -3.260  53.569  1.00  0.00     0.034 C 
BRANCH   5   6
ATOM      6  C   UNL     1      30.103  -4.706  53.733  1.00  0.00    -0.077 C 
ATOM      7  C   UNL     1      31.053  -5.791  53.289  1.00  0.00     0.039 C 
ATOM      8  C   UNL     1      28.942  -5.087  54.325  1.00  0.00    -0.023 CG0
ATOM      9  G   UNL     1      27.810  -4.193  54.798  1.00  0.00     0.000 G0
ENDBRANCH   5   6
ENDBRANCH   4   5
ENDBRANCH   2   4
BRANCH   1  10
ATOM     10  C   UNL     1      27.183  -3.097  51.421  1.00  0.00     0.111 C 
BRANCH  10  11
ATOM     11  C   UNL     1      26.859  -4.213  52.385  1.00  0.00     0.163 C 
ATOM     12  O   UNL     1      26.804  -5.381  51.913  1.00  0.00    -0.294 OA
BRANCH  11  13
ATOM     13  C   UNL     1      26.626  -4.006  53.854  1.00  0.00    -0.002 C 
ATOM     14  C   UNL     1      25.359  -3.820  54.337  1.00  0.00    -0.069 C 
ATOM     15  C   UNL     1      25.055  -3.840  55.817  1.00  0.00     0.039 C 
ATOM     16  C   UNL     1      24.196  -3.531  53.414  1.00  0.00     0.039 C 
BRANCH  13  17
ATOM     17  C   UNL     1      27.810  -4.192  54.795  1.00  0.00     0.066 CG0
ATOM     18  G   UNL     1      28.927  -5.097  54.307  1.00  0.00     0.000 G0
ENDBRANCH  13  17
ENDBRANCH  11  13
ENDBRANCH  10  11
ENDBRANCH   1  10
TORSDOF 0
ENDMDL
MODEL 8
REMARK VINA RESULT:    -3.293      2.949      5.177
REMARK INTER + INTRA:          -4.823
REMARK INTER:                  -4.899
REMARK INTRA:                   0.076
REMARK UNBOUND:                -0.182
REMARK SMILES CC1=CCC(=C(C)C)C(=O)CC(C)=CCC1
REMARK SMILES IDX 12 1 14 2 13 3 15 4 16 5 2 6 1 7 3 8 11 10 9 11 10 12 5 13
REMARK SMILES IDX 6 14 7 15 8 16 4 17
REMARK H PARENT
REMARK Flexibility Score: 60.00
ROOT
ATOM      1  C   UNL     1      18.043  -3.229  62.382  1.00  0.00    -0.070 C 
ATOM      2  C   UNL     1      17.173  -4.249  62.202  1.00  0.00    -0.027 C 
ATOM      3  C   UNL     1      19.516  -3.521  62.253  1.00  0.00     0.039 C 
ENDROOT
BRANCH   2   4
ATOM      4  C   UNL     1      15.687  -4.167  62.438  1.00  0.00     0.032 C 
BRANCH   4   5
ATOM      5  C   UNL     1      14.985  -3.664  61.172  1.00  0.00     0.034 C 
BRANCH   5   6
ATOM      6  C   UNL     1      14.019  -2.531  61.454  1.00  0.00    -0.077 C 
ATOM      7  C   UNL     1      12.766  -2.828  62.239  1.00  0.00     0.039 C 
ATOM      8  C   UNL     1      14.252  -1.241  61.101  1.00  0.00    -0.023 CG0
ATOM      9  G   UNL     1      15.401  -0.706  60.265  1.00  0.00     0.000 G0
ENDBRANCH   5   6
ENDBRANCH   4   5
ENDBRANCH   2   4
BRANCH   1  10
ATOM     10  C   UNL     1      17.612  -1.808  62.687  1.00  0.00     0.111 C 
BRANCH  10  11
ATOM     11  C   UNL     1      17.677  -0.924  61.465  1.00  0.00     0.163 C 
ATOM     12  O   UNL     1      18.745  -0.950  60.794  1.00  0.00    -0.294 OA
BRANCH  11  13
ATOM     13  C   UNL     1      16.546  -0.050  61.005  1.00  0.00    -0.002 C 
ATOM     14  C   UNL     1      16.632   1.312  61.113  1.00  0.00    -0.069 C 
ATOM     15  C   UNL     1      15.628   2.232  60.458  1.00  0.00     0.039 C 
ATOM     16  C   UNL     1      17.711   1.972  61.942  1.00  0.00     0.039 C 
BRANCH  13  17
ATOM     17  C   UNL     1      15.395  -0.711  60.256  1.00  0.00     0.066 CG0
ATOM     18  G   UNL     1      14.246  -1.229  61.102  1.00  0.00     0.000 G0
ENDBRANCH  13  17
ENDBRANCH  11  13
ENDBRANCH  10  11
ENDBRANCH   1  10
TORSDOF 0
ENDMDL
MODEL 9
REMARK VINA RESULT:    -3.118      2.581      4.563
REMARK INTER + INTRA:          -4.575
REMARK INTER:                  -4.430
REMARK INTRA:                  -0.145
REMARK UNBOUND:                -0.182
REMARK SMILES CC1=CCC(=C(C)C)C(=O)CC(C)=CCC1
REMARK SMILES IDX 12 1 14 2 13 3 15 4 16 5 2 6 1 7 3 8 11 10 9 11 10 12 5 13
REMARK SMILES IDX 6 14 7 15 8 16 4 17
REMARK H PARENT
REMARK Flexibility Score: 60.00
ROOT
ATOM      1  C   UNL     1      18.652   2.618  60.167  1.00  0.00    -0.070 C 
ATOM      2  C   UNL     1      18.408   2.952  58.879  1.00  0.00    -0.027 C 
ATOM      3  C   UNL     1      18.871   3.731  61.160  1.00  0.00     0.039 C 
ENDROOT
BRANCH   2   4
ATOM      4  C   UNL     1      18.313   1.973  57.737  1.00  0.00     0.032 C 
BRANCH   4   5
ATOM      5  C   UNL     1      16.842   1.673  57.429  1.00  0.00     0.034 C 
BRANCH   5   6
ATOM      6  C   UNL     1      16.587   0.198  57.191  1.00  0.00    -0.077 C 
ATOM      7  C   UNL     1      16.942  -0.390  55.848  1.00  0.00     0.039 C 
ATOM      8  C   UNL     1      16.121  -0.646  58.146  1.00  0.00    -0.023 CG0
ATOM      9  G   UNL     1      15.644  -0.288  59.542  1.00  0.00     0.000 G0
ENDBRANCH   5   6
ENDBRANCH   4   5
ENDBRANCH   2   4
BRANCH   1  10
ATOM     10  C   UNL     1      18.698   1.186  60.664  1.00  0.00     0.111 C 
BRANCH  10  11
ATOM     11  C   UNL     1      17.359   0.730  61.193  1.00  0.00     0.163 C 
ATOM     12  O   UNL     1      16.830   1.431  62.098  1.00  0.00    -0.294 OA
BRANCH  11  13
ATOM     13  C   UNL     1      16.631  -0.481  60.687  1.00  0.00    -0.002 C 
ATOM     14  C   UNL     1      16.738  -1.680  61.341  1.00  0.00    -0.069 C 
ATOM     15  C   UNL     1      15.849  -2.856  61.007  1.00  0.00     0.039 C 
ATOM     16  C   UNL     1      17.792  -1.910  62.401  1.00  0.00     0.039 C 
BRANCH  13  17
ATOM     17  C   UNL     1      15.637  -0.290  59.547  1.00  0.00     0.066 CG0
ATOM     18  G   UNL     1      16.127  -0.648  58.156  1.00  0.00     0.000 G0
ENDBRANCH  13  17
ENDBRANCH  11  13
ENDBRANCH  10  11
ENDBRANCH   1  10
TORSDOF 0
ENDMDL
