MODEL 1
REMARK VINA RESULT:    -4.851      0.000      0.000
REMARK INTER + INTRA:         -11.250
REMARK INTER:                  -9.387
REMARK INTRA:                  -1.862
REMARK UNBOUND:                -1.862
REMARK SMILES CCCCCC=CCC=CCCCCCCCCOC(C)=O
REMARK SMILES IDX 12 1 11 2 10 3 9 4 8 5 7 6 6 7 5 8 4 9 3 10 2 11 1 12 13 13
REMARK SMILES IDX 14 14 15 15 16 16 17 17 18 18 19 19 20 20 22 21 21 22
REMARK H PARENT
REMARK Flexibility Score: inf
ROOT
ATOM      1  C   UNL     1      52.607  -4.611  -5.743  1.00  0.00     0.004 C 
ENDROOT
BRANCH   1   2
ATOM      2  C   UNL     1      51.415  -3.950  -5.040  1.00  0.00     0.027 C 
BRANCH   2   3
ATOM      3  C   UNL     1      50.300  -4.932  -4.803  1.00  0.00    -0.031 C 
ATOM      4  C   UNL     1      50.337  -6.177  -5.300  1.00  0.00    -0.027 C 
BRANCH   4   5
ATOM      5  C   UNL     1      49.212  -7.149  -5.074  1.00  0.00     0.054 C 
BRANCH   5   6
ATOM      6  C   UNL     1      48.799  -7.157  -3.630  1.00  0.00    -0.027 C 
ATOM      7  C   UNL     1      49.502  -7.822  -2.700  1.00  0.00    -0.031 C 
BRANCH   7   8
ATOM      8  C   UNL     1      49.080  -7.838  -1.256  1.00  0.00     0.027 C 
BRANCH   8   9
ATOM      9  C   UNL     1      48.154  -6.658  -0.937  1.00  0.00     0.004 C 
BRANCH   9  10
ATOM     10  C   UNL     1      47.315  -6.943   0.318  1.00  0.00     0.000 C 
BRANCH  10  11
ATOM     11  C   UNL     1      45.862  -7.314  -0.015  1.00  0.00    -0.003 C 
ATOM     12  C   UNL     1      44.846  -6.467   0.749  1.00  0.00     0.004 C 
ENDBRANCH  10  11
ENDBRANCH   9  10
ENDBRANCH   8   9
ENDBRANCH   7   8
ENDBRANCH   5   6
ENDBRANCH   4   5
ENDBRANCH   2   3
ENDBRANCH   1   2
BRANCH   1  13
ATOM     13  C   UNL     1      53.841  -4.701  -4.828  1.00  0.00     0.000 C 
BRANCH  13  14
ATOM     14  C   UNL     1      54.065  -6.116  -4.273  1.00  0.00     0.000 C 
BRANCH  14  15
ATOM     15  C   UNL     1      53.521  -6.286  -2.846  1.00  0.00     0.000 C 
BRANCH  15  16
ATOM     16  C   UNL     1      53.252  -7.764  -2.535  1.00  0.00     0.003 C 
BRANCH  16  17
ATOM     17  C   UNL     1      53.780  -8.138  -1.143  1.00  0.00     0.042 C 
BRANCH  17  18
ATOM     18  C   UNL     1      54.403  -6.943  -0.412  1.00  0.00     0.233 C 
BRANCH  18  19
ATOM     19  O   UNL     1      53.902  -6.836   0.920  1.00  0.00    -0.466 OA
BRANCH  19  20
ATOM     20  C   UNL     1      53.708  -5.618   1.584  1.00  0.00     0.302 C 
ATOM     21  O   UNL     1      52.639  -5.383   2.209  1.00  0.00    -0.253 OA
ATOM     22  C   UNL     1      54.765  -4.569   1.512  1.00  0.00     0.139 C 
ENDBRANCH  19  20
ENDBRANCH  18  19
ENDBRANCH  17  18
ENDBRANCH  16  17
ENDBRANCH  15  16
ENDBRANCH  14  15
ENDBRANCH  13  14
ENDBRANCH   1  13
TORSDOF 16
ENDMDL
MODEL 2
REMARK VINA RESULT:    -4.826      5.715      6.808
REMARK INTER + INTRA:         -11.202
REMARK INTER:                 -10.255
REMARK INTRA:                  -0.947
REMARK UNBOUND:                -1.862
REMARK SMILES CCCCCC=CCC=CCCCCCCCCOC(C)=O
REMARK SMILES IDX 12 1 11 2 10 3 9 4 8 5 7 6 6 7 5 8 4 9 3 10 2 11 1 12 13 13
REMARK SMILES IDX 14 14 15 15 16 16 17 17 18 18 19 19 20 20 22 21 21 22
REMARK H PARENT
REMARK Flexibility Score: inf
ROOT
ATOM      1  C   UNL     1      56.403  -3.014  -4.205  1.00  0.00     0.004 C 
ENDROOT
BRANCH   1   2
ATOM      2  C   UNL     1      55.966  -3.841  -5.420  1.00  0.00     0.027 C 
BRANCH   2   3
ATOM      3  C   UNL     1      54.502  -3.653  -5.719  1.00  0.00    -0.031 C 
ATOM      4  C   UNL     1      53.555  -4.357  -5.082  1.00  0.00    -0.027 C 
BRANCH   4   5
ATOM      5  C   UNL     1      52.096  -4.178  -5.396  1.00  0.00     0.054 C 
BRANCH   5   6
ATOM      6  C   UNL     1      51.270  -5.217  -4.692  1.00  0.00    -0.027 C 
ATOM      7  C   UNL     1      49.936  -5.108  -4.594  1.00  0.00    -0.031 C 
BRANCH   7   8
ATOM      8  C   UNL     1      49.112  -6.143  -3.879  1.00  0.00     0.027 C 
BRANCH   8   9
ATOM      9  C   UNL     1      49.915  -7.430  -3.651  1.00  0.00     0.004 C 
BRANCH   9  10
ATOM     10  C   UNL     1      49.707  -7.961  -2.225  1.00  0.00     0.000 C 
BRANCH  10  11
ATOM     11  C   UNL     1      48.407  -7.449  -1.588  1.00  0.00    -0.003 C 
ATOM     12  C   UNL     1      47.484  -8.581  -1.138  1.00  0.00     0.004 C 
ENDBRANCH  10  11
ENDBRANCH   9  10
ENDBRANCH   8   9
ENDBRANCH   7   8
ENDBRANCH   5   6
ENDBRANCH   4   5
ENDBRANCH   2   3
ENDBRANCH   1   2
BRANCH   1  13
ATOM     13  C   UNL     1      57.670  -3.583  -3.544  1.00  0.00     0.000 C 
BRANCH  13  14
ATOM     14  C   UNL     1      58.959  -2.938  -4.079  1.00  0.00     0.000 C 
BRANCH  14  15
ATOM     15  C   UNL     1      59.904  -2.482  -2.956  1.00  0.00     0.000 C 
BRANCH  15  16
ATOM     16  C   UNL     1      59.579  -1.049  -2.516  1.00  0.00     0.003 C 
BRANCH  16  17
ATOM     17  C   UNL     1      60.786  -0.123  -2.724  1.00  0.00     0.042 C 
BRANCH  17  18
ATOM     18  C   UNL     1      60.458   1.072  -3.626  1.00  0.00     0.233 C 
BRANCH  18  19
ATOM     19  O   UNL     1      59.049   1.288  -3.703  1.00  0.00    -0.466 OA
BRANCH  19  20
ATOM     20  C   UNL     1      58.386   2.342  -3.061  1.00  0.00     0.302 C 
ATOM     21  O   UNL     1      58.245   3.459  -3.629  1.00  0.00    -0.253 OA
ATOM     22  C   UNL     1      57.882   2.152  -1.672  1.00  0.00     0.139 C 
ENDBRANCH  19  20
ENDBRANCH  18  19
ENDBRANCH  17  18
ENDBRANCH  16  17
ENDBRANCH  15  16
ENDBRANCH  14  15
ENDBRANCH  13  14
ENDBRANCH   1  13
TORSDOF 16
ENDMDL
MODEL 3
REMARK VINA RESULT:    -4.820      7.194      9.908
REMARK INTER + INTRA:         -11.191
REMARK INTER:                  -8.219
REMARK INTRA:                  -2.971
REMARK UNBOUND:                -1.862
REMARK SMILES CCCCCC=CCC=CCCCCCCCCOC(C)=O
REMARK SMILES IDX 12 1 11 2 10 3 9 4 8 5 7 6 6 7 5 8 4 9 3 10 2 11 1 12 13 13
REMARK SMILES IDX 14 14 15 15 16 16 17 17 18 18 19 19 20 20 22 21 21 22
REMARK H PARENT
REMARK Flexibility Score: inf
ROOT
ATOM      1  C   UNL     1      58.245   1.624  -3.117  1.00  0.00     0.004 C 
ENDROOT
BRANCH   1   2
ATOM      2  C   UNL     1      57.871   2.129  -1.717  1.00  0.00     0.027 C 
BRANCH   2   3
ATOM      3  C   UNL     1      58.196   1.110  -0.658  1.00  0.00    -0.031 C 
ATOM      4  C   UNL     1      57.463  -0.001  -0.498  1.00  0.00    -0.027 C 
BRANCH   4   5
ATOM      5  C   UNL     1      57.781  -1.007   0.573  1.00  0.00     0.054 C 
BRANCH   5   6
ATOM      6  C   UNL     1      57.466  -2.400   0.104  1.00  0.00    -0.027 C 
ATOM      7  C   UNL     1      57.761  -2.807  -1.141  1.00  0.00    -0.031 C 
BRANCH   7   8
ATOM      8  C   UNL     1      57.435  -4.198  -1.611  1.00  0.00     0.027 C 
BRANCH   8   9
ATOM      9  C   UNL     1      57.298  -4.248  -3.138  1.00  0.00     0.004 C 
BRANCH   9  10
ATOM     10  C   UNL     1      56.759  -2.918  -3.685  1.00  0.00     0.000 C 
BRANCH  10  11
ATOM     11  C   UNL     1      55.739  -3.115  -4.817  1.00  0.00    -0.003 C 
ATOM     12  C   UNL     1      55.902  -4.456  -5.532  1.00  0.00     0.004 C 
ENDBRANCH  10  11
ENDBRANCH   9  10
ENDBRANCH   8   9
ENDBRANCH   7   8
ENDBRANCH   5   6
ENDBRANCH   4   5
ENDBRANCH   2   3
ENDBRANCH   1   2
BRANCH   1  13
ATOM     13  C   UNL     1      59.701   1.959  -3.483  1.00  0.00     0.000 C 
BRANCH  13  14
ATOM     14  C   UNL     1      60.626   0.733  -3.417  1.00  0.00     0.000 C 
BRANCH  14  15
ATOM     15  C   UNL     1      59.852  -0.595  -3.423  1.00  0.00     0.000 C 
BRANCH  15  16
ATOM     16  C   UNL     1      60.579  -1.656  -2.587  1.00  0.00     0.003 C 
BRANCH  16  17
ATOM     17  C   UNL     1      61.178  -1.038  -1.316  1.00  0.00     0.042 C 
BRANCH  17  18
ATOM     18  C   UNL     1      62.422  -1.791  -0.830  1.00  0.00     0.233 C 
BRANCH  18  19
ATOM     19  O   UNL     1      62.400  -1.958   0.588  1.00  0.00    -0.466 OA
BRANCH  19  20
ATOM     20  C   UNL     1      61.308  -2.475   1.296  1.00  0.00     0.302 C 
ATOM     21  O   UNL     1      60.767  -1.817   2.225  1.00  0.00    -0.253 OA
ATOM     22  C   UNL     1      60.807  -3.842   0.973  1.00  0.00     0.139 C 
ENDBRANCH  19  20
ENDBRANCH  18  19
ENDBRANCH  17  18
ENDBRANCH  16  17
ENDBRANCH  15  16
ENDBRANCH  14  15
ENDBRANCH  13  14
ENDBRANCH   1  13
TORSDOF 16
ENDMDL
MODEL 4
REMARK VINA RESULT:    -4.791      4.377      8.721
REMARK INTER + INTRA:         -11.134
REMARK INTER:                 -10.154
REMARK INTRA:                  -0.980
REMARK UNBOUND:                -1.862
REMARK SMILES CCCCCC=CCC=CCCCCCCCCOC(C)=O
REMARK SMILES IDX 12 1 11 2 10 3 9 4 8 5 7 6 6 7 5 8 4 9 3 10 2 11 1 12 13 13
REMARK SMILES IDX 14 14 15 15 16 16 17 17 18 18 19 19 20 20 22 21 21 22
REMARK H PARENT
REMARK Flexibility Score: inf
ROOT
ATOM      1  C   UNL     1      52.818  -4.554  -4.913  1.00  0.00     0.004 C 
ENDROOT
BRANCH   1   2
ATOM      2  C   UNL     1      53.413  -3.839  -6.132  1.00  0.00     0.027 C 
BRANCH   2   3
ATOM      3  C   UNL     1      54.849  -3.452  -5.900  1.00  0.00    -0.031 C 
ATOM      4  C   UNL     1      55.502  -3.800  -4.782  1.00  0.00    -0.027 C 
BRANCH   4   5
ATOM      5  C   UNL     1      56.930  -3.396  -4.547  1.00  0.00     0.054 C 
BRANCH   5   6
ATOM      6  C   UNL     1      57.056  -2.598  -3.280  1.00  0.00    -0.027 C 
ATOM      7  C   UNL     1      58.213  -2.020  -2.923  1.00  0.00    -0.031 C 
BRANCH   7   8
ATOM      8  C   UNL     1      58.339  -1.231  -1.649  1.00  0.00     0.027 C 
BRANCH   8   9
ATOM      9  C   UNL     1      59.323  -0.067  -1.813  1.00  0.00     0.004 C 
BRANCH   9  10
ATOM     10  C   UNL     1      59.291   0.481  -3.247  1.00  0.00     0.000 C 
BRANCH  10  11
ATOM     11  C   UNL     1      58.515   1.802  -3.357  1.00  0.00    -0.003 C 
ATOM     12  C   UNL     1      58.014   2.308  -2.005  1.00  0.00     0.004 C 
ENDBRANCH  10  11
ENDBRANCH   9  10
ENDBRANCH   8   9
ENDBRANCH   7   8
ENDBRANCH   5   6
ENDBRANCH   4   5
ENDBRANCH   2   3
ENDBRANCH   1   2
BRANCH   1  13
ATOM     13  C   UNL     1      51.280  -4.589  -4.955  1.00  0.00     0.000 C 
BRANCH  13  14
ATOM     14  C   UNL     1      50.725  -6.004  -5.176  1.00  0.00     0.000 C 
BRANCH  14  15
ATOM     15  C   UNL     1      49.217  -6.099  -4.898  1.00  0.00     0.000 C 
BRANCH  15  16
ATOM     16  C   UNL     1      48.949  -6.363  -3.411  1.00  0.00     0.003 C 
BRANCH  16  17
ATOM     17  C   UNL     1      49.743  -7.579  -2.916  1.00  0.00     0.042 C 
BRANCH  17  18
ATOM     18  C   UNL     1      49.435  -7.925  -1.455  1.00  0.00     0.233 C 
BRANCH  18  19
ATOM     19  O   UNL     1      48.538  -6.975  -0.879  1.00  0.00    -0.466 OA
BRANCH  19  20
ATOM     20  C   UNL     1      47.287  -7.309  -0.346  1.00  0.00     0.302 C 
ATOM     21  O   UNL     1      46.875  -6.780   0.722  1.00  0.00    -0.253 OA
ATOM     22  C   UNL     1      46.451  -8.338  -1.028  1.00  0.00     0.139 C 
ENDBRANCH  19  20
ENDBRANCH  18  19
ENDBRANCH  17  18
ENDBRANCH  16  17
ENDBRANCH  15  16
ENDBRANCH  14  15
ENDBRANCH  13  14
ENDBRANCH   1  13
TORSDOF 16
ENDMDL
MODEL 5
REMARK VINA RESULT:    -4.748      5.278      8.754
REMARK INTER + INTRA:         -11.052
REMARK INTER:                  -9.385
REMARK INTRA:                  -1.667
REMARK UNBOUND:                -1.862
REMARK SMILES CCCCCC=CCC=CCCCCCCCCOC(C)=O
REMARK SMILES IDX 12 1 11 2 10 3 9 4 8 5 7 6 6 7 5 8 4 9 3 10 2 11 1 12 13 13
REMARK SMILES IDX 14 14 15 15 16 16 17 17 18 18 19 19 20 20 22 21 21 22
REMARK H PARENT
REMARK Flexibility Score: inf
ROOT
ATOM      1  C   UNL     1      58.264   2.031  -3.112  1.00  0.00     0.004 C 
ENDROOT
BRANCH   1   2
ATOM      2  C   UNL     1      59.752   1.947  -3.476  1.00  0.00     0.027 C 
BRANCH   2   3
ATOM      3  C   UNL     1      60.257   0.530  -3.415  1.00  0.00    -0.031 C 
ATOM      4  C   UNL     1      59.421  -0.519  -3.416  1.00  0.00    -0.027 C 
BRANCH   4   5
ATOM      5  C   UNL     1      59.930  -1.931  -3.337  1.00  0.00     0.054 C 
BRANCH   5   6
ATOM      6  C   UNL     1      58.873  -2.901  -3.784  1.00  0.00    -0.027 C 
ATOM      7  C   UNL     1      57.593  -2.774  -3.403  1.00  0.00    -0.031 C 
BRANCH   7   8
ATOM      8  C   UNL     1      56.540  -3.753  -3.843  1.00  0.00     0.027 C 
BRANCH   8   9
ATOM      9  C   UNL     1      55.612  -3.134  -4.896  1.00  0.00     0.004 C 
BRANCH   9  10
ATOM     10  C   UNL     1      54.746  -4.212  -5.566  1.00  0.00     0.000 C 
BRANCH  10  11
ATOM     11  C   UNL     1      53.329  -4.280  -4.978  1.00  0.00    -0.003 C 
ATOM     12  C   UNL     1      52.240  -4.175  -6.045  1.00  0.00     0.004 C 
ENDBRANCH  10  11
ENDBRANCH   9  10
ENDBRANCH   8   9
ENDBRANCH   7   8
ENDBRANCH   5   6
ENDBRANCH   4   5
ENDBRANCH   2   3
ENDBRANCH   1   2
BRANCH   1  13
ATOM     13  C   UNL     1      58.048   2.234  -1.602  1.00  0.00     0.000 C 
BRANCH  13  14
ATOM     14  C   UNL     1      57.547   0.963  -0.898  1.00  0.00     0.000 C 
BRANCH  14  15
ATOM     15  C   UNL     1      58.628   0.301  -0.029  1.00  0.00     0.000 C 
BRANCH  15  16
ATOM     16  C   UNL     1      58.136  -1.041   0.528  1.00  0.00     0.003 C 
BRANCH  16  17
ATOM     17  C   UNL     1      56.608  -1.146   0.440  1.00  0.00     0.042 C 
BRANCH  17  18
ATOM     18  C   UNL     1      55.989  -1.752   1.705  1.00  0.00     0.233 C 
BRANCH  18  19
ATOM     19  O   UNL     1      55.233  -2.924   1.397  1.00  0.00    -0.466 OA
BRANCH  19  20
ATOM     20  C   UNL     1      55.766  -4.219   1.405  1.00  0.00     0.302 C 
ATOM     21  O   UNL     1      55.355  -5.084   2.225  1.00  0.00    -0.253 OA
ATOM     22  C   UNL     1      56.865  -4.564   0.459  1.00  0.00     0.139 C 
ENDBRANCH  19  20
ENDBRANCH  18  19
ENDBRANCH  17  18
ENDBRANCH  16  17
ENDBRANCH  15  16
ENDBRANCH  14  15
ENDBRANCH  13  14
ENDBRANCH   1  13
TORSDOF 16
ENDMDL
MODEL 6
REMARK VINA RESULT:    -4.738      4.337      4.921
REMARK INTER + INTRA:         -11.032
REMARK INTER:                 -10.274
REMARK INTRA:                  -0.758
REMARK UNBOUND:                -1.862
REMARK SMILES CCCCCC=CCC=CCCCCCCCCOC(C)=O
REMARK SMILES IDX 12 1 11 2 10 3 9 4 8 5 7 6 6 7 5 8 4 9 3 10 2 11 1 12 13 13
REMARK SMILES IDX 14 14 15 15 16 16 17 17 18 18 19 19 20 20 22 21 21 22
REMARK H PARENT
REMARK Flexibility Score: inf
ROOT
ATOM      1  C   UNL     1      54.050  -3.996  -5.017  1.00  0.00     0.004 C 
ENDROOT
BRANCH   1   2
ATOM      2  C   UNL     1      52.848  -4.600  -5.754  1.00  0.00     0.027 C 
BRANCH   2   3
ATOM      3  C   UNL     1      51.640  -4.691  -4.860  1.00  0.00    -0.031 C 
ATOM      4  C   UNL     1      50.535  -5.352  -5.232  1.00  0.00    -0.027 C 
BRANCH   4   5
ATOM      5  C   UNL     1      49.325  -5.425  -4.343  1.00  0.00     0.054 C 
BRANCH   5   6
ATOM      6  C   UNL     1      49.280  -6.739  -3.615  1.00  0.00    -0.027 C 
ATOM      7  C   UNL     1      48.659  -6.867  -2.432  1.00  0.00    -0.031 C 
BRANCH   7   8
ATOM      8  C   UNL     1      48.626  -8.181  -1.700  1.00  0.00     0.027 C 
BRANCH   8   9
ATOM      9  C   UNL     1      47.395  -8.276  -0.789  1.00  0.00     0.004 C 
BRANCH   9  10
ATOM     10  C   UNL     1      47.154  -6.949  -0.053  1.00  0.00     0.000 C 
BRANCH  10  11
ATOM     11  C   UNL     1      45.791  -6.907   0.656  1.00  0.00    -0.003 C 
ATOM     12  C   UNL     1      44.622  -7.163  -0.295  1.00  0.00     0.004 C 
ENDBRANCH  10  11
ENDBRANCH   9  10
ENDBRANCH   8   9
ENDBRANCH   7   8
ENDBRANCH   5   6
ENDBRANCH   4   5
ENDBRANCH   2   3
ENDBRANCH   1   2
BRANCH   1  13
ATOM     13  C   UNL     1      55.220  -4.989  -4.906  1.00  0.00     0.000 C 
BRANCH  13  14
ATOM     14  C   UNL     1      56.545  -4.403  -5.419  1.00  0.00     0.000 C 
BRANCH  14  15
ATOM     15  C   UNL     1      57.498  -4.007  -4.281  1.00  0.00     0.000 C 
BRANCH  15  16
ATOM     16  C   UNL     1      57.046  -2.699  -3.618  1.00  0.00     0.003 C 
BRANCH  16  17
ATOM     17  C   UNL     1      57.915  -2.374  -2.395  1.00  0.00     0.042 C 
BRANCH  17  18
ATOM     18  C   UNL     1      59.304  -1.856  -2.784  1.00  0.00     0.233 C 
BRANCH  18  19
ATOM     19  O   UNL     1      59.602  -0.629  -2.117  1.00  0.00    -0.466 OA
BRANCH  19  20
ATOM     20  C   UNL     1      58.949   0.581  -2.384  1.00  0.00     0.302 C 
ATOM     21  O   UNL     1      57.958   0.948  -1.696  1.00  0.00    -0.253 OA
ATOM     22  C   UNL     1      59.405   1.422  -3.527  1.00  0.00     0.139 C 
ENDBRANCH  19  20
ENDBRANCH  18  19
ENDBRANCH  17  18
ENDBRANCH  16  17
ENDBRANCH  15  16
ENDBRANCH  14  15
ENDBRANCH  13  14
ENDBRANCH   1  13
TORSDOF 16
ENDMDL
MODEL 7
REMARK VINA RESULT:    -4.666      4.767      8.974
REMARK INTER + INTRA:         -10.893
REMARK INTER:                 -10.044
REMARK INTRA:                  -0.849
REMARK UNBOUND:                -1.862
REMARK SMILES CCCCCC=CCC=CCCCCCCCCOC(C)=O
REMARK SMILES IDX 12 1 11 2 10 3 9 4 8 5 7 6 6 7 5 8 4 9 3 10 2 11 1 12 13 13
REMARK SMILES IDX 14 14 15 15 16 16 17 17 18 18 19 19 20 20 22 21 21 22
REMARK H PARENT
REMARK Flexibility Score: inf
ROOT
ATOM      1  C   UNL     1      53.171  -4.523  -4.892  1.00  0.00     0.004 C 
ENDROOT
BRANCH   1   2
ATOM      2  C   UNL     1      54.020  -3.778  -5.930  1.00  0.00     0.027 C 
BRANCH   2   3
ATOM      3  C   UNL     1      55.465  -3.704  -5.511  1.00  0.00    -0.031 C 
ATOM      4  C   UNL     1      55.821  -3.539  -4.229  1.00  0.00    -0.027 C 
BRANCH   4   5
ATOM      5  C   UNL     1      57.264  -3.447  -3.819  1.00  0.00     0.054 C 
BRANCH   5   6
ATOM      6  C   UNL     1      57.614  -2.042  -3.419  1.00  0.00    -0.027 C 
ATOM      7  C   UNL     1      58.889  -1.643  -3.292  1.00  0.00    -0.031 C 
BRANCH   7   8
ATOM      8  C   UNL     1      59.237  -0.239  -2.880  1.00  0.00     0.027 C 
BRANCH   8   9
ATOM      9  C   UNL     1      58.440   0.189  -1.642  1.00  0.00     0.004 C 
BRANCH   9  10
ATOM     10  C   UNL     1      57.795   1.566  -1.854  1.00  0.00     0.000 C 
BRANCH  10  11
ATOM     11  C   UNL     1      58.107   2.158  -3.236  1.00  0.00    -0.003 C 
ATOM     12  C   UNL     1      58.865   3.483  -3.155  1.00  0.00     0.004 C 
ENDBRANCH  10  11
ENDBRANCH   9  10
ENDBRANCH   8   9
ENDBRANCH   7   8
ENDBRANCH   5   6
ENDBRANCH   4   5
ENDBRANCH   2   3
ENDBRANCH   1   2
BRANCH   1  13
ATOM     13  C   UNL     1      51.665  -4.297  -5.106  1.00  0.00     0.000 C 
BRANCH  13  14
ATOM     14  C   UNL     1      50.958  -5.529  -5.692  1.00  0.00     0.000 C 
BRANCH  14  15
ATOM     15  C   UNL     1      49.450  -5.544  -5.396  1.00  0.00     0.000 C 
BRANCH  15  16
ATOM     16  C   UNL     1      48.972  -6.963  -5.061  1.00  0.00     0.003 C 
BRANCH  16  17
ATOM     17  C   UNL     1      48.568  -7.073  -3.585  1.00  0.00     0.042 C 
BRANCH  17  18
ATOM     18  C   UNL     1      49.683  -7.665  -2.715  1.00  0.00     0.233 C 
BRANCH  18  19
ATOM     19  O   UNL     1      49.144  -8.393  -1.612  1.00  0.00    -0.466 OA
BRANCH  19  20
ATOM     20  C   UNL     1      47.901  -8.116  -1.028  1.00  0.00     0.302 C 
ATOM     21  O   UNL     1      46.889  -8.820  -1.292  1.00  0.00    -0.253 OA
ATOM     22  C   UNL     1      47.766  -6.944  -0.117  1.00  0.00     0.139 C 
ENDBRANCH  19  20
ENDBRANCH  18  19
ENDBRANCH  17  18
ENDBRANCH  16  17
ENDBRANCH  15  16
ENDBRANCH  14  15
ENDBRANCH  13  14
ENDBRANCH   1  13
TORSDOF 16
ENDMDL
MODEL 8
REMARK VINA RESULT:    -4.605      5.401      7.277
REMARK INTER + INTRA:         -10.775
REMARK INTER:                  -9.443
REMARK INTRA:                  -1.332
REMARK UNBOUND:                -1.862
REMARK SMILES CCCCCC=CCC=CCCCCCCCCOC(C)=O
REMARK SMILES IDX 12 1 11 2 10 3 9 4 8 5 7 6 6 7 5 8 4 9 3 10 2 11 1 12 13 13
REMARK SMILES IDX 14 14 15 15 16 16 17 17 18 18 19 19 20 20 22 21 21 22
REMARK H PARENT
REMARK Flexibility Score: inf
ROOT
ATOM      1  C   UNL     1      58.887  -3.452  -4.405  1.00  0.00     0.004 C 
ENDROOT
BRANCH   1   2
ATOM      2  C   UNL     1      57.655  -3.429  -3.492  1.00  0.00     0.027 C 
BRANCH   2   3
ATOM      3  C   UNL     1      56.381  -3.313  -4.285  1.00  0.00    -0.031 C 
ATOM      4  C   UNL     1      56.225  -3.930  -5.466  1.00  0.00    -0.027 C 
BRANCH   4   5
ATOM      5  C   UNL     1      54.957  -3.798  -6.262  1.00  0.00     0.054 C 
BRANCH   5   6
ATOM      6  C   UNL     1      53.758  -3.803  -5.356  1.00  0.00    -0.027 C 
ATOM      7  C   UNL     1      52.695  -4.585  -5.601  1.00  0.00    -0.031 C 
BRANCH   7   8
ATOM      8  C   UNL     1      51.491  -4.580  -4.699  1.00  0.00     0.027 C 
BRANCH   8   9
ATOM      9  C   UNL     1      50.327  -5.358  -5.325  1.00  0.00     0.004 C 
BRANCH   9  10
ATOM     10  C   UNL     1      49.208  -5.592  -4.299  1.00  0.00     0.000 C 
BRANCH  10  11
ATOM     11  C   UNL     1      49.188  -7.033  -3.767  1.00  0.00    -0.003 C 
ATOM     12  C   UNL     1      48.697  -7.124  -2.323  1.00  0.00     0.004 C 
ENDBRANCH  10  11
ENDBRANCH   9  10
ENDBRANCH   8   9
ENDBRANCH   7   8
ENDBRANCH   5   6
ENDBRANCH   4   5
ENDBRANCH   2   3
ENDBRANCH   1   2
BRANCH   1  13
ATOM     13  C   UNL     1      60.006  -2.531  -3.891  1.00  0.00     0.000 C 
BRANCH  13  14
ATOM     14  C   UNL     1      59.478  -1.395  -3.002  1.00  0.00     0.000 C 
BRANCH  14  15
ATOM     15  C   UNL     1      60.499  -0.262  -2.817  1.00  0.00     0.000 C 
BRANCH  15  16
ATOM     16  C   UNL     1      60.127   0.956  -3.672  1.00  0.00     0.003 C 
BRANCH  16  17
ATOM     17  C   UNL     1      58.688   1.408  -3.388  1.00  0.00     0.042 C 
BRANCH  17  18
ATOM     18  C   UNL     1      58.526   1.996  -1.981  1.00  0.00     0.233 C 
BRANCH  18  19
ATOM     19  O   UNL     1      57.488   1.330  -1.262  1.00  0.00    -0.466 OA
BRANCH  19  20
ATOM     20  C   UNL     1      57.707   0.243  -0.405  1.00  0.00     0.302 C 
ATOM     21  O   UNL     1      58.678   0.237   0.397  1.00  0.00    -0.253 OA
ATOM     22  C   UNL     1      56.803  -0.940  -0.478  1.00  0.00     0.139 C 
ENDBRANCH  19  20
ENDBRANCH  18  19
ENDBRANCH  17  18
ENDBRANCH  16  17
ENDBRANCH  15  16
ENDBRANCH  14  15
ENDBRANCH  13  14
ENDBRANCH   1  13
TORSDOF 16
ENDMDL
MODEL 9
REMARK VINA RESULT:    -4.605      6.912      9.667
REMARK INTER + INTRA:         -10.774
REMARK INTER:                  -7.914
REMARK INTRA:                  -2.860
REMARK UNBOUND:                -1.862
REMARK SMILES CCCCCC=CCC=CCCCCCCCCOC(C)=O
REMARK SMILES IDX 12 1 11 2 10 3 9 4 8 5 7 6 6 7 5 8 4 9 3 10 2 11 1 12 13 13
REMARK SMILES IDX 14 14 15 15 16 16 17 17 18 18 19 19 20 20 22 21 21 22
REMARK H PARENT
REMARK Flexibility Score: inf
ROOT
ATOM      1  C   UNL     1      58.504   1.587  -3.506  1.00  0.00     0.004 C 
ENDROOT
BRANCH   1   2
ATOM      2  C   UNL     1      60.035   1.672  -3.516  1.00  0.00     0.027 C 
BRANCH   2   3
ATOM      3  C   UNL     1      60.664   0.365  -3.116  1.00  0.00    -0.031 C 
ATOM      4  C   UNL     1      60.009  -0.800  -3.231  1.00  0.00    -0.027 C 
BRANCH   4   5
ATOM      5  C   UNL     1      60.635  -2.100  -2.813  1.00  0.00     0.054 C 
BRANCH   5   6
ATOM      6  C   UNL     1      59.579  -3.127  -2.515  1.00  0.00    -0.027 C 
ATOM      7  C   UNL     1      58.297  -2.782  -2.320  1.00  0.00    -0.031 C 
BRANCH   7   8
ATOM      8  C   UNL     1      57.244  -3.811  -2.011  1.00  0.00     0.027 C 
BRANCH   8   9
ATOM      9  C   UNL     1      57.726  -4.791  -0.934  1.00  0.00     0.004 C 
BRANCH   9  10
ATOM     10  C   UNL     1      56.537  -5.470  -0.239  1.00  0.00     0.000 C 
BRANCH  10  11
ATOM     11  C   UNL     1      56.376  -5.026   1.223  1.00  0.00    -0.003 C 
ATOM     12  C   UNL     1      55.261  -3.997   1.409  1.00  0.00     0.004 C 
ENDBRANCH  10  11
ENDBRANCH   9  10
ENDBRANCH   8   9
ENDBRANCH   7   8
ENDBRANCH   5   6
ENDBRANCH   4   5
ENDBRANCH   2   3
ENDBRANCH   1   2
BRANCH   1  13
ATOM     13  C   UNL     1      57.880   2.501  -2.437  1.00  0.00     0.000 C 
BRANCH  13  14
ATOM     14  C   UNL     1      58.114   1.988  -1.008  1.00  0.00     0.000 C 
BRANCH  14  15
ATOM     15  C   UNL     1      57.662   0.532  -0.818  1.00  0.00     0.000 C 
BRANCH  15  16
ATOM     16  C   UNL     1      58.541  -0.185   0.214  1.00  0.00     0.003 C 
BRANCH  16  17
ATOM     17  C   UNL     1      57.740  -1.252   0.973  1.00  0.00     0.042 C 
BRANCH  17  18
ATOM     18  C   UNL     1      58.642  -2.262   1.690  1.00  0.00     0.233 C 
BRANCH  18  19
ATOM     19  O   UNL     1      59.847  -2.487   0.958  1.00  0.00    -0.466 OA
BRANCH  19  20
ATOM     20  C   UNL     1      61.129  -2.307   1.493  1.00  0.00     0.302 C 
ATOM     21  O   UNL     1      61.291  -2.059   2.718  1.00  0.00    -0.253 OA
ATOM     22  C   UNL     1      62.313  -2.366   0.590  1.00  0.00     0.139 C 
ENDBRANCH  19  20
ENDBRANCH  18  19
ENDBRANCH  17  18
ENDBRANCH  16  17
ENDBRANCH  15  16
ENDBRANCH  14  15
ENDBRANCH  13  14
ENDBRANCH   1  13
TORSDOF 16
ENDMDL
