MODEL 1
REMARK VINA RESULT:    -3.978      0.000      0.000
REMARK INTER + INTRA:          -6.515
REMARK INTER:                  -6.070
REMARK INTRA:                  -0.444
REMARK UNBOUND:                -0.444
REMARK SMILES O=C([O-])CCCCCCCCC(=O)[O-]
REMARK SMILES IDX 7 1 6 2 5 3 4 4 2 5 1 6 3 7 8 8 9 9 10 10 11 11 12 12 13 13
REMARK SMILES IDX 14 14
REMARK H PARENT
REMARK Flexibility Score: inf
ROOT
ATOM      1  C   UNL     1      23.429  -0.488  15.260  1.00  0.00     0.000 C 
ENDROOT
BRANCH   1   2
ATOM      2  C   UNL     1      22.859  -1.455  14.215  1.00  0.00     0.000 C 
BRANCH   2   3
ATOM      3  C   UNL     1      23.084  -2.913  14.633  1.00  0.00     0.006 C 
BRANCH   3   4
ATOM      4  C   UNL     1      24.003  -2.999  15.854  1.00  0.00     0.053 C 
BRANCH   4   5
ATOM      5  C   UNL     1      23.528  -4.061  16.795  1.00  0.00     0.041 C 
ATOM      6  O   UNL     1      24.357  -4.788  17.402  1.00  0.00    -0.550 OA
ATOM      7  O   UNL     1      22.167  -4.281  16.963  1.00  0.00    -0.550 OA
ENDBRANCH   4   5
ENDBRANCH   3   4
ENDBRANCH   2   3
ENDBRANCH   1   2
BRANCH   1   8
ATOM      8  C   UNL     1      23.166   0.970  14.864  1.00  0.00     0.000 C 
BRANCH   8   9
ATOM      9  C   UNL     1      22.042   1.061  13.821  1.00  0.00     0.000 C 
BRANCH   9  10
ATOM     10  C   UNL     1      22.009   2.420  13.103  1.00  0.00     0.006 C 
BRANCH  10  11
ATOM     11  C   UNL     1      23.182   3.326  13.500  1.00  0.00     0.053 C 
BRANCH  11  12
ATOM     12  C   UNL     1      23.217   4.543  12.631  1.00  0.00     0.041 C 
ATOM     13  O   UNL     1      22.159   4.976  12.103  1.00  0.00    -0.550 OA
ATOM     14  O   UNL     1      24.427   5.172  12.363  1.00  0.00    -0.550 OA
ENDBRANCH  11  12
ENDBRANCH  10  11
ENDBRANCH   9  10
ENDBRANCH   8   9
ENDBRANCH   1   8
TORSDOF 9
ENDMDL
MODEL 2
REMARK VINA RESULT:    -3.945      5.554      6.538
REMARK INTER + INTRA:          -6.465
REMARK INTER:                  -6.089
REMARK INTRA:                  -0.376
REMARK UNBOUND:                -0.444
REMARK SMILES O=C([O-])CCCCCCCCC(=O)[O-]
REMARK SMILES IDX 7 1 6 2 5 3 4 4 2 5 1 6 3 7 8 8 9 9 10 10 11 11 12 12 13 13
REMARK SMILES IDX 14 14
REMARK H PARENT
REMARK Flexibility Score: inf
ROOT
ATOM      1  C   UNL     1      19.360  -1.689  12.250  1.00  0.00     0.000 C 
ENDROOT
BRANCH   1   2
ATOM      2  C   UNL     1      20.694  -1.341  11.577  1.00  0.00     0.000 C 
BRANCH   2   3
ATOM      3  C   UNL     1      21.485  -0.329  12.413  1.00  0.00     0.006 C 
BRANCH   3   4
ATOM      4  C   UNL     1      21.476  -0.713  13.895  1.00  0.00     0.053 C 
BRANCH   4   5
ATOM      5  C   UNL     1      22.782  -1.329  14.286  1.00  0.00     0.041 C 
ATOM      6  O   UNL     1      23.100  -2.469  13.854  1.00  0.00    -0.550 OA
ATOM      7  O   UNL     1      23.627  -0.668  15.168  1.00  0.00    -0.550 OA
ENDBRANCH   4   5
ENDBRANCH   3   4
ENDBRANCH   2   3
ENDBRANCH   1   2
BRANCH   1   8
ATOM      8  C   UNL     1      18.217  -1.712  11.228  1.00  0.00     0.000 C 
BRANCH   8   9
ATOM      9  C   UNL     1      16.865  -1.939  11.921  1.00  0.00     0.000 C 
BRANCH   9  10
ATOM     10  C   UNL     1      15.734  -1.104  11.301  1.00  0.00     0.006 C 
BRANCH  10  11
ATOM     11  C   UNL     1      16.256   0.101  10.507  1.00  0.00     0.053 C 
BRANCH  11  12
ATOM     12  C   UNL     1      15.187   1.136  10.367  1.00  0.00     0.041 C 
ATOM     13  O   UNL     1      15.314   2.258  10.925  1.00  0.00    -0.550 OA
ATOM     14  O   UNL     1      14.025   0.847   9.660  1.00  0.00    -0.550 OA
ENDBRANCH  11  12
ENDBRANCH  10  11
ENDBRANCH   9  10
ENDBRANCH   8   9
ENDBRANCH   1   8
TORSDOF 9
ENDMDL
MODEL 3
REMARK VINA RESULT:    -3.913      6.167      8.334
REMARK INTER + INTRA:          -6.416
REMARK INTER:                  -6.162
REMARK INTRA:                  -0.254
REMARK UNBOUND:                -0.444
REMARK SMILES O=C([O-])CCCCCCCCC(=O)[O-]
REMARK SMILES IDX 7 1 6 2 5 3 4 4 2 5 1 6 3 7 8 8 9 9 10 10 11 11 12 12 13 13
REMARK SMILES IDX 14 14
REMARK H PARENT
REMARK Flexibility Score: inf
ROOT
ATOM      1  C   UNL     1      17.927  -1.630  11.594  1.00  0.00     0.000 C 
ENDROOT
BRANCH   1   2
ATOM      2  C   UNL     1      17.174  -0.816  10.534  1.00  0.00     0.000 C 
BRANCH   2   3
ATOM      3  C   UNL     1      15.781  -0.417  11.034  1.00  0.00     0.006 C 
BRANCH   3   4
ATOM      4  C   UNL     1      15.309   0.879  10.368  1.00  0.00     0.053 C 
BRANCH   4   5
ATOM      5  C   UNL     1      14.109   0.622   9.512  1.00  0.00     0.041 C 
ATOM      6  O   UNL     1      13.296   1.552   9.265  1.00  0.00    -0.550 OA
ATOM      7  O   UNL     1      13.860  -0.656   9.029  1.00  0.00    -0.550 OA
ENDBRANCH   4   5
ENDBRANCH   3   4
ENDBRANCH   2   3
ENDBRANCH   1   2
BRANCH   1   8
ATOM      8  C   UNL     1      19.444  -1.540  11.384  1.00  0.00     0.000 C 
BRANCH   8   9
ATOM      9  C   UNL     1      20.162  -1.212  12.701  1.00  0.00     0.000 C 
BRANCH   9  10
ATOM     10  C   UNL     1      21.494  -0.477  12.482  1.00  0.00     0.006 C 
BRANCH  10  11
ATOM     11  C   UNL     1      21.739   0.624  13.522  1.00  0.00     0.053 C 
BRANCH  11  12
ATOM     12  C   UNL     1      22.937   0.294  14.355  1.00  0.00     0.041 C 
ATOM     13  O   UNL     1      23.659   1.216  14.820  1.00  0.00    -0.550 OA
ATOM     14  O   UNL     1      23.285  -1.032  14.581  1.00  0.00    -0.550 OA
ENDBRANCH  11  12
ENDBRANCH  10  11
ENDBRANCH   9  10
ENDBRANCH   8   9
ENDBRANCH   1   8
TORSDOF 9
ENDMDL
MODEL 4
REMARK VINA RESULT:    -3.863      4.087      7.575
REMARK INTER + INTRA:          -6.339
REMARK INTER:                  -5.464
REMARK INTRA:                  -0.875
REMARK UNBOUND:                -0.444
REMARK SMILES O=C([O-])CCCCCCCCC(=O)[O-]
REMARK SMILES IDX 7 1 6 2 5 3 4 4 2 5 1 6 3 7 8 8 9 9 10 10 11 11 12 12 13 13
REMARK SMILES IDX 14 14
REMARK H PARENT
REMARK Flexibility Score: inf
ROOT
ATOM      1  C   UNL     1      22.285   4.167  14.277  1.00  0.00     0.000 C 
ENDROOT
BRANCH   1   2
ATOM      2  C   UNL     1      22.938   3.792  12.942  1.00  0.00     0.000 C 
BRANCH   2   3
ATOM      3  C   UNL     1      23.703   4.982  12.350  1.00  0.00     0.006 C 
BRANCH   3   4
ATOM      4  C   UNL     1      25.005   5.234  13.114  1.00  0.00     0.053 C 
BRANCH   4   5
ATOM      5  C   UNL     1      25.129   6.679  13.479  1.00  0.00     0.041 C 
ATOM      6  O   UNL     1      24.176   7.473  13.259  1.00  0.00    -0.550 OA
ATOM      7  O   UNL     1      26.316   7.162  14.016  1.00  0.00    -0.550 OA
ENDBRANCH   4   5
ENDBRANCH   3   4
ENDBRANCH   2   3
ENDBRANCH   1   2
BRANCH   1   8
ATOM      8  C   UNL     1      22.422   3.029  15.297  1.00  0.00     0.000 C 
BRANCH   8   9
ATOM      9  C   UNL     1      23.183   1.839  14.693  1.00  0.00     0.000 C 
BRANCH   9  10
ATOM     10  C   UNL     1      24.405   1.431  15.531  1.00  0.00     0.006 C 
BRANCH  10  11
ATOM     11  C   UNL     1      25.340   2.611  15.826  1.00  0.00     0.053 C 
BRANCH  11  12
ATOM     12  C   UNL     1      25.708   2.634  17.275  1.00  0.00     0.041 C 
ATOM     13  O   UNL     1      24.841   2.913  18.145  1.00  0.00    -0.550 OA
ATOM     14  O   UNL     1      27.020   2.395  17.664  1.00  0.00    -0.550 OA
ENDBRANCH  11  12
ENDBRANCH  10  11
ENDBRANCH   9  10
ENDBRANCH   8   9
ENDBRANCH   1   8
TORSDOF 9
ENDMDL
MODEL 5
REMARK VINA RESULT:    -3.848      3.847      5.080
REMARK INTER + INTRA:          -6.318
REMARK INTER:                  -5.723
REMARK INTRA:                  -0.595
REMARK UNBOUND:                -0.444
REMARK SMILES O=C([O-])CCCCCCCCC(=O)[O-]
REMARK SMILES IDX 7 1 6 2 5 3 4 4 2 5 1 6 3 7 8 8 9 9 10 10 11 11 12 12 13 13
REMARK SMILES IDX 14 14
REMARK H PARENT
REMARK Flexibility Score: inf
ROOT
ATOM      1  C   UNL     1      22.249  -0.632  14.224  1.00  0.00     0.000 C 
ENDROOT
BRANCH   1   2
ATOM      2  C   UNL     1      22.757  -2.038  13.883  1.00  0.00     0.000 C 
BRANCH   2   3
ATOM      3  C   UNL     1      22.652  -2.970  15.095  1.00  0.00     0.006 C 
BRANCH   3   4
ATOM      4  C   UNL     1      24.040  -3.328  15.636  1.00  0.00     0.053 C 
BRANCH   4   5
ATOM      5  C   UNL     1      24.156  -2.946  17.078  1.00  0.00     0.041 C 
ATOM      6  O   UNL     1      24.666  -3.745  17.906  1.00  0.00    -0.550 OA
ATOM      7  O   UNL     1      23.654  -1.727  17.516  1.00  0.00    -0.550 OA
ENDBRANCH   4   5
ENDBRANCH   3   4
ENDBRANCH   2   3
ENDBRANCH   1   2
BRANCH   1   8
ATOM      8  C   UNL     1      21.285  -0.118  13.146  1.00  0.00     0.000 C 
BRANCH   8   9
ATOM      9  C   UNL     1      21.362  -0.986  11.881  1.00  0.00     0.000 C 
BRANCH   9  10
ATOM     10  C   UNL     1      19.992  -1.539  11.459  1.00  0.00     0.006 C 
BRANCH  10  11
ATOM     11  C   UNL     1      19.134  -1.969  12.656  1.00  0.00     0.053 C 
BRANCH  11  12
ATOM     12  C   UNL     1      17.705  -2.124  12.243  1.00  0.00     0.041 C 
ATOM     13  O   UNL     1      17.042  -3.128  12.619  1.00  0.00    -0.550 OA
ATOM     14  O   UNL     1      17.117  -1.186  11.404  1.00  0.00    -0.550 OA
ENDBRANCH  11  12
ENDBRANCH  10  11
ENDBRANCH   9  10
ENDBRANCH   8   9
ENDBRANCH   1   8
TORSDOF 9
ENDMDL
MODEL 6
REMARK VINA RESULT:    -3.835      3.601      7.736
REMARK INTER + INTRA:          -6.298
REMARK INTER:                  -5.894
REMARK INTRA:                  -0.404
REMARK UNBOUND:                -0.444
REMARK SMILES O=C([O-])CCCCCCCCC(=O)[O-]
REMARK SMILES IDX 7 1 6 2 5 3 4 4 2 5 1 6 3 7 8 8 9 9 10 10 11 11 12 12 13 13
REMARK SMILES IDX 14 14
REMARK H PARENT
REMARK Flexibility Score: inf
ROOT
ATOM      1  C   UNL     1      23.208   2.774  13.923  1.00  0.00     0.000 C 
ENDROOT
BRANCH   1   2
ATOM      2  C   UNL     1      22.263   3.605  13.047  1.00  0.00     0.000 C 
BRANCH   2   3
ATOM      3  C   UNL     1      23.016   4.747  12.355  1.00  0.00     0.006 C 
BRANCH   3   4
ATOM      4  C   UNL     1      24.413   4.927  12.954  1.00  0.00     0.053 C 
BRANCH   4   5
ATOM      5  C   UNL     1      24.680   6.372  13.238  1.00  0.00     0.041 C 
ATOM      6  O   UNL     1      25.811   6.739  13.652  1.00  0.00    -0.550 OA
ATOM      7  O   UNL     1      23.664   7.308  13.093  1.00  0.00    -0.550 OA
ENDBRANCH   4   5
ENDBRANCH   3   4
ENDBRANCH   2   3
ENDBRANCH   1   2
BRANCH   1   8
ATOM      8  C   UNL     1      22.606   1.397  14.232  1.00  0.00     0.000 C 
BRANCH   8   9
ATOM      9  C   UNL     1      21.679   0.936  13.097  1.00  0.00     0.000 C 
BRANCH   9  10
ATOM     10  C   UNL     1      21.398  -0.574  13.139  1.00  0.00     0.006 C 
BRANCH  10  11
ATOM     11  C   UNL     1      21.069  -1.153  11.756  1.00  0.00     0.053 C 
BRANCH  11  12
ATOM     12  C   UNL     1      19.780  -1.910  11.802  1.00  0.00     0.041 C 
ATOM     13  O   UNL     1      18.988  -1.756  12.769  1.00  0.00    -0.550 OA
ATOM     14  O   UNL     1      19.473  -2.822  10.800  1.00  0.00    -0.550 OA
ENDBRANCH  11  12
ENDBRANCH  10  11
ENDBRANCH   9  10
ENDBRANCH   8   9
ENDBRANCH   1   8
TORSDOF 9
ENDMDL
MODEL 7
REMARK VINA RESULT:    -3.822      4.117      6.401
REMARK INTER + INTRA:          -6.278
REMARK INTER:                  -5.617
REMARK INTRA:                  -0.661
REMARK UNBOUND:                -0.444
REMARK SMILES O=C([O-])CCCCCCCCC(=O)[O-]
REMARK SMILES IDX 7 1 6 2 5 3 4 4 2 5 1 6 3 7 8 8 9 9 10 10 11 11 12 12 13 13
REMARK SMILES IDX 14 14
REMARK H PARENT
REMARK Flexibility Score: inf
ROOT
ATOM      1  C   UNL     1      21.358  -0.741  12.296  1.00  0.00     0.000 C 
ENDROOT
BRANCH   1   2
ATOM      2  C   UNL     1      20.067  -1.428  12.758  1.00  0.00     0.000 C 
BRANCH   2   3
ATOM      3  C   UNL     1      19.323  -2.055  11.574  1.00  0.00     0.006 C 
BRANCH   3   4
ATOM      4  C   UNL     1      17.913  -1.472  11.440  1.00  0.00     0.053 C 
BRANCH   4   5
ATOM      5  C   UNL     1      16.929  -2.297  12.208  1.00  0.00     0.041 C 
ATOM      6  O   UNL     1      17.215  -3.476  12.544  1.00  0.00    -0.550 OA
ATOM      7  O   UNL     1      15.674  -1.782  12.507  1.00  0.00    -0.550 OA
ENDBRANCH   4   5
ENDBRANCH   3   4
ENDBRANCH   2   3
ENDBRANCH   1   2
BRANCH   1   8
ATOM      8  C   UNL     1      21.590   0.569  13.060  1.00  0.00     0.000 C 
BRANCH   8   9
ATOM      9  C   UNL     1      21.807   0.301  14.556  1.00  0.00     0.000 C 
BRANCH   9  10
ATOM     10  C   UNL     1      23.261  -0.071  14.886  1.00  0.00     0.006 C 
BRANCH  10  11
ATOM     11  C   UNL     1      23.365  -1.313  15.781  1.00  0.00     0.053 C 
BRANCH  11  12
ATOM     12  C   UNL     1      22.842  -2.516  15.063  1.00  0.00     0.041 C 
ATOM     13  O   UNL     1      23.417  -2.934  14.023  1.00  0.00    -0.550 OA
ATOM     14  O   UNL     1      21.691  -3.150  15.515  1.00  0.00    -0.550 OA
ENDBRANCH  11  12
ENDBRANCH  10  11
ENDBRANCH   9  10
ENDBRANCH   8   9
ENDBRANCH   1   8
TORSDOF 9
ENDMDL
MODEL 8
REMARK VINA RESULT:    -3.815      2.220      6.392
REMARK INTER + INTRA:          -6.266
REMARK INTER:                  -5.493
REMARK INTRA:                  -0.773
REMARK UNBOUND:                -0.444
REMARK SMILES O=C([O-])CCCCCCCCC(=O)[O-]
REMARK SMILES IDX 7 1 6 2 5 3 4 4 2 5 1 6 3 7 8 8 9 9 10 10 11 11 12 12 13 13
REMARK SMILES IDX 14 14
REMARK H PARENT
REMARK Flexibility Score: inf
ROOT
ATOM      1  C   UNL     1      20.659  -1.320  14.289  1.00  0.00     0.000 C 
ENDROOT
BRANCH   1   2
ATOM      2  C   UNL     1      20.967  -0.714  12.915  1.00  0.00     0.000 C 
BRANCH   2   3
ATOM      3  C   UNL     1      21.607   0.672  13.055  1.00  0.00     0.006 C 
BRANCH   3   4
ATOM      4  C   UNL     1      21.933   0.981  14.519  1.00  0.00     0.053 C 
BRANCH   4   5
ATOM      5  C   UNL     1      23.292   1.597  14.635  1.00  0.00     0.041 C 
ATOM      6  O   UNL     1      23.552   2.676  14.041  1.00  0.00    -0.550 OA
ATOM      7  O   UNL     1      24.287   0.953  15.358  1.00  0.00    -0.550 OA
ENDBRANCH   4   5
ENDBRANCH   3   4
ENDBRANCH   2   3
ENDBRANCH   1   2
BRANCH   1   8
ATOM      8  C   UNL     1      21.340  -2.685  14.455  1.00  0.00     0.000 C 
BRANCH   8   9
ATOM      9  C   UNL     1      22.763  -2.662  13.879  1.00  0.00     0.000 C 
BRANCH   9  10
ATOM     10  C   UNL     1      23.838  -2.911  14.948  1.00  0.00     0.006 C 
BRANCH  10  11
ATOM     11  C   UNL     1      23.262  -3.510  16.238  1.00  0.00     0.053 C 
BRANCH  11  12
ATOM     12  C   UNL     1      23.676  -2.695  17.421  1.00  0.00     0.041 C 
ATOM     13  O   UNL     1      24.456  -3.180  18.283  1.00  0.00    -0.550 OA
ATOM     14  O   UNL     1      23.164  -1.415  17.600  1.00  0.00    -0.550 OA
ENDBRANCH  11  12
ENDBRANCH  10  11
ENDBRANCH   9  10
ENDBRANCH   8   9
ENDBRANCH   1   8
TORSDOF 9
ENDMDL
MODEL 9
REMARK VINA RESULT:    -3.760      3.594      7.023
REMARK INTER + INTRA:          -6.183
REMARK INTER:                  -5.421
REMARK INTRA:                  -0.762
REMARK UNBOUND:                -0.444
REMARK SMILES O=C([O-])CCCCCCCCC(=O)[O-]
REMARK SMILES IDX 7 1 6 2 5 3 4 4 2 5 1 6 3 7 8 8 9 9 10 10 11 11 12 12 13 13
REMARK SMILES IDX 14 14
REMARK H PARENT
REMARK Flexibility Score: inf
ROOT
ATOM      1  C   UNL     1      21.309  -0.265  14.714  1.00  0.00     0.000 C 
ENDROOT
BRANCH   1   2
ATOM      2  C   UNL     1      20.216  -1.301  15.004  1.00  0.00     0.000 C 
BRANCH   2   3
ATOM      3  C   UNL     1      20.112  -2.324  13.867  1.00  0.00     0.006 C 
BRANCH   3   4
ATOM      4  C   UNL     1      18.914  -2.021  12.963  1.00  0.00     0.053 C 
BRANCH   4   5
ATOM      5  C   UNL     1      19.374  -1.641  11.591  1.00  0.00     0.041 C 
ATOM      6  O   UNL     1      20.600  -1.474  11.357  1.00  0.00    -0.550 OA
ATOM      7  O   UNL     1      18.445  -1.423  10.582  1.00  0.00    -0.550 OA
ENDBRANCH   4   5
ENDBRANCH   3   4
ENDBRANCH   2   3
ENDBRANCH   1   2
BRANCH   1   8
ATOM      8  C   UNL     1      22.607  -0.945  14.259  1.00  0.00     0.000 C 
BRANCH   8   9
ATOM      9  C   UNL     1      23.456  -1.371  15.466  1.00  0.00     0.000 C 
BRANCH   9  10
ATOM     10  C   UNL     1      23.802  -2.869  15.447  1.00  0.00     0.006 C 
BRANCH  10  11
ATOM     11  C   UNL     1      23.072  -3.658  16.542  1.00  0.00     0.053 C 
BRANCH  11  12
ATOM     12  C   UNL     1      24.034  -4.086  17.604  1.00  0.00     0.041 C 
ATOM     13  O   UNL     1      24.368  -5.297  17.705  1.00  0.00    -0.550 OA
ATOM     14  O   UNL     1      24.527  -3.158  18.513  1.00  0.00    -0.550 OA
ENDBRANCH  11  12
ENDBRANCH  10  11
ENDBRANCH   9  10
ENDBRANCH   8   9
ENDBRANCH   1   8
TORSDOF 9
ENDMDL
