MODEL 1
REMARK VINA RESULT:    -5.137      0.000      0.000
REMARK INTER + INTRA:          -8.709
REMARK INTER:                  -7.839
REMARK INTRA:                  -0.870
REMARK UNBOUND:                -0.870
REMARK SMILES CCCCCCCCCCC(=O)[O-]
REMARK SMILES IDX 7 1 8 2 9 3 10 4 11 5 12 6 13 7 6 8 5 9 4 10 3 11 2 12 1 13
REMARK H PARENT
REMARK Flexibility Score: inf
ROOT
ATOM      1  C   UNL     1     133.333 131.847 132.421  1.00  0.00     0.000 C 
ENDROOT
BRANCH   1   2
ATOM      2  C   UNL     1     131.984 131.763 133.157  1.00  0.00     0.000 C 
BRANCH   2   3
ATOM      3  C   UNL     1     131.417 133.149 133.521  1.00  0.00     0.006 C 
BRANCH   3   4
ATOM      4  C   UNL     1     132.478 134.180 133.938  1.00  0.00     0.053 C 
BRANCH   4   5
ATOM      5  C   UNL     1     132.354 135.457 133.166  1.00  0.00     0.041 C 
ATOM      6  O   UNL     1     131.745 135.474 132.063  1.00  0.00    -0.550 OA
ATOM      7  O   UNL     1     132.883 136.635 133.678  1.00  0.00    -0.550 OA
ENDBRANCH   4   5
ENDBRANCH   3   4
ENDBRANCH   2   3
ENDBRANCH   1   2
BRANCH   1   8
ATOM      8  C   UNL     1     134.418 130.980 133.079  1.00  0.00     0.000 C 
BRANCH   8   9
ATOM      9  C   UNL     1     135.755 131.721 133.237  1.00  0.00    -0.000 C 
BRANCH   9  10
ATOM     10  C   UNL     1     135.668 133.139 132.653  1.00  0.00    -0.000 C 
BRANCH  10  11
ATOM     11  C   UNL     1     136.210 134.217 133.611  1.00  0.00    -0.000 C 
BRANCH  11  12
ATOM     12  C   UNL     1     136.329 135.625 133.000  1.00  0.00    -0.003 C 
ATOM     13  C   UNL     1     137.763 136.150 132.982  1.00  0.00     0.004 C 
ENDBRANCH  11  12
ENDBRANCH  10  11
ENDBRANCH   9  10
ENDBRANCH   8   9
ENDBRANCH   1   8
TORSDOF 9
ENDMDL
MODEL 2
REMARK VINA RESULT:    -5.045      1.754      4.067
REMARK INTER + INTRA:          -8.570
REMARK INTER:                  -7.698
REMARK INTRA:                  -0.872
REMARK UNBOUND:                -0.870
REMARK SMILES CCCCCCCCCCC(=O)[O-]
REMARK SMILES IDX 7 1 8 2 9 3 10 4 11 5 12 6 13 7 6 8 5 9 4 10 3 11 2 12 1 13
REMARK H PARENT
REMARK Flexibility Score: inf
ROOT
ATOM      1  C   UNL     1     133.567 131.816 132.443  1.00  0.00     0.000 C 
ENDROOT
BRANCH   1   2
ATOM      2  C   UNL     1     134.780 131.675 133.379  1.00  0.00     0.000 C 
BRANCH   2   3
ATOM      3  C   UNL     1     135.809 132.806 133.194  1.00  0.00     0.006 C 
BRANCH   3   4
ATOM      4  C   UNL     1     135.326 134.187 133.664  1.00  0.00     0.053 C 
BRANCH   4   5
ATOM      5  C   UNL     1     135.887 135.293 132.823  1.00  0.00     0.041 C 
ATOM      6  O   UNL     1     136.901 135.932 133.211  1.00  0.00    -0.550 OA
ATOM      7  O   UNL     1     135.308 135.598 131.597  1.00  0.00    -0.550 OA
ENDBRANCH   4   5
ENDBRANCH   3   4
ENDBRANCH   2   3
ENDBRANCH   1   2
BRANCH   1   8
ATOM      8  C   UNL     1     132.229 131.667 133.185  1.00  0.00     0.000 C 
BRANCH   8   9
ATOM      9  C   UNL     1     131.223 132.771 132.824  1.00  0.00    -0.000 C 
BRANCH   9  10
ATOM     10  C   UNL     1     131.546 134.073 133.574  1.00  0.00    -0.000 C 
BRANCH  10  11
ATOM     11  C   UNL     1     131.834 135.254 132.629  1.00  0.00    -0.000 C 
BRANCH  11  12
ATOM     12  C   UNL     1     132.310 136.541 133.327  1.00  0.00    -0.003 C 
ATOM     13  C   UNL     1     131.378 137.728 133.092  1.00  0.00     0.004 C 
ENDBRANCH  11  12
ENDBRANCH  10  11
ENDBRANCH   9  10
ENDBRANCH   8   9
ENDBRANCH   1   8
TORSDOF 9
ENDMDL
MODEL 3
REMARK VINA RESULT:    -5.034      2.571      4.064
REMARK INTER + INTRA:          -8.553
REMARK INTER:                  -7.579
REMARK INTRA:                  -0.974
REMARK UNBOUND:                -0.870
REMARK SMILES CCCCCCCCCCC(=O)[O-]
REMARK SMILES IDX 7 1 8 2 9 3 10 4 11 5 12 6 13 7 6 8 5 9 4 10 3 11 2 12 1 13
REMARK H PARENT
REMARK Flexibility Score: inf
ROOT
ATOM      1  C   UNL     1     131.489 132.476 133.315  1.00  0.00     0.000 C 
ENDROOT
BRANCH   1   2
ATOM      2  C   UNL     1     132.579 131.413 133.089  1.00  0.00     0.000 C 
BRANCH   2   3
ATOM      3  C   UNL     1     133.949 131.837 133.651  1.00  0.00     0.006 C 
BRANCH   3   4
ATOM      4  C   UNL     1     135.098 130.871 133.318  1.00  0.00     0.053 C 
BRANCH   4   5
ATOM      5  C   UNL     1     135.447 130.896 131.862  1.00  0.00     0.041 C 
ATOM      6  O   UNL     1     135.629 129.819 131.235  1.00  0.00    -0.550 OA
ATOM      7  O   UNL     1     135.540 132.108 131.189  1.00  0.00    -0.550 OA
ENDBRANCH   4   5
ENDBRANCH   3   4
ENDBRANCH   2   3
ENDBRANCH   1   2
BRANCH   1   8
ATOM      8  C   UNL     1     132.053 133.784 133.894  1.00  0.00     0.000 C 
BRANCH   8   9
ATOM      9  C   UNL     1     131.661 135.017 133.066  1.00  0.00    -0.000 C 
BRANCH   9  10
ATOM     10  C   UNL     1     132.799 136.050 133.046  1.00  0.00    -0.000 C 
BRANCH  10  11
ATOM     11  C   UNL     1     134.087 135.535 133.714  1.00  0.00    -0.000 C 
BRANCH  11  12
ATOM     12  C   UNL     1     135.327 135.519 132.803  1.00  0.00    -0.003 C 
ATOM     13  C   UNL     1     136.490 134.720 133.390  1.00  0.00     0.004 C 
ENDBRANCH  11  12
ENDBRANCH  10  11
ENDBRANCH   9  10
ENDBRANCH   8   9
ENDBRANCH   1   8
TORSDOF 9
ENDMDL
MODEL 4
REMARK VINA RESULT:    -5.033      1.810      3.831
REMARK INTER + INTRA:          -8.550
REMARK INTER:                  -7.694
REMARK INTRA:                  -0.856
REMARK UNBOUND:                -0.870
REMARK SMILES CCCCCCCCCCC(=O)[O-]
REMARK SMILES IDX 7 1 8 2 9 3 10 4 11 5 12 6 13 7 6 8 5 9 4 10 3 11 2 12 1 13
REMARK H PARENT
REMARK Flexibility Score: inf
ROOT
ATOM      1  C   UNL     1     131.642 133.970 132.474  1.00  0.00     0.000 C 
ENDROOT
BRANCH   1   2
ATOM      2  C   UNL     1     131.568 135.330 133.192  1.00  0.00     0.000 C 
BRANCH   2   3
ATOM      3  C   UNL     1     132.900 136.102 133.144  1.00  0.00     0.006 C 
BRANCH   3   4
ATOM      4  C   UNL     1     134.082 135.369 133.798  1.00  0.00     0.053 C 
BRANCH   4   5
ATOM      5  C   UNL     1     135.218 135.172 132.843  1.00  0.00     0.041 C 
ATOM      6  O   UNL     1     135.162 135.658 131.682  1.00  0.00    -0.550 OA
ATOM      7  O   UNL     1     136.353 134.478 133.244  1.00  0.00    -0.550 OA
ENDBRANCH   4   5
ENDBRANCH   3   4
ENDBRANCH   2   3
ENDBRANCH   1   2
BRANCH   1   8
ATOM      8  C   UNL     1     130.994 132.838 133.287  1.00  0.00     0.000 C 
BRANCH   8   9
ATOM      9  C   UNL     1     131.801 131.532 133.233  1.00  0.00    -0.000 C 
BRANCH   9  10
ATOM     10  C   UNL     1     133.218 131.785 132.697  1.00  0.00    -0.000 C 
BRANCH  10  11
ATOM     11  C   UNL     1     134.319 131.324 133.670  1.00  0.00    -0.000 C 
BRANCH  11  12
ATOM     12  C   UNL     1     135.684 131.043 133.016  1.00  0.00    -0.003 C 
ATOM     13  C   UNL     1     136.065 129.564 133.038  1.00  0.00     0.004 C 
ENDBRANCH  11  12
ENDBRANCH  10  11
ENDBRANCH   9  10
ENDBRANCH   8   9
ENDBRANCH   1   8
TORSDOF 9
ENDMDL
MODEL 5
REMARK VINA RESULT:    -5.019      2.465      3.836
REMARK INTER + INTRA:          -8.529
REMARK INTER:                  -7.675
REMARK INTRA:                  -0.854
REMARK UNBOUND:                -0.870
REMARK SMILES CCCCCCCCCCC(=O)[O-]
REMARK SMILES IDX 7 1 8 2 9 3 10 4 11 5 12 6 13 7 6 8 5 9 4 10 3 11 2 12 1 13
REMARK H PARENT
REMARK Flexibility Score: inf
ROOT
ATOM      1  C   UNL     1     135.213 131.911 133.010  1.00  0.00     0.000 C 
ENDROOT
BRANCH   1   2
ATOM      2  C   UNL     1     133.822 131.779 133.656  1.00  0.00     0.000 C 
BRANCH   2   3
ATOM      3  C   UNL     1     132.680 131.811 132.622  1.00  0.00     0.006 C 
BRANCH   3   4
ATOM      4  C   UNL     1     131.341 132.329 133.170  1.00  0.00     0.053 C 
BRANCH   4   5
ATOM      5  C   UNL     1     130.171 131.701 132.478  1.00  0.00     0.041 C 
ATOM      6  O   UNL     1     130.143 131.628 131.221  1.00  0.00    -0.550 OA
ATOM      7  O   UNL     1     129.127 131.167 133.222  1.00  0.00    -0.550 OA
ENDBRANCH   4   5
ENDBRANCH   3   4
ENDBRANCH   2   3
ENDBRANCH   1   2
BRANCH   1   8
ATOM      8  C   UNL     1     135.776 133.338 133.109  1.00  0.00     0.000 C 
BRANCH   8   9
ATOM      9  C   UNL     1     134.902 134.262 133.971  1.00  0.00    -0.000 C 
BRANCH   9  10
ATOM     10  C   UNL     1     134.624 135.588 133.245  1.00  0.00    -0.000 C 
BRANCH  10  11
ATOM     11  C   UNL     1     133.292 135.582 132.473  1.00  0.00    -0.000 C 
BRANCH  11  12
ATOM     12  C   UNL     1     132.051 135.914 133.321  1.00  0.00    -0.003 C 
ATOM     13  C   UNL     1     131.560 137.347 133.127  1.00  0.00     0.004 C 
ENDBRANCH  11  12
ENDBRANCH  10  11
ENDBRANCH   9  10
ENDBRANCH   8   9
ENDBRANCH   1   8
TORSDOF 9
ENDMDL
MODEL 6
REMARK VINA RESULT:    -4.996      2.669      5.467
REMARK INTER + INTRA:          -8.495
REMARK INTER:                  -7.592
REMARK INTRA:                  -0.902
REMARK UNBOUND:                -0.870
REMARK SMILES CCCCCCCCCCC(=O)[O-]
REMARK SMILES IDX 7 1 8 2 9 3 10 4 11 5 12 6 13 7 6 8 5 9 4 10 3 11 2 12 1 13
REMARK H PARENT
REMARK Flexibility Score: inf
ROOT
ATOM      1  C   UNL     1     134.684 135.529 132.702  1.00  0.00     0.000 C 
ENDROOT
BRANCH   1   2
ATOM      2  C   UNL     1     135.938 134.887 133.322  1.00  0.00     0.000 C 
BRANCH   2   3
ATOM      3  C   UNL     1     135.844 133.351 133.397  1.00  0.00     0.006 C 
BRANCH   3   4
ATOM      4  C   UNL     1     135.372 132.679 132.098  1.00  0.00     0.053 C 
BRANCH   4   5
ATOM      5  C   UNL     1     135.250 131.194 132.247  1.00  0.00     0.041 C 
ATOM      6  O   UNL     1     135.423 130.441 131.252  1.00  0.00    -0.550 OA
ATOM      7  O   UNL     1     134.979 130.638 133.491  1.00  0.00    -0.550 OA
ENDBRANCH   4   5
ENDBRANCH   3   4
ENDBRANCH   2   3
ENDBRANCH   1   2
BRANCH   1   8
ATOM      8  C   UNL     1     133.475 135.496 133.651  1.00  0.00     0.000 C 
BRANCH   8   9
ATOM      9  C   UNL     1     132.135 135.432 132.902  1.00  0.00    -0.000 C 
BRANCH   9  10
ATOM     10  C   UNL     1     131.293 134.241 133.385  1.00  0.00    -0.000 C 
BRANCH  10  11
ATOM     11  C   UNL     1     132.138 132.986 133.672  1.00  0.00    -0.000 C 
BRANCH  11  12
ATOM     12  C   UNL     1     131.531 131.666 133.163  1.00  0.00    -0.003 C 
ATOM     13  C   UNL     1     130.003 131.669 133.170  1.00  0.00     0.004 C 
ENDBRANCH  11  12
ENDBRANCH  10  11
ENDBRANCH   9  10
ENDBRANCH   8   9
ENDBRANCH   1   8
TORSDOF 9
ENDMDL
MODEL 7
REMARK VINA RESULT:    -4.934      2.558      4.912
REMARK INTER + INTRA:          -8.400
REMARK INTER:                  -7.565
REMARK INTRA:                  -0.834
REMARK UNBOUND:                -0.870
REMARK SMILES CCCCCCCCCCC(=O)[O-]
REMARK SMILES IDX 7 1 8 2 9 3 10 4 11 5 12 6 13 7 6 8 5 9 4 10 3 11 2 12 1 13
REMARK H PARENT
REMARK Flexibility Score: inf
ROOT
ATOM      1  C   UNL     1     133.090 136.446 133.722  1.00  0.00     0.000 C 
ENDROOT
BRANCH   1   2
ATOM      2  C   UNL     1     131.754 136.653 132.986  1.00  0.00     0.000 C 
BRANCH   2   3
ATOM      3  C   UNL     1     131.870 136.423 131.467  1.00  0.00     0.006 C 
BRANCH   3   4
ATOM      4  C   UNL     1     131.582 137.668 130.613  1.00  0.00     0.053 C 
BRANCH   4   5
ATOM      5  C   UNL     1     130.825 137.331 129.366  1.00  0.00     0.041 C 
ATOM      6  O   UNL     1     130.507 136.137 129.121  1.00  0.00    -0.550 OA
ATOM      7  O   UNL     1     130.442 138.338 128.489  1.00  0.00    -0.550 OA
ENDBRANCH   4   5
ENDBRANCH   3   4
ENDBRANCH   2   3
ENDBRANCH   1   2
BRANCH   1   8
ATOM      8  C   UNL     1     134.077 135.581 132.920  1.00  0.00     0.000 C 
BRANCH   8   9
ATOM      9  C   UNL     1     134.626 134.399 133.733  1.00  0.00    -0.000 C 
BRANCH   9  10
ATOM     10  C   UNL     1     133.494 133.667 134.470  1.00  0.00    -0.000 C 
BRANCH  10  11
ATOM     11  C   UNL     1     132.652 132.774 133.540  1.00  0.00    -0.000 C 
BRANCH  11  12
ATOM     12  C   UNL     1     131.145 133.090 133.528  1.00  0.00    -0.003 C 
ATOM     13  C   UNL     1     130.282 131.876 133.189  1.00  0.00     0.004 C 
ENDBRANCH  11  12
ENDBRANCH  10  11
ENDBRANCH   9  10
ENDBRANCH   8   9
ENDBRANCH   1   8
TORSDOF 9
ENDMDL
MODEL 8
REMARK VINA RESULT:    -4.918      2.254      4.323
REMARK INTER + INTRA:          -8.376
REMARK INTER:                  -7.229
REMARK INTRA:                  -1.147
REMARK UNBOUND:                -0.870
REMARK SMILES CCCCCCCCCCC(=O)[O-]
REMARK SMILES IDX 7 1 8 2 9 3 10 4 11 5 12 6 13 7 6 8 5 9 4 10 3 11 2 12 1 13
REMARK H PARENT
REMARK Flexibility Score: inf
ROOT
ATOM      1  C   UNL     1     134.984 131.714 132.855  1.00  0.00     0.000 C 
ENDROOT
BRANCH   1   2
ATOM      2  C   UNL     1     135.485 133.069 132.325  1.00  0.00     0.000 C 
BRANCH   2   3
ATOM      3  C   UNL     1     135.938 134.018 133.450  1.00  0.00     0.006 C 
BRANCH   3   4
ATOM      4  C   UNL     1     135.980 135.502 133.052  1.00  0.00     0.053 C 
BRANCH   4   5
ATOM      5  C   UNL     1     137.310 135.892 132.483  1.00  0.00     0.041 C 
ATOM      6  O   UNL     1     137.483 135.914 131.235  1.00  0.00    -0.550 OA
ATOM      7  O   UNL     1     138.347 136.263 133.329  1.00  0.00    -0.550 OA
ENDBRANCH   4   5
ENDBRANCH   3   4
ENDBRANCH   2   3
ENDBRANCH   1   2
BRANCH   1   8
ATOM      8  C   UNL     1     133.780 131.860 133.800  1.00  0.00     0.000 C 
BRANCH   8   9
ATOM      9  C   UNL     1     132.436 131.657 133.085  1.00  0.00    -0.000 C 
BRANCH   9  10
ATOM     10  C   UNL     1     131.477 132.821 133.379  1.00  0.00    -0.000 C 
BRANCH  10  11
ATOM     11  C   UNL     1     132.201 134.081 133.887  1.00  0.00    -0.000 C 
BRANCH  11  12
ATOM     12  C   UNL     1     131.860 135.375 133.126  1.00  0.00    -0.003 C 
ATOM     13  C   UNL     1     132.236 135.315 131.647  1.00  0.00     0.004 C 
ENDBRANCH  11  12
ENDBRANCH  10  11
ENDBRANCH   9  10
ENDBRANCH   8   9
ENDBRANCH   1   8
TORSDOF 9
ENDMDL
MODEL 9
REMARK VINA RESULT:    -4.872      2.875      4.183
REMARK INTER + INTRA:          -8.305
REMARK INTER:                  -7.341
REMARK INTRA:                  -0.964
REMARK UNBOUND:                -0.870
REMARK SMILES CCCCCCCCCCC(=O)[O-]
REMARK SMILES IDX 7 1 8 2 9 3 10 4 11 5 12 6 13 7 6 8 5 9 4 10 3 11 2 12 1 13
REMARK H PARENT
REMARK Flexibility Score: inf
ROOT
ATOM      1  C   UNL     1     132.920 131.746 133.185  1.00  0.00     0.000 C 
ENDROOT
BRANCH   1   2
ATOM      2  C   UNL     1     134.296 131.383 133.770  1.00  0.00     0.000 C 
BRANCH   2   3
ATOM      3  C   UNL     1     135.213 130.686 132.746  1.00  0.00     0.006 C 
BRANCH   3   4
ATOM      4  C   UNL     1     135.498 131.513 131.483  1.00  0.00     0.053 C 
BRANCH   4   5
ATOM      5  C   UNL     1     135.110 130.781 130.235  1.00  0.00     0.041 C 
ATOM      6  O   UNL     1     133.930 130.850 129.801  1.00  0.00    -0.550 OA
ATOM      7  O   UNL     1     136.060 130.050 129.532  1.00  0.00    -0.550 OA
ENDBRANCH   4   5
ENDBRANCH   3   4
ENDBRANCH   2   3
ENDBRANCH   1   2
BRANCH   1   8
ATOM      8  C   UNL     1     132.402 133.101 133.694  1.00  0.00     0.000 C 
BRANCH   8   9
ATOM      9  C   UNL     1     133.514 133.973 134.297  1.00  0.00    -0.000 C 
BRANCH   9  10
ATOM     10  C   UNL     1     133.488 135.387 133.696  1.00  0.00    -0.000 C 
BRANCH  10  11
ATOM     11  C   UNL     1     134.741 135.708 132.861  1.00  0.00    -0.000 C 
BRANCH  11  12
ATOM     12  C   UNL     1     135.952 134.799 133.135  1.00  0.00    -0.003 C 
ATOM     13  C   UNL     1     137.249 135.578 133.349  1.00  0.00     0.004 C 
ENDBRANCH  11  12
ENDBRANCH  10  11
ENDBRANCH   9  10
ENDBRANCH   8   9
ENDBRANCH   1   8
TORSDOF 9
ENDMDL
