MODEL 1
REMARK VINA RESULT:    -1.997      0.000      0.000
REMARK INTER + INTRA:          -1.997
REMARK INTER:                  -1.997
REMARK INTRA:                   0.000
REMARK UNBOUND:                 0.000
REMARK SMILES CC(=O)[O-]
REMARK SMILES IDX 1 1 2 2 3 3 4 4
REMARK H PARENT
REMARK Flexibility Score: inf
ROOT
ATOM      1  C   UNL     1      82.151  -6.107 -13.705  1.00  0.00     0.063 C 
ATOM      2  C   UNL     1      83.630  -5.965 -13.834  1.00  0.00     0.038 C 
ATOM      3  O   UNL     1      84.168  -4.833 -13.719  1.00  0.00    -0.550 OA
ATOM      4  O   UNL     1      84.411  -7.072 -14.135  1.00  0.00    -0.550 OA
ENDROOT
TORSDOF 0
ENDMDL
MODEL 2
REMARK VINA RESULT:    -1.962      1.670      1.917
REMARK INTER + INTRA:          -1.962
REMARK INTER:                  -1.962
REMARK INTRA:                   0.000
REMARK UNBOUND:                 0.000
REMARK SMILES CC(=O)[O-]
REMARK SMILES IDX 1 1 2 2 3 3 4 4
REMARK H PARENT
REMARK Flexibility Score: inf
ROOT
ATOM      1  C   UNL     1      84.130  -6.770 -14.115  1.00  0.00     0.063 C 
ATOM      2  C   UNL     1      82.900  -5.988 -13.797  1.00  0.00     0.038 C 
ATOM      3  O   UNL     1      82.989  -4.892 -13.186  1.00  0.00    -0.550 OA
ATOM      4  O   UNL     1      81.650  -6.494 -14.126  1.00  0.00    -0.550 OA
ENDROOT
TORSDOF 0
ENDMDL
MODEL 3
REMARK VINA RESULT:    -1.955      1.654      2.363
REMARK INTER + INTRA:          -1.955
REMARK INTER:                  -1.955
REMARK INTRA:                   0.000
REMARK UNBOUND:                 0.000
REMARK SMILES CC(=O)[O-]
REMARK SMILES IDX 1 1 2 2 3 3 4 4
REMARK H PARENT
REMARK Flexibility Score: inf
ROOT
ATOM      1  C   UNL     1      84.117  -6.762 -14.117  1.00  0.00     0.063 C 
ATOM      2  C   UNL     1      82.855  -6.066 -13.734  1.00  0.00     0.038 C 
ATOM      3  O   UNL     1      81.742  -6.533 -14.090  1.00  0.00    -0.550 OA
ATOM      4  O   UNL     1      82.907  -4.871 -13.028  1.00  0.00    -0.550 OA
ENDROOT
TORSDOF 0
ENDMDL
MODEL 4
REMARK VINA RESULT:    -1.935     23.225     23.697
REMARK INTER + INTRA:          -1.935
REMARK INTER:                  -1.935
REMARK INTRA:                   0.000
REMARK UNBOUND:                 0.000
REMARK SMILES CC(=O)[O-]
REMARK SMILES IDX 1 1 2 2 3 3 4 4
REMARK H PARENT
REMARK Flexibility Score: inf
ROOT
ATOM      1  C   UNL     1     100.070   5.213 -28.285  1.00  0.00     0.063 C 
ATOM      2  C   UNL     1      98.635   4.829 -28.425  1.00  0.00     0.038 C 
ATOM      3  O   UNL     1      98.171   4.524 -29.554  1.00  0.00    -0.550 OA
ATOM      4  O   UNL     1      97.796   4.861 -27.320  1.00  0.00    -0.550 OA
ENDROOT
TORSDOF 0
ENDMDL
MODEL 5
REMARK VINA RESULT:    -1.919     23.399     23.824
REMARK INTER + INTRA:          -1.919
REMARK INTER:                  -1.919
REMARK INTRA:                   0.000
REMARK UNBOUND:                 0.000
REMARK SMILES CC(=O)[O-]
REMARK SMILES IDX 1 1 2 2 3 3 4 4
REMARK H PARENT
REMARK Flexibility Score: inf
ROOT
ATOM      1  C   UNL     1      98.681   4.500 -27.085  1.00  0.00     0.063 C 
ATOM      2  C   UNL     1      98.908   4.900 -28.504  1.00  0.00     0.038 C 
ATOM      3  O   UNL     1      99.866   5.660 -28.801  1.00  0.00    -0.550 OA
ATOM      4  O   UNL     1      98.030   4.479 -29.494  1.00  0.00    -0.550 OA
ENDROOT
TORSDOF 0
ENDMDL
MODEL 6
REMARK VINA RESULT:    -1.885     22.897     23.317
REMARK INTER + INTRA:          -1.885
REMARK INTER:                  -1.885
REMARK INTRA:                   0.000
REMARK UNBOUND:                 0.000
REMARK SMILES CC(=O)[O-]
REMARK SMILES IDX 1 1 2 2 3 3 4 4
REMARK H PARENT
REMARK Flexibility Score: inf
ROOT
ATOM      1  C   UNL     1      99.751   5.327 -28.400  1.00  0.00     0.063 C 
ATOM      2  C   UNL     1      99.365   4.218 -27.482  1.00  0.00     0.038 C 
ATOM      3  O   UNL     1      98.735   4.466 -26.421  1.00  0.00    -0.550 OA
ATOM      4  O   UNL     1      99.747   2.914 -27.767  1.00  0.00    -0.550 OA
ENDROOT
TORSDOF 0
ENDMDL
MODEL 7
REMARK VINA RESULT:    -1.814      1.685      2.228
REMARK INTER + INTRA:          -1.814
REMARK INTER:                  -1.814
REMARK INTRA:                   0.000
REMARK UNBOUND:                 0.000
REMARK SMILES CC(=O)[O-]
REMARK SMILES IDX 1 1 2 2 3 3 4 4
REMARK H PARENT
REMARK Flexibility Score: inf
ROOT
ATOM      1  C   UNL     1      81.177  -4.492 -12.915  1.00  0.00     0.063 C 
ATOM      2  C   UNL     1      82.288  -5.367 -13.389  1.00  0.00     0.038 C 
ATOM      3  O   UNL     1      82.041  -6.523 -13.822  1.00  0.00    -0.550 OA
ATOM      4  O   UNL     1      83.603  -4.929 -13.304  1.00  0.00    -0.550 OA
ENDROOT
TORSDOF 0
ENDMDL
MODEL 8
REMARK VINA RESULT:    -1.797     21.799     22.106
REMARK INTER + INTRA:          -1.797
REMARK INTER:                  -1.797
REMARK INTRA:                   0.000
REMARK UNBOUND:                 0.000
REMARK SMILES CC(=O)[O-]
REMARK SMILES IDX 1 1 2 2 3 3 4 4
REMARK H PARENT
REMARK Flexibility Score: inf
ROOT
ATOM      1  C   UNL     1      98.428   3.608 -25.190  1.00  0.00     0.063 C 
ATOM      2  C   UNL     1      98.641   3.778 -26.657  1.00  0.00     0.038 C 
ATOM      3  O   UNL     1      99.404   2.994 -27.279  1.00  0.00    -0.550 OA
ATOM      4  O   UNL     1      98.040   4.834 -27.329  1.00  0.00    -0.550 OA
ENDROOT
TORSDOF 0
ENDMDL
MODEL 9
REMARK VINA RESULT:    -1.776     10.812     11.328
REMARK INTER + INTRA:          -1.776
REMARK INTER:                  -1.776
REMARK INTRA:                   0.000
REMARK UNBOUND:                 0.000
REMARK SMILES CC(=O)[O-]
REMARK SMILES IDX 1 1 2 2 3 3 4 4
REMARK H PARENT
REMARK Flexibility Score: inf
ROOT
ATOM      1  C   UNL     1      92.812 -10.235 -18.900  1.00  0.00     0.063 C 
ATOM      2  C   UNL     1      91.941 -11.445 -18.855  1.00  0.00     0.038 C 
ATOM      3  O   UNL     1      91.863 -12.205 -19.855  1.00  0.00    -0.550 OA
ATOM      4  O   UNL     1      91.172 -11.706 -17.728  1.00  0.00    -0.550 OA
ENDROOT
TORSDOF 0
ENDMDL
