MODEL 1
REMARK VINA RESULT:    -4.348      0.000      0.000
REMARK INTER + INTRA:          -5.690
REMARK INTER:                  -5.365
REMARK INTRA:                  -0.324
REMARK UNBOUND:                -0.324
REMARK SMILES CCCCC=CC(C)=O
REMARK SMILES IDX 4 1 3 2 2 3 1 4 5 5 6 6 7 7 9 8 8 9
REMARK H PARENT
REMARK Flexibility Score: inf
ROOT
ATOM      1  C   UNL     1      27.448  11.421  26.953  1.00  0.00     0.027 C 
ENDROOT
BRANCH   1   2
ATOM      2  C   UNL     1      27.115  12.482  25.891  1.00  0.00     0.004 C 
BRANCH   2   3
ATOM      3  C   UNL     1      27.866  12.247  24.572  1.00  0.00    -0.003 C 
ATOM      4  C   UNL     1      27.496  13.266  23.495  1.00  0.00     0.004 C 
ENDBRANCH   2   3
ENDBRANCH   1   2
BRANCH   1   5
ATOM      5  C   UNL     1      27.073  10.043  26.480  1.00  0.00    -0.023 C 
ATOM      6  C   UNL     1      27.914   9.005  26.332  1.00  0.00     0.042 C 
BRANCH   6   7
ATOM      7  C   UNL     1      29.362   8.993  26.644  1.00  0.00     0.152 C 
ATOM      8  O   UNL     1      29.824   8.344  27.620  1.00  0.00    -0.295 OA
ATOM      9  C   UNL     1      30.309   9.712  25.738  1.00  0.00     0.093 C 
ENDBRANCH   6   7
ENDBRANCH   1   5
TORSDOF 4
ENDMDL
MODEL 2
REMARK VINA RESULT:    -4.312      2.767      5.033
REMARK INTER + INTRA:          -5.645
REMARK INTER:                  -5.469
REMARK INTRA:                  -0.176
REMARK UNBOUND:                -0.324
REMARK SMILES CCCCC=CC(C)=O
REMARK SMILES IDX 4 1 3 2 2 3 1 4 5 5 6 6 7 7 9 8 8 9
REMARK H PARENT
REMARK Flexibility Score: inf
ROOT
ATOM      1  C   UNL     1      31.436   9.921  27.136  1.00  0.00     0.027 C 
ENDROOT
BRANCH   1   2
ATOM      2  C   UNL     1      32.942  10.219  27.225  1.00  0.00     0.004 C 
BRANCH   2   3
ATOM      3  C   UNL     1      33.406  10.477  28.666  1.00  0.00    -0.003 C 
ATOM      4  C   UNL     1      34.696  11.293  28.732  1.00  0.00     0.004 C 
ENDBRANCH   2   3
ENDBRANCH   1   2
BRANCH   1   5
ATOM      5  C   UNL     1      30.936  10.064  25.725  1.00  0.00    -0.023 C 
ATOM      6  C   UNL     1      29.656   9.957  25.328  1.00  0.00     0.042 C 
BRANCH   6   7
ATOM      7  C   UNL     1      28.480   9.722  26.198  1.00  0.00     0.152 C 
ATOM      8  O   UNL     1      28.089   8.559  26.483  1.00  0.00    -0.295 OA
ATOM      9  C   UNL     1      27.781  10.892  26.811  1.00  0.00     0.093 C 
ENDBRANCH   6   7
ENDBRANCH   1   5
TORSDOF 4
ENDMDL
MODEL 3
REMARK VINA RESULT:    -4.300      2.120      4.263
REMARK INTER + INTRA:          -5.630
REMARK INTER:                  -5.527
REMARK INTRA:                  -0.103
REMARK UNBOUND:                -0.324
REMARK SMILES CCCCC=CC(C)=O
REMARK SMILES IDX 4 1 3 2 2 3 1 4 5 5 6 6 7 7 9 8 8 9
REMARK H PARENT
REMARK Flexibility Score: inf
ROOT
ATOM      1  C   UNL     1      28.799   9.424  26.612  1.00  0.00     0.027 C 
ENDROOT
BRANCH   1   2
ATOM      2  C   UNL     1      30.041   8.809  25.946  1.00  0.00     0.004 C 
BRANCH   2   3
ATOM      3  C   UNL     1      31.137   9.850  25.673  1.00  0.00    -0.003 C 
ATOM      4  C   UNL     1      31.984  10.151  26.909  1.00  0.00     0.004 C 
ENDBRANCH   2   3
ENDBRANCH   1   2
BRANCH   1   5
ATOM      5  C   UNL     1      28.453  10.751  25.993  1.00  0.00    -0.023 C 
ATOM      6  C   UNL     1      27.251  11.352  26.039  1.00  0.00     0.042 C 
BRANCH   6   7
ATOM      7  C   UNL     1      26.044  10.856  26.742  1.00  0.00     0.152 C 
ATOM      8  O   UNL     1      25.610   9.686  26.567  1.00  0.00    -0.295 OA
ATOM      9  C   UNL     1      25.364  11.741  27.735  1.00  0.00     0.093 C 
ENDBRANCH   6   7
ENDBRANCH   1   5
TORSDOF 4
ENDMDL
MODEL 4
REMARK VINA RESULT:    -4.242      2.004      2.541
REMARK INTER + INTRA:          -5.558
REMARK INTER:                  -5.497
REMARK INTRA:                  -0.061
REMARK UNBOUND:                -0.324
REMARK SMILES CCCCC=CC(C)=O
REMARK SMILES IDX 4 1 3 2 2 3 1 4 5 5 6 6 7 7 9 8 8 9
REMARK H PARENT
REMARK Flexibility Score: inf
ROOT
ATOM      1  C   UNL     1      27.137  12.332  26.064  1.00  0.00     0.027 C 
ENDROOT
BRANCH   1   2
ATOM      2  C   UNL     1      26.764  13.770  25.666  1.00  0.00     0.004 C 
BRANCH   2   3
ATOM      3  C   UNL     1      27.191  14.111  24.230  1.00  0.00    -0.003 C 
ATOM      4  C   UNL     1      27.604  12.876  23.430  1.00  0.00     0.004 C 
ENDBRANCH   2   3
ENDBRANCH   1   2
BRANCH   1   5
ATOM      5  C   UNL     1      26.268  11.837  27.187  1.00  0.00    -0.023 C 
ATOM      6  C   UNL     1      26.003  10.549  27.470  1.00  0.00     0.042 C 
BRANCH   6   7
ATOM      7  C   UNL     1      26.545   9.363  26.765  1.00  0.00     0.152 C 
ATOM      8  O   UNL     1      27.780   9.222  26.560  1.00  0.00    -0.295 OA
ATOM      9  C   UNL     1      25.611   8.273  26.348  1.00  0.00     0.093 C 
ENDBRANCH   6   7
ENDBRANCH   1   5
TORSDOF 4
ENDMDL
MODEL 5
REMARK VINA RESULT:    -4.190      1.671      2.551
REMARK INTER + INTRA:          -5.494
REMARK INTER:                  -5.393
REMARK INTRA:                  -0.101
REMARK UNBOUND:                -0.324
REMARK SMILES CCCCC=CC(C)=O
REMARK SMILES IDX 4 1 3 2 2 3 1 4 5 5 6 6 7 7 9 8 8 9
REMARK H PARENT
REMARK Flexibility Score: inf
ROOT
ATOM      1  C   UNL     1      27.794  10.749  26.773  1.00  0.00     0.027 C 
ENDROOT
BRANCH   1   2
ATOM      2  C   UNL     1      26.690  11.807  26.621  1.00  0.00     0.004 C 
BRANCH   2   3
ATOM      3  C   UNL     1      25.587  11.660  27.680  1.00  0.00    -0.003 C 
ATOM      4  C   UNL     1      24.615  12.840  27.686  1.00  0.00     0.004 C 
ENDBRANCH   2   3
ENDBRANCH   1   2
BRANCH   1   5
ATOM      5  C   UNL     1      28.606  10.626  25.512  1.00  0.00    -0.023 C 
ATOM      6  C   UNL     1      29.830  10.079  25.413  1.00  0.00     0.042 C 
BRANCH   6   7
ATOM      7  C   UNL     1      30.604   9.449  26.507  1.00  0.00     0.152 C 
ATOM      8  O   UNL     1      30.197   8.411  27.094  1.00  0.00    -0.295 OA
ATOM      9  C   UNL     1      31.935  10.017  26.880  1.00  0.00     0.093 C 
ENDBRANCH   6   7
ENDBRANCH   1   5
TORSDOF 4
ENDMDL
MODEL 6
REMARK VINA RESULT:    -4.167      7.047      8.592
REMARK INTER + INTRA:          -5.466
REMARK INTER:                  -5.354
REMARK INTRA:                  -0.112
REMARK UNBOUND:                -0.324
REMARK SMILES CCCCC=CC(C)=O
REMARK SMILES IDX 4 1 3 2 2 3 1 4 5 5 6 6 7 7 9 8 8 9
REMARK H PARENT
REMARK Flexibility Score: inf
ROOT
ATOM      1  C   UNL     1      35.626  12.274  28.577  1.00  0.00     0.027 C 
ENDROOT
BRANCH   1   2
ATOM      2  C   UNL     1      35.059  10.927  28.097  1.00  0.00     0.004 C 
BRANCH   2   3
ATOM      3  C   UNL     1      33.648  10.657  28.641  1.00  0.00    -0.003 C 
ATOM      4  C   UNL     1      32.646  10.322  27.537  1.00  0.00     0.004 C 
ENDBRANCH   2   3
ENDBRANCH   1   2
BRANCH   1   5
ATOM      5  C   UNL     1      34.619  13.021  29.409  1.00  0.00    -0.023 C 
ATOM      6  C   UNL     1      34.633  14.341  29.664  1.00  0.00     0.042 C 
BRANCH   6   7
ATOM      7  C   UNL     1      35.607  15.329  29.145  1.00  0.00     0.152 C 
ATOM      8  O   UNL     1      36.850  15.140  29.228  1.00  0.00    -0.295 OA
ATOM      9  C   UNL     1      35.104  16.549  28.443  1.00  0.00     0.093 C 
ENDBRANCH   6   7
ENDBRANCH   1   5
TORSDOF 4
ENDMDL
MODEL 7
REMARK VINA RESULT:    -4.096      1.694      3.152
REMARK INTER + INTRA:          -5.378
REMARK INTER:                  -5.065
REMARK INTRA:                  -0.313
REMARK UNBOUND:                -0.324
REMARK SMILES CCCCC=CC(C)=O
REMARK SMILES IDX 4 1 3 2 2 3 1 4 5 5 6 6 7 7 9 8 8 9
REMARK H PARENT
REMARK Flexibility Score: inf
ROOT
ATOM      1  C   UNL     1      27.195  10.897  27.362  1.00  0.00     0.027 C 
ENDROOT
BRANCH   1   2
ATOM      2  C   UNL     1      25.782  10.294  27.312  1.00  0.00     0.004 C 
BRANCH   2   3
ATOM      3  C   UNL     1      25.718   9.016  26.462  1.00  0.00    -0.003 C 
ATOM      4  C   UNL     1      25.153   7.824  27.233  1.00  0.00     0.004 C 
ENDBRANCH   2   3
ENDBRANCH   1   2
BRANCH   1   5
ATOM      5  C   UNL     1      27.664  11.295  25.990  1.00  0.00    -0.023 C 
ATOM      6  C   UNL     1      28.714  10.771  25.332  1.00  0.00     0.042 C 
BRANCH   6   7
ATOM      7  C   UNL     1      29.588   9.671  25.803  1.00  0.00     0.152 C 
ATOM      8  O   UNL     1      29.203   8.472  25.800  1.00  0.00    -0.295 OA
ATOM      9  C   UNL     1      30.987   9.983  26.227  1.00  0.00     0.093 C 
ENDBRANCH   6   7
ENDBRANCH   1   5
TORSDOF 4
ENDMDL
MODEL 8
REMARK VINA RESULT:    -4.086      1.930      3.043
REMARK INTER + INTRA:          -5.366
REMARK INTER:                  -4.990
REMARK INTRA:                  -0.376
REMARK UNBOUND:                -0.324
REMARK SMILES CCCCC=CC(C)=O
REMARK SMILES IDX 4 1 3 2 2 3 1 4 5 5 6 6 7 7 9 8 8 9
REMARK H PARENT
REMARK Flexibility Score: inf
ROOT
ATOM      1  C   UNL     1      29.041  10.089  25.615  1.00  0.00     0.027 C 
ENDROOT
BRANCH   1   2
ATOM      2  C   UNL     1      27.956  11.072  26.087  1.00  0.00     0.004 C 
BRANCH   2   3
ATOM      3  C   UNL     1      26.875  10.389  26.937  1.00  0.00    -0.003 C 
ATOM      4  C   UNL     1      26.001  11.389  27.693  1.00  0.00     0.004 C 
ENDBRANCH   2   3
ENDBRANCH   1   2
BRANCH   1   5
ATOM      5  C   UNL     1      29.703   9.410  26.782  1.00  0.00    -0.023 C 
ATOM      6  C   UNL     1      29.734   8.085  27.010  1.00  0.00     0.042 C 
BRANCH   6   7
ATOM      7  C   UNL     1      29.164   7.029  26.141  1.00  0.00     0.152 C 
ATOM      8  O   UNL     1      29.892   6.326  25.391  1.00  0.00    -0.295 OA
ATOM      9  C   UNL     1      27.699   6.743  26.206  1.00  0.00     0.093 C 
ENDBRANCH   6   7
ENDBRANCH   1   5
TORSDOF 4
ENDMDL
MODEL 9
REMARK VINA RESULT:    -4.077      7.178      7.815
REMARK INTER + INTRA:          -5.355
REMARK INTER:                  -5.182
REMARK INTRA:                  -0.173
REMARK UNBOUND:                -0.324
REMARK SMILES CCCCC=CC(C)=O
REMARK SMILES IDX 4 1 3 2 2 3 1 4 5 5 6 6 7 7 9 8 8 9
REMARK H PARENT
REMARK Flexibility Score: inf
ROOT
ATOM      1  C   UNL     1      35.342  12.680  28.991  1.00  0.00     0.027 C 
ENDROOT
BRANCH   1   2
ATOM      2  C   UNL     1      34.683  14.063  29.120  1.00  0.00     0.004 C 
BRANCH   2   3
ATOM      3  C   UNL     1      35.636  15.205  28.737  1.00  0.00    -0.003 C 
ATOM      4  C   UNL     1      34.948  16.570  28.739  1.00  0.00     0.004 C 
ENDBRANCH   2   3
ENDBRANCH   1   2
BRANCH   1   5
ATOM      5  C   UNL     1      34.308  11.589  28.924  1.00  0.00    -0.023 C 
ATOM      6  C   UNL     1      34.473  10.381  28.358  1.00  0.00     0.042 C 
BRANCH   6   7
ATOM      7  C   UNL     1      35.711   9.863  27.731  1.00  0.00     0.152 C 
ATOM      8  O   UNL     1      36.656   9.393  28.419  1.00  0.00    -0.295 OA
ATOM      9  C   UNL     1      35.816   9.835  26.240  1.00  0.00     0.093 C 
ENDBRANCH   6   7
ENDBRANCH   1   5
TORSDOF 4
ENDMDL
