MODEL 1
REMARK VINA RESULT:    11.187      0.000      0.000
REMARK INTER + INTRA:          23.113
REMARK INTER:                  24.266
REMARK INTRA:                  -1.152
REMARK UNBOUND:                -1.152
REMARK SMILES CCCCCCCCCCCCCCCCCCCCCC(=O)[O-]
REMARK SMILES IDX 12 1 11 2 10 3 9 4 8 5 7 6 6 7 5 8 4 9 3 10 2 11 1 12 13 13
REMARK SMILES IDX 14 14 15 15 16 16 17 17 18 18 19 19 20 20 21 21 22 22 23 23
REMARK SMILES IDX 24 24
REMARK H PARENT
REMARK Flexibility Score: inf
ROOT
ATOM      1  C   UNL     1      18.900 -18.664  25.634  1.00  0.00     0.000 C 
ENDROOT
BRANCH   1   2
ATOM      2  C   UNL     1      17.364 -18.647  25.563  1.00  0.00     0.000 C 
BRANCH   2   3
ATOM      3  C   UNL     1      16.819 -19.262  24.262  1.00  0.00     0.000 C 
BRANCH   3   4
ATOM      4  C   UNL     1      17.870 -19.496  23.157  1.00  0.00    -0.000 C 
BRANCH   4   5
ATOM      5  C   UNL     1      17.498 -20.567  22.111  1.00  0.00    -0.000 C 
BRANCH   5   6
ATOM      6  C   UNL     1      16.327 -21.485  22.506  1.00  0.00    -0.000 C 
BRANCH   6   7
ATOM      7  C   UNL     1      16.424 -22.881  21.865  1.00  0.00    -0.000 C 
BRANCH   7   8
ATOM      8  C   UNL     1      17.830 -23.490  21.998  1.00  0.00    -0.000 C 
BRANCH   8   9
ATOM      9  C   UNL     1      18.069 -24.650  21.014  1.00  0.00    -0.000 C 
BRANCH   9  10
ATOM     10  C   UNL     1      17.851 -24.222  19.548  1.00  0.00    -0.000 C 
BRANCH  10  11
ATOM     11  C   UNL     1      18.982 -23.343  18.989  1.00  0.00    -0.003 C 
ATOM     12  C   UNL     1      18.596 -21.870  18.872  1.00  0.00     0.004 C 
ENDBRANCH  10  11
ENDBRANCH   9  10
ENDBRANCH   8   9
ENDBRANCH   7   8
ENDBRANCH   6   7
ENDBRANCH   5   6
ENDBRANCH   4   5
ENDBRANCH   3   4
ENDBRANCH   2   3
ENDBRANCH   1   2
BRANCH   1  13
ATOM     13  C   UNL     1      19.436 -19.514  26.799  1.00  0.00     0.000 C 
BRANCH  13  14
ATOM     14  C   UNL     1      20.936 -19.863  26.727  1.00  0.00     0.000 C 
BRANCH  14  15
ATOM     15  C   UNL     1      21.252 -21.350  26.489  1.00  0.00     0.000 C 
BRANCH  15  16
ATOM     16  C   UNL     1      22.533 -21.564  25.667  1.00  0.00     0.000 C 
BRANCH  16  17
ATOM     17  C   UNL     1      22.455 -20.813  24.329  1.00  0.00     0.000 C 
BRANCH  17  18
ATOM     18  C   UNL     1      23.843 -20.502  23.746  1.00  0.00     0.000 C 
BRANCH  18  19
ATOM     19  C   UNL     1      24.499 -21.730  23.098  1.00  0.00     0.000 C 
BRANCH  19  20
ATOM     20  C   UNL     1      24.697 -22.855  24.125  1.00  0.00     0.006 C 
BRANCH  20  21
ATOM     21  C   UNL     1      26.175 -23.060  24.486  1.00  0.00     0.053 C 
BRANCH  21  22
ATOM     22  C   UNL     1      26.432 -22.815  25.941  1.00  0.00     0.041 C 
ATOM     23  O   UNL     1      25.576 -22.217  26.643  1.00  0.00    -0.550 OA
ATOM     24  O   UNL     1      27.633 -23.219  26.513  1.00  0.00    -0.550 OA
ENDBRANCH  21  22
ENDBRANCH  20  21
ENDBRANCH  19  20
ENDBRANCH  18  19
ENDBRANCH  17  18
ENDBRANCH  16  17
ENDBRANCH  15  16
ENDBRANCH  14  15
ENDBRANCH  13  14
ENDBRANCH   1  13
TORSDOF 20
ENDMDL
MODEL 2
REMARK VINA RESULT:    11.441      3.271      7.894
REMARK INTER + INTRA:          23.665
REMARK INTER:                  25.099
REMARK INTRA:                  -1.434
REMARK UNBOUND:                -1.152
REMARK SMILES CCCCCCCCCCCCCCCCCCCCCC(=O)[O-]
REMARK SMILES IDX 12 1 11 2 10 3 9 4 8 5 7 6 6 7 5 8 4 9 3 10 2 11 1 12 13 13
REMARK SMILES IDX 14 14 15 15 16 16 17 17 18 18 19 19 20 20 21 21 22 22 23 23
REMARK SMILES IDX 24 24
REMARK H PARENT
REMARK Flexibility Score: inf
ROOT
ATOM      1  C   UNL     1      19.040 -19.226  26.918  1.00  0.00     0.000 C 
ENDROOT
BRANCH   1   2
ATOM      2  C   UNL     1      20.541 -19.509  26.748  1.00  0.00     0.000 C 
BRANCH   2   3
ATOM      3  C   UNL     1      20.825 -20.924  26.213  1.00  0.00     0.000 C 
BRANCH   3   4
ATOM      4  C   UNL     1      21.608 -20.977  24.884  1.00  0.00    -0.000 C 
BRANCH   4   5
ATOM      5  C   UNL     1      23.095 -20.580  24.979  1.00  0.00    -0.000 C 
BRANCH   5   6
ATOM      6  C   UNL     1      23.798 -20.358  23.628  1.00  0.00    -0.000 C 
BRANCH   6   7
ATOM      7  C   UNL     1      24.195 -21.676  22.940  1.00  0.00    -0.000 C 
BRANCH   7   8
ATOM      8  C   UNL     1      24.480 -22.800  23.949  1.00  0.00    -0.000 C 
BRANCH   8   9
ATOM      9  C   UNL     1      25.888 -22.702  24.563  1.00  0.00    -0.000 C 
BRANCH   9  10
ATOM     10  C   UNL     1      25.843 -22.528  26.096  1.00  0.00    -0.000 C 
BRANCH  10  11
ATOM     11  C   UNL     1      27.035 -23.173  26.823  1.00  0.00    -0.003 C 
ATOM     12  C   UNL     1      28.386 -22.762  26.242  1.00  0.00     0.004 C 
ENDBRANCH  10  11
ENDBRANCH   9  10
ENDBRANCH   8   9
ENDBRANCH   7   8
ENDBRANCH   6   7
ENDBRANCH   5   6
ENDBRANCH   4   5
ENDBRANCH   3   4
ENDBRANCH   2   3
ENDBRANCH   1   2
BRANCH   1  13
ATOM     13  C   UNL     1      18.437 -18.461  25.726  1.00  0.00     0.000 C 
BRANCH  13  14
ATOM     14  C   UNL     1      17.339 -19.213  24.946  1.00  0.00     0.000 C 
BRANCH  14  15
ATOM     15  C   UNL     1      17.352 -18.998  23.422  1.00  0.00     0.000 C 
BRANCH  15  16
ATOM     16  C   UNL     1      17.819 -20.240  22.648  1.00  0.00     0.000 C 
BRANCH  16  17
ATOM     17  C   UNL     1      16.633 -20.939  21.967  1.00  0.00     0.000 C 
BRANCH  17  18
ATOM     18  C   UNL     1      16.377 -22.347  22.528  1.00  0.00     0.000 C 
BRANCH  18  19
ATOM     19  C   UNL     1      16.657 -23.452  21.499  1.00  0.00     0.000 C 
BRANCH  19  20
ATOM     20  C   UNL     1      18.135 -23.868  21.527  1.00  0.00     0.006 C 
BRANCH  20  21
ATOM     21  C   UNL     1      18.637 -24.322  20.149  1.00  0.00     0.053 C 
BRANCH  21  22
ATOM     22  C   UNL     1      18.286 -23.337  19.076  1.00  0.00     0.041 C 
ATOM     23  O   UNL     1      17.616 -23.703  18.075  1.00  0.00    -0.550 OA
ATOM     24  O   UNL     1      18.728 -22.022  19.167  1.00  0.00    -0.550 OA
ENDBRANCH  21  22
ENDBRANCH  20  21
ENDBRANCH  19  20
ENDBRANCH  18  19
ENDBRANCH  17  18
ENDBRANCH  16  17
ENDBRANCH  15  16
ENDBRANCH  14  15
ENDBRANCH  13  14
ENDBRANCH   1  13
TORSDOF 20
ENDMDL
MODEL 3
REMARK VINA RESULT:    11.486      3.145      7.767
REMARK INTER + INTRA:          23.764
REMARK INTER:                  25.287
REMARK INTRA:                  -1.523
REMARK UNBOUND:                -1.152
REMARK SMILES CCCCCCCCCCCCCCCCCCCCCC(=O)[O-]
REMARK SMILES IDX 12 1 11 2 10 3 9 4 8 5 7 6 6 7 5 8 4 9 3 10 2 11 1 12 13 13
REMARK SMILES IDX 14 14 15 15 16 16 17 17 18 18 19 19 20 20 21 21 22 22 23 23
REMARK SMILES IDX 24 24
REMARK H PARENT
REMARK Flexibility Score: inf
ROOT
ATOM      1  C   UNL     1      19.857 -19.230  27.101  1.00  0.00     0.000 C 
ENDROOT
BRANCH   1   2
ATOM      2  C   UNL     1      21.151 -19.630  26.374  1.00  0.00     0.000 C 
BRANCH   2   3
ATOM      3  C   UNL     1      21.147 -21.098  25.911  1.00  0.00     0.000 C 
BRANCH   3   4
ATOM      4  C   UNL     1      21.986 -21.391  24.650  1.00  0.00    -0.000 C 
BRANCH   4   5
ATOM      5  C   UNL     1      23.179 -20.442  24.419  1.00  0.00    -0.000 C 
BRANCH   5   6
ATOM      6  C   UNL     1      24.208 -20.930  23.382  1.00  0.00    -0.000 C 
BRANCH   6   7
ATOM      7  C   UNL     1      24.445 -22.449  23.449  1.00  0.00    -0.000 C 
BRANCH   7   8
ATOM      8  C   UNL     1      25.529 -22.828  24.472  1.00  0.00    -0.000 C 
BRANCH   8   9
ATOM      9  C   UNL     1      25.662 -21.793  25.604  1.00  0.00    -0.000 C 
BRANCH   9  10
ATOM     10  C   UNL     1      25.410 -22.415  26.993  1.00  0.00    -0.000 C 
BRANCH  10  11
ATOM     11  C   UNL     1      23.993 -22.159  27.534  1.00  0.00    -0.003 C 
ATOM     12  C   UNL     1      23.896 -22.304  29.052  1.00  0.00     0.004 C 
ENDBRANCH  10  11
ENDBRANCH   9  10
ENDBRANCH   8   9
ENDBRANCH   7   8
ENDBRANCH   6   7
ENDBRANCH   5   6
ENDBRANCH   4   5
ENDBRANCH   3   4
ENDBRANCH   2   3
ENDBRANCH   1   2
BRANCH   1  13
ATOM     13  C   UNL     1      18.589 -19.642  26.334  1.00  0.00     0.000 C 
BRANCH  13  14
ATOM     14  C   UNL     1      18.081 -18.618  25.299  1.00  0.00     0.000 C 
BRANCH  14  15
ATOM     15  C   UNL     1      17.101 -19.175  24.251  1.00  0.00     0.000 C 
BRANCH  15  16
ATOM     16  C   UNL     1      17.680 -19.166  22.828  1.00  0.00     0.000 C 
BRANCH  16  17
ATOM     17  C   UNL     1      17.738 -20.589  22.252  1.00  0.00     0.000 C 
BRANCH  17  18
ATOM     18  C   UNL     1      16.547 -21.453  22.693  1.00  0.00     0.000 C 
BRANCH  18  19
ATOM     19  C   UNL     1      16.370 -22.704  21.819  1.00  0.00     0.000 C 
BRANCH  19  20
ATOM     20  C   UNL     1      17.660 -23.536  21.781  1.00  0.00     0.006 C 
BRANCH  20  21
ATOM     21  C   UNL     1      17.809 -24.319  20.469  1.00  0.00     0.053 C 
BRANCH  21  22
ATOM     22  C   UNL     1      18.664 -23.588  19.479  1.00  0.00     0.041 C 
ATOM     23  O   UNL     1      19.831 -23.989  19.233  1.00  0.00    -0.550 OA
ATOM     24  O   UNL     1      18.180 -22.446  18.851  1.00  0.00    -0.550 OA
ENDBRANCH  21  22
ENDBRANCH  20  21
ENDBRANCH  19  20
ENDBRANCH  18  19
ENDBRANCH  17  18
ENDBRANCH  16  17
ENDBRANCH  15  16
ENDBRANCH  14  15
ENDBRANCH  13  14
ENDBRANCH   1  13
TORSDOF 20
ENDMDL
MODEL 4
REMARK VINA RESULT:    12.414      1.350      3.009
REMARK INTER + INTRA:          25.777
REMARK INTER:                  27.515
REMARK INTRA:                  -1.738
REMARK UNBOUND:                -1.152
REMARK SMILES CCCCCCCCCCCCCCCCCCCCCC(=O)[O-]
REMARK SMILES IDX 12 1 11 2 10 3 9 4 8 5 7 6 6 7 5 8 4 9 3 10 2 11 1 12 13 13
REMARK SMILES IDX 14 14 15 15 16 16 17 17 18 18 19 19 20 20 21 21 22 22 23 23
REMARK SMILES IDX 24 24
REMARK H PARENT
REMARK Flexibility Score: inf
ROOT
ATOM      1  C   UNL     1      21.299 -20.128  26.388  1.00  0.00     0.000 C 
ENDROOT
BRANCH   1   2
ATOM      2  C   UNL     1      19.763 -20.061  26.413  1.00  0.00     0.000 C 
BRANCH   2   3
ATOM      3  C   UNL     1      19.205 -18.861  25.627  1.00  0.00     0.000 C 
BRANCH   3   4
ATOM      4  C   UNL     1      17.666 -18.748  25.608  1.00  0.00    -0.000 C 
BRANCH   4   5
ATOM      5  C   UNL     1      16.980 -19.332  24.357  1.00  0.00    -0.000 C 
BRANCH   5   6
ATOM      6  C   UNL     1      17.910 -19.570  23.153  1.00  0.00    -0.000 C 
BRANCH   6   7
ATOM      7  C   UNL     1      17.290 -20.502  22.097  1.00  0.00    -0.000 C 
BRANCH   7   8
ATOM      8  C   UNL     1      17.334 -21.979  22.521  1.00  0.00    -0.000 C 
BRANCH   8   9
ATOM      9  C   UNL     1      16.758 -22.921  21.448  1.00  0.00    -0.000 C 
BRANCH   9  10
ATOM     10  C   UNL     1      17.752 -24.034  21.058  1.00  0.00    -0.000 C 
BRANCH  10  11
ATOM     11  C   UNL     1      18.192 -23.977  19.585  1.00  0.00    -0.003 C 
ATOM     12  C   UNL     1      18.549 -22.567  19.120  1.00  0.00     0.004 C 
ENDBRANCH  10  11
ENDBRANCH   9  10
ENDBRANCH   8   9
ENDBRANCH   7   8
ENDBRANCH   6   7
ENDBRANCH   5   6
ENDBRANCH   4   5
ENDBRANCH   3   4
ENDBRANCH   2   3
ENDBRANCH   1   2
BRANCH   1  13
ATOM     13  C   UNL     1      21.835 -21.193  25.415  1.00  0.00     0.000 C 
BRANCH  13  14
ATOM     14  C   UNL     1      22.345 -20.654  24.063  1.00  0.00     0.000 C 
BRANCH  14  15
ATOM     15  C   UNL     1      23.857 -20.811  23.822  1.00  0.00     0.000 C 
BRANCH  15  16
ATOM     16  C   UNL     1      24.231 -22.190  23.258  1.00  0.00     0.000 C 
BRANCH  16  17
ATOM     17  C   UNL     1      25.704 -22.518  23.543  1.00  0.00     0.000 C 
BRANCH  17  18
ATOM     18  C   UNL     1      25.878 -23.449  24.753  1.00  0.00     0.000 C 
BRANCH  18  19
ATOM     19  C   UNL     1      26.803 -22.857  25.826  1.00  0.00     0.000 C 
BRANCH  19  20
ATOM     20  C   UNL     1      26.151 -22.928  27.215  1.00  0.00     0.006 C 
BRANCH  20  21
ATOM     21  C   UNL     1      25.076 -21.850  27.409  1.00  0.00     0.053 C 
BRANCH  21  22
ATOM     22  C   UNL     1      23.983 -22.311  28.325  1.00  0.00     0.041 C 
ATOM     23  O   UNL     1      23.112 -23.121  27.913  1.00  0.00    -0.550 OA
ATOM     24  O   UNL     1      23.910 -21.821  29.623  1.00  0.00    -0.550 OA
ENDBRANCH  21  22
ENDBRANCH  20  21
ENDBRANCH  19  20
ENDBRANCH  18  19
ENDBRANCH  17  18
ENDBRANCH  16  17
ENDBRANCH  15  16
ENDBRANCH  14  15
ENDBRANCH  13  14
ENDBRANCH   1  13
TORSDOF 20
ENDMDL
MODEL 5
REMARK VINA RESULT:    12.869      1.956      4.141
REMARK INTER + INTRA:          26.763
REMARK INTER:                  28.025
REMARK INTRA:                  -1.262
REMARK UNBOUND:                -1.152
REMARK SMILES CCCCCCCCCCCCCCCCCCCCCC(=O)[O-]
REMARK SMILES IDX 12 1 11 2 10 3 9 4 8 5 7 6 6 7 5 8 4 9 3 10 2 11 1 12 13 13
REMARK SMILES IDX 14 14 15 15 16 16 17 17 18 18 19 19 20 20 21 21 22 22 23 23
REMARK SMILES IDX 24 24
REMARK H PARENT
REMARK Flexibility Score: inf
ROOT
ATOM      1  C   UNL     1      17.343 -20.372  22.693  1.00  0.00     0.000 C 
ENDROOT
BRANCH   1   2
ATOM      2  C   UNL     1      16.289 -21.488  22.605  1.00  0.00     0.000 C 
BRANCH   2   3
ATOM      3  C   UNL     1      16.612 -22.532  21.521  1.00  0.00     0.000 C 
BRANCH   3   4
ATOM      4  C   UNL     1      17.566 -23.662  21.962  1.00  0.00    -0.000 C 
BRANCH   4   5
ATOM      5  C   UNL     1      18.375 -24.320  20.827  1.00  0.00    -0.000 C 
BRANCH   5   6
ATOM      6  C   UNL     1      17.984 -23.877  19.405  1.00  0.00    -0.000 C 
BRANCH   6   7
ATOM      7  C   UNL     1      19.036 -22.959  18.757  1.00  0.00    -0.000 C 
BRANCH   7   8
ATOM      8  C   UNL     1      18.454 -21.591  18.362  1.00  0.00    -0.000 C 
BRANCH   8   9
ATOM      9  C   UNL     1      17.759 -21.618  16.988  1.00  0.00    -0.000 C 
BRANCH   9  10
ATOM     10  C   UNL     1      18.071 -20.357  16.155  1.00  0.00    -0.000 C 
BRANCH  10  11
ATOM     11  C   UNL     1      17.442 -20.377  14.752  1.00  0.00    -0.003 C 
ATOM     12  C   UNL     1      17.830 -19.167  13.904  1.00  0.00     0.004 C 
ENDBRANCH  10  11
ENDBRANCH   9  10
ENDBRANCH   8   9
ENDBRANCH   7   8
ENDBRANCH   6   7
ENDBRANCH   5   6
ENDBRANCH   4   5
ENDBRANCH   3   4
ENDBRANCH   2   3
ENDBRANCH   1   2
BRANCH   1  13
ATOM     13  C   UNL     1      16.933 -19.235  23.644  1.00  0.00     0.000 C 
BRANCH  13  14
ATOM     14  C   UNL     1      18.075 -18.637  24.490  1.00  0.00     0.000 C 
BRANCH  14  15
ATOM     15  C   UNL     1      17.860 -18.689  26.013  1.00  0.00     0.000 C 
BRANCH  15  16
ATOM     16  C   UNL     1      18.874 -19.596  26.727  1.00  0.00     0.000 C 
BRANCH  16  17
ATOM     17  C   UNL     1      20.138 -19.783  25.874  1.00  0.00     0.000 C 
BRANCH  17  18
ATOM     18  C   UNL     1      21.320 -20.336  26.686  1.00  0.00     0.000 C 
BRANCH  18  19
ATOM     19  C   UNL     1      22.222 -21.262  25.857  1.00  0.00     0.000 C 
BRANCH  19  20
ATOM     20  C   UNL     1      22.238 -20.838  24.380  1.00  0.00     0.006 C 
BRANCH  20  21
ATOM     21  C   UNL     1      23.658 -20.549  23.874  1.00  0.00     0.053 C 
BRANCH  21  22
ATOM     22  C   UNL     1      24.533 -21.764  23.946  1.00  0.00     0.041 C 
ATOM     23  O   UNL     1      24.555 -22.585  22.993  1.00  0.00    -0.550 OA
ATOM     24  O   UNL     1      25.299 -22.003  25.080  1.00  0.00    -0.550 OA
ENDBRANCH  21  22
ENDBRANCH  20  21
ENDBRANCH  19  20
ENDBRANCH  18  19
ENDBRANCH  17  18
ENDBRANCH  16  17
ENDBRANCH  15  16
ENDBRANCH  14  15
ENDBRANCH  13  14
ENDBRANCH   1  13
TORSDOF 20
ENDMDL
MODEL 6
REMARK VINA RESULT:    12.886      1.445      2.686
REMARK INTER + INTRA:          26.801
REMARK INTER:                  27.922
REMARK INTRA:                  -1.121
REMARK UNBOUND:                -1.152
REMARK SMILES CCCCCCCCCCCCCCCCCCCCCC(=O)[O-]
REMARK SMILES IDX 12 1 11 2 10 3 9 4 8 5 7 6 6 7 5 8 4 9 3 10 2 11 1 12 13 13
REMARK SMILES IDX 14 14 15 15 16 16 17 17 18 18 19 19 20 20 21 21 22 22 23 23
REMARK SMILES IDX 24 24
REMARK H PARENT
REMARK Flexibility Score: inf
ROOT
ATOM      1  C   UNL     1      18.087 -19.101  24.127  1.00  0.00     0.000 C 
ENDROOT
BRANCH   1   2
ATOM      2  C   UNL     1      17.040 -19.536  23.090  1.00  0.00     0.000 C 
BRANCH   2   3
ATOM      3  C   UNL     1      17.424 -20.837  22.363  1.00  0.00     0.000 C 
BRANCH   3   4
ATOM      4  C   UNL     1      16.260 -21.819  22.114  1.00  0.00    -0.000 C 
BRANCH   4   5
ATOM      5  C   UNL     1      16.677 -23.272  21.813  1.00  0.00    -0.000 C 
BRANCH   5   6
ATOM      6  C   UNL     1      18.098 -23.438  21.243  1.00  0.00    -0.000 C 
BRANCH   6   7
ATOM      7  C   UNL     1      18.099 -23.927  19.784  1.00  0.00    -0.000 C 
BRANCH   7   8
ATOM      8  C   UNL     1      18.904 -23.001  18.857  1.00  0.00    -0.000 C 
BRANCH   8   9
ATOM      9  C   UNL     1      18.108 -21.756  18.426  1.00  0.00    -0.000 C 
BRANCH   9  10
ATOM     10  C   UNL     1      18.665 -21.129  17.132  1.00  0.00    -0.000 C 
BRANCH  10  11
ATOM     11  C   UNL     1      17.599 -20.413  16.286  1.00  0.00    -0.003 C 
ATOM     12  C   UNL     1      17.930 -20.395  14.795  1.00  0.00     0.004 C 
ENDBRANCH  10  11
ENDBRANCH   9  10
ENDBRANCH   8   9
ENDBRANCH   7   8
ENDBRANCH   6   7
ENDBRANCH   5   6
ENDBRANCH   4   5
ENDBRANCH   3   4
ENDBRANCH   2   3
ENDBRANCH   1   2
BRANCH   1  13
ATOM     13  C   UNL     1      17.540 -19.100  25.566  1.00  0.00     0.000 C 
BRANCH  13  14
ATOM     14  C   UNL     1      18.606 -19.173  26.678  1.00  0.00     0.000 C 
BRANCH  14  15
ATOM     15  C   UNL     1      20.054 -19.347  26.187  1.00  0.00     0.000 C 
BRANCH  15  16
ATOM     16  C   UNL     1      20.446 -20.820  25.995  1.00  0.00     0.000 C 
BRANCH  16  17
ATOM     17  C   UNL     1      21.955 -20.956  25.740  1.00  0.00     0.000 C 
BRANCH  17  18
ATOM     18  C   UNL     1      22.300 -20.991  24.243  1.00  0.00     0.000 C 
BRANCH  18  19
ATOM     19  C   UNL     1      23.755 -20.587  23.963  1.00  0.00     0.000 C 
BRANCH  19  20
ATOM     20  C   UNL     1      24.693 -21.798  24.070  1.00  0.00     0.006 C 
BRANCH  20  21
ATOM     21  C   UNL     1      25.315 -21.930  25.467  1.00  0.00     0.053 C 
BRANCH  21  22
ATOM     22  C   UNL     1      26.372 -22.992  25.509  1.00  0.00     0.041 C 
ATOM     23  O   UNL     1      27.224 -23.001  26.435  1.00  0.00    -0.550 OA
ATOM     24  O   UNL     1      26.433 -23.952  24.506  1.00  0.00    -0.550 OA
ENDBRANCH  21  22
ENDBRANCH  20  21
ENDBRANCH  19  20
ENDBRANCH  18  19
ENDBRANCH  17  18
ENDBRANCH  16  17
ENDBRANCH  15  16
ENDBRANCH  14  15
ENDBRANCH  13  14
ENDBRANCH   1  13
TORSDOF 20
ENDMDL
MODEL 7
REMARK VINA RESULT:    13.227      1.688      3.474
REMARK INTER + INTRA:          27.541
REMARK INTER:                  28.869
REMARK INTRA:                  -1.328
REMARK UNBOUND:                -1.152
REMARK SMILES CCCCCCCCCCCCCCCCCCCCCC(=O)[O-]
REMARK SMILES IDX 12 1 11 2 10 3 9 4 8 5 7 6 6 7 5 8 4 9 3 10 2 11 1 12 13 13
REMARK SMILES IDX 14 14 15 15 16 16 17 17 18 18 19 19 20 20 21 21 22 22 23 23
REMARK SMILES IDX 24 24
REMARK H PARENT
REMARK Flexibility Score: inf
ROOT
ATOM      1  C   UNL     1      21.963 -20.476  26.513  1.00  0.00     0.000 C 
ENDROOT
BRANCH   1   2
ATOM      2  C   UNL     1      20.666 -20.475  25.687  1.00  0.00     0.000 C 
BRANCH   2   3
ATOM      3  C   UNL     1      19.494 -19.795  26.416  1.00  0.00     0.000 C 
BRANCH   3   4
ATOM      4  C   UNL     1      18.760 -18.706  25.605  1.00  0.00    -0.000 C 
BRANCH   4   5
ATOM      5  C   UNL     1      17.341 -19.081  25.133  1.00  0.00    -0.000 C 
BRANCH   5   6
ATOM      6  C   UNL     1      17.129 -19.042  23.608  1.00  0.00    -0.000 C 
BRANCH   6   7
ATOM      7  C   UNL     1      17.780 -20.236  22.887  1.00  0.00    -0.000 C 
BRANCH   7   8
ATOM      8  C   UNL     1      16.761 -21.055  22.076  1.00  0.00    -0.000 C 
BRANCH   8   9
ATOM      9  C   UNL     1      16.883 -22.569  22.329  1.00  0.00    -0.000 C 
BRANCH   9  10
ATOM     10  C   UNL     1      16.875 -23.380  21.016  1.00  0.00    -0.000 C 
BRANCH  10  11
ATOM     11  C   UNL     1      18.278 -23.781  20.532  1.00  0.00    -0.003 C 
ATOM     12  C   UNL     1      18.537 -23.415  19.072  1.00  0.00     0.004 C 
ENDBRANCH  10  11
ENDBRANCH   9  10
ENDBRANCH   8   9
ENDBRANCH   7   8
ENDBRANCH   6   7
ENDBRANCH   5   6
ENDBRANCH   4   5
ENDBRANCH   3   4
ENDBRANCH   2   3
ENDBRANCH   1   2
BRANCH   1  13
ATOM     13  C   UNL     1      22.439 -21.893  26.877  1.00  0.00     0.000 C 
BRANCH  13  14
ATOM     14  C   UNL     1      23.360 -21.983  28.111  1.00  0.00     0.000 C 
BRANCH  14  15
ATOM     15  C   UNL     1      24.671 -22.761  27.895  1.00  0.00     0.000 C 
BRANCH  15  16
ATOM     16  C   UNL     1      25.585 -22.108  26.847  1.00  0.00     0.000 C 
BRANCH  16  17
ATOM     17  C   UNL     1      26.916 -22.866  26.734  1.00  0.00     0.000 C 
BRANCH  17  18
ATOM     18  C   UNL     1      27.208 -23.335  25.300  1.00  0.00     0.000 C 
BRANCH  18  19
ATOM     19  C   UNL     1      25.927 -23.605  24.495  1.00  0.00     0.000 C 
BRANCH  19  20
ATOM     20  C   UNL     1      25.556 -22.392  23.629  1.00  0.00     0.006 C 
BRANCH  20  21
ATOM     21  C   UNL     1      24.073 -22.016  23.761  1.00  0.00     0.053 C 
BRANCH  21  22
ATOM     22  C   UNL     1      23.859 -20.539  23.622  1.00  0.00     0.041 C 
ATOM     23  O   UNL     1      23.053 -20.095  22.764  1.00  0.00    -0.550 OA
ATOM     24  O   UNL     1      24.576 -19.654  24.419  1.00  0.00    -0.550 OA
ENDBRANCH  21  22
ENDBRANCH  20  21
ENDBRANCH  19  20
ENDBRANCH  18  19
ENDBRANCH  17  18
ENDBRANCH  16  17
ENDBRANCH  15  16
ENDBRANCH  14  15
ENDBRANCH  13  14
ENDBRANCH   1  13
TORSDOF 20
ENDMDL
MODEL 8
REMARK VINA RESULT:    13.405      1.504      2.417
REMARK INTER + INTRA:          27.927
REMARK INTER:                  29.188
REMARK INTRA:                  -1.261
REMARK UNBOUND:                -1.152
REMARK SMILES CCCCCCCCCCCCCCCCCCCCCC(=O)[O-]
REMARK SMILES IDX 12 1 11 2 10 3 9 4 8 5 7 6 6 7 5 8 4 9 3 10 2 11 1 12 13 13
REMARK SMILES IDX 14 14 15 15 16 16 17 17 18 18 19 19 20 20 21 21 22 22 23 23
REMARK SMILES IDX 24 24
REMARK H PARENT
REMARK Flexibility Score: inf
ROOT
ATOM      1  C   UNL     1      19.885 -18.883  26.902  1.00  0.00     0.000 C 
ENDROOT
BRANCH   1   2
ATOM      2  C   UNL     1      18.632 -19.560  26.322  1.00  0.00     0.000 C 
BRANCH   2   3
ATOM      3  C   UNL     1      17.810 -18.622  25.420  1.00  0.00     0.000 C 
BRANCH   3   4
ATOM      4  C   UNL     1      17.196 -19.286  24.170  1.00  0.00    -0.000 C 
BRANCH   4   5
ATOM      5  C   UNL     1      18.198 -19.638  23.052  1.00  0.00    -0.000 C 
BRANCH   5   6
ATOM      6  C   UNL     1      17.645 -20.554  21.946  1.00  0.00    -0.000 C 
BRANCH   6   7
ATOM      7  C   UNL     1      16.347 -21.270  22.360  1.00  0.00    -0.000 C 
BRANCH   7   8
ATOM      8  C   UNL     1      16.445 -22.797  22.205  1.00  0.00    -0.000 C 
BRANCH   8   9
ATOM      9  C   UNL     1      17.838 -23.256  21.736  1.00  0.00    -0.000 C 
BRANCH   9  10
ATOM     10  C   UNL     1      17.755 -24.353  20.654  1.00  0.00    -0.000 C 
BRANCH  10  11
ATOM     11  C   UNL     1      18.514 -24.002  19.363  1.00  0.00    -0.003 C 
ATOM     12  C   UNL     1      18.505 -22.507  19.049  1.00  0.00     0.004 C 
ENDBRANCH  10  11
ENDBRANCH   9  10
ENDBRANCH   8   9
ENDBRANCH   7   8
ENDBRANCH   6   7
ENDBRANCH   5   6
ENDBRANCH   4   5
ENDBRANCH   3   4
ENDBRANCH   2   3
ENDBRANCH   1   2
BRANCH   1  13
ATOM     13  C   UNL     1      21.188 -19.605  26.514  1.00  0.00     0.000 C 
BRANCH  13  14
ATOM     14  C   UNL     1      21.007 -20.890  25.681  1.00  0.00     0.000 C 
BRANCH  14  15
ATOM     15  C   UNL     1      21.897 -22.074  26.100  1.00  0.00     0.000 C 
BRANCH  15  16
ATOM     16  C   UNL     1      23.318 -21.641  26.494  1.00  0.00     0.000 C 
BRANCH  16  17
ATOM     17  C   UNL     1      23.782 -22.373  27.762  1.00  0.00     0.000 C 
BRANCH  17  18
ATOM     18  C   UNL     1      25.306 -22.570  27.806  1.00  0.00     0.000 C 
BRANCH  18  19
ATOM     19  C   UNL     1      26.001 -22.076  26.528  1.00  0.00     0.000 C 
BRANCH  19  20
ATOM     20  C   UNL     1      26.048 -23.184  25.465  1.00  0.00     0.006 C 
BRANCH  20  21
ATOM     21  C   UNL     1      25.991 -22.622  24.037  1.00  0.00     0.053 C 
BRANCH  21  22
ATOM     22  C   UNL     1      24.592 -22.274  23.631  1.00  0.00     0.041 C 
ATOM     23  O   UNL     1      23.807 -23.173  23.232  1.00  0.00    -0.550 OA
ATOM     24  O   UNL     1      24.167 -20.951  23.663  1.00  0.00    -0.550 OA
ENDBRANCH  21  22
ENDBRANCH  20  21
ENDBRANCH  19  20
ENDBRANCH  18  19
ENDBRANCH  17  18
ENDBRANCH  16  17
ENDBRANCH  15  16
ENDBRANCH  14  15
ENDBRANCH  13  14
ENDBRANCH   1  13
TORSDOF 20
ENDMDL
