MODEL 1
REMARK VINA RESULT:    -3.043      0.000      0.000
REMARK INTER + INTRA:          -3.355
REMARK INTER:                  -3.310
REMARK INTRA:                  -0.045
REMARK UNBOUND:                -0.045
REMARK SMILES COc1cc2ccc(=O)oc2cc1O
REMARK SMILES IDX 3 1 13 2 12 3 11 4 5 5 4 6 6 7 7 8 8 9 9 10 10 11 2 12 1 13
REMARK SMILES IDX 14 14
REMARK H PARENT 14 15
REMARK Flexibility Score: inf
ROOT
ATOM      1  C   UNL     1      -0.056  27.125  33.359  1.00  0.00     0.161 A 
ATOM      2  C   UNL     1       0.058  28.503  33.116  1.00  0.00     0.161 A 
ATOM      3  C   UNL     1       0.110  28.989  31.801  1.00  0.00     0.098 A 
ATOM      4  C   UNL     1       0.050  28.106  30.721  1.00  0.00     0.142 A 
ATOM      5  C   UNL     1      -0.065  26.719  30.956  1.00  0.00     0.022 A 
ATOM      6  C   UNL     1      -0.118  26.232  32.269  1.00  0.00     0.062 A 
ATOM      7  C   UNL     1      -0.125  25.860  29.853  1.00  0.00     0.019 A 
ATOM      8  C   UNL     1      -0.069  26.392  28.566  1.00  0.00     0.094 A 
ATOM      9  C   UNL     1       0.045  27.777  28.410  1.00  0.00     0.336 A 
ATOM     10  O   UNL     1       0.098  28.278  27.256  1.00  0.00    -0.246 OA
ATOM     11  O   UNL     1       0.100  28.573  29.476  1.00  0.00    -0.423 OA
ENDROOT
BRANCH   1  12
ATOM     12  O   UNL     1      -0.105  26.683  34.690  1.00  0.00    -0.493 OA
ATOM     13  C   UNL     1      -0.124  25.316  35.086  1.00  0.00     0.278 C 
ENDBRANCH   1  12
BRANCH   2  14
ATOM     14  O   UNL     1       0.120  29.387  34.192  1.00  0.00    -0.504 OA
ATOM     15  H   UNL     1       0.870  29.344  34.872  1.00  0.00     0.293 HD
ENDBRANCH   2  14
TORSDOF 2
ENDMDL
MODEL 2
REMARK VINA RESULT:    -2.978      1.544      4.563
REMARK INTER + INTRA:          -3.285
REMARK INTER:                  -3.240
REMARK INTRA:                  -0.045
REMARK UNBOUND:                -0.045
REMARK SMILES COc1cc2ccc(=O)oc2cc1O
REMARK SMILES IDX 3 1 13 2 12 3 11 4 5 5 4 6 6 7 7 8 8 9 9 10 10 11 2 12 1 13
REMARK SMILES IDX 14 14
REMARK H PARENT 14 15
REMARK Flexibility Score: inf
ROOT
ATOM      1  C   UNL     1      -0.098  26.340  30.322  1.00  0.00     0.161 A 
ATOM      2  C   UNL     1      -0.109  27.610  29.723  1.00  0.00     0.161 A 
ATOM      3  C   UNL     1      -0.116  28.767  30.516  1.00  0.00     0.098 A 
ATOM      4  C   UNL     1      -0.112  28.667  31.909  1.00  0.00     0.142 A 
ATOM      5  C   UNL     1      -0.101  27.394  32.519  1.00  0.00     0.022 A 
ATOM      6  C   UNL     1      -0.093  26.237  31.728  1.00  0.00     0.062 A 
ATOM      7  C   UNL     1      -0.096  27.326  33.916  1.00  0.00     0.019 A 
ATOM      8  C   UNL     1      -0.104  28.505  34.660  1.00  0.00     0.094 A 
ATOM      9  C   UNL     1      -0.115  29.731  33.986  1.00  0.00     0.336 A 
ATOM     10  O   UNL     1      -0.122  30.807  34.639  1.00  0.00    -0.246 OA
ATOM     11  O   UNL     1      -0.119  29.768  32.656  1.00  0.00    -0.423 OA
ENDROOT
BRANCH   1  12
ATOM     12  O   UNL     1      -0.092  25.210  29.489  1.00  0.00    -0.493 OA
ATOM     13  C   UNL     1      -0.059  23.866  29.956  1.00  0.00     0.278 C 
ENDBRANCH   1  12
BRANCH   2  14
ATOM     14  O   UNL     1      -0.114  27.714  28.333  1.00  0.00    -0.504 OA
ATOM     15  H   UNL     1      -0.930  27.469  27.785  1.00  0.00     0.293 HD
ENDBRANCH   2  14
TORSDOF 2
ENDMDL
MODEL 3
REMARK VINA RESULT:    -2.352      1.397      5.407
REMARK INTER + INTRA:          -2.603
REMARK INTER:                  -2.638
REMARK INTRA:                   0.035
REMARK UNBOUND:                -0.045
REMARK SMILES COc1cc2ccc(=O)oc2cc1O
REMARK SMILES IDX 3 1 13 2 12 3 11 4 5 5 4 6 6 7 7 8 8 9 9 10 10 11 2 12 1 13
REMARK SMILES IDX 14 14
REMARK H PARENT 14 15
REMARK Flexibility Score: inf
ROOT
ATOM      1  C   UNL     1       0.662  27.308  29.221  1.00  0.00     0.161 A 
ATOM      2  C   UNL     1       0.138  26.028  29.467  1.00  0.00     0.161 A 
ATOM      3  C   UNL     1      -0.119  25.609  30.780  1.00  0.00     0.098 A 
ATOM      4  C   UNL     1       0.144  26.460  31.856  1.00  0.00     0.142 A 
ATOM      5  C   UNL     1       0.670  27.748  31.618  1.00  0.00     0.022 A 
ATOM      6  C   UNL     1       0.928  28.168  30.305  1.00  0.00     0.062 A 
ATOM      7  C   UNL     1       0.922  28.577  32.715  1.00  0.00     0.019 A 
ATOM      8  C   UNL     1       0.650  28.114  34.001  1.00  0.00     0.094 A 
ATOM      9  C   UNL     1       0.128  26.826  34.161  1.00  0.00     0.336 A 
ATOM     10  O   UNL     1      -0.125  26.388  35.314  1.00  0.00    -0.246 OA
ATOM     11  O   UNL     1      -0.103  26.056  33.100  1.00  0.00    -0.423 OA
ENDROOT
BRANCH   1  12
ATOM     12  O   UNL     1       0.905  27.685  27.890  1.00  0.00    -0.493 OA
ATOM     13  C   UNL     1      -0.097  28.136  26.985  1.00  0.00     0.278 C 
ENDBRANCH   1  12
BRANCH   2  14
ATOM     14  O   UNL     1      -0.125  25.176  28.395  1.00  0.00    -0.504 OA
ATOM     15  H   UNL     1      -0.759  24.392  28.484  1.00  0.00     0.293 HD
ENDBRANCH   2  14
TORSDOF 2
ENDMDL
