MODEL 1
REMARK VINA RESULT:    -2.050      0.000      0.000
REMARK INTER + INTRA:          -5.713
REMARK INTER:                  -3.848
REMARK INTRA:                  -1.865
REMARK UNBOUND:                -1.865
REMARK SMILES O=C([O-])CCCCCCCCCCCCCCC(=O)[O-]
REMARK SMILES IDX 10 1 9 2 8 3 7 4 6 5 5 6 4 7 2 8 1 9 3 10 11 11 12 12 13 13
REMARK SMILES IDX 14 14 15 15 16 16 17 17 18 18 19 19 20 20
REMARK H PARENT
REMARK Flexibility Score: inf
ROOT
ATOM      1  C   UNL     1     113.867  13.334  26.218  1.00  0.00     0.000 C 
ENDROOT
BRANCH   1   2
ATOM      2  C   UNL     1     114.482  12.322  25.239  1.00  0.00     0.000 C 
BRANCH   2   3
ATOM      3  C   UNL     1     115.983  12.563  25.012  1.00  0.00     0.000 C 
BRANCH   3   4
ATOM      4  C   UNL     1     116.211  13.707  24.017  1.00  0.00     0.000 C 
BRANCH   4   5
ATOM      5  C   UNL     1     116.681  13.169  22.657  1.00  0.00     0.000 C 
BRANCH   5   6
ATOM      6  C   UNL     1     117.645  14.126  21.941  1.00  0.00     0.006 C 
BRANCH   6   7
ATOM      7  C   UNL     1     117.882  15.424  22.726  1.00  0.00     0.053 C 
BRANCH   7   8
ATOM      8  C   UNL     1     119.086  16.138  22.200  1.00  0.00     0.041 C 
ATOM      9  O   UNL     1     119.915  15.532  21.472  1.00  0.00    -0.550 OA
ATOM     10  O   UNL     1     119.267  17.489  22.473  1.00  0.00    -0.550 OA
ENDBRANCH   7   8
ENDBRANCH   6   7
ENDBRANCH   5   6
ENDBRANCH   4   5
ENDBRANCH   3   4
ENDBRANCH   2   3
ENDBRANCH   1   2
BRANCH   1  11
ATOM     11  C   UNL     1     113.364  12.673  27.513  1.00  0.00     0.000 C 
BRANCH  11  12
ATOM     12  C   UNL     1     114.202  13.092  28.740  1.00  0.00     0.000 C 
BRANCH  12  13
ATOM     13  C   UNL     1     115.530  12.326  28.870  1.00  0.00     0.000 C 
BRANCH  13  14
ATOM     14  C   UNL     1     116.744  13.258  29.020  1.00  0.00     0.000 C 
BRANCH  14  15
ATOM     15  C   UNL     1     116.390  14.733  28.771  1.00  0.00     0.000 C 
BRANCH  15  16
ATOM     16  C   UNL     1     116.860  15.230  27.393  1.00  0.00     0.006 C 
BRANCH  16  17
ATOM     17  C   UNL     1     118.216  15.946  27.469  1.00  0.00     0.053 C 
BRANCH  17  18
ATOM     18  C   UNL     1     118.535  16.674  26.200  1.00  0.00     0.041 C 
ATOM     19  O   UNL     1     117.662  17.393  25.646  1.00  0.00    -0.550 OA
ATOM     20  O   UNL     1     119.786  16.534  25.613  1.00  0.00    -0.550 OA
ENDBRANCH  17  18
ENDBRANCH  16  17
ENDBRANCH  15  16
ENDBRANCH  14  15
ENDBRANCH  13  14
ENDBRANCH  12  13
ENDBRANCH  11  12
ENDBRANCH   1  11
TORSDOF 15
ENDMDL
MODEL 2
REMARK VINA RESULT:    -2.028      1.576      4.778
REMARK INTER + INTRA:          -5.672
REMARK INTER:                  -3.303
REMARK INTRA:                  -2.369
REMARK UNBOUND:                -1.865
REMARK SMILES O=C([O-])CCCCCCCCCCCCCCC(=O)[O-]
REMARK SMILES IDX 10 1 9 2 8 3 7 4 6 5 5 6 4 7 2 8 1 9 3 10 11 11 12 12 13 13
REMARK SMILES IDX 14 14 15 15 16 16 17 17 18 18 19 19 20 20
REMARK H PARENT
REMARK Flexibility Score: inf
ROOT
ATOM      1  C   UNL     1     114.874  13.146  26.552  1.00  0.00     0.000 C 
ENDROOT
BRANCH   1   2
ATOM      2  C   UNL     1     115.546  13.623  27.849  1.00  0.00     0.000 C 
BRANCH   2   3
ATOM      3  C   UNL     1     115.070  15.020  28.278  1.00  0.00     0.000 C 
BRANCH   3   4
ATOM      4  C   UNL     1     116.251  15.989  28.405  1.00  0.00     0.000 C 
BRANCH   4   5
ATOM      5  C   UNL     1     117.588  15.246  28.276  1.00  0.00     0.000 C 
BRANCH   5   6
ATOM      6  C   UNL     1     118.772  16.193  28.033  1.00  0.00     0.006 C 
BRANCH   6   7
ATOM      7  C   UNL     1     118.950  16.550  26.551  1.00  0.00     0.053 C 
BRANCH   7   8
ATOM      8  C   UNL     1     119.110  18.028  26.385  1.00  0.00     0.041 C 
ATOM      9  O   UNL     1     120.152  18.497  25.858  1.00  0.00    -0.550 OA
ATOM     10  O   UNL     1     118.086  18.885  26.767  1.00  0.00    -0.550 OA
ENDBRANCH   7   8
ENDBRANCH   6   7
ENDBRANCH   5   6
ENDBRANCH   4   5
ENDBRANCH   3   4
ENDBRANCH   2   3
ENDBRANCH   1   2
BRANCH   1  11
ATOM     11  C   UNL     1     115.884  12.912  25.415  1.00  0.00     0.000 C 
BRANCH  11  12
ATOM     12  C   UNL     1     116.468  14.235  24.877  1.00  0.00     0.000 C 
BRANCH  12  13
ATOM     13  C   UNL     1     115.396  15.271  24.495  1.00  0.00     0.000 C 
BRANCH  13  14
ATOM     14  C   UNL     1     115.875  16.720  24.679  1.00  0.00     0.000 C 
BRANCH  14  15
ATOM     15  C   UNL     1     116.257  17.389  23.348  1.00  0.00     0.000 C 
BRANCH  15  16
ATOM     16  C   UNL     1     117.768  17.325  23.067  1.00  0.00     0.006 C 
BRANCH  16  17
ATOM     17  C   UNL     1     118.131  16.177  22.115  1.00  0.00     0.053 C 
BRANCH  17  18
ATOM     18  C   UNL     1     119.605  15.910  22.097  1.00  0.00     0.041 C 
ATOM     19  O   UNL     1     120.148  15.432  21.067  1.00  0.00    -0.550 OA
ATOM     20  O   UNL     1     120.371  16.161  23.227  1.00  0.00    -0.550 OA
ENDBRANCH  17  18
ENDBRANCH  16  17
ENDBRANCH  15  16
ENDBRANCH  14  15
ENDBRANCH  13  14
ENDBRANCH  12  13
ENDBRANCH  11  12
ENDBRANCH   1  11
TORSDOF 15
ENDMDL
MODEL 3
REMARK VINA RESULT:    -2.021      1.705      2.784
REMARK INTER + INTRA:          -5.658
REMARK INTER:                  -3.928
REMARK INTRA:                  -1.730
REMARK UNBOUND:                -1.865
REMARK SMILES O=C([O-])CCCCCCCCCCCCCCC(=O)[O-]
REMARK SMILES IDX 10 1 9 2 8 3 7 4 6 5 5 6 4 7 2 8 1 9 3 10 11 11 12 12 13 13
REMARK SMILES IDX 14 14 15 15 16 16 17 17 18 18 19 19 20 20
REMARK H PARENT
REMARK Flexibility Score: inf
ROOT
ATOM      1  C   UNL     1     115.057  13.633  27.292  1.00  0.00     0.000 C 
ENDROOT
BRANCH   1   2
ATOM      2  C   UNL     1     115.137  12.674  26.094  1.00  0.00     0.000 C 
BRANCH   2   3
ATOM      3  C   UNL     1     116.166  13.126  25.047  1.00  0.00     0.000 C 
BRANCH   3   4
ATOM      4  C   UNL     1     116.554  11.968  24.121  1.00  0.00     0.000 C 
BRANCH   4   5
ATOM      5  C   UNL     1     115.821  12.071  22.775  1.00  0.00     0.000 C 
BRANCH   5   6
ATOM      6  C   UNL     1     116.781  12.255  21.590  1.00  0.00     0.006 C 
BRANCH   6   7
ATOM      7  C   UNL     1     117.403  13.657  21.544  1.00  0.00     0.053 C 
BRANCH   7   8
ATOM      8  C   UNL     1     116.506  14.603  20.812  1.00  0.00     0.041 C 
ATOM      9  O   UNL     1     116.295  14.451  19.580  1.00  0.00    -0.550 OA
ATOM     10  O   UNL     1     115.860  15.623  21.500  1.00  0.00    -0.550 OA
ENDBRANCH   7   8
ENDBRANCH   6   7
ENDBRANCH   5   6
ENDBRANCH   4   5
ENDBRANCH   3   4
ENDBRANCH   2   3
ENDBRANCH   1   2
BRANCH   1  11
ATOM     11  C   UNL     1     115.646  13.025  28.577  1.00  0.00     0.000 C 
BRANCH  11  12
ATOM     12  C   UNL     1     117.015  13.641  28.934  1.00  0.00     0.000 C 
BRANCH  12  13
ATOM     13  C   UNL     1     117.028  15.179  28.894  1.00  0.00     0.000 C 
BRANCH  13  14
ATOM     14  C   UNL     1     118.131  15.743  27.984  1.00  0.00     0.000 C 
BRANCH  14  15
ATOM     15  C   UNL     1     117.583  16.261  26.644  1.00  0.00     0.000 C 
BRANCH  15  16
ATOM     16  C   UNL     1     118.673  16.377  25.564  1.00  0.00     0.006 C 
BRANCH  16  17
ATOM     17  C   UNL     1     118.101  16.237  24.147  1.00  0.00     0.053 C 
BRANCH  17  18
ATOM     18  C   UNL     1     119.107  16.601  23.099  1.00  0.00     0.041 C 
ATOM     19  O   UNL     1     118.757  17.266  22.089  1.00  0.00    -0.550 OA
ATOM     20  O   UNL     1     120.425  16.180  23.223  1.00  0.00    -0.550 OA
ENDBRANCH  17  18
ENDBRANCH  16  17
ENDBRANCH  15  16
ENDBRANCH  14  15
ENDBRANCH  13  14
ENDBRANCH  12  13
ENDBRANCH  11  12
ENDBRANCH   1  11
TORSDOF 15
ENDMDL
MODEL 4
REMARK VINA RESULT:    -2.007      2.024      3.319
REMARK INTER + INTRA:          -5.631
REMARK INTER:                  -3.336
REMARK INTRA:                  -2.295
REMARK UNBOUND:                -1.865
REMARK SMILES O=C([O-])CCCCCCCCCCCCCCC(=O)[O-]
REMARK SMILES IDX 10 1 9 2 8 3 7 4 6 5 5 6 4 7 2 8 1 9 3 10 11 11 12 12 13 13
REMARK SMILES IDX 14 14 15 15 16 16 17 17 18 18 19 19 20 20
REMARK H PARENT
REMARK Flexibility Score: inf
ROOT
ATOM      1  C   UNL     1     115.345  14.763  26.849  1.00  0.00     0.000 C 
ENDROOT
BRANCH   1   2
ATOM      2  C   UNL     1     116.256  13.848  26.015  1.00  0.00     0.000 C 
BRANCH   2   3
ATOM      3  C   UNL     1     115.483  12.697  25.353  1.00  0.00     0.000 C 
BRANCH   3   4
ATOM      4  C   UNL     1     116.204  12.204  24.093  1.00  0.00     0.000 C 
BRANCH   4   5
ATOM      5  C   UNL     1     116.686  13.385  23.237  1.00  0.00     0.000 C 
BRANCH   5   6
ATOM      6  C   UNL     1     115.556  14.022  22.415  1.00  0.00     0.006 C 
BRANCH   6   7
ATOM      7  C   UNL     1     115.494  15.547  22.577  1.00  0.00     0.053 C 
BRANCH   7   8
ATOM      8  C   UNL     1     114.410  15.927  23.535  1.00  0.00     0.041 C 
ATOM      9  O   UNL     1     113.425  15.163  23.713  1.00  0.00    -0.550 OA
ATOM     10  O   UNL     1     114.513  17.101  24.271  1.00  0.00    -0.550 OA
ENDBRANCH   7   8
ENDBRANCH   6   7
ENDBRANCH   5   6
ENDBRANCH   4   5
ENDBRANCH   3   4
ENDBRANCH   2   3
ENDBRANCH   1   2
BRANCH   1  11
ATOM     11  C   UNL     1     115.688  14.730  28.349  1.00  0.00     0.000 C 
BRANCH  11  12
ATOM     12  C   UNL     1     117.171  14.382  28.596  1.00  0.00     0.000 C 
BRANCH  12  13
ATOM     13  C   UNL     1     118.024  15.587  29.029  1.00  0.00     0.000 C 
BRANCH  13  14
ATOM     14  C   UNL     1     118.767  16.244  27.855  1.00  0.00     0.000 C 
BRANCH  14  15
ATOM     15  C   UNL     1     118.020  17.465  27.292  1.00  0.00     0.000 C 
BRANCH  15  16
ATOM     16  C   UNL     1     117.892  17.424  25.759  1.00  0.00     0.006 C 
BRANCH  16  17
ATOM     17  C   UNL     1     118.697  16.271  25.143  1.00  0.00     0.053 C 
BRANCH  17  18
ATOM     18  C   UNL     1     119.911  16.763  24.417  1.00  0.00     0.041 C 
ATOM     19  O   UNL     1     120.607  17.693  24.905  1.00  0.00    -0.550 OA
ATOM     20  O   UNL     1     120.257  16.217  23.188  1.00  0.00    -0.550 OA
ENDBRANCH  17  18
ENDBRANCH  16  17
ENDBRANCH  15  16
ENDBRANCH  14  15
ENDBRANCH  13  14
ENDBRANCH  12  13
ENDBRANCH  11  12
ENDBRANCH   1  11
TORSDOF 15
ENDMDL
MODEL 5
REMARK VINA RESULT:    -1.997      2.458      5.055
REMARK INTER + INTRA:          -5.613
REMARK INTER:                  -3.429
REMARK INTRA:                  -2.184
REMARK UNBOUND:                -1.865
REMARK SMILES O=C([O-])CCCCCCCCCCCCCCC(=O)[O-]
REMARK SMILES IDX 10 1 9 2 8 3 7 4 6 5 5 6 4 7 2 8 1 9 3 10 11 11 12 12 13 13
REMARK SMILES IDX 14 14 15 15 16 16 17 17 18 18 19 19 20 20
REMARK H PARENT
REMARK Flexibility Score: inf
ROOT
ATOM      1  C   UNL     1     115.071  15.801  22.293  1.00  0.00     0.000 C 
ENDROOT
BRANCH   1   2
ATOM      2  C   UNL     1     116.037  15.383  21.174  1.00  0.00     0.000 C 
BRANCH   2   3
ATOM      3  C   UNL     1     117.489  15.268  21.664  1.00  0.00     0.000 C 
BRANCH   3   4
ATOM      4  C   UNL     1     117.645  15.870  23.065  1.00  0.00     0.000 C 
BRANCH   4   5
ATOM      5  C   UNL     1     119.104  16.270  23.332  1.00  0.00     0.000 C 
BRANCH   5   6
ATOM      6  C   UNL     1     119.282  17.005  24.669  1.00  0.00     0.006 C 
BRANCH   6   7
ATOM      7  C   UNL     1     118.518  16.335  25.819  1.00  0.00     0.053 C 
BRANCH   7   8
ATOM      8  C   UNL     1     118.950  16.903  27.133  1.00  0.00     0.041 C 
ATOM      9  O   UNL     1     119.312  18.106  27.215  1.00  0.00    -0.550 OA
ATOM     10  O   UNL     1     118.904  16.119  28.279  1.00  0.00    -0.550 OA
ENDBRANCH   7   8
ENDBRANCH   6   7
ENDBRANCH   5   6
ENDBRANCH   4   5
ENDBRANCH   3   4
ENDBRANCH   2   3
ENDBRANCH   1   2
BRANCH   1  11
ATOM     11  C   UNL     1     113.984  14.744  22.562  1.00  0.00     0.000 C 
BRANCH  11  12
ATOM     12  C   UNL     1     114.193  13.471  21.715  1.00  0.00     0.000 C 
BRANCH  12  13
ATOM     13  C   UNL     1     114.541  12.226  22.550  1.00  0.00     0.000 C 
BRANCH  13  14
ATOM     14  C   UNL     1     116.043  11.899  22.538  1.00  0.00     0.000 C 
BRANCH  14  15
ATOM     15  C   UNL     1     116.680  11.996  23.934  1.00  0.00     0.000 C 
BRANCH  15  16
ATOM     16  C   UNL     1     115.675  12.435  25.013  1.00  0.00     0.006 C 
BRANCH  16  17
ATOM     17  C   UNL     1     116.009  13.821  25.583  1.00  0.00     0.053 C 
BRANCH  17  18
ATOM     18  C   UNL     1     115.685  13.917  27.043  1.00  0.00     0.041 C 
ATOM     19  O   UNL     1     114.521  14.221  27.414  1.00  0.00    -0.550 OA
ATOM     20  O   UNL     1     116.676  13.700  27.991  1.00  0.00    -0.550 OA
ENDBRANCH  17  18
ENDBRANCH  16  17
ENDBRANCH  15  16
ENDBRANCH  14  15
ENDBRANCH  13  14
ENDBRANCH  12  13
ENDBRANCH  11  12
ENDBRANCH   1  11
TORSDOF 15
ENDMDL
MODEL 6
REMARK VINA RESULT:    -1.973      1.171      4.822
REMARK INTER + INTRA:          -5.568
REMARK INTER:                  -3.917
REMARK INTRA:                  -1.652
REMARK UNBOUND:                -1.865
REMARK SMILES O=C([O-])CCCCCCCCCCCCCCC(=O)[O-]
REMARK SMILES IDX 10 1 9 2 8 3 7 4 6 5 5 6 4 7 2 8 1 9 3 10 11 11 12 12 13 13
REMARK SMILES IDX 14 14 15 15 16 16 17 17 18 18 19 19 20 20
REMARK H PARENT
REMARK Flexibility Score: inf
ROOT
ATOM      1  C   UNL     1     114.024  13.436  25.544  1.00  0.00     0.000 C 
ENDROOT
BRANCH   1   2
ATOM      2  C   UNL     1     113.639  13.423  27.031  1.00  0.00     0.000 C 
BRANCH   2   3
ATOM      3  C   UNL     1     113.985  12.091  27.716  1.00  0.00     0.000 C 
BRANCH   3   4
ATOM      4  C   UNL     1     115.283  12.209  28.522  1.00  0.00     0.000 C 
BRANCH   4   5
ATOM      5  C   UNL     1     115.612  13.679  28.824  1.00  0.00     0.000 C 
BRANCH   5   6
ATOM      6  C   UNL     1     117.026  14.075  28.376  1.00  0.00     0.006 C 
BRANCH   6   7
ATOM      7  C   UNL     1     117.021  15.160  27.290  1.00  0.00     0.053 C 
BRANCH   7   8
ATOM      8  C   UNL     1     117.955  16.269  27.657  1.00  0.00     0.041 C 
ATOM      9  O   UNL     1     118.928  16.050  28.426  1.00  0.00    -0.550 OA
ATOM     10  O   UNL     1     117.782  17.534  27.109  1.00  0.00    -0.550 OA
ENDBRANCH   7   8
ENDBRANCH   6   7
ENDBRANCH   5   6
ENDBRANCH   4   5
ENDBRANCH   3   4
ENDBRANCH   2   3
ENDBRANCH   1   2
BRANCH   1  11
ATOM     11  C   UNL     1     114.224  12.021  24.972  1.00  0.00     0.000 C 
BRANCH  11  12
ATOM     12  C   UNL     1     115.578  11.876  24.246  1.00  0.00     0.000 C 
BRANCH  12  13
ATOM     13  C   UNL     1     116.501  13.095  24.413  1.00  0.00     0.000 C 
BRANCH  13  14
ATOM     14  C   UNL     1     116.761  13.833  23.090  1.00  0.00     0.000 C 
BRANCH  14  15
ATOM     15  C   UNL     1     117.341  15.241  23.302  1.00  0.00     0.000 C 
BRANCH  15  16
ATOM     16  C   UNL     1     117.957  15.826  22.020  1.00  0.00     0.006 C 
BRANCH  16  17
ATOM     17  C   UNL     1     119.478  15.627  21.967  1.00  0.00     0.053 C 
BRANCH  17  18
ATOM     18  C   UNL     1     120.203  16.634  22.806  1.00  0.00     0.041 C 
ATOM     19  O   UNL     1     120.343  17.816  22.396  1.00  0.00    -0.550 OA
ATOM     20  O   UNL     1     120.751  16.259  24.026  1.00  0.00    -0.550 OA
ENDBRANCH  17  18
ENDBRANCH  16  17
ENDBRANCH  15  16
ENDBRANCH  14  15
ENDBRANCH  13  14
ENDBRANCH  12  13
ENDBRANCH  11  12
ENDBRANCH   1  11
TORSDOF 15
ENDMDL
MODEL 7
REMARK VINA RESULT:    -1.967      2.474      5.642
REMARK INTER + INTRA:          -5.557
REMARK INTER:                  -2.909
REMARK INTRA:                  -2.648
REMARK UNBOUND:                -1.865
REMARK SMILES O=C([O-])CCCCCCCCCCCCCCC(=O)[O-]
REMARK SMILES IDX 10 1 9 2 8 3 7 4 6 5 5 6 4 7 2 8 1 9 3 10 11 11 12 12 13 13
REMARK SMILES IDX 14 14 15 15 16 16 17 17 18 18 19 19 20 20
REMARK H PARENT
REMARK Flexibility Score: inf
ROOT
ATOM      1  C   UNL     1     115.899  15.876  21.388  1.00  0.00     0.000 C 
ENDROOT
BRANCH   1   2
ATOM      2  C   UNL     1     115.959  14.363  21.125  1.00  0.00     0.000 C 
BRANCH   2   3
ATOM      3  C   UNL     1     117.246  13.723  21.669  1.00  0.00     0.000 C 
BRANCH   3   4
ATOM      4  C   UNL     1     116.924  12.607  22.670  1.00  0.00     0.000 C 
BRANCH   4   5
ATOM      5  C   UNL     1     115.412  12.511  22.920  1.00  0.00     0.000 C 
BRANCH   5   6
ATOM      6  C   UNL     1     115.022  12.898  24.354  1.00  0.00     0.006 C 
BRANCH   6   7
ATOM      7  C   UNL     1     116.241  13.187  25.241  1.00  0.00     0.053 C 
BRANCH   7   8
ATOM      8  C   UNL     1     115.859  14.083  26.376  1.00  0.00     0.041 C 
ATOM      9  O   UNL     1     114.776  14.724  26.341  1.00  0.00    -0.550 OA
ATOM     10  O   UNL     1     116.676  14.172  27.497  1.00  0.00    -0.550 OA
ENDBRANCH   7   8
ENDBRANCH   6   7
ENDBRANCH   5   6
ENDBRANCH   4   5
ENDBRANCH   3   4
ENDBRANCH   2   3
ENDBRANCH   1   2
BRANCH   1  11
ATOM     11  C   UNL     1     115.533  16.208  22.845  1.00  0.00     0.000 C 
BRANCH  11  12
ATOM     12  C   UNL     1     116.313  17.430  23.374  1.00  0.00     0.000 C 
BRANCH  12  13
ATOM     13  C   UNL     1     117.065  17.159  24.689  1.00  0.00     0.000 C 
BRANCH  13  14
ATOM     14  C   UNL     1     118.244  16.188  24.513  1.00  0.00     0.000 C 
BRANCH  14  15
ATOM     15  C   UNL     1     119.467  16.857  23.864  1.00  0.00     0.000 C 
BRANCH  15  16
ATOM     16  C   UNL     1     119.968  16.097  22.624  1.00  0.00     0.006 C 
BRANCH  16  17
ATOM     17  C   UNL     1     119.499  16.751  21.317  1.00  0.00     0.053 C 
BRANCH  17  18
ATOM     18  C   UNL     1     119.750  15.871  20.131  1.00  0.00     0.041 C 
ATOM     19  O   UNL     1     120.846  15.263  20.015  1.00  0.00    -0.550 OA
ATOM     20  O   UNL     1     118.786  15.748  19.139  1.00  0.00    -0.550 OA
ENDBRANCH  17  18
ENDBRANCH  16  17
ENDBRANCH  15  16
ENDBRANCH  14  15
ENDBRANCH  13  14
ENDBRANCH  12  13
ENDBRANCH  11  12
ENDBRANCH   1  11
TORSDOF 15
ENDMDL
MODEL 8
REMARK VINA RESULT:    -1.956      2.424      5.913
REMARK INTER + INTRA:          -5.537
REMARK INTER:                  -2.902
REMARK INTRA:                  -2.634
REMARK UNBOUND:                -1.865
REMARK SMILES O=C([O-])CCCCCCCCCCCCCCC(=O)[O-]
REMARK SMILES IDX 10 1 9 2 8 3 7 4 6 5 5 6 4 7 2 8 1 9 3 10 11 11 12 12 13 13
REMARK SMILES IDX 14 14 15 15 16 16 17 17 18 18 19 19 20 20
REMARK H PARENT
REMARK Flexibility Score: inf
ROOT
ATOM      1  C   UNL     1     114.520  15.564  20.547  1.00  0.00     0.000 C 
ENDROOT
BRANCH   1   2
ATOM      2  C   UNL     1     114.453  16.078  21.993  1.00  0.00     0.000 C 
BRANCH   2   3
ATOM      3  C   UNL     1     113.791  15.069  22.945  1.00  0.00     0.000 C 
BRANCH   3   4
ATOM      4  C   UNL     1     114.577  14.953  24.256  1.00  0.00     0.000 C 
BRANCH   4   5
ATOM      5  C   UNL     1     114.406  13.560  24.879  1.00  0.00     0.000 C 
BRANCH   5   6
ATOM      6  C   UNL     1     115.601  13.149  25.752  1.00  0.00     0.006 C 
BRANCH   6   7
ATOM      7  C   UNL     1     116.547  14.320  26.048  1.00  0.00     0.053 C 
BRANCH   7   8
ATOM      8  C   UNL     1     116.495  14.679  27.499  1.00  0.00     0.041 C 
ATOM      9  O   UNL     1     115.890  15.717  27.874  1.00  0.00    -0.550 OA
ATOM     10  O   UNL     1     117.071  13.838  28.444  1.00  0.00    -0.550 OA
ENDBRANCH   7   8
ENDBRANCH   6   7
ENDBRANCH   5   6
ENDBRANCH   4   5
ENDBRANCH   3   4
ENDBRANCH   2   3
ENDBRANCH   1   2
BRANCH   1  11
ATOM     11  C   UNL     1     113.749  14.246  20.351  1.00  0.00     0.000 C 
BRANCH  11  12
ATOM     12  C   UNL     1     114.544  13.231  19.503  1.00  0.00     0.000 C 
BRANCH  12  13
ATOM     13  C   UNL     1     115.951  12.937  20.052  1.00  0.00     0.000 C 
BRANCH  13  14
ATOM     14  C   UNL     1     115.927  12.370  21.481  1.00  0.00     0.000 C 
BRANCH  14  15
ATOM     15  C   UNL     1     117.055  12.937  22.359  1.00  0.00     0.000 C 
BRANCH  15  16
ATOM     16  C   UNL     1     117.735  14.165  21.729  1.00  0.00     0.006 C 
BRANCH  16  17
ATOM     17  C   UNL     1     117.994  15.274  22.757  1.00  0.00     0.053 C 
BRANCH  17  18
ATOM     18  C   UNL     1     119.187  16.104  22.396  1.00  0.00     0.041 C 
ATOM     19  O   UNL     1     120.040  15.664  21.580  1.00  0.00    -0.550 OA
ATOM     20  O   UNL     1     119.373  17.349  22.981  1.00  0.00    -0.550 OA
ENDBRANCH  17  18
ENDBRANCH  16  17
ENDBRANCH  15  16
ENDBRANCH  14  15
ENDBRANCH  13  14
ENDBRANCH  12  13
ENDBRANCH  11  12
ENDBRANCH   1  11
TORSDOF 15
ENDMDL
MODEL 9
REMARK VINA RESULT:    -1.950      2.908      4.754
REMARK INTER + INTRA:          -5.526
REMARK INTER:                  -3.329
REMARK INTRA:                  -2.196
REMARK UNBOUND:                -1.865
REMARK SMILES O=C([O-])CCCCCCCCCCCCCCC(=O)[O-]
REMARK SMILES IDX 10 1 9 2 8 3 7 4 6 5 5 6 4 7 2 8 1 9 3 10 11 11 12 12 13 13
REMARK SMILES IDX 14 14 15 15 16 16 17 17 18 18 19 19 20 20
REMARK H PARENT
REMARK Flexibility Score: inf
ROOT
ATOM      1  C   UNL     1     118.481  16.375  25.075  1.00  0.00     0.000 C 
ENDROOT
BRANCH   1   2
ATOM      2  C   UNL     1     117.655  15.974  23.843  1.00  0.00     0.000 C 
BRANCH   2   3
ATOM      3  C   UNL     1     116.144  16.149  24.067  1.00  0.00     0.000 C 
BRANCH   3   4
ATOM      4  C   UNL     1     115.433  16.510  22.758  1.00  0.00     0.000 C 
BRANCH   4   5
ATOM      5  C   UNL     1     114.734  15.282  22.155  1.00  0.00     0.000 C 
BRANCH   5   6
ATOM      6  C   UNL     1     114.578  14.134  23.163  1.00  0.00     0.006 C 
BRANCH   6   7
ATOM      7  C   UNL     1     114.991  12.775  22.581  1.00  0.00     0.053 C 
BRANCH   7   8
ATOM      8  C   UNL     1     116.447  12.526  22.820  1.00  0.00     0.041 C 
ATOM      9  O   UNL     1     116.821  11.878  23.832  1.00  0.00    -0.550 OA
ATOM     10  O   UNL     1     117.388  12.966  21.897  1.00  0.00    -0.550 OA
ENDBRANCH   7   8
ENDBRANCH   6   7
ENDBRANCH   5   6
ENDBRANCH   4   5
ENDBRANCH   3   4
ENDBRANCH   2   3
ENDBRANCH   1   2
BRANCH   1  11
ATOM     11  C   UNL     1     117.959  17.658  25.745  1.00  0.00     0.000 C 
BRANCH  11  12
ATOM     12  C   UNL     1     118.314  17.714  27.246  1.00  0.00     0.000 C 
BRANCH  12  13
ATOM     13  C   UNL     1     118.861  16.386  27.799  1.00  0.00     0.000 C 
BRANCH  13  14
ATOM     14  C   UNL     1     117.994  15.809  28.929  1.00  0.00     0.000 C 
BRANCH  14  15
ATOM     15  C   UNL     1     117.321  14.482  28.539  1.00  0.00     0.000 C 
BRANCH  15  16
ATOM     16  C   UNL     1     116.070  14.688  27.668  1.00  0.00     0.006 C 
BRANCH  16  17
ATOM     17  C   UNL     1     115.925  13.598  26.597  1.00  0.00     0.053 C 
BRANCH  17  18
ATOM     18  C   UNL     1     114.834  12.627  26.933  1.00  0.00     0.041 C 
ATOM     19  O   UNL     1     114.127  12.129  26.017  1.00  0.00    -0.550 OA
ATOM     20  O   UNL     1     114.579  12.296  28.257  1.00  0.00    -0.550 OA
ENDBRANCH  17  18
ENDBRANCH  16  17
ENDBRANCH  15  16
ENDBRANCH  14  15
ENDBRANCH  13  14
ENDBRANCH  12  13
ENDBRANCH  11  12
ENDBRANCH   1  11
TORSDOF 15
ENDMDL
