MODEL 1
REMARK VINA RESULT:    13.745      0.000      0.000
REMARK INTER + INTRA:          22.602
REMARK INTER:                  20.976
REMARK INTRA:                   1.626
REMARK UNBOUND:                 1.626
REMARK SMILES OC[C@H]1O[C@H](O[C@@]2(CO)O[C@H](CO)[C@@H](O)[C@H]2O)[C@@H](O)[C@H](O)[C@@H]1O
REMARK SMILES IDX 6 1 5 2 3 3 22 4 4 5 20 6 18 7 2 8 1 9 23 11 21 13 19 15
REMARK SMILES IDX 7 17 16 18 10 19 14 20 11 21 8 22 9 23 17 25 15 27 12 29
REMARK SMILES IDX 13 30
REMARK H PARENT 1 10 23 12 21 14 19 16 9 24 17 26 15 28 13 31
REMARK Flexibility Score: inf
ROOT
ATOM      1  O   UNL     1      77.154  -0.902  26.353  1.00  0.00    -0.313 OA
ENDROOT
BRANCH   1   2
ATOM      2  C   UNL     1      78.538  -0.586  26.233  1.00  0.00     0.285 C 
ATOM      3  C   UNL     1      79.141  -2.859  26.310  1.00  0.00     0.178 C 
ATOM      4  C   UNL     1      79.593  -2.882  24.830  1.00  0.00     0.177 C 
ATOM      5  O   UNL     1      79.339  -1.570  26.870  1.00  0.00    -0.341 OA
ATOM      6  C   UNL     1      78.829  -1.815  24.030  1.00  0.00     0.179 C 
ATOM      7  C   UNL     1      78.915  -0.449  24.745  1.00  0.00     0.202 C 
BRANCH   3   8
ATOM      8  C   UNL     1      79.938  -3.872  27.144  1.00  0.00     0.191 C 
BRANCH   8   9
ATOM      9  O   UNL     1      79.942  -5.127  26.518  1.00  0.00    -0.394 OA
ATOM     10  H   UNL     1      79.141  -5.613  26.849  1.00  0.00     0.210 HD
ENDBRANCH   8   9
ENDBRANCH   3   8
BRANCH   4  11
ATOM     11  O   UNL     1      79.350  -4.145  24.260  1.00  0.00    -0.387 OA
ATOM     12  H   UNL     1      78.369  -4.223  24.125  1.00  0.00     0.211 HD
ENDBRANCH   4  11
BRANCH   6  13
ATOM     13  O   UNL     1      77.485  -2.202  23.881  1.00  0.00    -0.387 OA
ATOM     14  H   UNL     1      77.491  -3.157  23.609  1.00  0.00     0.211 HD
ENDBRANCH   6  13
BRANCH   7  15
ATOM     15  O   UNL     1      80.221   0.060  24.648  1.00  0.00    -0.385 OA
ATOM     16  H   UNL     1      80.487   0.343  25.562  1.00  0.00     0.211 HD
ENDBRANCH   7  15
ENDBRANCH   1   2
BRANCH   1  17
ATOM     17  C   UNL     1      76.520  -0.342  27.501  1.00  0.00     0.224 C 
ATOM     18  C   UNL     1      77.305   0.925  27.922  1.00  0.00     0.208 C 
ATOM     19  O   UNL     1      76.549  -1.262  28.584  1.00  0.00    -0.337 OA
ATOM     20  C   UNL     1      77.377   0.806  29.429  1.00  0.00     0.180 C 
ATOM     21  C   UNL     1      77.299  -0.699  29.637  1.00  0.00     0.179 C 
BRANCH  17  22
ATOM     22  C   UNL     1      75.047   0.026  27.189  1.00  0.00     0.225 C 
BRANCH  22  23
ATOM     23  O   UNL     1      74.176  -0.617  28.079  1.00  0.00    -0.391 OA
ATOM     24  H   UNL     1      73.869   0.078  28.717  1.00  0.00     0.210 HD
ENDBRANCH  22  23
ENDBRANCH  17  22
BRANCH  18  25
ATOM     25  O   UNL     1      78.590   0.978  27.341  1.00  0.00    -0.385 OA
ATOM     26  H   UNL     1      78.692   1.857  26.887  1.00  0.00     0.211 HD
ENDBRANCH  18  25
BRANCH  20  27
ATOM     27  O   UNL     1      78.571   1.327  29.955  1.00  0.00    -0.387 OA
ATOM     28  H   UNL     1      78.544   1.157  30.932  1.00  0.00     0.211 HD
ENDBRANCH  20  27
BRANCH  21  29
ATOM     29  C   UNL     1      76.657  -1.055  30.983  1.00  0.00     0.191 C 
BRANCH  29  30
ATOM     30  O   UNL     1      77.640  -1.427  31.911  1.00  0.00    -0.394 OA
ATOM     31  H   UNL     1      78.233  -2.079  31.452  1.00  0.00     0.210 HD
ENDBRANCH  29  30
ENDBRANCH  21  29
ENDBRANCH   1  17
TORSDOF 13
ENDMDL
MODEL 2
REMARK VINA RESULT:    13.774      2.438      4.804
REMARK INTER + INTRA:          22.646
REMARK INTER:                  20.873
REMARK INTRA:                   1.774
REMARK UNBOUND:                 1.626
REMARK SMILES OC[C@H]1O[C@H](O[C@@]2(CO)O[C@H](CO)[C@@H](O)[C@H]2O)[C@@H](O)[C@H](O)[C@@H]1O
REMARK SMILES IDX 6 1 5 2 3 3 22 4 4 5 20 6 18 7 2 8 1 9 23 11 21 13 19 15
REMARK SMILES IDX 7 17 16 18 10 19 14 20 11 21 8 22 9 23 17 25 15 27 12 29
REMARK SMILES IDX 13 30
REMARK H PARENT 1 10 23 12 21 14 19 16 9 24 17 26 15 28 13 31
REMARK Flexibility Score: inf
ROOT
ATOM      1  O   UNL     1      79.572  -0.212  26.122  1.00  0.00    -0.313 OA
ENDROOT
BRANCH   1   2
ATOM      2  C   UNL     1      78.185  -0.504  26.256  1.00  0.00     0.285 C 
ATOM      3  C   UNL     1      77.953  -0.840  23.938  1.00  0.00     0.178 C 
ATOM      4  C   UNL     1      77.715  -2.361  24.092  1.00  0.00     0.177 C 
ATOM      5  O   UNL     1      77.474  -0.144  25.080  1.00  0.00    -0.341 OA
ATOM      6  C   UNL     1      78.397  -2.874  25.370  1.00  0.00     0.179 C 
ATOM      7  C   UNL     1      77.995  -1.999  26.577  1.00  0.00     0.202 C 
BRANCH   3   8
ATOM      8  C   UNL     1      77.226  -0.291  22.703  1.00  0.00     0.191 C 
BRANCH   8   9
ATOM      9  O   UNL     1      77.234  -1.238  21.668  1.00  0.00    -0.394 OA
ATOM     10  H   UNL     1      78.120  -1.168  21.225  1.00  0.00     0.210 HD
ENDBRANCH   8   9
ENDBRANCH   3   8
BRANCH   4  11
ATOM     11  O   UNL     1      78.234  -3.056  22.984  1.00  0.00    -0.387 OA
ATOM     12  H   UNL     1      79.176  -2.763  22.869  1.00  0.00     0.211 HD
ENDBRANCH   4  11
BRANCH   6  13
ATOM     13  O   UNL     1      79.793  -2.862  25.204  1.00  0.00    -0.387 OA
ATOM     14  H   UNL     1      80.160  -2.262  25.904  1.00  0.00     0.211 HD
ENDBRANCH   6  13
BRANCH   7  15
ATOM     15  O   UNL     1      76.648  -2.229  26.908  1.00  0.00    -0.385 OA
ATOM     16  H   UNL     1      76.645  -2.715  27.774  1.00  0.00     0.211 HD
ENDBRANCH   7  15
ENDBRANCH   1   2
BRANCH   1  17
ATOM     17  C   UNL     1      79.969   1.035  26.689  1.00  0.00     0.224 C 
ATOM     18  C   UNL     1      78.940   1.423  27.781  1.00  0.00     0.208 C 
ATOM     19  O   UNL     1      79.971   2.054  25.699  1.00  0.00    -0.337 OA
ATOM     20  C   UNL     1      78.718   2.900  27.540  1.00  0.00     0.180 C 
ATOM     21  C   UNL     1      79.021   3.035  26.056  1.00  0.00     0.179 C 
BRANCH  17  22
ATOM     22  C   UNL     1      81.386   0.929  27.308  1.00  0.00     0.225 C 
BRANCH  22  23
ATOM     23  O   UNL     1      82.297   1.728  26.602  1.00  0.00    -0.391 OA
ATOM     24  H   UNL     1      83.079   1.850  27.200  1.00  0.00     0.210 HD
ENDBRANCH  22  23
ENDBRANCH  17  22
BRANCH  18  25
ATOM     25  O   UNL     1      77.740   0.690  27.672  1.00  0.00    -0.385 OA
ATOM     26  H   UNL     1      77.598   0.462  26.715  1.00  0.00     0.211 HD
ENDBRANCH  18  25
BRANCH  20  27
ATOM     27  O   UNL     1      77.402   3.300  27.825  1.00  0.00    -0.387 OA
ATOM     28  H   UNL     1      76.971   3.488  26.950  1.00  0.00     0.211 HD
ENDBRANCH  20  27
BRANCH  21  29
ATOM     29  C   UNL     1      79.556   4.428  25.708  1.00  0.00     0.191 C 
BRANCH  29  30
ATOM     30  O   UNL     1      78.530   5.232  25.193  1.00  0.00    -0.394 OA
ATOM     31  H   UNL     1      78.208   4.787  24.365  1.00  0.00     0.210 HD
ENDBRANCH  29  30
ENDBRANCH  21  29
ENDBRANCH   1  17
TORSDOF 13
ENDMDL
MODEL 3
REMARK VINA RESULT:    13.813      1.719      4.992
REMARK INTER + INTRA:          22.706
REMARK INTER:                  19.240
REMARK INTRA:                   3.467
REMARK UNBOUND:                 1.626
REMARK SMILES OC[C@H]1O[C@H](O[C@@]2(CO)O[C@H](CO)[C@@H](O)[C@H]2O)[C@@H](O)[C@H](O)[C@@H]1O
REMARK SMILES IDX 6 1 5 2 3 3 22 4 4 5 20 6 18 7 2 8 1 9 23 11 21 13 19 15
REMARK SMILES IDX 7 17 16 18 10 19 14 20 11 21 8 22 9 23 17 25 15 27 12 29
REMARK SMILES IDX 13 30
REMARK H PARENT 1 10 23 12 21 14 19 16 9 24 17 26 15 28 13 31
REMARK Flexibility Score: inf
ROOT
ATOM      1  O   UNL     1      79.804  -1.447  25.068  1.00  0.00    -0.313 OA
ENDROOT
BRANCH   1   2
ATOM      2  C   UNL     1      78.955  -0.401  24.603  1.00  0.00     0.285 C 
ATOM      3  C   UNL     1      77.786  -0.340  26.645  1.00  0.00     0.178 C 
ATOM      4  C   UNL     1      78.349   1.049  27.029  1.00  0.00     0.177 C 
ATOM      5  O   UNL     1      77.684  -0.462  25.234  1.00  0.00    -0.341 OA
ATOM      6  C   UNL     1      79.717   1.265  26.361  1.00  0.00     0.179 C 
ATOM      7  C   UNL     1      79.626   0.963  24.849  1.00  0.00     0.202 C 
BRANCH   3   8
ATOM      8  C   UNL     1      76.390  -0.552  27.247  1.00  0.00     0.191 C 
BRANCH   8   9
ATOM      9  O   UNL     1      76.476  -0.731  28.635  1.00  0.00    -0.394 OA
ATOM     10  H   UNL     1      77.320  -0.295  28.926  1.00  0.00     0.210 HD
ENDBRANCH   8   9
ENDBRANCH   3   8
BRANCH   4  11
ATOM     11  O   UNL     1      78.499   1.152  28.424  1.00  0.00    -0.387 OA
ATOM     12  H   UNL     1      77.613   1.400  28.796  1.00  0.00     0.211 HD
ENDBRANCH   4  11
BRANCH   6  13
ATOM     13  O   UNL     1      80.679   0.436  26.965  1.00  0.00    -0.387 OA
ATOM     14  H   UNL     1      81.541   0.617  26.509  1.00  0.00     0.211 HD
ENDBRANCH   6  13
BRANCH   7  15
ATOM     15  O   UNL     1      78.878   1.965  24.206  1.00  0.00    -0.385 OA
ATOM     16  H   UNL     1      79.244   2.836  24.510  1.00  0.00     0.211 HD
ENDBRANCH   7  15
ENDBRANCH   1   2
BRANCH   1  17
ATOM     17  C   UNL     1      79.120  -2.650  25.412  1.00  0.00     0.224 C 
ATOM     18  C   UNL     1      79.095  -2.772  26.956  1.00  0.00     0.208 C 
ATOM     19  O   UNL     1      79.805  -3.779  24.888  1.00  0.00    -0.337 OA
ATOM     20  C   UNL     1      79.417  -4.231  27.195  1.00  0.00     0.180 C 
ATOM     21  C   UNL     1      80.233  -4.588  25.963  1.00  0.00     0.179 C 
BRANCH  17  22
ATOM     22  C   UNL     1      77.673  -2.635  24.857  1.00  0.00     0.225 C 
BRANCH  22  23
ATOM     23  O   UNL     1      77.680  -2.627  23.454  1.00  0.00    -0.391 OA
ATOM     24  H   UNL     1      77.727  -3.577  23.173  1.00  0.00     0.210 HD
ENDBRANCH  22  23
ENDBRANCH  17  22
BRANCH  18  25
ATOM     25  O   UNL     1      80.034  -1.922  27.577  1.00  0.00    -0.385 OA
ATOM     26  H   UNL     1      79.763  -1.796  28.525  1.00  0.00     0.211 HD
ENDBRANCH  18  25
BRANCH  20  27
ATOM     27  O   UNL     1      80.160  -4.434  28.370  1.00  0.00    -0.387 OA
ATOM     28  H   UNL     1      79.744  -5.207  28.834  1.00  0.00     0.211 HD
ENDBRANCH  20  27
BRANCH  21  29
ATOM     29  C   UNL     1      80.088  -6.068  25.591  1.00  0.00     0.191 C 
BRANCH  29  30
ATOM     30  O   UNL     1      79.525  -6.787  26.655  1.00  0.00    -0.394 OA
ATOM     31  H   UNL     1      78.775  -6.238  27.004  1.00  0.00     0.210 HD
ENDBRANCH  29  30
ENDBRANCH  21  29
ENDBRANCH   1  17
TORSDOF 13
ENDMDL
MODEL 4
REMARK VINA RESULT:    13.837      2.073      3.829
REMARK INTER + INTRA:          22.743
REMARK INTER:                  20.179
REMARK INTRA:                   2.565
REMARK UNBOUND:                 1.626
REMARK SMILES OC[C@H]1O[C@H](O[C@@]2(CO)O[C@H](CO)[C@@H](O)[C@H]2O)[C@@H](O)[C@H](O)[C@@H]1O
REMARK SMILES IDX 6 1 5 2 3 3 22 4 4 5 20 6 18 7 2 8 1 9 23 11 21 13 19 15
REMARK SMILES IDX 7 17 16 18 10 19 14 20 11 21 8 22 9 23 17 25 15 27 12 29
REMARK SMILES IDX 13 30
REMARK H PARENT 1 10 23 12 21 14 19 16 9 24 17 26 15 28 13 31
REMARK Flexibility Score: inf
ROOT
ATOM      1  O   UNL     1      77.661  -2.414  26.656  1.00  0.00    -0.313 OA
ENDROOT
BRANCH   1   2
ATOM      2  C   UNL     1      78.930  -2.376  27.302  1.00  0.00     0.285 C 
ATOM      3  C   UNL     1      79.360  -4.624  26.757  1.00  0.00     0.178 C 
ATOM      4  C   UNL     1      80.485  -4.261  25.759  1.00  0.00     0.177 C 
ATOM      5  O   UNL     1      79.287  -3.659  27.795  1.00  0.00    -0.341 OA
ATOM      6  C   UNL     1      80.244  -2.856  25.184  1.00  0.00     0.179 C 
ATOM      7  C   UNL     1      79.998  -1.847  26.326  1.00  0.00     0.202 C 
BRANCH   3   8
ATOM      8  C   UNL     1      79.615  -5.997  27.395  1.00  0.00     0.191 C 
BRANCH   8   9
ATOM      9  O   UNL     1      79.601  -7.003  26.417  1.00  0.00    -0.394 OA
ATOM     10  H   UNL     1      79.658  -7.869  26.899  1.00  0.00     0.210 HD
ENDBRANCH   8   9
ENDBRANCH   3   8
BRANCH   4  11
ATOM     11  O   UNL     1      80.525  -5.189  24.702  1.00  0.00    -0.387 OA
ATOM     12  H   UNL     1      80.909  -4.721  23.915  1.00  0.00     0.211 HD
ENDBRANCH   4  11
BRANCH   6  13
ATOM     13  O   UNL     1      79.142  -2.881  24.310  1.00  0.00    -0.387 OA
ATOM     14  H   UNL     1      78.362  -3.187  24.842  1.00  0.00     0.211 HD
ENDBRANCH   6  13
BRANCH   7  15
ATOM     15  O   UNL     1      81.193  -1.621  27.031  1.00  0.00    -0.385 OA
ATOM     16  H   UNL     1      81.313  -2.392  27.645  1.00  0.00     0.211 HD
ENDBRANCH   7  15
ENDBRANCH   1   2
BRANCH   1  17
ATOM     17  C   UNL     1      77.220  -1.155  26.153  1.00  0.00     0.224 C 
ATOM     18  C   UNL     1      76.669  -1.368  24.720  1.00  0.00     0.208 C 
ATOM     19  O   UNL     1      78.304  -0.240  26.079  1.00  0.00    -0.337 OA
ATOM     20  C   UNL     1      77.233  -0.193  23.952  1.00  0.00     0.180 C 
ATOM     21  C   UNL     1      78.500   0.123  24.730  1.00  0.00     0.179 C 
BRANCH  17  22
ATOM     22  C   UNL     1      76.115  -0.558  27.062  1.00  0.00     0.225 C 
BRANCH  22  23
ATOM     23  O   UNL     1      76.457  -0.701  28.415  1.00  0.00    -0.391 OA
ATOM     24  H   UNL     1      75.633  -0.501  28.931  1.00  0.00     0.210 HD
ENDBRANCH  22  23
ENDBRANCH  17  22
BRANCH  18  25
ATOM     25  O   UNL     1      77.079  -2.600  24.166  1.00  0.00    -0.385 OA
ATOM     26  H   UNL     1      76.268  -3.141  23.973  1.00  0.00     0.211 HD
ENDBRANCH  18  25
BRANCH  20  27
ATOM     27  O   UNL     1      77.527  -0.514  22.616  1.00  0.00    -0.387 OA
ATOM     28  H   UNL     1      77.041  -1.357  22.417  1.00  0.00     0.211 HD
ENDBRANCH  20  27
BRANCH  21  29
ATOM     29  C   UNL     1      78.870   1.608  24.638  1.00  0.00     0.191 C 
BRANCH  29  30
ATOM     30  O   UNL     1      79.757   1.956  25.665  1.00  0.00    -0.394 OA
ATOM     31  H   UNL     1      79.408   2.791  26.073  1.00  0.00     0.210 HD
ENDBRANCH  29  30
ENDBRANCH  21  29
ENDBRANCH   1  17
TORSDOF 13
ENDMDL
MODEL 5
REMARK VINA RESULT:    14.588      2.388      4.610
REMARK INTER + INTRA:          23.889
REMARK INTER:                  22.777
REMARK INTRA:                   1.113
REMARK UNBOUND:                 1.626
REMARK SMILES OC[C@H]1O[C@H](O[C@@]2(CO)O[C@H](CO)[C@@H](O)[C@H]2O)[C@@H](O)[C@H](O)[C@@H]1O
REMARK SMILES IDX 6 1 5 2 3 3 22 4 4 5 20 6 18 7 2 8 1 9 23 11 21 13 19 15
REMARK SMILES IDX 7 17 16 18 10 19 14 20 11 21 8 22 9 23 17 25 15 27 12 29
REMARK SMILES IDX 13 30
REMARK H PARENT 1 10 23 12 21 14 19 16 9 24 17 26 15 28 13 31
REMARK Flexibility Score: inf
ROOT
ATOM      1  O   UNL     1      79.368  -0.018  25.435  1.00  0.00    -0.313 OA
ENDROOT
BRANCH   1   2
ATOM      2  C   UNL     1      79.538  -1.318  25.993  1.00  0.00     0.285 C 
ATOM      3  C   UNL     1      77.212  -1.621  26.186  1.00  0.00     0.178 C 
ATOM      4  C   UNL     1      77.172  -2.709  25.088  1.00  0.00     0.177 C 
ATOM      5  O   UNL     1      78.461  -1.642  26.861  1.00  0.00    -0.341 OA
ATOM      6  C   UNL     1      78.330  -2.502  24.099  1.00  0.00     0.179 C 
ATOM      7  C   UNL     1      79.664  -2.358  24.863  1.00  0.00     0.202 C 
BRANCH   3   8
ATOM      8  C   UNL     1      76.103  -1.846  27.224  1.00  0.00     0.191 C 
BRANCH   8   9
ATOM      9  O   UNL     1      75.606  -0.618  27.685  1.00  0.00    -0.394 OA
ATOM     10  H   UNL     1      76.108   0.091  27.203  1.00  0.00     0.210 HD
ENDBRANCH   8   9
ENDBRANCH   3   8
BRANCH   4  11
ATOM     11  O   UNL     1      75.954  -2.656  24.385  1.00  0.00    -0.387 OA
ATOM     12  H   UNL     1      76.152  -2.301  23.480  1.00  0.00     0.211 HD
ENDBRANCH   4  11
BRANCH   6  13
ATOM     13  O   UNL     1      78.091  -1.358  23.317  1.00  0.00    -0.387 OA
ATOM     14  H   UNL     1      77.531  -0.748  23.865  1.00  0.00     0.211 HD
ENDBRANCH   6  13
BRANCH   7  15
ATOM     15  O   UNL     1      80.034  -3.595  25.418  1.00  0.00    -0.385 OA
ATOM     16  H   UNL     1      79.444  -3.746  26.202  1.00  0.00     0.211 HD
ENDBRANCH   7  15
ENDBRANCH   1   2
BRANCH   1  17
ATOM     17  C   UNL     1      79.908   1.037  26.229  1.00  0.00     0.224 C 
ATOM     18  C   UNL     1      78.950   1.290  27.420  1.00  0.00     0.208 C 
ATOM     19  O   UNL     1      79.999   2.234  25.470  1.00  0.00    -0.337 OA
ATOM     20  C   UNL     1      78.883   2.800  27.497  1.00  0.00     0.180 C 
ATOM     21  C   UNL     1      79.168   3.209  26.061  1.00  0.00     0.179 C 
BRANCH  17  22
ATOM     22  C   UNL     1      81.318   0.661  26.752  1.00  0.00     0.225 C 
BRANCH  22  23
ATOM     23  O   UNL     1      82.154   1.787  26.776  1.00  0.00    -0.391 OA
ATOM     24  H   UNL     1      81.636   2.507  27.220  1.00  0.00     0.210 HD
ENDBRANCH  22  23
ENDBRANCH  17  22
BRANCH  18  25
ATOM     25  O   UNL     1      77.675   0.720  27.214  1.00  0.00    -0.385 OA
ATOM     26  H   UNL     1      77.082   1.006  27.958  1.00  0.00     0.211 HD
ENDBRANCH  18  25
BRANCH  20  27
ATOM     27  O   UNL     1      77.623   3.262  27.914  1.00  0.00    -0.387 OA
ATOM     28  H   UNL     1      76.974   2.966  27.224  1.00  0.00     0.211 HD
ENDBRANCH  20  27
BRANCH  21  29
ATOM     29  C   UNL     1      79.842   4.584  25.984  1.00  0.00     0.191 C 
BRANCH  29  30
ATOM     30  O   UNL     1      79.058   5.472  25.234  1.00  0.00    -0.394 OA
ATOM     31  H   UNL     1      78.138   5.098  25.220  1.00  0.00     0.210 HD
ENDBRANCH  29  30
ENDBRANCH  21  29
ENDBRANCH   1  17
TORSDOF 13
ENDMDL
MODEL 6
REMARK VINA RESULT:    14.621      2.097      4.517
REMARK INTER + INTRA:          23.940
REMARK INTER:                  20.997
REMARK INTRA:                   2.943
REMARK UNBOUND:                 1.626
REMARK SMILES OC[C@H]1O[C@H](O[C@@]2(CO)O[C@H](CO)[C@@H](O)[C@H]2O)[C@@H](O)[C@H](O)[C@@H]1O
REMARK SMILES IDX 6 1 5 2 3 3 22 4 4 5 20 6 18 7 2 8 1 9 23 11 21 13 19 15
REMARK SMILES IDX 7 17 16 18 10 19 14 20 11 21 8 22 9 23 17 25 15 27 12 29
REMARK SMILES IDX 13 30
REMARK H PARENT 1 10 23 12 21 14 19 16 9 24 17 26 15 28 13 31
REMARK Flexibility Score: inf
ROOT
ATOM      1  O   UNL     1      79.205  -0.156  24.617  1.00  0.00    -0.313 OA
ENDROOT
BRANCH   1   2
ATOM      2  C   UNL     1      77.872   0.324  24.465  1.00  0.00     0.285 C 
ATOM      3  C   UNL     1      77.764  -0.454  22.246  1.00  0.00     0.178 C 
ATOM      4  C   UNL     1      76.731  -1.555  22.588  1.00  0.00     0.177 C 
ATOM      5  O   UNL     1      77.606   0.661  23.111  1.00  0.00    -0.341 OA
ATOM      6  C   UNL     1      76.880  -1.977  24.058  1.00  0.00     0.179 C 
ATOM      7  C   UNL     1      76.875  -0.734  24.974  1.00  0.00     0.202 C 
BRANCH   3   8
ATOM      8  C   UNL     1      77.592   0.032  20.800  1.00  0.00     0.191 C 
BRANCH   8   9
ATOM      9  O   UNL     1      77.931  -0.986  19.897  1.00  0.00    -0.394 OA
ATOM     10  H   UNL     1      78.199  -0.539  19.052  1.00  0.00     0.210 HD
ENDBRANCH   8   9
ENDBRANCH   3   8
BRANCH   4  11
ATOM     11  O   UNL     1      76.920  -2.681  21.765  1.00  0.00    -0.387 OA
ATOM     12  H   UNL     1      76.066  -3.186  21.759  1.00  0.00     0.211 HD
ENDBRANCH   4  11
BRANCH   6  13
ATOM     13  O   UNL     1      78.073  -2.702  24.228  1.00  0.00    -0.387 OA
ATOM     14  H   UNL     1      77.825  -3.663  24.236  1.00  0.00     0.211 HD
ENDBRANCH   6  13
BRANCH   7  15
ATOM     15  O   UNL     1      75.587  -0.171  25.009  1.00  0.00    -0.385 OA
ATOM     16  H   UNL     1      74.996  -0.836  25.450  1.00  0.00     0.211 HD
ENDBRANCH   7  15
ENDBRANCH   1   2
BRANCH   1  17
ATOM     17  C   UNL     1      79.545  -0.533  25.949  1.00  0.00     0.224 C 
ATOM     18  C   UNL     1      80.257  -1.909  25.900  1.00  0.00     0.208 C 
ATOM     19  O   UNL     1      78.375  -0.668  26.743  1.00  0.00    -0.337 OA
ATOM     20  C   UNL     1      79.641  -2.661  27.058  1.00  0.00     0.180 C 
ATOM     21  C   UNL     1      78.274  -2.006  27.178  1.00  0.00     0.179 C 
BRANCH  17  22
ATOM     22  C   UNL     1      80.477   0.524  26.596  1.00  0.00     0.225 C 
BRANCH  22  23
ATOM     23  O   UNL     1      80.075   1.820  26.244  1.00  0.00    -0.391 OA
ATOM     24  H   UNL     1      80.904   2.314  26.015  1.00  0.00     0.210 HD
ENDBRANCH  22  23
ENDBRANCH  17  22
BRANCH  18  25
ATOM     25  O   UNL     1      80.050  -2.576  24.674  1.00  0.00    -0.385 OA
ATOM     26  H   UNL     1      79.108  -2.892  24.645  1.00  0.00     0.211 HD
ENDBRANCH  18  25
BRANCH  20  27
ATOM     27  O   UNL     1      79.521  -4.038  26.804  1.00  0.00    -0.387 OA
ATOM     28  H   UNL     1      78.650  -4.162  26.343  1.00  0.00     0.211 HD
ENDBRANCH  20  27
BRANCH  21  29
ATOM     29  C   UNL     1      77.746  -2.048  28.617  1.00  0.00     0.191 C 
BRANCH  29  30
ATOM     30  O   UNL     1      76.728  -1.101  28.792  1.00  0.00    -0.394 OA
ATOM     31  H   UNL     1      75.994  -1.353  28.172  1.00  0.00     0.210 HD
ENDBRANCH  29  30
ENDBRANCH  21  29
ENDBRANCH   1  17
TORSDOF 13
ENDMDL
MODEL 7
REMARK VINA RESULT:    14.759      2.004      5.939
REMARK INTER + INTRA:          24.150
REMARK INTER:                  20.043
REMARK INTRA:                   4.108
REMARK UNBOUND:                 1.626
REMARK SMILES OC[C@H]1O[C@H](O[C@@]2(CO)O[C@H](CO)[C@@H](O)[C@H]2O)[C@@H](O)[C@H](O)[C@@H]1O
REMARK SMILES IDX 6 1 5 2 3 3 22 4 4 5 20 6 18 7 2 8 1 9 23 11 21 13 19 15
REMARK SMILES IDX 7 17 16 18 10 19 14 20 11 21 8 22 9 23 17 25 15 27 12 29
REMARK SMILES IDX 13 30
REMARK H PARENT 1 10 23 12 21 14 19 16 9 24 17 26 15 28 13 31
REMARK Flexibility Score: inf
ROOT
ATOM      1  O   UNL     1      77.145  -1.968  25.379  1.00  0.00    -0.313 OA
ENDROOT
BRANCH   1   2
ATOM      2  C   UNL     1      77.883  -2.238  26.567  1.00  0.00     0.285 C 
ATOM      3  C   UNL     1      78.843  -0.089  26.548  1.00  0.00     0.178 C 
ATOM      4  C   UNL     1      78.064   0.368  27.805  1.00  0.00     0.177 C 
ATOM      5  O   UNL     1      79.088  -1.486  26.596  1.00  0.00    -0.341 OA
ATOM      6  C   UNL     1      76.747  -0.416  27.921  1.00  0.00     0.179 C 
ATOM      7  C   UNL     1      77.015  -1.932  27.802  1.00  0.00     0.202 C 
BRANCH   3   8
ATOM      8  C   UNL     1      80.194   0.633  26.447  1.00  0.00     0.191 C 
BRANCH   8   9
ATOM      9  O   UNL     1      80.003   1.999  26.196  1.00  0.00    -0.394 OA
ATOM     10  H   UNL     1      79.947   2.102  25.209  1.00  0.00     0.210 HD
ENDBRANCH   8   9
ENDBRANCH   3   8
BRANCH   4  11
ATOM     11  O   UNL     1      77.776   1.743  27.735  1.00  0.00    -0.387 OA
ATOM     12  H   UNL     1      77.778   2.091  28.664  1.00  0.00     0.211 HD
ENDBRANCH   4  11
BRANCH   6  13
ATOM     13  O   UNL     1      75.855   0.001  26.917  1.00  0.00    -0.387 OA
ATOM     14  H   UNL     1      76.277   0.775  26.461  1.00  0.00     0.211 HD
ENDBRANCH   6  13
BRANCH   7  15
ATOM     15  O   UNL     1      77.676  -2.393  28.953  1.00  0.00    -0.385 OA
ATOM     16  H   UNL     1      76.980  -2.533  29.647  1.00  0.00     0.211 HD
ENDBRANCH   7  15
ENDBRANCH   1   2
BRANCH   1  17
ATOM     17  C   UNL     1      77.947  -1.590  24.262  1.00  0.00     0.224 C 
ATOM     18  C   UNL     1      77.795  -0.063  24.048  1.00  0.00     0.208 C 
ATOM     19  O   UNL     1      77.503  -2.249  23.084  1.00  0.00    -0.337 OA
ATOM     20  C   UNL     1      77.659   0.067  22.547  1.00  0.00     0.180 C 
ATOM     21  C   UNL     1      77.064  -1.278  22.159  1.00  0.00     0.179 C 
BRANCH  17  22
ATOM     22  C   UNL     1      79.435  -1.945  24.510  1.00  0.00     0.225 C 
BRANCH  22  23
ATOM     23  O   UNL     1      79.639  -3.328  24.401  1.00  0.00    -0.391 OA
ATOM     24  H   UNL     1      79.713  -3.521  23.431  1.00  0.00     0.210 HD
ENDBRANCH  22  23
ENDBRANCH  17  22
BRANCH  18  25
ATOM     25  O   UNL     1      76.672   0.464  24.721  1.00  0.00    -0.385 OA
ATOM     26  H   UNL     1      76.010   0.759  24.041  1.00  0.00     0.211 HD
ENDBRANCH  18  25
BRANCH  20  27
ATOM     27  O   UNL     1      76.810   1.121  22.171  1.00  0.00    -0.387 OA
ATOM     28  H   UNL     1      76.954   1.846  22.834  1.00  0.00     0.211 HD
ENDBRANCH  20  27
BRANCH  21  29
ATOM     29  C   UNL     1      77.468  -1.691  20.739  1.00  0.00     0.191 C 
BRANCH  29  30
ATOM     30  O   UNL     1      77.881  -0.573  20.002  1.00  0.00    -0.394 OA
ATOM     31  H   UNL     1      78.611  -0.144  20.521  1.00  0.00     0.210 HD
ENDBRANCH  29  30
ENDBRANCH  21  29
ENDBRANCH   1  17
TORSDOF 13
ENDMDL
MODEL 8
REMARK VINA RESULT:    15.141      2.164      5.217
REMARK INTER + INTRA:          24.734
REMARK INTER:                  20.912
REMARK INTRA:                   3.821
REMARK UNBOUND:                 1.626
REMARK SMILES OC[C@H]1O[C@H](O[C@@]2(CO)O[C@H](CO)[C@@H](O)[C@H]2O)[C@@H](O)[C@H](O)[C@@H]1O
REMARK SMILES IDX 6 1 5 2 3 3 22 4 4 5 20 6 18 7 2 8 1 9 23 11 21 13 19 15
REMARK SMILES IDX 7 17 16 18 10 19 14 20 11 21 8 22 9 23 17 25 15 27 12 29
REMARK SMILES IDX 13 30
REMARK H PARENT 1 10 23 12 21 14 19 16 9 24 17 26 15 28 13 31
REMARK Flexibility Score: inf
ROOT
ATOM      1  O   UNL     1      77.764  -2.616  26.555  1.00  0.00    -0.313 OA
ENDROOT
BRANCH   1   2
ATOM      2  C   UNL     1      77.532  -1.327  27.114  1.00  0.00     0.285 C 
ATOM      3  C   UNL     1      78.783  -0.282  25.416  1.00  0.00     0.178 C 
ATOM      4  C   UNL     1      77.537   0.385  24.785  1.00  0.00     0.177 C 
ATOM      5  O   UNL     1      78.604  -0.444  26.815  1.00  0.00    -0.341 OA
ATOM      6  C   UNL     1      76.284  -0.454  25.083  1.00  0.00     0.179 C 
ATOM      7  C   UNL     1      76.196  -0.764  26.593  1.00  0.00     0.202 C 
BRANCH   3   8
ATOM      8  C   UNL     1      80.038   0.572  25.189  1.00  0.00     0.191 C 
BRANCH   8   9
ATOM      9  O   UNL     1      80.275   1.399  26.296  1.00  0.00    -0.394 OA
ATOM     10  H   UNL     1      80.368   0.801  27.084  1.00  0.00     0.210 HD
ENDBRANCH   8   9
ENDBRANCH   3   8
BRANCH   4  11
ATOM     11  O   UNL     1      77.692   0.500  23.391  1.00  0.00    -0.387 OA
ATOM     12  H   UNL     1      77.176   1.298  23.104  1.00  0.00     0.211 HD
ENDBRANCH   4  11
BRANCH   6  13
ATOM     13  O   UNL     1      76.322  -1.648  24.342  1.00  0.00    -0.387 OA
ATOM     14  H   UNL     1      76.358  -2.392  24.998  1.00  0.00     0.211 HD
ENDBRANCH   6  13
BRANCH   7  15
ATOM     15  O   UNL     1      75.882   0.406  27.305  1.00  0.00    -0.385 OA
ATOM     16  H   UNL     1      75.210   0.899  26.765  1.00  0.00     0.211 HD
ENDBRANCH   7  15
ENDBRANCH   1   2
BRANCH   1  17
ATOM     17  C   UNL     1      79.121  -3.050  26.619  1.00  0.00     0.224 C 
ATOM     18  C   UNL     1      79.826  -2.645  25.300  1.00  0.00     0.208 C 
ATOM     19  O   UNL     1      79.186  -4.464  26.741  1.00  0.00    -0.337 OA
ATOM     20  C   UNL     1      80.642  -3.869  24.952  1.00  0.00     0.180 C 
ATOM     21  C   UNL     1      79.847  -4.986  25.608  1.00  0.00     0.179 C 
BRANCH  17  22
ATOM     22  C   UNL     1      79.845  -2.404  27.828  1.00  0.00     0.225 C 
BRANCH  22  23
ATOM     23  O   UNL     1      80.215  -3.381  28.764  1.00  0.00    -0.391 OA
ATOM     24  H   UNL     1      81.199  -3.477  28.688  1.00  0.00     0.210 HD
ENDBRANCH  22  23
ENDBRANCH  17  22
BRANCH  18  25
ATOM     25  O   UNL     1      78.907  -2.321  24.279  1.00  0.00    -0.385 OA
ATOM     26  H   UNL     1      78.279  -3.084  24.170  1.00  0.00     0.211 HD
ENDBRANCH  18  25
BRANCH  20  27
ATOM     27  O   UNL     1      80.747  -4.071  23.565  1.00  0.00    -0.387 OA
ATOM     28  H   UNL     1      81.492  -4.713  23.431  1.00  0.00     0.211 HD
ENDBRANCH  20  27
BRANCH  21  29
ATOM     29  C   UNL     1      80.744  -6.158  26.023  1.00  0.00     0.191 C 
BRANCH  29  30
ATOM     30  O   UNL     1      79.999  -7.125  26.712  1.00  0.00    -0.394 OA
ATOM     31  H   UNL     1      79.427  -6.636  27.360  1.00  0.00     0.210 HD
ENDBRANCH  29  30
ENDBRANCH  21  29
ENDBRANCH   1  17
TORSDOF 13
ENDMDL
