MODEL 1
REMARK VINA RESULT:    -4.355      0.000      0.000
REMARK INTER + INTRA:          -5.197
REMARK INTER:                  -5.118
REMARK INTRA:                  -0.079
REMARK UNBOUND:                -0.079
REMARK SMILES CCCCC(=O)[O-]
REMARK SMILES IDX 4 1 5 2 6 3 7 4 3 5 2 6 1 7
REMARK H PARENT
REMARK Flexibility Score: inf
ROOT
ATOM      1  C   UNL     1     -17.095  -9.372 -21.388  1.00  0.00     0.053 C 
ENDROOT
BRANCH   1   2
ATOM      2  C   UNL     1     -17.388  -9.278 -22.852  1.00  0.00     0.041 C 
ATOM      3  O   UNL     1     -18.579  -9.214 -23.258  1.00  0.00    -0.550 OA
ATOM      4  O   UNL     1     -16.349  -9.312 -23.774  1.00  0.00    -0.550 OA
ENDBRANCH   1   2
BRANCH   1   5
ATOM      5  C   UNL     1     -15.886  -8.501 -21.028  1.00  0.00     0.006 C 
BRANCH   5   6
ATOM      6  C   UNL     1     -16.252  -7.016 -20.876  1.00  0.00    -0.003 C 
ATOM      7  C   UNL     1     -15.825  -6.177 -22.080  1.00  0.00     0.004 C 
ENDBRANCH   5   6
ENDBRANCH   1   5
TORSDOF 3
ENDMDL
MODEL 2
REMARK VINA RESULT:    -4.308      1.385      2.169
REMARK INTER + INTRA:          -5.142
REMARK INTER:                  -5.042
REMARK INTRA:                  -0.100
REMARK UNBOUND:                -0.079
REMARK SMILES CCCCC(=O)[O-]
REMARK SMILES IDX 4 1 5 2 6 3 7 4 3 5 2 6 1 7
REMARK H PARENT
REMARK Flexibility Score: inf
ROOT
ATOM      1  C   UNL     1     -15.644  -7.839 -23.310  1.00  0.00     0.053 C 
ENDROOT
BRANCH   1   2
ATOM      2  C   UNL     1     -16.928  -8.225 -23.972  1.00  0.00     0.041 C 
ATOM      3  O   UNL     1     -17.281  -7.667 -25.045  1.00  0.00    -0.550 OA
ATOM      4  O   UNL     1     -17.761  -9.166 -23.380  1.00  0.00    -0.550 OA
ENDBRANCH   1   2
BRANCH   1   5
ATOM      5  C   UNL     1     -15.872  -6.675 -22.338  1.00  0.00     0.006 C 
BRANCH   5   6
ATOM      6  C   UNL     1     -16.201  -7.151 -20.914  1.00  0.00    -0.003 C 
ATOM      7  C   UNL     1     -15.547  -8.489 -20.573  1.00  0.00     0.004 C 
ENDBRANCH   5   6
ENDBRANCH   1   5
TORSDOF 3
ENDMDL
MODEL 3
REMARK VINA RESULT:    -4.173      2.115      3.004
REMARK INTER + INTRA:          -4.984
REMARK INTER:                  -4.923
REMARK INTRA:                  -0.061
REMARK UNBOUND:                -0.079
REMARK SMILES CCCCC(=O)[O-]
REMARK SMILES IDX 4 1 5 2 6 3 7 4 3 5 2 6 1 7
REMARK H PARENT
REMARK Flexibility Score: inf
ROOT
ATOM      1  C   UNL     1     -16.493  -7.025 -21.166  1.00  0.00     0.053 C 
ENDROOT
BRANCH   1   2
ATOM      2  C   UNL     1     -16.231  -8.469 -20.874  1.00  0.00     0.041 C 
ATOM      3  O   UNL     1     -15.099  -8.837 -20.463  1.00  0.00    -0.550 OA
ATOM      4  O   UNL     1     -17.221  -9.416 -21.102  1.00  0.00    -0.550 OA
ENDBRANCH   1   2
BRANCH   1   5
ATOM      5  C   UNL     1     -15.763  -6.597 -22.445  1.00  0.00     0.006 C 
BRANCH   5   6
ATOM      6  C   UNL     1     -16.280  -7.329 -23.693  1.00  0.00    -0.003 C 
ATOM      7  C   UNL     1     -15.273  -8.337 -24.246  1.00  0.00     0.004 C 
ENDBRANCH   5   6
ENDBRANCH   1   5
TORSDOF 3
ENDMDL
MODEL 4
REMARK VINA RESULT:    -4.162      1.293      1.937
REMARK INTER + INTRA:          -4.970
REMARK INTER:                  -4.863
REMARK INTRA:                  -0.107
REMARK UNBOUND:                -0.079
REMARK SMILES CCCCC(=O)[O-]
REMARK SMILES IDX 4 1 5 2 6 3 7 4 3 5 2 6 1 7
REMARK H PARENT
REMARK Flexibility Score: inf
ROOT
ATOM      1  C   UNL     1     -17.794  -8.548 -22.795  1.00  0.00     0.053 C 
ENDROOT
BRANCH   1   2
ATOM      2  C   UNL     1     -16.865  -8.372 -23.955  1.00  0.00     0.041 C 
ATOM      3  O   UNL     1     -16.302  -9.372 -24.474  1.00  0.00    -0.550 OA
ATOM      4  O   UNL     1     -16.582  -7.099 -24.432  1.00  0.00    -0.550 OA
ENDBRANCH   1   2
BRANCH   1   5
ATOM      5  C   UNL     1     -17.104  -9.329 -21.670  1.00  0.00     0.006 C 
BRANCH   5   6
ATOM      6  C   UNL     1     -15.909  -8.570 -21.073  1.00  0.00    -0.003 C 
ATOM      7  C   UNL     1     -16.291  -7.187 -20.545  1.00  0.00     0.004 C 
ENDBRANCH   5   6
ENDBRANCH   1   5
TORSDOF 3
ENDMDL
MODEL 5
REMARK VINA RESULT:    -3.959      2.508      3.235
REMARK INTER + INTRA:          -4.732
REMARK INTER:                  -4.630
REMARK INTRA:                  -0.102
REMARK UNBOUND:                -0.079
REMARK SMILES CCCCC(=O)[O-]
REMARK SMILES IDX 4 1 5 2 6 3 7 4 3 5 2 6 1 7
REMARK H PARENT
REMARK Flexibility Score: inf
ROOT
ATOM      1  C   UNL     1     -15.764  -8.801 -21.795  1.00  0.00     0.053 C 
ENDROOT
BRANCH   1   2
ATOM      2  C   UNL     1     -15.964  -7.373 -21.398  1.00  0.00     0.041 C 
ATOM      3  O   UNL     1     -16.544  -7.090 -20.317  1.00  0.00    -0.550 OA
ATOM      4  O   UNL     1     -15.553  -6.351 -22.245  1.00  0.00    -0.550 OA
ENDBRANCH   1   2
BRANCH   1   5
ATOM      5  C   UNL     1     -15.368  -8.895 -23.274  1.00  0.00     0.006 C 
BRANCH   5   6
ATOM      6  C   UNL     1     -16.578  -9.104 -24.197  1.00  0.00    -0.003 C 
ATOM      7  C   UNL     1     -16.833  -7.910 -25.117  1.00  0.00     0.004 C 
ENDBRANCH   5   6
ENDBRANCH   1   5
TORSDOF 3
ENDMDL
MODEL 6
REMARK VINA RESULT:    -3.670      1.492      2.033
REMARK INTER + INTRA:          -4.393
REMARK INTER:                  -4.512
REMARK INTRA:                   0.120
REMARK UNBOUND:                -0.079
REMARK SMILES CCCCC(=O)[O-]
REMARK SMILES IDX 4 1 5 2 6 3 7 4 3 5 2 6 1 7
REMARK H PARENT
REMARK Flexibility Score: inf
ROOT
ATOM      1  C   UNL     1     -16.104  -9.393 -23.534  1.00  0.00     0.053 C 
ENDROOT
BRANCH   1   2
ATOM      2  C   UNL     1     -17.309  -9.301 -22.653  1.00  0.00     0.041 C 
ATOM      3  O   UNL     1     -17.190  -9.398 -21.403  1.00  0.00    -0.550 OA
ATOM      4  O   UNL     1     -18.572  -9.157 -23.214  1.00  0.00    -0.550 OA
ENDBRANCH   1   2
BRANCH   1   5
ATOM      5  C   UNL     1     -15.367  -8.049 -23.575  1.00  0.00     0.006 C 
BRANCH   5   6
ATOM      6  C   UNL     1     -16.285  -6.862 -23.244  1.00  0.00    -0.003 C 
ATOM      7  C   UNL     1     -15.819  -6.078 -22.018  1.00  0.00     0.004 C 
ENDBRANCH   5   6
ENDBRANCH   1   5
TORSDOF 3
ENDMDL
MODEL 7
REMARK VINA RESULT:    -3.410      1.843      2.320
REMARK INTER + INTRA:          -4.087
REMARK INTER:                  -4.089
REMARK INTRA:                   0.001
REMARK UNBOUND:                -0.079
REMARK SMILES CCCCC(=O)[O-]
REMARK SMILES IDX 4 1 5 2 6 3 7 4 3 5 2 6 1 7
REMARK H PARENT
REMARK Flexibility Score: inf
ROOT
ATOM      1  C   UNL     1     -17.803  -8.157 -22.076  1.00  0.00     0.053 C 
ENDROOT
BRANCH   1   2
ATOM      2  C   UNL     1     -17.169  -9.272 -21.305  1.00  0.00     0.041 C 
ATOM      3  O   UNL     1     -17.810 -10.332 -21.080  1.00  0.00    -0.550 OA
ATOM      4  O   UNL     1     -15.887  -9.122 -20.793  1.00  0.00    -0.550 OA
ENDBRANCH   1   2
BRANCH   1   5
ATOM      5  C   UNL     1     -17.316  -8.166 -23.529  1.00  0.00     0.006 C 
BRANCH   5   6
ATOM      6  C   UNL     1     -16.110  -7.240 -23.753  1.00  0.00    -0.003 C 
ATOM      7  C   UNL     1     -15.910  -6.244 -22.611  1.00  0.00     0.004 C 
ENDBRANCH   5   6
ENDBRANCH   1   5
TORSDOF 3
ENDMDL
MODEL 8
REMARK VINA RESULT:    -3.152      1.843      2.454
REMARK INTER + INTRA:          -3.783
REMARK INTER:                  -3.716
REMARK INTRA:                  -0.067
REMARK UNBOUND:                -0.079
REMARK SMILES CCCCC(=O)[O-]
REMARK SMILES IDX 4 1 5 2 6 3 7 4 3 5 2 6 1 7
REMARK H PARENT
REMARK Flexibility Score: inf
ROOT
ATOM      1  C   UNL     1     -15.544  -9.077 -23.053  1.00  0.00     0.053 C 
ENDROOT
BRANCH   1   2
ATOM      2  C   UNL     1     -15.504  -8.164 -24.238  1.00  0.00     0.041 C 
ATOM      3  O   UNL     1     -16.457  -7.372 -24.461  1.00  0.00    -0.550 OA
ATOM      4  O   UNL     1     -14.436  -8.222 -25.125  1.00  0.00    -0.550 OA
ENDBRANCH   1   2
BRANCH   1   5
ATOM      5  C   UNL     1     -15.411  -8.273 -21.754  1.00  0.00     0.006 C 
BRANCH   5   6
ATOM      6  C   UNL     1     -16.769  -7.990 -21.094  1.00  0.00    -0.003 C 
ATOM      7  C   UNL     1     -17.864  -8.949 -21.560  1.00  0.00     0.004 C 
ENDBRANCH   5   6
ENDBRANCH   1   5
TORSDOF 3
ENDMDL
MODEL 9
REMARK VINA RESULT:    -3.120      2.001      3.137
REMARK INTER + INTRA:          -3.746
REMARK INTER:                  -3.701
REMARK INTRA:                  -0.044
REMARK UNBOUND:                -0.079
REMARK SMILES CCCCC(=O)[O-]
REMARK SMILES IDX 4 1 5 2 6 3 7 4 3 5 2 6 1 7
REMARK H PARENT
REMARK Flexibility Score: inf
ROOT
ATOM      1  C   UNL     1     -16.056  -7.365 -20.968  1.00  0.00     0.053 C 
ENDROOT
BRANCH   1   2
ATOM      2  C   UNL     1     -15.688  -6.694 -22.254  1.00  0.00     0.041 C 
ATOM      3  O   UNL     1     -15.797  -5.444 -22.371  1.00  0.00    -0.550 OA
ATOM      4  O   UNL     1     -15.273  -7.453 -23.341  1.00  0.00    -0.550 OA
ENDBRANCH   1   2
BRANCH   1   5
ATOM      5  C   UNL     1     -17.579  -7.408 -20.804  1.00  0.00     0.006 C 
BRANCH   5   6
ATOM      6  C   UNL     1     -18.268  -8.238 -21.899  1.00  0.00    -0.003 C 
ATOM      7  C   UNL     1     -17.675  -9.640 -22.038  1.00  0.00     0.004 C 
ENDBRANCH   5   6
ENDBRANCH   1   5
TORSDOF 3
ENDMDL
