MODEL 1
REMARK VINA RESULT:    -3.034      0.000      0.000
REMARK INTER + INTRA:         -13.046
REMARK INTER:                  -7.646
REMARK INTRA:                  -5.400
REMARK UNBOUND:                -5.400
REMARK SMILES CCCCCCCCCCCCCCCCCCCCCCCCCCCC(=O)[O-]
REMARK SMILES IDX 15 1 16 2 17 3 18 4 19 5 20 6 21 7 22 8 23 9 24 10 25 11
REMARK SMILES IDX 26 12 27 13 28 14 29 15 30 16 14 17 13 18 12 19 11 20 10 21
REMARK SMILES IDX 9 22 8 23 7 24 6 25 5 26 4 27 3 28 2 29 1 30
REMARK H PARENT
REMARK Flexibility Score: inf
ROOT
ATOM      1  C   UNL     1      54.067  26.278  49.927  1.00  0.00     0.000 C 
ENDROOT
BRANCH   1   2
ATOM      2  C   UNL     1      54.543  27.695  50.296  1.00  0.00     0.000 C 
BRANCH   2   3
ATOM      3  C   UNL     1      53.418  28.723  50.539  1.00  0.00     0.000 C 
BRANCH   3   4
ATOM      4  C   UNL     1      53.794  29.903  51.453  1.00  0.00     0.000 C 
BRANCH   4   5
ATOM      5  C   UNL     1      52.969  29.942  52.750  1.00  0.00     0.000 C 
BRANCH   5   6
ATOM      6  C   UNL     1      52.986  31.326  53.418  1.00  0.00     0.000 C 
BRANCH   6   7
ATOM      7  C   UNL     1      53.773  31.338  54.741  1.00  0.00     0.000 C 
BRANCH   7   8
ATOM      8  C   UNL     1      54.398  32.708  55.047  1.00  0.00     0.000 C 
BRANCH   8   9
ATOM      9  C   UNL     1      55.370  33.172  53.947  1.00  0.00     0.000 C 
BRANCH   9  10
ATOM     10  C   UNL     1      56.566  32.218  53.773  1.00  0.00     0.000 C 
BRANCH  10  11
ATOM     11  C   UNL     1      57.924  32.822  54.179  1.00  0.00     0.000 C 
BRANCH  11  12
ATOM     12  C   UNL     1      58.681  31.946  55.194  1.00  0.00     0.006 C 
BRANCH  12  13
ATOM     13  C   UNL     1      57.729  31.145  56.092  1.00  0.00     0.053 C 
BRANCH  13  14
ATOM     14  C   UNL     1      57.356  31.903  57.330  1.00  0.00     0.041 C 
ATOM     15  O   UNL     1      56.293  31.627  57.946  1.00  0.00    -0.550 OA
ATOM     16  O   UNL     1      58.193  32.900  57.815  1.00  0.00    -0.550 OA
ENDBRANCH  13  14
ENDBRANCH  12  13
ENDBRANCH  11  12
ENDBRANCH  10  11
ENDBRANCH   9  10
ENDBRANCH   8   9
ENDBRANCH   7   8
ENDBRANCH   6   7
ENDBRANCH   5   6
ENDBRANCH   4   5
ENDBRANCH   3   4
ENDBRANCH   2   3
ENDBRANCH   1   2
BRANCH   1  17
ATOM     17  C   UNL     1      55.215  25.259  49.872  1.00  0.00     0.000 C 
BRANCH  17  18
ATOM     18  C   UNL     1      56.549  25.910  50.274  1.00  0.00     0.000 C 
BRANCH  18  19
ATOM     19  C   UNL     1      57.287  25.119  51.367  1.00  0.00     0.000 C 
BRANCH  19  20
ATOM     20  C   UNL     1      58.813  25.261  51.275  1.00  0.00     0.000 C 
BRANCH  20  21
ATOM     21  C   UNL     1      59.249  25.586  49.841  1.00  0.00     0.000 C 
BRANCH  21  22
ATOM     22  C   UNL     1      60.251  26.749  49.820  1.00  0.00    -0.000 C 
BRANCH  22  23
ATOM     23  C   UNL     1      59.612  28.083  49.393  1.00  0.00    -0.000 C 
BRANCH  23  24
ATOM     24  C   UNL     1      58.755  28.769  50.472  1.00  0.00    -0.000 C 
BRANCH  24  25
ATOM     25  C   UNL     1      59.502  28.945  51.806  1.00  0.00    -0.000 C 
BRANCH  25  26
ATOM     26  C   UNL     1      58.547  29.035  53.007  1.00  0.00    -0.000 C 
BRANCH  26  27
ATOM     27  C   UNL     1      57.082  28.774  52.610  1.00  0.00    -0.000 C 
BRANCH  27  28
ATOM     28  C   UNL     1      56.181  28.460  53.818  1.00  0.00    -0.000 C 
BRANCH  28  29
ATOM     29  C   UNL     1      55.887  26.965  54.035  1.00  0.00    -0.003 C 
ATOM     30  C   UNL     1      54.420  26.604  53.805  1.00  0.00     0.004 C 
ENDBRANCH  28  29
ENDBRANCH  27  28
ENDBRANCH  26  27
ENDBRANCH  25  26
ENDBRANCH  24  25
ENDBRANCH  23  24
ENDBRANCH  22  23
ENDBRANCH  21  22
ENDBRANCH  20  21
ENDBRANCH  19  20
ENDBRANCH  18  19
ENDBRANCH  17  18
ENDBRANCH   1  17
TORSDOF 26
ENDMDL
MODEL 2
REMARK VINA RESULT:    -2.998      6.687     10.864
REMARK INTER + INTRA:         -12.954
REMARK INTER:                  -8.266
REMARK INTRA:                  -4.688
REMARK UNBOUND:                -5.400
REMARK SMILES CCCCCCCCCCCCCCCCCCCCCCCCCCCC(=O)[O-]
REMARK SMILES IDX 15 1 16 2 17 3 18 4 19 5 20 6 21 7 22 8 23 9 24 10 25 11
REMARK SMILES IDX 26 12 27 13 28 14 29 15 30 16 14 17 13 18 12 19 11 20 10 21
REMARK SMILES IDX 9 22 8 23 7 24 6 25 5 26 4 27 3 28 2 29 1 30
REMARK H PARENT
REMARK Flexibility Score: inf
ROOT
ATOM      1  C   UNL     1      64.950  31.193  59.512  1.00  0.00     0.000 C 
ENDROOT
BRANCH   1   2
ATOM      2  C   UNL     1      64.836  32.721  59.662  1.00  0.00     0.000 C 
BRANCH   2   3
ATOM      3  C   UNL     1      64.430  33.215  61.066  1.00  0.00     0.000 C 
BRANCH   3   4
ATOM      4  C   UNL     1      64.843  34.661  61.398  1.00  0.00     0.000 C 
BRANCH   4   5
ATOM      5  C   UNL     1      63.643  35.616  61.508  1.00  0.00     0.000 C 
BRANCH   5   6
ATOM      6  C   UNL     1      62.364  35.029  60.889  1.00  0.00     0.000 C 
BRANCH   6   7
ATOM      7  C   UNL     1      62.124  35.514  59.449  1.00  0.00     0.000 C 
BRANCH   7   8
ATOM      8  C   UNL     1      61.114  34.639  58.688  1.00  0.00     0.000 C 
BRANCH   8   9
ATOM      9  C   UNL     1      59.688  35.217  58.726  1.00  0.00     0.000 C 
BRANCH   9  10
ATOM     10  C   UNL     1      58.874  34.867  57.466  1.00  0.00     0.000 C 
BRANCH  10  11
ATOM     11  C   UNL     1      58.957  33.387  57.047  1.00  0.00     0.000 C 
BRANCH  11  12
ATOM     12  C   UNL     1      57.577  32.783  56.731  1.00  0.00     0.006 C 
BRANCH  12  13
ATOM     13  C   UNL     1      57.241  31.597  57.644  1.00  0.00     0.053 C 
BRANCH  13  14
ATOM     14  C   UNL     1      55.844  31.680  58.179  1.00  0.00     0.041 C 
ATOM     15  O   UNL     1      55.267  30.646  58.608  1.00  0.00    -0.550 OA
ATOM     16  O   UNL     1      55.186  32.903  58.223  1.00  0.00    -0.550 OA
ENDBRANCH  13  14
ENDBRANCH  12  13
ENDBRANCH  11  12
ENDBRANCH  10  11
ENDBRANCH   9  10
ENDBRANCH   8   9
ENDBRANCH   7   8
ENDBRANCH   6   7
ENDBRANCH   5   6
ENDBRANCH   4   5
ENDBRANCH   3   4
ENDBRANCH   2   3
ENDBRANCH   1   2
BRANCH   1  17
ATOM     17  C   UNL     1      64.051  30.635  58.399  1.00  0.00     0.000 C 
BRANCH  17  18
ATOM     18  C   UNL     1      62.765  31.467  58.260  1.00  0.00     0.000 C 
BRANCH  18  19
ATOM     19  C   UNL     1      61.498  30.598  58.245  1.00  0.00     0.000 C 
BRANCH  19  20
ATOM     20  C   UNL     1      60.510  30.967  59.363  1.00  0.00     0.000 C 
BRANCH  20  21
ATOM     21  C   UNL     1      61.253  31.468  60.607  1.00  0.00     0.000 C 
BRANCH  21  22
ATOM     22  C   UNL     1      61.294  30.387  61.696  1.00  0.00    -0.000 C 
BRANCH  22  23
ATOM     23  C   UNL     1      62.653  29.668  61.778  1.00  0.00    -0.000 C 
BRANCH  23  24
ATOM     24  C   UNL     1      62.588  28.138  61.629  1.00  0.00    -0.000 C 
BRANCH  24  25
ATOM     25  C   UNL     1      62.266  27.689  60.193  1.00  0.00    -0.000 C 
BRANCH  25  26
ATOM     26  C   UNL     1      63.419  26.901  59.551  1.00  0.00    -0.000 C 
BRANCH  26  27
ATOM     27  C   UNL     1      64.540  26.582  60.556  1.00  0.00    -0.000 C 
BRANCH  27  28
ATOM     28  C   UNL     1      65.901  27.172  60.142  1.00  0.00    -0.000 C 
BRANCH  28  29
ATOM     29  C   UNL     1      66.399  28.331  61.023  1.00  0.00    -0.003 C 
ATOM     30  C   UNL     1      67.871  28.198  61.412  1.00  0.00     0.004 C 
ENDBRANCH  28  29
ENDBRANCH  27  28
ENDBRANCH  26  27
ENDBRANCH  25  26
ENDBRANCH  24  25
ENDBRANCH  23  24
ENDBRANCH  22  23
ENDBRANCH  21  22
ENDBRANCH  20  21
ENDBRANCH  19  20
ENDBRANCH  18  19
ENDBRANCH  17  18
ENDBRANCH   1  17
TORSDOF 26
ENDMDL
MODEL 3
REMARK VINA RESULT:    -2.969      8.374     11.823
REMARK INTER + INTRA:         -12.880
REMARK INTER:                  -7.019
REMARK INTRA:                  -5.861
REMARK UNBOUND:                -5.400
REMARK SMILES CCCCCCCCCCCCCCCCCCCCCCCCCCCC(=O)[O-]
REMARK SMILES IDX 15 1 16 2 17 3 18 4 19 5 20 6 21 7 22 8 23 9 24 10 25 11
REMARK SMILES IDX 26 12 27 13 28 14 29 15 30 16 14 17 13 18 12 19 11 20 10 21
REMARK SMILES IDX 9 22 8 23 7 24 6 25 5 26 4 27 3 28 2 29 1 30
REMARK H PARENT
REMARK Flexibility Score: inf
ROOT
ATOM      1  C   UNL     1      63.872  30.193  57.212  1.00  0.00     0.000 C 
ENDROOT
BRANCH   1   2
ATOM      2  C   UNL     1      63.289  28.869  57.740  1.00  0.00     0.000 C 
BRANCH   2   3
ATOM      3  C   UNL     1      61.771  28.885  58.016  1.00  0.00     0.000 C 
BRANCH   3   4
ATOM      4  C   UNL     1      61.112  30.276  57.987  1.00  0.00     0.000 C 
BRANCH   4   5
ATOM      5  C   UNL     1      60.321  30.590  59.267  1.00  0.00     0.000 C 
BRANCH   5   6
ATOM      6  C   UNL     1      61.208  31.172  60.380  1.00  0.00     0.000 C 
BRANCH   6   7
ATOM      7  C   UNL     1      61.174  30.330  61.668  1.00  0.00     0.000 C 
BRANCH   7   8
ATOM      8  C   UNL     1      62.241  29.224  61.683  1.00  0.00     0.000 C 
BRANCH   8   9
ATOM      9  C   UNL     1      63.672  29.784  61.596  1.00  0.00     0.000 C 
BRANCH   9  10
ATOM     10  C   UNL     1      64.702  28.715  61.186  1.00  0.00     0.000 C 
BRANCH  10  11
ATOM     11  C   UNL     1      64.094  27.338  60.862  1.00  0.00     0.000 C 
BRANCH  11  12
ATOM     12  C   UNL     1      65.132  26.349  60.301  1.00  0.00     0.006 C 
BRANCH  12  13
ATOM     13  C   UNL     1      66.571  26.833  60.522  1.00  0.00     0.053 C 
BRANCH  13  14
ATOM     14  C   UNL     1      67.308  27.006  59.229  1.00  0.00     0.041 C 
ATOM     15  O   UNL     1      68.454  26.506  59.081  1.00  0.00    -0.550 OA
ATOM     16  O   UNL     1      66.722  27.704  58.180  1.00  0.00    -0.550 OA
ENDBRANCH  13  14
ENDBRANCH  12  13
ENDBRANCH  11  12
ENDBRANCH  10  11
ENDBRANCH   9  10
ENDBRANCH   8   9
ENDBRANCH   7   8
ENDBRANCH   6   7
ENDBRANCH   5   6
ENDBRANCH   4   5
ENDBRANCH   3   4
ENDBRANCH   2   3
ENDBRANCH   1   2
BRANCH   1  17
ATOM     17  C   UNL     1      64.777  30.896  58.235  1.00  0.00     0.000 C 
BRANCH  17  18
ATOM     18  C   UNL     1      64.185  32.251  58.654  1.00  0.00     0.000 C 
BRANCH  18  19
ATOM     19  C   UNL     1      64.868  32.834  59.902  1.00  0.00     0.000 C 
BRANCH  19  20
ATOM     20  C   UNL     1      63.868  33.444  60.897  1.00  0.00     0.000 C 
BRANCH  20  21
ATOM     21  C   UNL     1      64.113  34.948  61.066  1.00  0.00     0.000 C 
BRANCH  21  22
ATOM     22  C   UNL     1      62.793  35.697  61.302  1.00  0.00    -0.000 C 
BRANCH  22  23
ATOM     23  C   UNL     1      61.583  34.998  60.656  1.00  0.00    -0.000 C 
BRANCH  23  24
ATOM     24  C   UNL     1      61.333  35.363  59.182  1.00  0.00    -0.000 C 
BRANCH  24  25
ATOM     25  C   UNL     1      61.094  34.129  58.294  1.00  0.00    -0.000 C 
BRANCH  25  26
ATOM     26  C   UNL     1      61.669  34.304  56.879  1.00  0.00    -0.000 C 
BRANCH  26  27
ATOM     27  C   UNL     1      62.427  35.635  56.716  1.00  0.00    -0.000 C 
BRANCH  27  28
ATOM     28  C   UNL     1      63.946  35.442  56.557  1.00  0.00    -0.000 C 
BRANCH  28  29
ATOM     29  C   UNL     1      64.789  35.937  57.746  1.00  0.00    -0.003 C 
ATOM     30  C   UNL     1      66.236  35.445  57.699  1.00  0.00     0.004 C 
ENDBRANCH  28  29
ENDBRANCH  27  28
ENDBRANCH  26  27
ENDBRANCH  25  26
ENDBRANCH  24  25
ENDBRANCH  23  24
ENDBRANCH  22  23
ENDBRANCH  21  22
ENDBRANCH  20  21
ENDBRANCH  19  20
ENDBRANCH  18  19
ENDBRANCH  17  18
ENDBRANCH   1  17
TORSDOF 26
ENDMDL
MODEL 4
REMARK VINA RESULT:    -2.965      2.034      4.811
REMARK INTER + INTRA:         -12.871
REMARK INTER:                  -8.056
REMARK INTRA:                  -4.814
REMARK UNBOUND:                -5.400
REMARK SMILES CCCCCCCCCCCCCCCCCCCCCCCCCCCC(=O)[O-]
REMARK SMILES IDX 15 1 16 2 17 3 18 4 19 5 20 6 21 7 22 8 23 9 24 10 25 11
REMARK SMILES IDX 26 12 27 13 28 14 29 15 30 16 14 17 13 18 12 19 11 20 10 21
REMARK SMILES IDX 9 22 8 23 7 24 6 25 5 26 4 27 3 28 2 29 1 30
REMARK H PARENT
REMARK Flexibility Score: inf
ROOT
ATOM      1  C   UNL     1      55.567  26.060  52.918  1.00  0.00     0.000 C 
ENDROOT
BRANCH   1   2
ATOM      2  C   UNL     1      56.201  25.137  51.862  1.00  0.00     0.000 C 
BRANCH   2   3
ATOM      3  C   UNL     1      55.570  25.218  50.456  1.00  0.00     0.000 C 
BRANCH   3   4
ATOM      4  C   UNL     1      55.155  26.630  50.003  1.00  0.00     0.000 C 
BRANCH   4   5
ATOM      5  C   UNL     1      53.629  26.824  49.974  1.00  0.00     0.000 C 
BRANCH   5   6
ATOM      6  C   UNL     1      53.211  28.255  50.349  1.00  0.00     0.000 C 
BRANCH   6   7
ATOM      7  C   UNL     1      54.406  29.142  50.736  1.00  0.00     0.000 C 
BRANCH   7   8
ATOM      8  C   UNL     1      54.066  30.145  51.850  1.00  0.00     0.000 C 
BRANCH   8   9
ATOM      9  C   UNL     1      53.997  29.483  53.238  1.00  0.00     0.000 C 
BRANCH   9  10
ATOM     10  C   UNL     1      54.470  30.422  54.364  1.00  0.00     0.000 C 
BRANCH  10  11
ATOM     11  C   UNL     1      55.963  30.289  54.718  1.00  0.00     0.000 C 
BRANCH  11  12
ATOM     12  C   UNL     1      56.722  31.622  54.594  1.00  0.00     0.006 C 
BRANCH  12  13
ATOM     13  C   UNL     1      55.897  32.692  53.867  1.00  0.00     0.053 C 
BRANCH  13  14
ATOM     14  C   UNL     1      55.662  33.899  54.724  1.00  0.00     0.041 C 
ATOM     15  O   UNL     1      54.661  33.950  55.485  1.00  0.00    -0.550 OA
ATOM     16  O   UNL     1      56.562  34.958  54.698  1.00  0.00    -0.550 OA
ENDBRANCH  13  14
ENDBRANCH  12  13
ENDBRANCH  11  12
ENDBRANCH  10  11
ENDBRANCH   9  10
ENDBRANCH   8   9
ENDBRANCH   7   8
ENDBRANCH   6   7
ENDBRANCH   5   6
ENDBRANCH   4   5
ENDBRANCH   3   4
ENDBRANCH   2   3
ENDBRANCH   1   2
BRANCH   1  17
ATOM     17  C   UNL     1      56.611  26.790  53.775  1.00  0.00     0.000 C 
BRANCH  17  18
ATOM     18  C   UNL     1      57.976  26.827  53.068  1.00  0.00     0.000 C 
BRANCH  18  19
ATOM     19  C   UNL     1      58.571  28.242  53.005  1.00  0.00     0.000 C 
BRANCH  19  20
ATOM     20  C   UNL     1      57.950  29.099  51.892  1.00  0.00     0.000 C 
BRANCH  20  21
ATOM     21  C   UNL     1      58.080  28.407  50.530  1.00  0.00     0.000 C 
BRANCH  21  22
ATOM     22  C   UNL     1      59.484  28.610  49.941  1.00  0.00    -0.000 C 
BRANCH  22  23
ATOM     23  C   UNL     1      60.126  27.298  49.454  1.00  0.00    -0.000 C 
BRANCH  23  24
ATOM     24  C   UNL     1      59.350  26.020  49.819  1.00  0.00    -0.000 C 
BRANCH  24  25
ATOM     25  C   UNL     1      60.254  24.916  50.395  1.00  0.00    -0.000 C 
BRANCH  25  26
ATOM     26  C   UNL     1      61.409  25.482  51.237  1.00  0.00    -0.000 C 
BRANCH  26  27
ATOM     27  C   UNL     1      62.784  25.222  50.594  1.00  0.00    -0.000 C 
BRANCH  27  28
ATOM     28  C   UNL     1      63.659  26.485  50.521  1.00  0.00    -0.000 C 
BRANCH  28  29
ATOM     29  C   UNL     1      63.764  27.120  49.122  1.00  0.00    -0.003 C 
ATOM     30  C   UNL     1      65.064  27.895  48.912  1.00  0.00     0.004 C 
ENDBRANCH  28  29
ENDBRANCH  27  28
ENDBRANCH  26  27
ENDBRANCH  25  26
ENDBRANCH  24  25
ENDBRANCH  23  24
ENDBRANCH  22  23
ENDBRANCH  21  22
ENDBRANCH  20  21
ENDBRANCH  19  20
ENDBRANCH  18  19
ENDBRANCH  17  18
ENDBRANCH   1  17
TORSDOF 26
ENDMDL
MODEL 5
REMARK VINA RESULT:    -2.950      2.083      4.650
REMARK INTER + INTRA:         -12.834
REMARK INTER:                  -7.645
REMARK INTRA:                  -5.189
REMARK UNBOUND:                -5.400
REMARK SMILES CCCCCCCCCCCCCCCCCCCCCCCCCCCC(=O)[O-]
REMARK SMILES IDX 15 1 16 2 17 3 18 4 19 5 20 6 21 7 22 8 23 9 24 10 25 11
REMARK SMILES IDX 26 12 27 13 28 14 29 15 30 16 14 17 13 18 12 19 11 20 10 21
REMARK SMILES IDX 9 22 8 23 7 24 6 25 5 26 4 27 3 28 2 29 1 30
REMARK H PARENT
REMARK Flexibility Score: inf
ROOT
ATOM      1  C   UNL     1      55.223  25.345  53.192  1.00  0.00     0.000 C 
ENDROOT
BRANCH   1   2
ATOM      2  C   UNL     1      53.900  24.565  53.089  1.00  0.00     0.000 C 
BRANCH   2   3
ATOM      3  C   UNL     1      53.171  24.684  51.734  1.00  0.00     0.000 C 
BRANCH   3   4
ATOM      4  C   UNL     1      53.941  24.124  50.523  1.00  0.00     0.000 C 
BRANCH   4   5
ATOM      5  C   UNL     1      54.515  25.226  49.618  1.00  0.00     0.000 C 
BRANCH   5   6
ATOM      6  C   UNL     1      53.760  26.558  49.760  1.00  0.00     0.000 C 
BRANCH   6   7
ATOM      7  C   UNL     1      54.640  27.682  50.333  1.00  0.00     0.000 C 
BRANCH   7   8
ATOM      8  C   UNL     1      53.817  28.841  50.918  1.00  0.00     0.000 C 
BRANCH   8   9
ATOM      9  C   UNL     1      53.435  28.608  52.390  1.00  0.00     0.000 C 
BRANCH   9  10
ATOM     10  C   UNL     1      54.585  28.938  53.360  1.00  0.00     0.000 C 
BRANCH  10  11
ATOM     11  C   UNL     1      55.486  30.101  52.904  1.00  0.00     0.000 C 
BRANCH  11  12
ATOM     12  C   UNL     1      55.901  31.020  54.067  1.00  0.00     0.006 C 
BRANCH  12  13
ATOM     13  C   UNL     1      55.611  32.497  53.769  1.00  0.00     0.053 C 
BRANCH  13  14
ATOM     14  C   UNL     1      56.870  33.292  53.595  1.00  0.00     0.041 C 
ATOM     15  O   UNL     1      57.988  32.715  53.595  1.00  0.00    -0.550 OA
ATOM     16  O   UNL     1      56.806  34.668  53.412  1.00  0.00    -0.550 OA
ENDBRANCH  13  14
ENDBRANCH  12  13
ENDBRANCH  11  12
ENDBRANCH  10  11
ENDBRANCH   9  10
ENDBRANCH   8   9
ENDBRANCH   7   8
ENDBRANCH   6   7
ENDBRANCH   5   6
ENDBRANCH   4   5
ENDBRANCH   3   4
ENDBRANCH   2   3
ENDBRANCH   1   2
BRANCH   1  17
ATOM     17  C   UNL     1      56.458  24.434  53.125  1.00  0.00     0.000 C 
BRANCH  17  18
ATOM     18  C   UNL     1      57.688  25.211  52.626  1.00  0.00     0.000 C 
BRANCH  18  19
ATOM     19  C   UNL     1      57.371  26.681  52.312  1.00  0.00     0.000 C 
BRANCH  19  20
ATOM     20  C   UNL     1      58.352  27.657  52.980  1.00  0.00     0.000 C 
BRANCH  20  21
ATOM     21  C   UNL     1      58.716  28.804  52.030  1.00  0.00     0.000 C 
BRANCH  21  22
ATOM     22  C   UNL     1      58.180  28.539  50.616  1.00  0.00    -0.000 C 
BRANCH  22  23
ATOM     23  C   UNL     1      59.284  28.557  49.543  1.00  0.00    -0.000 C 
BRANCH  23  24
ATOM     24  C   UNL     1      60.361  27.469  49.700  1.00  0.00    -0.000 C 
BRANCH  24  25
ATOM     25  C   UNL     1      59.791  26.044  49.586  1.00  0.00    -0.000 C 
BRANCH  25  26
ATOM     26  C   UNL     1      60.637  25.011  50.349  1.00  0.00    -0.000 C 
BRANCH  26  27
ATOM     27  C   UNL     1      61.968  25.601  50.850  1.00  0.00    -0.000 C 
BRANCH  27  28
ATOM     28  C   UNL     1      62.192  25.377  52.356  1.00  0.00    -0.000 C 
BRANCH  28  29
ATOM     29  C   UNL     1      61.772  26.553  53.256  1.00  0.00    -0.003 C 
ATOM     30  C   UNL     1      62.263  27.905  52.741  1.00  0.00     0.004 C 
ENDBRANCH  28  29
ENDBRANCH  27  28
ENDBRANCH  26  27
ENDBRANCH  25  26
ENDBRANCH  24  25
ENDBRANCH  23  24
ENDBRANCH  22  23
ENDBRANCH  21  22
ENDBRANCH  20  21
ENDBRANCH  19  20
ENDBRANCH  18  19
ENDBRANCH  17  18
ENDBRANCH   1  17
TORSDOF 26
ENDMDL
MODEL 6
REMARK VINA RESULT:    -2.945      4.552      7.674
REMARK INTER + INTRA:         -12.822
REMARK INTER:                  -7.326
REMARK INTRA:                  -5.496
REMARK UNBOUND:                -5.400
REMARK SMILES CCCCCCCCCCCCCCCCCCCCCCCCCCCC(=O)[O-]
REMARK SMILES IDX 15 1 16 2 17 3 18 4 19 5 20 6 21 7 22 8 23 9 24 10 25 11
REMARK SMILES IDX 26 12 27 13 28 14 29 15 30 16 14 17 13 18 12 19 11 20 10 21
REMARK SMILES IDX 9 22 8 23 7 24 6 25 5 26 4 27 3 28 2 29 1 30
REMARK H PARENT
REMARK Flexibility Score: inf
ROOT
ATOM      1  C   UNL     1      58.701  28.196  50.080  1.00  0.00     0.000 C 
ENDROOT
BRANCH   1   2
ATOM      2  C   UNL     1      60.063  27.478  50.093  1.00  0.00     0.000 C 
BRANCH   2   3
ATOM      3  C   UNL     1      59.996  25.941  49.975  1.00  0.00     0.000 C 
BRANCH   3   4
ATOM      4  C   UNL     1      58.610  25.323  50.232  1.00  0.00     0.000 C 
BRANCH   4   5
ATOM      5  C   UNL     1      58.517  24.603  51.588  1.00  0.00     0.000 C 
BRANCH   5   6
ATOM      6  C   UNL     1      57.192  24.884  52.314  1.00  0.00     0.000 C 
BRANCH   6   7
ATOM      7  C   UNL     1      57.397  25.419  53.742  1.00  0.00     0.000 C 
BRANCH   7   8
ATOM      8  C   UNL     1      58.768  26.087  53.934  1.00  0.00     0.000 C 
BRANCH   8   9
ATOM      9  C   UNL     1      59.554  25.492  55.116  1.00  0.00     0.000 C 
BRANCH   9  10
ATOM     10  C   UNL     1      61.069  25.431  54.848  1.00  0.00     0.000 C 
BRANCH  10  11
ATOM     11  C   UNL     1      61.479  25.837  53.420  1.00  0.00     0.000 C 
BRANCH  11  12
ATOM     12  C   UNL     1      62.283  24.739  52.700  1.00  0.00     0.006 C 
BRANCH  12  13
ATOM     13  C   UNL     1      61.623  23.360  52.830  1.00  0.00     0.053 C 
BRANCH  13  14
ATOM     14  C   UNL     1      61.563  22.641  51.516  1.00  0.00     0.041 C 
ATOM     15  O   UNL     1      60.880  21.590  51.400  1.00  0.00    -0.550 OA
ATOM     16  O   UNL     1      62.244  23.145  50.415  1.00  0.00    -0.550 OA
ENDBRANCH  13  14
ENDBRANCH  12  13
ENDBRANCH  11  12
ENDBRANCH  10  11
ENDBRANCH   9  10
ENDBRANCH   8   9
ENDBRANCH   7   8
ENDBRANCH   6   7
ENDBRANCH   5   6
ENDBRANCH   4   5
ENDBRANCH   3   4
ENDBRANCH   2   3
ENDBRANCH   1   2
BRANCH   1  17
ATOM     17  C   UNL     1      58.340  28.814  51.439  1.00  0.00     0.000 C 
BRANCH  17  18
ATOM     18  C   UNL     1      56.858  28.580  51.774  1.00  0.00     0.000 C 
BRANCH  18  19
ATOM     19  C   UNL     1      56.118  27.804  50.673  1.00  0.00     0.000 C 
BRANCH  19  20
ATOM     20  C   UNL     1      54.610  28.097  50.649  1.00  0.00     0.000 C 
BRANCH  20  21
ATOM     21  C   UNL     1      53.849  26.991  49.909  1.00  0.00     0.000 C 
BRANCH  21  22
ATOM     22  C   UNL     1      54.723  25.740  49.737  1.00  0.00    -0.000 C 
BRANCH  22  23
ATOM     23  C   UNL     1      54.056  24.463  50.281  1.00  0.00    -0.000 C 
BRANCH  23  24
ATOM     24  C   UNL     1      53.684  24.509  51.773  1.00  0.00    -0.000 C 
BRANCH  24  25
ATOM     25  C   UNL     1      53.339  23.123  52.346  1.00  0.00    -0.000 C 
BRANCH  25  26
ATOM     26  C   UNL     1      54.337  22.668  53.423  1.00  0.00    -0.000 C 
BRANCH  26  27
ATOM     27  C   UNL     1      54.474  21.136  53.483  1.00  0.00    -0.000 C 
BRANCH  27  28
ATOM     28  C   UNL     1      55.832  20.678  54.045  1.00  0.00    -0.000 C 
BRANCH  28  29
ATOM     29  C   UNL     1      56.808  21.817  54.390  1.00  0.00    -0.003 C 
ATOM     30  C   UNL     1      58.203  21.609  53.804  1.00  0.00     0.004 C 
ENDBRANCH  28  29
ENDBRANCH  27  28
ENDBRANCH  26  27
ENDBRANCH  25  26
ENDBRANCH  24  25
ENDBRANCH  23  24
ENDBRANCH  22  23
ENDBRANCH  21  22
ENDBRANCH  20  21
ENDBRANCH  19  20
ENDBRANCH  18  19
ENDBRANCH  17  18
ENDBRANCH   1  17
TORSDOF 26
ENDMDL
MODEL 7
REMARK VINA RESULT:    -2.900      3.475      5.996
REMARK INTER + INTRA:         -12.706
REMARK INTER:                  -7.324
REMARK INTRA:                  -5.382
REMARK UNBOUND:                -5.400
REMARK SMILES CCCCCCCCCCCCCCCCCCCCCCCCCCCC(=O)[O-]
REMARK SMILES IDX 15 1 16 2 17 3 18 4 19 5 20 6 21 7 22 8 23 9 24 10 25 11
REMARK SMILES IDX 26 12 27 13 28 14 29 15 30 16 14 17 13 18 12 19 11 20 10 21
REMARK SMILES IDX 9 22 8 23 7 24 6 25 5 26 4 27 3 28 2 29 1 30
REMARK H PARENT
REMARK Flexibility Score: inf
ROOT
ATOM      1  C   UNL     1      54.496  26.260  49.691  1.00  0.00     0.000 C 
ENDROOT
BRANCH   1   2
ATOM      2  C   UNL     1      53.578  27.006  50.676  1.00  0.00     0.000 C 
BRANCH   2   3
ATOM      3  C   UNL     1      53.343  28.497  50.353  1.00  0.00     0.000 C 
BRANCH   3   4
ATOM      4  C   UNL     1      54.177  29.488  51.185  1.00  0.00     0.000 C 
BRANCH   4   5
ATOM      5  C   UNL     1      54.900  28.817  52.365  1.00  0.00     0.000 C 
BRANCH   5   6
ATOM      6  C   UNL     1      56.424  29.009  52.307  1.00  0.00     0.000 C 
BRANCH   6   7
ATOM      7  C   UNL     1      57.009  28.709  50.916  1.00  0.00     0.000 C 
BRANCH   7   8
ATOM      8  C   UNL     1      58.517  28.416  50.957  1.00  0.00     0.000 C 
BRANCH   8   9
ATOM      9  C   UNL     1      59.160  28.436  49.558  1.00  0.00     0.000 C 
BRANCH   9  10
ATOM     10  C   UNL     1      60.394  27.519  49.461  1.00  0.00     0.000 C 
BRANCH  10  11
ATOM     11  C   UNL     1      61.103  27.264  50.804  1.00  0.00     0.000 C 
BRANCH  11  12
ATOM     12  C   UNL     1      61.336  25.767  51.075  1.00  0.00     0.006 C 
BRANCH  12  13
ATOM     13  C   UNL     1      60.374  24.877  50.276  1.00  0.00     0.053 C 
BRANCH  13  14
ATOM     14  C   UNL     1      60.507  23.432  50.649  1.00  0.00     0.041 C 
ATOM     15  O   UNL     1      61.120  22.635  49.892  1.00  0.00    -0.550 OA
ATOM     16  O   UNL     1      59.969  22.969  51.844  1.00  0.00    -0.550 OA
ENDBRANCH  13  14
ENDBRANCH  12  13
ENDBRANCH  11  12
ENDBRANCH  10  11
ENDBRANCH   9  10
ENDBRANCH   8   9
ENDBRANCH   7   8
ENDBRANCH   6   7
ENDBRANCH   5   6
ENDBRANCH   4   5
ENDBRANCH   3   4
ENDBRANCH   2   3
ENDBRANCH   1   2
BRANCH   1  17
ATOM     17  C   UNL     1      55.203  25.056  50.331  1.00  0.00     0.000 C 
BRANCH  17  18
ATOM     18  C   UNL     1      56.695  25.350  50.558  1.00  0.00     0.000 C 
BRANCH  18  19
ATOM     19  C   UNL     1      57.132  25.099  52.010  1.00  0.00     0.000 C 
BRANCH  19  20
ATOM     20  C   UNL     1      55.986  25.282  53.017  1.00  0.00     0.000 C 
BRANCH  20  21
ATOM     21  C   UNL     1      56.516  25.785  54.365  1.00  0.00     0.000 C 
BRANCH  21  22
ATOM     22  C   UNL     1      57.890  26.451  54.203  1.00  0.00    -0.000 C 
BRANCH  22  23
ATOM     23  C   UNL     1      58.119  27.602  55.199  1.00  0.00    -0.000 C 
BRANCH  23  24
ATOM     24  C   UNL     1      59.591  28.003  55.402  1.00  0.00    -0.000 C 
BRANCH  24  25
ATOM     25  C   UNL     1      60.241  28.558  54.123  1.00  0.00    -0.000 C 
BRANCH  25  26
ATOM     26  C   UNL     1      60.455  30.079  54.186  1.00  0.00    -0.000 C 
BRANCH  26  27
ATOM     27  C   UNL     1      59.433  30.850  53.331  1.00  0.00    -0.000 C 
BRANCH  27  28
ATOM     28  C   UNL     1      58.761  32.004  54.096  1.00  0.00    -0.000 C 
BRANCH  28  29
ATOM     29  C   UNL     1      57.358  31.689  54.642  1.00  0.00    -0.003 C 
ATOM     30  C   UNL     1      56.239  32.346  53.835  1.00  0.00     0.004 C 
ENDBRANCH  28  29
ENDBRANCH  27  28
ENDBRANCH  26  27
ENDBRANCH  25  26
ENDBRANCH  24  25
ENDBRANCH  23  24
ENDBRANCH  22  23
ENDBRANCH  21  22
ENDBRANCH  20  21
ENDBRANCH  19  20
ENDBRANCH  18  19
ENDBRANCH  17  18
ENDBRANCH   1  17
TORSDOF 26
ENDMDL
MODEL 8
REMARK VINA RESULT:    -2.894      2.560      5.610
REMARK INTER + INTRA:         -12.694
REMARK INTER:                  -6.828
REMARK INTRA:                  -5.865
REMARK UNBOUND:                -5.400
REMARK SMILES CCCCCCCCCCCCCCCCCCCCCCCCCCCC(=O)[O-]
REMARK SMILES IDX 15 1 16 2 17 3 18 4 19 5 20 6 21 7 22 8 23 9 24 10 25 11
REMARK SMILES IDX 26 12 27 13 28 14 29 15 30 16 14 17 13 18 12 19 11 20 10 21
REMARK SMILES IDX 9 22 8 23 7 24 6 25 5 26 4 27 3 28 2 29 1 30
REMARK H PARENT
REMARK Flexibility Score: inf
ROOT
ATOM      1  C   UNL     1      56.355  25.536  53.695  1.00  0.00     0.000 C 
ENDROOT
BRANCH   1   2
ATOM      2  C   UNL     1      57.082  25.956  52.404  1.00  0.00     0.000 C 
BRANCH   2   3
ATOM      3  C   UNL     1      57.446  24.801  51.449  1.00  0.00     0.000 C 
BRANCH   3   4
ATOM      4  C   UNL     1      58.777  24.969  50.694  1.00  0.00     0.000 C 
BRANCH   4   5
ATOM      5  C   UNL     1      59.894  25.558  51.573  1.00  0.00     0.000 C 
BRANCH   5   6
ATOM      6  C   UNL     1      60.836  26.483  50.786  1.00  0.00     0.000 C 
BRANCH   6   7
ATOM      7  C   UNL     1      60.170  27.090  49.539  1.00  0.00     0.000 C 
BRANCH   7   8
ATOM      8  C   UNL     1      59.765  28.559  49.738  1.00  0.00     0.000 C 
BRANCH   8   9
ATOM      9  C   UNL     1      58.371  28.706  50.373  1.00  0.00     0.000 C 
BRANCH   9  10
ATOM     10  C   UNL     1      58.436  29.141  51.849  1.00  0.00     0.000 C 
BRANCH  10  11
ATOM     11  C   UNL     1      59.801  29.706  52.285  1.00  0.00     0.000 C 
BRANCH  11  12
ATOM     12  C   UNL     1      60.287  29.115  53.621  1.00  0.00     0.006 C 
BRANCH  12  13
ATOM     13  C   UNL     1      59.269  28.138  54.225  1.00  0.00     0.053 C 
BRANCH  13  14
ATOM     14  C   UNL     1      59.927  27.114  55.100  1.00  0.00     0.041 C 
ATOM     15  O   UNL     1      59.365  26.730  56.158  1.00  0.00    -0.550 OA
ATOM     16  O   UNL     1      61.152  26.570  54.735  1.00  0.00    -0.550 OA
ENDBRANCH  13  14
ENDBRANCH  12  13
ENDBRANCH  11  12
ENDBRANCH  10  11
ENDBRANCH   9  10
ENDBRANCH   8   9
ENDBRANCH   7   8
ENDBRANCH   6   7
ENDBRANCH   5   6
ENDBRANCH   4   5
ENDBRANCH   3   4
ENDBRANCH   2   3
ENDBRANCH   1   2
BRANCH   1  17
ATOM     17  C   UNL     1      54.826  25.605  53.567  1.00  0.00     0.000 C 
BRANCH  17  18
ATOM     18  C   UNL     1      54.187  24.235  53.846  1.00  0.00     0.000 C 
BRANCH  18  19
ATOM     19  C   UNL     1      53.711  23.532  52.565  1.00  0.00     0.000 C 
BRANCH  19  20
ATOM     20  C   UNL     1      53.305  24.521  51.461  1.00  0.00     0.000 C 
BRANCH  20  21
ATOM     21  C   UNL     1      54.008  24.186  50.140  1.00  0.00     0.000 C 
BRANCH  21  22
ATOM     22  C   UNL     1      54.524  25.459  49.453  1.00  0.00    -0.000 C 
BRANCH  22  23
ATOM     23  C   UNL     1      53.829  26.737  49.959  1.00  0.00    -0.000 C 
BRANCH  23  24
ATOM     24  C   UNL     1      54.775  27.808  50.531  1.00  0.00    -0.000 C 
BRANCH  24  25
ATOM     25  C   UNL     1      54.101  29.184  50.675  1.00  0.00    -0.000 C 
BRANCH  25  26
ATOM     26  C   UNL     1      54.105  29.690  52.127  1.00  0.00    -0.000 C 
BRANCH  26  27
ATOM     27  C   UNL     1      55.257  29.090  52.952  1.00  0.00    -0.000 C 
BRANCH  27  28
ATOM     28  C   UNL     1      55.383  29.721  54.351  1.00  0.00    -0.000 C 
BRANCH  28  29
ATOM     29  C   UNL     1      54.967  28.805  55.515  1.00  0.00    -0.003 C 
ATOM     30  C   UNL     1      56.158  28.208  56.263  1.00  0.00     0.004 C 
ENDBRANCH  28  29
ENDBRANCH  27  28
ENDBRANCH  26  27
ENDBRANCH  25  26
ENDBRANCH  24  25
ENDBRANCH  23  24
ENDBRANCH  22  23
ENDBRANCH  21  22
ENDBRANCH  20  21
ENDBRANCH  19  20
ENDBRANCH  18  19
ENDBRANCH  17  18
ENDBRANCH   1  17
TORSDOF 26
ENDMDL
MODEL 9
REMARK VINA RESULT:    -2.817      1.492      4.885
REMARK INTER + INTRA:         -12.499
REMARK INTER:                  -7.189
REMARK INTRA:                  -5.310
REMARK UNBOUND:                -5.400
REMARK SMILES CCCCCCCCCCCCCCCCCCCCCCCCCCCC(=O)[O-]
REMARK SMILES IDX 15 1 16 2 17 3 18 4 19 5 20 6 21 7 22 8 23 9 24 10 25 11
REMARK SMILES IDX 26 12 27 13 28 14 29 15 30 16 14 17 13 18 12 19 11 20 10 21
REMARK SMILES IDX 9 22 8 23 7 24 6 25 5 26 4 27 3 28 2 29 1 30
REMARK H PARENT
REMARK Flexibility Score: inf
ROOT
ATOM      1  C   UNL     1      58.409  24.850  51.586  1.00  0.00     0.000 C 
ENDROOT
BRANCH   1   2
ATOM      2  C   UNL     1      59.845  25.393  51.477  1.00  0.00     0.000 C 
BRANCH   2   3
ATOM      3  C   UNL     1      60.382  25.547  50.038  1.00  0.00     0.000 C 
BRANCH   3   4
ATOM      4  C   UNL     1      60.994  26.921  49.710  1.00  0.00     0.000 C 
BRANCH   4   5
ATOM      5  C   UNL     1      60.300  28.077  50.450  1.00  0.00     0.000 C 
BRANCH   5   6
ATOM      6  C   UNL     1      59.088  28.627  49.680  1.00  0.00     0.000 C 
BRANCH   6   7
ATOM      7  C   UNL     1      57.796  28.612  50.515  1.00  0.00     0.000 C 
BRANCH   7   8
ATOM      8  C   UNL     1      58.066  28.618  52.028  1.00  0.00     0.000 C 
BRANCH   8   9
ATOM      9  C   UNL     1      57.837  30.002  52.662  1.00  0.00     0.000 C 
BRANCH   9  10
ATOM     10  C   UNL     1      58.204  30.036  54.157  1.00  0.00     0.000 C 
BRANCH  10  11
ATOM     11  C   UNL     1      57.290  30.930  55.016  1.00  0.00     0.000 C 
BRANCH  11  12
ATOM     12  C   UNL     1      57.254  30.495  56.492  1.00  0.00     0.006 C 
BRANCH  12  13
ATOM     13  C   UNL     1      58.660  30.271  57.065  1.00  0.00     0.053 C 
BRANCH  13  14
ATOM     14  C   UNL     1      59.064  31.369  58.002  1.00  0.00     0.041 C 
ATOM     15  O   UNL     1      58.518  32.500  57.926  1.00  0.00    -0.550 OA
ATOM     16  O   UNL     1      60.030  31.135  58.973  1.00  0.00    -0.550 OA
ENDBRANCH  13  14
ENDBRANCH  12  13
ENDBRANCH  11  12
ENDBRANCH  10  11
ENDBRANCH   9  10
ENDBRANCH   8   9
ENDBRANCH   7   8
ENDBRANCH   6   7
ENDBRANCH   5   6
ENDBRANCH   4   5
ENDBRANCH   3   4
ENDBRANCH   2   3
ENDBRANCH   1   2
BRANCH   1  17
ATOM     17  C   UNL     1      57.533  25.235  50.384  1.00  0.00     0.000 C 
BRANCH  17  18
ATOM     18  C   UNL     1      56.056  25.351  50.794  1.00  0.00     0.000 C 
BRANCH  18  19
ATOM     19  C   UNL     1      55.097  25.160  49.608  1.00  0.00     0.000 C 
BRANCH  19  20
ATOM     20  C   UNL     1      53.946  26.177  49.605  1.00  0.00     0.000 C 
BRANCH  20  21
ATOM     21  C   UNL     1      54.003  27.075  50.847  1.00  0.00     0.000 C 
BRANCH  21  22
ATOM     22  C   UNL     1      53.552  28.504  50.514  1.00  0.00    -0.000 C 
BRANCH  22  23
ATOM     23  C   UNL     1      54.394  29.579  51.226  1.00  0.00    -0.000 C 
BRANCH  23  24
ATOM     24  C   UNL     1      53.704  30.259  52.422  1.00  0.00    -0.000 C 
BRANCH  24  25
ATOM     25  C   UNL     1      53.439  29.291  53.588  1.00  0.00    -0.000 C 
BRANCH  25  26
ATOM     26  C   UNL     1      54.732  28.669  54.140  1.00  0.00    -0.000 C 
BRANCH  26  27
ATOM     27  C   UNL     1      54.629  27.140  54.288  1.00  0.00    -0.000 C 
BRANCH  27  28
ATOM     28  C   UNL     1      55.997  26.438  54.216  1.00  0.00    -0.000 C 
BRANCH  28  29
ATOM     29  C   UNL     1      57.011  26.884  55.284  1.00  0.00    -0.003 C 
ATOM     30  C   UNL     1      58.428  26.385  55.010  1.00  0.00     0.004 C 
ENDBRANCH  28  29
ENDBRANCH  27  28
ENDBRANCH  26  27
ENDBRANCH  25  26
ENDBRANCH  24  25
ENDBRANCH  23  24
ENDBRANCH  22  23
ENDBRANCH  21  22
ENDBRANCH  20  21
ENDBRANCH  19  20
ENDBRANCH  18  19
ENDBRANCH  17  18
ENDBRANCH   1  17
TORSDOF 26
ENDMDL
