MODEL 1
REMARK VINA RESULT:    -4.348      0.000      0.000
REMARK INTER + INTRA:          -6.482
REMARK INTER:                  -5.873
REMARK INTRA:                  -0.608
REMARK UNBOUND:                -0.608
REMARK SMILES CCCCCCC=CC(=O)[O-]
REMARK SMILES IDX 5 1 6 2 7 3 8 4 9 5 10 6 11 7 4 8 3 9 2 10 1 11
REMARK H PARENT
REMARK Flexibility Score: inf
ROOT
ATOM      1  C   UNL     1      13.606 -16.495  30.479  1.00  0.00     0.004 C 
ENDROOT
BRANCH   1   2
ATOM      2  C   UNL     1      13.567 -14.965  30.621  1.00  0.00     0.027 C 
BRANCH   2   3
ATOM      3  C   UNL     1      12.893 -14.294  29.456  1.00  0.00    -0.025 C 
ATOM      4  C   UNL     1      12.482 -14.990  28.389  1.00  0.00     0.020 C 
BRANCH   4   5
ATOM      5  C   UNL     1      11.813 -14.352  27.244  1.00  0.00     0.064 C 
ATOM      6  O   UNL     1      11.517 -13.128  27.261  1.00  0.00    -0.545 OA
ATOM      7  O   UNL     1      11.506 -15.114  26.123  1.00  0.00    -0.545 OA
ENDBRANCH   4   5
ENDBRANCH   2   3
ENDBRANCH   1   2
BRANCH   1   8
ATOM      8  C   UNL     1      12.878 -17.252  31.607  1.00  0.00     0.000 C 
BRANCH   8   9
ATOM      9  C   UNL     1      11.355 -17.377  31.386  1.00  0.00    -0.000 C 
BRANCH   9  10
ATOM     10  C   UNL     1      10.548 -16.750  32.531  1.00  0.00    -0.003 C 
ATOM     11  C   UNL     1       9.900 -15.439  32.095  1.00  0.00     0.004 C 
ENDBRANCH   9  10
ENDBRANCH   8   9
ENDBRANCH   1   8
TORSDOF 6
ENDMDL
MODEL 2
REMARK VINA RESULT:    -4.284      1.409      1.780
REMARK INTER + INTRA:          -6.396
REMARK INTER:                  -6.065
REMARK INTRA:                  -0.330
REMARK UNBOUND:                -0.608
REMARK SMILES CCCCCCC=CC(=O)[O-]
REMARK SMILES IDX 5 1 6 2 7 3 8 4 9 5 10 6 11 7 4 8 3 9 2 10 1 11
REMARK H PARENT
REMARK Flexibility Score: inf
ROOT
ATOM      1  C   UNL     1      12.924 -15.108  30.120  1.00  0.00     0.004 C 
ENDROOT
BRANCH   1   2
ATOM      2  C   UNL     1      11.684 -14.527  29.422  1.00  0.00     0.027 C 
BRANCH   2   3
ATOM      3  C   UNL     1      11.905 -14.291  27.953  1.00  0.00    -0.025 C 
ATOM      4  C   UNL     1      11.644 -13.107  27.387  1.00  0.00     0.020 C 
BRANCH   4   5
ATOM      5  C   UNL     1      11.862 -12.855  25.954  1.00  0.00     0.064 C 
ATOM      6  O   UNL     1      10.935 -12.420  25.221  1.00  0.00    -0.545 OA
ATOM      7  O   UNL     1      13.113 -13.098  25.401  1.00  0.00    -0.545 OA
ENDBRANCH   4   5
ENDBRANCH   2   3
ENDBRANCH   1   2
BRANCH   1   8
ATOM      8  C   UNL     1      12.626 -15.794  31.467  1.00  0.00     0.000 C 
BRANCH   8   9
ATOM      9  C   UNL     1      11.645 -16.981  31.354  1.00  0.00    -0.000 C 
BRANCH   9  10
ATOM     10  C   UNL     1      10.535 -16.921  32.413  1.00  0.00    -0.003 C 
ATOM     11  C   UNL     1       9.843 -15.561  32.409  1.00  0.00     0.004 C 
ENDBRANCH   9  10
ENDBRANCH   8   9
ENDBRANCH   1   8
TORSDOF 6
ENDMDL
MODEL 3
REMARK VINA RESULT:    -4.278     10.721     11.379
REMARK INTER + INTRA:          -6.387
REMARK INTER:                  -6.173
REMARK INTRA:                  -0.214
REMARK UNBOUND:                -0.608
REMARK SMILES CCCCCCC=CC(=O)[O-]
REMARK SMILES IDX 5 1 6 2 7 3 8 4 9 5 10 6 11 7 4 8 3 9 2 10 1 11
REMARK H PARENT
REMARK Flexibility Score: inf
ROOT
ATOM      1  C   UNL     1       7.644 -20.157  20.811  1.00  0.00     0.004 C 
ENDROOT
BRANCH   1   2
ATOM      2  C   UNL     1       6.568 -19.255  20.185  1.00  0.00     0.027 C 
BRANCH   2   3
ATOM      3  C   UNL     1       6.625 -17.844  20.701  1.00  0.00    -0.025 C 
ATOM      4  C   UNL     1       5.532 -17.072  20.752  1.00  0.00     0.020 C 
BRANCH   4   5
ATOM      5  C   UNL     1       5.567 -15.692  21.262  1.00  0.00     0.064 C 
ATOM      6  O   UNL     1       6.616 -14.999  21.195  1.00  0.00    -0.545 OA
ATOM      7  O   UNL     1       4.421 -15.144  21.823  1.00  0.00    -0.545 OA
ENDBRANCH   4   5
ENDBRANCH   2   3
ENDBRANCH   1   2
BRANCH   1   8
ATOM      8  C   UNL     1       7.281 -21.654  20.825  1.00  0.00     0.000 C 
BRANCH   8   9
ATOM      9  C   UNL     1       8.506 -22.589  20.730  1.00  0.00    -0.000 C 
BRANCH   9  10
ATOM     10  C   UNL     1       9.832 -21.816  20.761  1.00  0.00    -0.003 C 
ATOM     11  C   UNL     1      11.002 -22.742  21.077  1.00  0.00     0.004 C 
ENDBRANCH   9  10
ENDBRANCH   8   9
ENDBRANCH   1   8
TORSDOF 6
ENDMDL
MODEL 4
REMARK VINA RESULT:    -4.200      5.638      7.402
REMARK INTER + INTRA:          -6.282
REMARK INTER:                  -5.990
REMARK INTRA:                  -0.292
REMARK UNBOUND:                -0.608
REMARK SMILES CCCCCCC=CC(=O)[O-]
REMARK SMILES IDX 5 1 6 2 7 3 8 4 9 5 10 6 11 7 4 8 3 9 2 10 1 11
REMARK H PARENT
REMARK Flexibility Score: inf
ROOT
ATOM      1  C   UNL     1      10.664 -19.178  32.116  1.00  0.00     0.004 C 
ENDROOT
BRANCH   1   2
ATOM      2  C   UNL     1       9.969 -19.571  33.430  1.00  0.00     0.027 C 
BRANCH   2   3
ATOM      3  C   UNL     1       9.724 -21.051  33.534  1.00  0.00    -0.025 C 
ATOM      4  C   UNL     1       9.942 -21.871  32.500  1.00  0.00     0.020 C 
BRANCH   4   5
ATOM      5  C   UNL     1       9.716 -23.323  32.585  1.00  0.00     0.064 C 
ATOM      6  O   UNL     1       9.099 -23.830  33.559  1.00  0.00    -0.545 OA
ATOM      7  O   UNL     1      10.190 -24.148  31.572  1.00  0.00    -0.545 OA
ENDBRANCH   4   5
ENDBRANCH   2   3
ENDBRANCH   1   2
BRANCH   1   8
ATOM      8  C   UNL     1      11.020 -17.683  32.013  1.00  0.00     0.000 C 
BRANCH   8   9
ATOM      9  C   UNL     1      10.068 -16.763  32.809  1.00  0.00    -0.000 C 
BRANCH   9  10
ATOM     10  C   UNL     1       9.876 -15.400  32.130  1.00  0.00    -0.003 C 
ATOM     11  C   UNL     1      10.829 -15.233  30.950  1.00  0.00     0.004 C 
ENDBRANCH   9  10
ENDBRANCH   8   9
ENDBRANCH   1   8
TORSDOF 6
ENDMDL
MODEL 5
REMARK VINA RESULT:    -4.183      3.180      5.111
REMARK INTER + INTRA:          -6.258
REMARK INTER:                  -5.966
REMARK INTRA:                  -0.292
REMARK UNBOUND:                -0.608
REMARK SMILES CCCCCCC=CC(=O)[O-]
REMARK SMILES IDX 5 1 6 2 7 3 8 4 9 5 10 6 11 7 4 8 3 9 2 10 1 11
REMARK H PARENT
REMARK Flexibility Score: inf
ROOT
ATOM      1  C   UNL     1      13.755 -14.843  29.750  1.00  0.00     0.004 C 
ENDROOT
BRANCH   1   2
ATOM      2  C   UNL     1      13.822 -15.460  31.156  1.00  0.00     0.027 C 
BRANCH   2   3
ATOM      3  C   UNL     1      12.513 -16.063  31.586  1.00  0.00    -0.025 C 
ATOM      4  C   UNL     1      12.301 -17.383  31.538  1.00  0.00     0.020 C 
BRANCH   4   5
ATOM      5  C   UNL     1      11.030 -17.992  31.962  1.00  0.00     0.064 C 
ATOM      6  O   UNL     1      10.680 -19.127  31.543  1.00  0.00    -0.545 OA
ATOM      7  O   UNL     1      10.204 -17.304  32.841  1.00  0.00    -0.545 OA
ENDBRANCH   4   5
ENDBRANCH   2   3
ENDBRANCH   1   2
BRANCH   1   8
ATOM      8  C   UNL     1      12.335 -14.444  29.303  1.00  0.00     0.000 C 
BRANCH   8   9
ATOM      9  C   UNL     1      12.260 -13.044  28.656  1.00  0.00    -0.000 C 
BRANCH   9  10
ATOM     10  C   UNL     1      11.848 -13.108  27.179  1.00  0.00    -0.003 C 
ATOM     11  C   UNL     1      11.703 -14.553  26.709  1.00  0.00     0.004 C 
ENDBRANCH   9  10
ENDBRANCH   8   9
ENDBRANCH   1   8
TORSDOF 6
ENDMDL
MODEL 6
REMARK VINA RESULT:    -4.173     11.147     12.209
REMARK INTER + INTRA:          -6.244
REMARK INTER:                  -5.962
REMARK INTRA:                  -0.282
REMARK UNBOUND:                -0.608
REMARK SMILES CCCCCCC=CC(=O)[O-]
REMARK SMILES IDX 5 1 6 2 7 3 8 4 9 5 10 6 11 7 4 8 3 9 2 10 1 11
REMARK H PARENT
REMARK Flexibility Score: inf
ROOT
ATOM      1  C   UNL     1      11.794 -23.336  21.681  1.00  0.00     0.004 C 
ENDROOT
BRANCH   1   2
ATOM      2  C   UNL     1      10.984 -24.291  22.573  1.00  0.00     0.027 C 
BRANCH   2   3
ATOM      3  C   UNL     1      11.858 -25.129  23.466  1.00  0.00    -0.025 C 
ATOM      4  C   UNL     1      11.816 -25.010  24.798  1.00  0.00     0.020 C 
BRANCH   4   5
ATOM      5  C   UNL     1      12.657 -25.827  25.688  1.00  0.00     0.064 C 
ATOM      6  O   UNL     1      12.283 -26.112  26.856  1.00  0.00    -0.545 OA
ATOM      7  O   UNL     1      13.882 -26.292  25.230  1.00  0.00    -0.545 OA
ENDBRANCH   4   5
ENDBRANCH   2   3
ENDBRANCH   1   2
BRANCH   1   8
ATOM      8  C   UNL     1      10.974 -22.167  21.102  1.00  0.00     0.000 C 
BRANCH   8   9
ATOM      9  C   UNL     1       9.743 -22.618  20.287  1.00  0.00    -0.000 C 
BRANCH   9  10
ATOM     10  C   UNL     1       8.441 -21.987  20.801  1.00  0.00    -0.003 C 
ATOM     11  C   UNL     1       7.331 -23.028  20.914  1.00  0.00     0.004 C 
ENDBRANCH   9  10
ENDBRANCH   8   9
ENDBRANCH   1   8
TORSDOF 6
ENDMDL
MODEL 7
REMARK VINA RESULT:    -4.152      1.810      2.651
REMARK INTER + INTRA:          -6.216
REMARK INTER:                  -5.901
REMARK INTRA:                  -0.315
REMARK UNBOUND:                -0.608
REMARK SMILES CCCCCCC=CC(=O)[O-]
REMARK SMILES IDX 5 1 6 2 7 3 8 4 9 5 10 6 11 7 4 8 3 9 2 10 1 11
REMARK H PARENT
REMARK Flexibility Score: inf
ROOT
ATOM      1  C   UNL     1      10.684 -15.987  32.198  1.00  0.00     0.004 C 
ENDROOT
BRANCH   1   2
ATOM      2  C   UNL     1      12.183 -15.996  31.858  1.00  0.00     0.027 C 
BRANCH   2   3
ATOM      3  C   UNL     1      12.452 -15.653  30.420  1.00  0.00    -0.025 C 
ATOM      4  C   UNL     1      11.660 -14.814  29.740  1.00  0.00     0.020 C 
BRANCH   4   5
ATOM      5  C   UNL     1      11.911 -14.459  28.334  1.00  0.00     0.064 C 
ATOM      6  O   UNL     1      11.526 -13.357  27.862  1.00  0.00    -0.545 OA
ATOM      7  O   UNL     1      12.586 -15.355  27.515  1.00  0.00    -0.545 OA
ENDBRANCH   4   5
ENDBRANCH   2   3
ENDBRANCH   1   2
BRANCH   1   8
ATOM      8  C   UNL     1      10.118 -17.365  32.594  1.00  0.00     0.000 C 
BRANCH   8   9
ATOM      9  C   UNL     1      10.972 -18.551  32.095  1.00  0.00    -0.000 C 
BRANCH   9  10
ATOM     10  C   UNL     1      10.115 -19.775  31.741  1.00  0.00    -0.003 C 
ATOM     11  C   UNL     1      10.267 -20.875  32.788  1.00  0.00     0.004 C 
ENDBRANCH   9  10
ENDBRANCH   8   9
ENDBRANCH   1   8
TORSDOF 6
ENDMDL
MODEL 8
REMARK VINA RESULT:    -4.150      3.621      5.454
REMARK INTER + INTRA:          -6.213
REMARK INTER:                  -5.865
REMARK INTRA:                  -0.349
REMARK UNBOUND:                -0.608
REMARK SMILES CCCCCCC=CC(=O)[O-]
REMARK SMILES IDX 5 1 6 2 7 3 8 4 9 5 10 6 11 7 4 8 3 9 2 10 1 11
REMARK H PARENT
REMARK Flexibility Score: inf
ROOT
ATOM      1  C   UNL     1      12.572 -15.998  31.952  1.00  0.00     0.004 C 
ENDROOT
BRANCH   1   2
ATOM      2  C   UNL     1      11.062 -15.900  32.221  1.00  0.00     0.027 C 
BRANCH   2   3
ATOM      3  C   UNL     1      10.412 -17.249  32.363  1.00  0.00    -0.025 C 
ATOM      4  C   UNL     1      10.920 -18.337  31.772  1.00  0.00     0.020 C 
BRANCH   4   5
ATOM      5  C   UNL     1      10.303 -19.666  31.907  1.00  0.00     0.064 C 
ATOM      6  O   UNL     1       9.819 -20.264  30.909  1.00  0.00    -0.545 OA
ATOM      7  O   UNL     1      10.257 -20.273  33.155  1.00  0.00    -0.545 OA
ENDBRANCH   4   5
ENDBRANCH   2   3
ENDBRANCH   1   2
BRANCH   1   8
ATOM      8  C   UNL     1      13.042 -15.223  30.706  1.00  0.00     0.000 C 
BRANCH   8   9
ATOM      9  C   UNL     1      11.888 -14.774  29.784  1.00  0.00    -0.000 C 
BRANCH   9  10
ATOM     10  C   UNL     1      12.275 -13.570  28.913  1.00  0.00    -0.003 C 
ATOM     11  C   UNL     1      11.798 -13.755  27.475  1.00  0.00     0.004 C 
ENDBRANCH   9  10
ENDBRANCH   8   9
ENDBRANCH   1   8
TORSDOF 6
ENDMDL
MODEL 9
REMARK VINA RESULT:    -4.060      4.871      6.651
REMARK INTER + INTRA:          -6.093
REMARK INTER:                  -5.794
REMARK INTRA:                  -0.298
REMARK UNBOUND:                -0.608
REMARK SMILES CCCCCCC=CC(=O)[O-]
REMARK SMILES IDX 5 1 6 2 7 3 8 4 9 5 10 6 11 7 4 8 3 9 2 10 1 11
REMARK H PARENT
REMARK Flexibility Score: inf
ROOT
ATOM      1  C   UNL     1      10.263 -17.308  32.541  1.00  0.00     0.004 C 
ENDROOT
BRANCH   1   2
ATOM      2  C   UNL     1      11.029 -18.564  32.094  1.00  0.00     0.027 C 
BRANCH   2   3
ATOM      3  C   UNL     1      10.133 -19.760  31.932  1.00  0.00    -0.025 C 
ATOM      4  C   UNL     1      10.325 -20.880  32.639  1.00  0.00     0.020 C 
BRANCH   4   5
ATOM      5  C   UNL     1       9.454 -22.058  32.500  1.00  0.00     0.064 C 
ATOM      6  O   UNL     1       9.777 -23.169  32.997  1.00  0.00    -0.545 OA
ATOM      7  O   UNL     1       8.253 -21.941  31.812  1.00  0.00    -0.545 OA
ENDBRANCH   4   5
ENDBRANCH   2   3
ENDBRANCH   1   2
BRANCH   1   8
ATOM      8  C   UNL     1      10.922 -15.982  32.114  1.00  0.00     0.000 C 
BRANCH   8   9
ATOM      9  C   UNL     1      12.434 -16.106  31.828  1.00  0.00    -0.000 C 
BRANCH   9  10
ATOM     10  C   UNL     1      12.881 -15.206  30.667  1.00  0.00    -0.003 C 
ATOM     11  C   UNL     1      11.707 -14.856  29.758  1.00  0.00     0.004 C 
ENDBRANCH   9  10
ENDBRANCH   8   9
ENDBRANCH   1   8
TORSDOF 6
ENDMDL
