MODEL 1
REMARK VINA RESULT:    -7.452      0.000      0.000
REMARK INTER + INTRA:         -10.959
REMARK INTER:                 -10.502
REMARK INTRA:                  -0.458
REMARK UNBOUND:                -0.458
REMARK SMILES COc1ccc(-c2cc(=O)c3c(OC)c(OC)c(OC)c(OC)c3o2)cc1OC
REMARK SMILES IDX 7 1 8 2 9 3 10 4 11 5 24 6 25 7 21 8 18 9 15 10 12 11 6 12
REMARK SMILES IDX 3 13 27 14 4 15 26 16 5 17 2 18 1 19 28 20 29 21 22 22 23 23
REMARK SMILES IDX 13 24 14 25 19 26 20 27 16 28 17 29
REMARK H PARENT
REMARK Flexibility Score: inf
ROOT
ATOM      1  C   UNL     1       3.662 -29.140   1.612  1.00  0.00     0.138 A 
ATOM      2  C   UNL     1       2.756 -29.424   2.642  1.00  0.00     0.100 A 
ATOM      3  C   UNL     1       3.211 -30.057   3.796  1.00  0.00     0.197 A 
ATOM      4  O   UNL     1       2.386 -30.308   4.714  1.00  0.00    -0.289 OA
ATOM      5  C   UNL     1       4.575 -30.409   3.910  1.00  0.00     0.115 A 
ATOM      6  C   UNL     1       5.436 -30.073   2.837  1.00  0.00     0.188 A 
ATOM      7  O   UNL     1       4.945 -29.462   1.761  1.00  0.00    -0.452 OA
ATOM      8  C   UNL     1       6.814 -30.392   2.909  1.00  0.00     0.209 A 
ATOM      9  C   UNL     1       7.315 -31.094   4.016  1.00  0.00     0.211 A 
ATOM     10  C   UNL     1       6.449 -31.467   5.071  1.00  0.00     0.208 A 
ATOM     11  C   UNL     1       5.097 -31.064   5.046  1.00  0.00     0.179 A 
ENDROOT
BRANCH   1  12
ATOM     12  C   UNL     1       3.228 -28.483   0.356  1.00  0.00     0.021 A 
ATOM     13  C   UNL     1       2.392 -27.163  -1.997  1.00  0.00     0.160 A 
ATOM     14  C   UNL     1       1.563 -27.170  -0.865  1.00  0.00     0.161 A 
ATOM     15  C   UNL     1       3.637 -27.815  -1.947  1.00  0.00     0.051 A 
ATOM     16  C   UNL     1       1.987 -27.828   0.306  1.00  0.00     0.062 A 
ATOM     17  C   UNL     1       4.051 -28.465  -0.783  1.00  0.00     0.016 A 
BRANCH  13  18
ATOM     18  O   UNL     1       1.945 -26.497  -3.149  1.00  0.00    -0.493 OA
ATOM     19  C   UNL     1       2.582 -26.568  -4.420  1.00  0.00     0.278 C 
ENDBRANCH  13  18
BRANCH  14  20
ATOM     20  O   UNL     1       0.326 -26.510  -0.940  1.00  0.00    -0.493 OA
ATOM     21  C   UNL     1      -0.739 -26.682  -0.010  1.00  0.00     0.278 C 
ENDBRANCH  14  20
ENDBRANCH   1  12
BRANCH   8  22
ATOM     22  O   UNL     1       7.743 -30.055   1.905  1.00  0.00    -0.490 OA
ATOM     23  C   UNL     1       8.397 -28.800   1.737  1.00  0.00     0.278 C 
ENDBRANCH   8  22
BRANCH  11  24
ATOM     24  O   UNL     1       4.276 -31.302   6.151  1.00  0.00    -0.492 OA
ATOM     25  C   UNL     1       3.558 -32.522   6.307  1.00  0.00     0.278 C 
ENDBRANCH  11  24
BRANCH   9  26
ATOM     26  O   UNL     1       8.690 -31.405   3.991  1.00  0.00    -0.490 OA
ATOM     27  C   UNL     1       9.726 -30.743   4.706  1.00  0.00     0.279 C 
ENDBRANCH   9  26
BRANCH  10  28
ATOM     28  O   UNL     1       6.935 -32.239   6.133  1.00  0.00    -0.490 OA
ATOM     29  C   UNL     1       7.049 -33.658   6.073  1.00  0.00     0.278 C 
ENDBRANCH  10  28
TORSDOF 7
ENDMDL
MODEL 2
REMARK VINA RESULT:    -7.092      1.443      2.536
REMARK INTER + INTRA:         -10.452
REMARK INTER:                  -9.699
REMARK INTRA:                  -0.753
REMARK UNBOUND:                -0.458
REMARK SMILES COc1ccc(-c2cc(=O)c3c(OC)c(OC)c(OC)c(OC)c3o2)cc1OC
REMARK SMILES IDX 7 1 8 2 9 3 10 4 11 5 24 6 25 7 21 8 18 9 15 10 12 11 6 12
REMARK SMILES IDX 3 13 27 14 4 15 26 16 5 17 2 18 1 19 28 20 29 21 22 22 23 23
REMARK SMILES IDX 13 24 14 25 19 26 20 27 16 28 17 29
REMARK H PARENT
REMARK Flexibility Score: inf
ROOT
ATOM      1  C   UNL     1       3.429 -28.970   1.358  1.00  0.00     0.138 A 
ATOM      2  C   UNL     1       2.944 -29.783   2.390  1.00  0.00     0.100 A 
ATOM      3  C   UNL     1       3.836 -30.557   3.127  1.00  0.00     0.197 A 
ATOM      4  O   UNL     1       3.386 -31.284   4.052  1.00  0.00    -0.289 OA
ATOM      5  C   UNL     1       5.215 -30.516   2.823  1.00  0.00     0.115 A 
ATOM      6  C   UNL     1       5.637 -29.656   1.779  1.00  0.00     0.188 A 
ATOM      7  O   UNL     1       4.737 -28.936   1.113  1.00  0.00    -0.452 OA
ATOM      8  C   UNL     1       7.009 -29.569   1.445  1.00  0.00     0.209 A 
ATOM      9  C   UNL     1       7.946 -30.380   2.105  1.00  0.00     0.211 A 
ATOM     10  C   UNL     1       7.522 -31.269   3.121  1.00  0.00     0.208 A 
ATOM     11  C   UNL     1       6.170 -31.285   3.522  1.00  0.00     0.179 A 
ENDROOT
BRANCH   1  12
ATOM     12  C   UNL     1       2.521 -28.140   0.531  1.00  0.00     0.021 A 
ATOM     13  C   UNL     1       0.790 -26.615  -1.098  1.00  0.00     0.160 A 
ATOM     14  C   UNL     1       2.014 -27.069  -1.609  1.00  0.00     0.161 A 
ATOM     15  C   UNL     1       0.434 -26.927   0.227  1.00  0.00     0.051 A 
ATOM     16  C   UNL     1       2.872 -27.831  -0.793  1.00  0.00     0.062 A 
ATOM     17  C   UNL     1       1.289 -27.683   1.031  1.00  0.00     0.016 A 
BRANCH  13  18
ATOM     18  O   UNL     1      -0.046 -25.861  -1.936  1.00  0.00    -0.493 OA
ATOM     19  C   UNL     1      -1.189 -25.137  -1.495  1.00  0.00     0.278 C 
ENDBRANCH  13  18
BRANCH  14  20
ATOM     20  O   UNL     1       2.345 -26.746  -2.936  1.00  0.00    -0.493 OA
ATOM     21  C   UNL     1       3.621 -26.971  -3.529  1.00  0.00     0.278 C 
ENDBRANCH  14  20
ENDBRANCH   1  12
BRANCH   8  22
ATOM     22  O   UNL     1       7.514 -28.708   0.449  1.00  0.00    -0.490 OA
ATOM     23  C   UNL     1       7.412 -28.885  -0.961  1.00  0.00     0.278 C 
ENDBRANCH   8  22
BRANCH  11  24
ATOM     24  O   UNL     1       5.776 -32.053   4.621  1.00  0.00    -0.492 OA
ATOM     25  C   UNL     1       6.076 -31.663   5.958  1.00  0.00     0.278 C 
ENDBRANCH  11  24
BRANCH   9  26
ATOM     26  O   UNL     1       9.286 -30.259   1.685  1.00  0.00    -0.490 OA
ATOM     27  C   UNL     1      10.307 -29.488   2.306  1.00  0.00     0.279 C 
ENDBRANCH   9  26
BRANCH  10  28
ATOM     28  O   UNL     1       8.445 -32.134   3.720  1.00  0.00    -0.490 OA
ATOM     29  C   UNL     1       8.726 -33.439   3.218  1.00  0.00     0.278 C 
ENDBRANCH  10  28
TORSDOF 7
ENDMDL
MODEL 3
REMARK VINA RESULT:    -7.055      2.130      3.546
REMARK INTER + INTRA:         -10.399
REMARK INTER:                  -9.655
REMARK INTRA:                  -0.745
REMARK UNBOUND:                -0.458
REMARK SMILES COc1ccc(-c2cc(=O)c3c(OC)c(OC)c(OC)c(OC)c3o2)cc1OC
REMARK SMILES IDX 7 1 8 2 9 3 10 4 11 5 24 6 25 7 21 8 18 9 15 10 12 11 6 12
REMARK SMILES IDX 3 13 27 14 4 15 26 16 5 17 2 18 1 19 28 20 29 21 22 22 23 23
REMARK SMILES IDX 13 24 14 25 19 26 20 27 16 28 17 29
REMARK H PARENT
REMARK Flexibility Score: inf
ROOT
ATOM      1  C   UNL     1       3.946 -28.049  -0.928  1.00  0.00     0.138 A 
ATOM      2  C   UNL     1       2.763 -28.143  -0.186  1.00  0.00     0.100 A 
ATOM      3  C   UNL     1       2.786 -28.764   1.061  1.00  0.00     0.197 A 
ATOM      4  O   UNL     1       1.714 -28.842   1.718  1.00  0.00    -0.289 OA
ATOM      5  C   UNL     1       3.998 -29.294   1.556  1.00  0.00     0.115 A 
ATOM      6  C   UNL     1       5.160 -29.145   0.759  1.00  0.00     0.188 A 
ATOM      7  O   UNL     1       5.077 -28.536  -0.422  1.00  0.00    -0.452 OA
ATOM      8  C   UNL     1       6.401 -29.647   1.217  1.00  0.00     0.209 A 
ATOM      9  C   UNL     1       6.472 -30.345   2.432  1.00  0.00     0.211 A 
ATOM     10  C   UNL     1       5.306 -30.531   3.212  1.00  0.00     0.208 A 
ATOM     11  C   UNL     1       4.088 -29.947   2.804  1.00  0.00     0.179 A 
ENDROOT
BRANCH   1  12
ATOM     12  C   UNL     1       3.974 -27.413  -2.268  1.00  0.00     0.021 A 
ATOM     13  C   UNL     1       4.074 -26.261  -4.844  1.00  0.00     0.160 A 
ATOM     14  C   UNL     1       5.262 -26.502  -4.138  1.00  0.00     0.161 A 
ATOM     15  C   UNL     1       2.840 -26.598  -4.259  1.00  0.00     0.051 A 
ATOM     16  C   UNL     1       5.205 -27.079  -2.854  1.00  0.00     0.062 A 
ATOM     17  C   UNL     1       2.792 -27.170  -2.987  1.00  0.00     0.016 A 
BRANCH  13  18
ATOM     18  O   UNL     1       4.162 -25.687  -6.123  1.00  0.00    -0.493 OA
ATOM     19  C   UNL     1       3.220 -24.764  -6.658  1.00  0.00     0.278 C 
ENDBRANCH  13  18
BRANCH  14  20
ATOM     20  O   UNL     1       6.481 -26.158  -4.745  1.00  0.00    -0.493 OA
ATOM     21  C   UNL     1       7.265 -25.021  -4.395  1.00  0.00     0.278 C 
ENDBRANCH  14  20
ENDBRANCH   1  12
BRANCH   8  22
ATOM     22  O   UNL     1       7.609 -29.502   0.504  1.00  0.00    -0.490 OA
ATOM     23  C   UNL     1       8.448 -28.351   0.476  1.00  0.00     0.278 C 
ENDBRANCH   8  22
BRANCH  11  24
ATOM     24  O   UNL     1       2.971 -30.003   3.642  1.00  0.00    -0.492 OA
ATOM     25  C   UNL     1       2.975 -29.419   4.941  1.00  0.00     0.278 C 
ENDBRANCH  11  24
BRANCH   9  26
ATOM     26  O   UNL     1       7.738 -30.845   2.796  1.00  0.00    -0.490 OA
ATOM     27  C   UNL     1       8.627 -30.294   3.761  1.00  0.00     0.279 C 
ENDBRANCH   9  26
BRANCH  10  28
ATOM     28  O   UNL     1       5.363 -31.298   4.381  1.00  0.00    -0.490 OA
ATOM     29  C   UNL     1       5.039 -32.686   4.416  1.00  0.00     0.278 C 
ENDBRANCH  10  28
TORSDOF 7
ENDMDL
MODEL 4
REMARK VINA RESULT:    -6.950      1.372      2.274
REMARK INTER + INTRA:         -10.252
REMARK INTER:                  -9.622
REMARK INTRA:                  -0.629
REMARK UNBOUND:                -0.458
REMARK SMILES COc1ccc(-c2cc(=O)c3c(OC)c(OC)c(OC)c(OC)c3o2)cc1OC
REMARK SMILES IDX 7 1 8 2 9 3 10 4 11 5 24 6 25 7 21 8 18 9 15 10 12 11 6 12
REMARK SMILES IDX 3 13 27 14 4 15 26 16 5 17 2 18 1 19 28 20 29 21 22 22 23 23
REMARK SMILES IDX 13 24 14 25 19 26 20 27 16 28 17 29
REMARK H PARENT
REMARK Flexibility Score: inf
ROOT
ATOM      1  C   UNL     1       3.995 -29.660   2.254  1.00  0.00     0.138 A 
ATOM      2  C   UNL     1       3.346 -30.555   3.115  1.00  0.00     0.100 A 
ATOM      3  C   UNL     1       4.098 -31.293   4.025  1.00  0.00     0.197 A 
ATOM      4  O   UNL     1       3.502 -32.094   4.793  1.00  0.00    -0.289 OA
ATOM      5  C   UNL     1       5.502 -31.135   4.065  1.00  0.00     0.115 A 
ATOM      6  C   UNL     1       6.087 -30.198   3.178  1.00  0.00     0.188 A 
ATOM      7  O   UNL     1       5.315 -29.516   2.333  1.00  0.00    -0.452 OA
ATOM      8  C   UNL     1       7.487 -29.993   3.188  1.00  0.00     0.209 A 
ATOM      9  C   UNL     1       8.303 -30.761   4.033  1.00  0.00     0.211 A 
ATOM     10  C   UNL     1       7.725 -31.726   4.892  1.00  0.00     0.208 A 
ATOM     11  C   UNL     1       6.323 -31.862   4.953  1.00  0.00     0.179 A 
ENDROOT
BRANCH   1  12
ATOM     12  C   UNL     1       3.244 -28.862   1.254  1.00  0.00     0.021 A 
ATOM     13  C   UNL     1       1.823 -27.402  -0.700  1.00  0.00     0.160 A 
ATOM     14  C   UNL     1       3.112 -27.876  -0.981  1.00  0.00     0.161 A 
ATOM     15  C   UNL     1       1.247 -27.661   0.557  1.00  0.00     0.051 A 
ATOM     16  C   UNL     1       3.815 -28.605  -0.002  1.00  0.00     0.062 A 
ATOM     17  C   UNL     1       1.950 -28.386   1.522  1.00  0.00     0.016 A 
BRANCH  13  18
ATOM     18  O   UNL     1       1.145 -26.680  -1.696  1.00  0.00    -0.493 OA
ATOM     19  C   UNL     1      -0.027 -25.903  -1.472  1.00  0.00     0.278 C 
ENDBRANCH  13  18
BRANCH  14  20
ATOM     20  O   UNL     1       3.663 -27.605  -2.244  1.00  0.00    -0.493 OA
ATOM     21  C   UNL     1       4.967 -27.073  -2.460  1.00  0.00     0.278 C 
ENDBRANCH  14  20
ENDBRANCH   1  12
BRANCH   8  22
ATOM     22  O   UNL     1       8.141 -29.051   2.369  1.00  0.00    -0.490 OA
ATOM     23  C   UNL     1       8.437 -29.189   0.982  1.00  0.00     0.278 C 
ENDBRANCH   8  22
BRANCH  11  24
ATOM     24  O   UNL     1       5.743 -32.707   5.903  1.00  0.00    -0.492 OA
ATOM     25  C   UNL     1       5.836 -34.125   5.805  1.00  0.00     0.278 C 
ENDBRANCH  11  24
BRANCH   9  26
ATOM     26  O   UNL     1       9.690 -30.521   3.954  1.00  0.00    -0.490 OA
ATOM     27  C   UNL     1      10.650 -31.298   3.248  1.00  0.00     0.279 C 
ENDBRANCH   9  26
BRANCH  10  28
ATOM     28  O   UNL     1       8.547 -32.547   5.672  1.00  0.00    -0.490 OA
ATOM     29  C   UNL     1       9.036 -32.163   6.955  1.00  0.00     0.278 C 
ENDBRANCH  10  28
TORSDOF 7
ENDMDL
MODEL 5
REMARK VINA RESULT:    -6.862      1.255      2.270
REMARK INTER + INTRA:         -10.128
REMARK INTER:                  -9.548
REMARK INTRA:                  -0.580
REMARK UNBOUND:                -0.458
REMARK SMILES COc1ccc(-c2cc(=O)c3c(OC)c(OC)c(OC)c(OC)c3o2)cc1OC
REMARK SMILES IDX 7 1 8 2 9 3 10 4 11 5 24 6 25 7 21 8 18 9 15 10 12 11 6 12
REMARK SMILES IDX 3 13 27 14 4 15 26 16 5 17 2 18 1 19 28 20 29 21 22 22 23 23
REMARK SMILES IDX 13 24 14 25 19 26 20 27 16 28 17 29
REMARK H PARENT
REMARK Flexibility Score: inf
ROOT
ATOM      1  C   UNL     1       4.275 -29.259   1.389  1.00  0.00     0.138 A 
ATOM      2  C   UNL     1       3.206 -29.575   2.237  1.00  0.00     0.100 A 
ATOM      3  C   UNL     1       3.463 -30.207   3.451  1.00  0.00     0.197 A 
ATOM      4  O   UNL     1       2.493 -30.486   4.205  1.00  0.00    -0.289 OA
ATOM      5  C   UNL     1       4.792 -30.527   3.807  1.00  0.00     0.115 A 
ATOM      6  C   UNL     1       5.824 -30.159   2.908  1.00  0.00     0.188 A 
ATOM      7  O   UNL     1       5.517 -29.550   1.765  1.00  0.00    -0.452 OA
ATOM      8  C   UNL     1       7.173 -30.445   3.225  1.00  0.00     0.209 A 
ATOM      9  C   UNL     1       7.486 -31.145   4.401  1.00  0.00     0.211 A 
ATOM     10  C   UNL     1       6.454 -31.549   5.281  1.00  0.00     0.208 A 
ATOM     11  C   UNL     1       5.119 -31.179   5.015  1.00  0.00     0.179 A 
ENDROOT
BRANCH   1  12
ATOM     12  C   UNL     1       4.056 -28.600   0.078  1.00  0.00     0.021 A 
ATOM     13  C   UNL     1       3.670 -27.411  -2.454  1.00  0.00     0.160 A 
ATOM     14  C   UNL     1       4.944 -27.863  -2.079  1.00  0.00     0.161 A 
ATOM     15  C   UNL     1       2.593 -27.556  -1.561  1.00  0.00     0.051 A 
ATOM     16  C   UNL     1       5.129 -28.457  -0.816  1.00  0.00     0.062 A 
ATOM     17  C   UNL     1       2.784 -28.147  -0.310  1.00  0.00     0.016 A 
BRANCH  13  18
ATOM     18  O   UNL     1       3.514 -26.825  -3.720  1.00  0.00    -0.493 OA
ATOM     19  C   UNL     1       2.267 -26.674  -4.390  1.00  0.00     0.278 C 
ENDBRANCH  13  18
BRANCH  14  20
ATOM     20  O   UNL     1       6.001 -27.708  -2.991  1.00  0.00    -0.493 OA
ATOM     21  C   UNL     1       7.336 -27.366  -2.628  1.00  0.00     0.278 C 
ENDBRANCH  14  20
ENDBRANCH   1  12
BRANCH   8  22
ATOM     22  O   UNL     1       8.259 -30.076   2.406  1.00  0.00    -0.490 OA
ATOM     23  C   UNL     1       8.924 -28.816   2.391  1.00  0.00     0.278 C 
ENDBRANCH   8  22
BRANCH  11  24
ATOM     24  O   UNL     1       4.119 -31.448   5.954  1.00  0.00    -0.492 OA
ATOM     25  C   UNL     1       3.498 -32.726   6.047  1.00  0.00     0.278 C 
ENDBRANCH  11  24
BRANCH   9  26
ATOM     26  O   UNL     1       8.850 -31.422   4.622  1.00  0.00    -0.490 OA
ATOM     27  C   UNL     1       9.709 -30.781   5.557  1.00  0.00     0.279 C 
ENDBRANCH   9  26
BRANCH  10  28
ATOM     28  O   UNL     1       6.761 -32.318   6.409  1.00  0.00    -0.490 OA
ATOM     29  C   UNL     1       6.997 -33.723   6.351  1.00  0.00     0.278 C 
ENDBRANCH  10  28
TORSDOF 7
ENDMDL
MODEL 6
REMARK VINA RESULT:    -6.860      1.281      3.876
REMARK INTER + INTRA:         -10.125
REMARK INTER:                  -9.664
REMARK INTRA:                  -0.462
REMARK UNBOUND:                -0.458
REMARK SMILES COc1ccc(-c2cc(=O)c3c(OC)c(OC)c(OC)c(OC)c3o2)cc1OC
REMARK SMILES IDX 7 1 8 2 9 3 10 4 11 5 24 6 25 7 21 8 18 9 15 10 12 11 6 12
REMARK SMILES IDX 3 13 27 14 4 15 26 16 5 17 2 18 1 19 28 20 29 21 22 22 23 23
REMARK SMILES IDX 13 24 14 25 19 26 20 27 16 28 17 29
REMARK H PARENT
REMARK Flexibility Score: inf
ROOT
ATOM      1  C   UNL     1       3.759 -28.892   1.027  1.00  0.00     0.138 A 
ATOM      2  C   UNL     1       5.049 -28.855   0.484  1.00  0.00     0.100 A 
ATOM      3  C   UNL     1       6.064 -29.597   1.083  1.00  0.00     0.197 A 
ATOM      4  O   UNL     1       7.220 -29.554   0.584  1.00  0.00    -0.289 OA
ATOM      5  C   UNL     1       5.781 -30.371   2.231  1.00  0.00     0.115 A 
ATOM      6  C   UNL     1       4.449 -30.376   2.713  1.00  0.00     0.188 A 
ATOM      7  O   UNL     1       3.520 -29.651   2.094  1.00  0.00    -0.452 OA
ATOM      8  C   UNL     1       4.112 -31.146   3.852  1.00  0.00     0.209 A 
ATOM      9  C   UNL     1       5.108 -31.857   4.539  1.00  0.00     0.211 A 
ATOM     10  C   UNL     1       6.447 -31.821   4.083  1.00  0.00     0.208 A 
ATOM     11  C   UNL     1       6.766 -31.134   2.893  1.00  0.00     0.179 A 
ENDROOT
BRANCH   1  12
ATOM     12  C   UNL     1       2.646 -28.108   0.439  1.00  0.00     0.021 A 
ATOM     13  C   UNL     1       0.523 -26.668  -0.741  1.00  0.00     0.160 A 
ATOM     14  C   UNL     1       1.697 -26.908  -1.470  1.00  0.00     0.161 A 
ATOM     15  C   UNL     1       0.414 -27.150   0.576  1.00  0.00     0.051 A 
ATOM     16  C   UNL     1       2.751 -27.629  -0.876  1.00  0.00     0.062 A 
ATOM     17  C   UNL     1       1.463 -27.865   1.158  1.00  0.00     0.016 A 
BRANCH  13  18
ATOM     18  O   UNL     1      -0.512 -25.948  -1.359  1.00  0.00    -0.493 OA
ATOM     19  C   UNL     1      -1.462 -25.147  -0.666  1.00  0.00     0.278 C 
ENDBRANCH  13  18
BRANCH  14  20
ATOM     20  O   UNL     1       1.779 -26.417  -2.783  1.00  0.00    -0.493 OA
ATOM     21  C   UNL     1       2.694 -26.892  -3.767  1.00  0.00     0.278 C 
ENDBRANCH  14  20
ENDBRANCH   1  12
BRANCH   8  22
ATOM     22  O   UNL     1       2.804 -31.238   4.368  1.00  0.00    -0.490 OA
ATOM     23  C   UNL     1       2.237 -30.433   5.398  1.00  0.00     0.278 C 
ENDBRANCH   8  22
BRANCH  11  24
ATOM     24  O   UNL     1       8.055 -31.219   2.362  1.00  0.00    -0.492 OA
ATOM     25  C   UNL     1       9.162 -30.549   2.959  1.00  0.00     0.278 C 
ENDBRANCH  11  24
BRANCH   9  26
ATOM     26  O   UNL     1       4.695 -32.567   5.684  1.00  0.00    -0.490 OA
ATOM     27  C   UNL     1       4.124 -33.870   5.720  1.00  0.00     0.279 C 
ENDBRANCH   9  26
BRANCH  10  28
ATOM     28  O   UNL     1       7.452 -32.462   4.818  1.00  0.00    -0.490 OA
ATOM     29  C   UNL     1       7.781 -33.838   4.646  1.00  0.00     0.278 C 
ENDBRANCH  10  28
TORSDOF 7
ENDMDL
MODEL 7
REMARK VINA RESULT:    -6.816      1.945      2.734
REMARK INTER + INTRA:         -10.063
REMARK INTER:                  -9.411
REMARK INTRA:                  -0.652
REMARK UNBOUND:                -0.458
REMARK SMILES COc1ccc(-c2cc(=O)c3c(OC)c(OC)c(OC)c(OC)c3o2)cc1OC
REMARK SMILES IDX 7 1 8 2 9 3 10 4 11 5 24 6 25 7 21 8 18 9 15 10 12 11 6 12
REMARK SMILES IDX 3 13 27 14 4 15 26 16 5 17 2 18 1 19 28 20 29 21 22 22 23 23
REMARK SMILES IDX 13 24 14 25 19 26 20 27 16 28 17 29
REMARK H PARENT
REMARK Flexibility Score: inf
ROOT
ATOM      1  C   UNL     1       5.126 -28.829   0.062  1.00  0.00     0.138 A 
ATOM      2  C   UNL     1       3.808 -28.904   0.530  1.00  0.00     0.100 A 
ATOM      3  C   UNL     1       3.563 -29.411   1.803  1.00  0.00     0.197 A 
ATOM      4  O   UNL     1       2.373 -29.473   2.211  1.00  0.00    -0.289 OA
ATOM      5  C   UNL     1       4.643 -29.848   2.602  1.00  0.00     0.115 A 
ATOM      6  C   UNL     1       5.950 -29.725   2.072  1.00  0.00     0.188 A 
ATOM      7  O   UNL     1       6.123 -29.226   0.849  1.00  0.00    -0.452 OA
ATOM      8  C   UNL     1       7.067 -30.136   2.838  1.00  0.00     0.209 A 
ATOM      9  C   UNL     1       6.875 -30.722   4.099  1.00  0.00     0.211 A 
ATOM     10  C   UNL     1       5.568 -30.883   4.615  1.00  0.00     0.208 A 
ATOM     11  C   UNL     1       4.462 -30.385   3.895  1.00  0.00     0.179 A 
ENDROOT
BRANCH   1  12
ATOM     12  C   UNL     1       5.442 -28.313  -1.292  1.00  0.00     0.021 A 
ATOM     13  C   UNL     1       6.012 -27.260  -3.849  1.00  0.00     0.160 A 
ATOM     14  C   UNL     1       4.697 -27.238  -3.360  1.00  0.00     0.161 A 
ATOM     15  C   UNL     1       7.037 -27.807  -3.057  1.00  0.00     0.051 A 
ATOM     16  C   UNL     1       4.420 -27.763  -2.083  1.00  0.00     0.062 A 
ATOM     17  C   UNL     1       6.755 -28.325  -1.791  1.00  0.00     0.016 A 
BRANCH  13  18
ATOM     18  O   UNL     1       6.259 -26.727  -5.125  1.00  0.00    -0.493 OA
ATOM     19  C   UNL     1       6.430 -25.341  -5.400  1.00  0.00     0.278 C 
ENDBRANCH  13  18
BRANCH  14  20
ATOM     20  O   UNL     1       3.693 -26.684  -4.170  1.00  0.00    -0.493 OA
ATOM     21  C   UNL     1       2.296 -26.774  -3.900  1.00  0.00     0.278 C 
ENDBRANCH  14  20
ENDBRANCH   1  12
BRANCH   8  22
ATOM     22  O   UNL     1       8.400 -30.008   2.400  1.00  0.00    -0.490 OA
ATOM     23  C   UNL     1       9.204 -28.832   2.452  1.00  0.00     0.278 C 
ENDBRANCH   8  22
BRANCH  11  24
ATOM     24  O   UNL     1       3.187 -30.410   4.466  1.00  0.00    -0.492 OA
ATOM     25  C   UNL     1       2.870 -29.659   5.634  1.00  0.00     0.278 C 
ENDBRANCH  11  24
BRANCH   9  26
ATOM     26  O   UNL     1       8.037 -31.138   4.780  1.00  0.00    -0.490 OA
ATOM     27  C   UNL     1       8.690 -30.459   5.846  1.00  0.00     0.279 C 
ENDBRANCH   9  26
BRANCH  10  28
ATOM     28  O   UNL     1       5.375 -31.542   5.835  1.00  0.00    -0.490 OA
ATOM     29  C   UNL     1       5.131 -32.943   5.931  1.00  0.00     0.278 C 
ENDBRANCH  10  28
TORSDOF 7
ENDMDL
MODEL 8
REMARK VINA RESULT:    -6.667      2.826      7.720
REMARK INTER + INTRA:          -9.854
REMARK INTER:                  -9.250
REMARK INTRA:                  -0.604
REMARK UNBOUND:                -0.458
REMARK SMILES COc1ccc(-c2cc(=O)c3c(OC)c(OC)c(OC)c(OC)c3o2)cc1OC
REMARK SMILES IDX 7 1 8 2 9 3 10 4 11 5 24 6 25 7 21 8 18 9 15 10 12 11 6 12
REMARK SMILES IDX 3 13 27 14 4 15 26 16 5 17 2 18 1 19 28 20 29 21 22 22 23 23
REMARK SMILES IDX 13 24 14 25 19 26 20 27 16 28 17 29
REMARK H PARENT
REMARK Flexibility Score: inf
ROOT
ATOM      1  C   UNL     1       6.352 -29.634   2.237  1.00  0.00     0.138 A 
ATOM      2  C   UNL     1       7.656 -29.504   2.730  1.00  0.00     0.100 A 
ATOM      3  C   UNL     1       8.665 -29.052   1.882  1.00  0.00     0.197 A 
ATOM      4  O   UNL     1       9.834 -28.940   2.338  1.00  0.00    -0.289 OA
ATOM      5  C   UNL     1       8.362 -28.738   0.539  1.00  0.00     0.115 A 
ATOM      6  C   UNL     1       7.017 -28.875   0.115  1.00  0.00     0.188 A 
ATOM      7  O   UNL     1       6.095 -29.306   0.973  1.00  0.00    -0.452 OA
ATOM      8  C   UNL     1       6.659 -28.560  -1.218  1.00  0.00     0.209 A 
ATOM      9  C   UNL     1       7.646 -28.170  -2.136  1.00  0.00     0.211 A 
ATOM     10  C   UNL     1       8.997 -28.070  -1.726  1.00  0.00     0.208 A 
ATOM     11  C   UNL     1       9.339 -28.289  -0.375  1.00  0.00     0.179 A 
ENDROOT
BRANCH   1  12
ATOM     12  C   UNL     1       5.244 -30.125   3.091  1.00  0.00     0.021 A 
ATOM     13  C   UNL     1       3.179 -31.045   4.783  1.00  0.00     0.160 A 
ATOM     14  C   UNL     1       4.460 -31.610   4.871  1.00  0.00     0.161 A 
ATOM     15  C   UNL     1       2.935 -30.022   3.849  1.00  0.00     0.051 A 
ATOM     16  C   UNL     1       5.486 -31.145   4.026  1.00  0.00     0.062 A 
ATOM     17  C   UNL     1       3.958 -29.566   3.016  1.00  0.00     0.016 A 
BRANCH  13  18
ATOM     18  O   UNL     1       2.176 -31.527   5.640  1.00  0.00    -0.493 OA
ATOM     19  C   UNL     1       1.245 -30.704   6.333  1.00  0.00     0.278 C 
ENDBRANCH  13  18
BRANCH  14  20
ATOM     20  O   UNL     1       4.677 -32.629   5.813  1.00  0.00    -0.493 OA
ATOM     21  C   UNL     1       5.511 -33.764   5.597  1.00  0.00     0.278 C 
ENDBRANCH  14  20
ENDBRANCH   1  12
BRANCH   8  22
ATOM     22  O   UNL     1       5.339 -28.629  -1.706  1.00  0.00    -0.490 OA
ATOM     23  C   UNL     1       4.309 -27.664  -1.513  1.00  0.00     0.278 C 
ENDBRANCH   8  22
BRANCH  11  24
ATOM     24  O   UNL     1      10.644 -28.049   0.063  1.00  0.00    -0.492 OA
ATOM     25  C   UNL     1      11.726 -28.904  -0.291  1.00  0.00     0.278 C 
ENDBRANCH  11  24
BRANCH   9  26
ATOM     26  O   UNL     1       7.212 -27.911  -3.452  1.00  0.00    -0.490 OA
ATOM     27  C   UNL     1       6.932 -26.638  -4.022  1.00  0.00     0.279 C 
ENDBRANCH   9  26
BRANCH  10  28
ATOM     28  O   UNL     1       9.990 -27.761  -2.663  1.00  0.00    -0.490 OA
ATOM     29  C   UNL     1      10.462 -26.435  -2.887  1.00  0.00     0.278 C 
ENDBRANCH  10  28
TORSDOF 7
ENDMDL
MODEL 9
REMARK VINA RESULT:    -6.554      2.991      7.385
REMARK INTER + INTRA:          -9.693
REMARK INTER:                  -8.990
REMARK INTRA:                  -0.703
REMARK UNBOUND:                -0.458
REMARK SMILES COc1ccc(-c2cc(=O)c3c(OC)c(OC)c(OC)c(OC)c3o2)cc1OC
REMARK SMILES IDX 7 1 8 2 9 3 10 4 11 5 24 6 25 7 21 8 18 9 15 10 12 11 6 12
REMARK SMILES IDX 3 13 27 14 4 15 26 16 5 17 2 18 1 19 28 20 29 21 22 22 23 23
REMARK SMILES IDX 13 24 14 25 19 26 20 27 16 28 17 29
REMARK H PARENT
REMARK Flexibility Score: inf
ROOT
ATOM      1  C   UNL     1       5.460 -29.264   1.155  1.00  0.00     0.138 A 
ATOM      2  C   UNL     1       4.790 -28.887  -0.016  1.00  0.00     0.100 A 
ATOM      3  C   UNL     1       5.528 -28.491  -1.128  1.00  0.00     0.197 A 
ATOM      4  O   UNL     1       4.913 -28.155  -2.175  1.00  0.00    -0.289 OA
ATOM      5  C   UNL     1       6.939 -28.468  -1.060  1.00  0.00     0.115 A 
ATOM      6  C   UNL     1       7.549 -28.880   0.150  1.00  0.00     0.188 A 
ATOM      7  O   UNL     1       6.791 -29.254   1.178  1.00  0.00    -0.452 OA
ATOM      8  C   UNL     1       8.960 -28.887   0.265  1.00  0.00     0.209 A 
ATOM      9  C   UNL     1       9.754 -28.429  -0.798  1.00  0.00     0.211 A 
ATOM     10  C   UNL     1       9.146 -27.979  -1.994  1.00  0.00     0.208 A 
ATOM     11  C   UNL     1       7.745 -28.064  -2.145  1.00  0.00     0.179 A 
ENDROOT
BRANCH   1  12
ATOM     12  C   UNL     1       4.723 -29.678   2.373  1.00  0.00     0.021 A 
ATOM     13  C   UNL     1       3.377 -30.437   4.736  1.00  0.00     0.160 A 
ATOM     14  C   UNL     1       4.688 -30.877   4.505  1.00  0.00     0.161 A 
ATOM     15  C   UNL     1       2.743 -29.617   3.784  1.00  0.00     0.051 A 
ATOM     16  C   UNL     1       5.355 -30.493   3.325  1.00  0.00     0.062 A 
ATOM     17  C   UNL     1       3.410 -29.240   2.618  1.00  0.00     0.016 A 
BRANCH  13  18
ATOM     18  O   UNL     1       2.738 -30.833   5.922  1.00  0.00    -0.493 OA
ATOM     19  C   UNL     1       1.482 -30.332   6.367  1.00  0.00     0.278 C 
ENDBRANCH  13  18
BRANCH  14  20
ATOM     20  O   UNL     1       5.298 -31.692   5.472  1.00  0.00    -0.493 OA
ATOM     21  C   UNL     1       6.576 -31.441   6.051  1.00  0.00     0.278 C 
ENDBRANCH  14  20
ENDBRANCH   1  12
BRANCH   8  22
ATOM     22  O   UNL     1       9.644 -29.323   1.418  1.00  0.00    -0.490 OA
ATOM     23  C   UNL     1       9.787 -28.610   2.643  1.00  0.00     0.278 C 
ENDBRANCH   8  22
BRANCH  11  24
ATOM     24  O   UNL     1       7.156 -27.759  -3.375  1.00  0.00    -0.492 OA
ATOM     25  C   UNL     1       7.182 -28.670  -4.469  1.00  0.00     0.278 C 
ENDBRANCH  11  24
BRANCH   9  26
ATOM     26  O   UNL     1      11.147 -28.434  -0.588  1.00  0.00    -0.490 OA
ATOM     27  C   UNL     1      12.070 -29.430  -1.014  1.00  0.00     0.279 C 
ENDBRANCH   9  26
BRANCH  10  28
ATOM     28  O   UNL     1       9.934 -27.446  -3.020  1.00  0.00    -0.490 OA
ATOM     29  C   UNL     1      10.490 -26.134  -2.971  1.00  0.00     0.278 C 
ENDBRANCH  10  28
TORSDOF 7
ENDMDL
