MODEL 1
REMARK VINA RESULT:    -4.949      0.000      0.000
REMARK INTER + INTRA:         -11.297
REMARK INTER:                  -9.579
REMARK INTRA:                  -1.719
REMARK UNBOUND:                -1.719
REMARK SMILES CCCCCCCCCCCCCCCCCC(=O)[O-]
REMARK SMILES IDX 10 1 11 2 12 3 13 4 14 5 15 6 16 7 17 8 18 9 19 10 20 11
REMARK SMILES IDX 9 12 8 13 7 14 6 15 5 16 4 17 3 18 2 19 1 20
REMARK H PARENT
REMARK Flexibility Score: inf
ROOT
ATOM      1  C   UNL     1     -27.469 -34.889 -13.131  1.00  0.00     0.000 C 
ENDROOT
BRANCH   1   2
ATOM      2  C   UNL     1     -27.633 -33.501 -13.768  1.00  0.00     0.000 C 
BRANCH   2   3
ATOM      3  C   UNL     1     -28.568 -32.578 -12.966  1.00  0.00     0.000 C 
BRANCH   3   4
ATOM      4  C   UNL     1     -28.122 -31.106 -12.888  1.00  0.00     0.000 C 
BRANCH   4   5
ATOM      5  C   UNL     1     -27.896 -30.624 -11.448  1.00  0.00     0.000 C 
BRANCH   5   6
ATOM      6  C   UNL     1     -26.426 -30.239 -11.222  1.00  0.00     0.000 C 
BRANCH   6   7
ATOM      7  C   UNL     1     -25.580 -31.413 -10.704  1.00  0.00     0.006 C 
BRANCH   7   8
ATOM      8  C   UNL     1     -24.191 -31.471 -11.351  1.00  0.00     0.053 C 
BRANCH   8   9
ATOM      9  C   UNL     1     -23.141 -31.057 -10.370  1.00  0.00     0.041 C 
ATOM     10  O   UNL     1     -21.922 -31.243 -10.629  1.00  0.00    -0.550 OA
ATOM     11  O   UNL     1     -23.505 -30.429  -9.185  1.00  0.00    -0.550 OA
ENDBRANCH   8   9
ENDBRANCH   7   8
ENDBRANCH   6   7
ENDBRANCH   5   6
ENDBRANCH   4   5
ENDBRANCH   3   4
ENDBRANCH   2   3
ENDBRANCH   1   2
BRANCH   1  12
ATOM     12  C   UNL     1     -27.108 -34.771 -11.645  1.00  0.00     0.000 C 
BRANCH  12  13
ATOM     13  C   UNL     1     -25.591 -34.886 -11.438  1.00  0.00    -0.000 C 
BRANCH  13  14
ATOM     14  C   UNL     1     -24.905 -35.751 -12.512  1.00  0.00    -0.000 C 
BRANCH  14  15
ATOM     15  C   UNL     1     -23.369 -35.643 -12.548  1.00  0.00    -0.000 C 
BRANCH  15  16
ATOM     16  C   UNL     1     -22.875 -34.207 -12.792  1.00  0.00    -0.000 C 
BRANCH  16  17
ATOM     17  C   UNL     1     -21.337 -34.126 -12.878  1.00  0.00    -0.000 C 
BRANCH  17  18
ATOM     18  C   UNL     1     -20.786 -34.206 -14.314  1.00  0.00    -0.000 C 
BRANCH  18  19
ATOM     19  C   UNL     1     -19.691 -33.169 -14.631  1.00  0.00    -0.003 C 
ATOM     20  C   UNL     1     -20.232 -31.939 -15.360  1.00  0.00     0.004 C 
ENDBRANCH  18  19
ENDBRANCH  17  18
ENDBRANCH  16  17
ENDBRANCH  15  16
ENDBRANCH  14  15
ENDBRANCH  13  14
ENDBRANCH  12  13
ENDBRANCH   1  12
TORSDOF 16
ENDMDL
MODEL 2
REMARK VINA RESULT:    -4.946      2.139      5.406
REMARK INTER + INTRA:         -11.292
REMARK INTER:                  -9.175
REMARK INTRA:                  -2.117
REMARK UNBOUND:                -1.719
REMARK SMILES CCCCCCCCCCCCCCCCCC(=O)[O-]
REMARK SMILES IDX 10 1 11 2 12 3 13 4 14 5 15 6 16 7 17 8 18 9 19 10 20 11
REMARK SMILES IDX 9 12 8 13 7 14 6 15 5 16 4 17 3 18 2 19 1 20
REMARK H PARENT
REMARK Flexibility Score: inf
ROOT
ATOM      1  C   UNL     1     -26.884 -31.291 -10.942  1.00  0.00     0.000 C 
ENDROOT
BRANCH   1   2
ATOM      2  C   UNL     1     -25.376 -31.011 -11.024  1.00  0.00     0.000 C 
BRANCH   2   3
ATOM      3  C   UNL     1     -24.860 -30.917 -12.471  1.00  0.00     0.000 C 
BRANCH   3   4
ATOM      4  C   UNL     1     -23.379 -31.289 -12.660  1.00  0.00     0.000 C 
BRANCH   4   5
ATOM      5  C   UNL     1     -22.756 -31.928 -11.411  1.00  0.00     0.000 C 
BRANCH   5   6
ATOM      6  C   UNL     1     -21.577 -32.837 -11.788  1.00  0.00     0.000 C 
BRANCH   6   7
ATOM      7  C   UNL     1     -21.763 -33.509 -13.158  1.00  0.00     0.006 C 
BRANCH   7   8
ATOM      8  C   UNL     1     -20.444 -34.021 -13.749  1.00  0.00     0.053 C 
BRANCH   8   9
ATOM      9  C   UNL     1     -20.097 -35.357 -13.173  1.00  0.00     0.041 C 
ATOM     10  O   UNL     1     -19.057 -35.960 -13.550  1.00  0.00    -0.550 OA
ATOM     11  O   UNL     1     -20.901 -35.920 -12.190  1.00  0.00    -0.550 OA
ENDBRANCH   8   9
ENDBRANCH   7   8
ENDBRANCH   6   7
ENDBRANCH   5   6
ENDBRANCH   4   5
ENDBRANCH   3   4
ENDBRANCH   2   3
ENDBRANCH   1   2
BRANCH   1  12
ATOM     12  C   UNL     1     -27.678 -30.270 -11.765  1.00  0.00     0.000 C 
BRANCH  12  13
ATOM     13  C   UNL     1     -28.434 -30.958 -12.911  1.00  0.00    -0.000 C 
BRANCH  13  14
ATOM     14  C   UNL     1     -28.585 -32.476 -12.703  1.00  0.00    -0.000 C 
BRANCH  14  15
ATOM     15  C   UNL     1     -27.864 -33.350 -13.747  1.00  0.00    -0.000 C 
BRANCH  15  16
ATOM     16  C   UNL     1     -27.636 -34.792 -13.264  1.00  0.00    -0.000 C 
BRANCH  16  17
ATOM     17  C   UNL     1     -27.555 -34.886 -11.726  1.00  0.00    -0.000 C 
BRANCH  17  18
ATOM     18  C   UNL     1     -26.121 -34.806 -11.169  1.00  0.00    -0.000 C 
BRANCH  18  19
ATOM     19  C   UNL     1     -25.030 -34.664 -12.247  1.00  0.00    -0.003 C 
ATOM     20  C   UNL     1     -24.418 -36.005 -12.654  1.00  0.00     0.004 C 
ENDBRANCH  18  19
ENDBRANCH  17  18
ENDBRANCH  16  17
ENDBRANCH  15  16
ENDBRANCH  14  15
ENDBRANCH  13  14
ENDBRANCH  12  13
ENDBRANCH   1  12
TORSDOF 16
ENDMDL
MODEL 3
REMARK VINA RESULT:    -4.939      1.842      6.068
REMARK INTER + INTRA:         -11.279
REMARK INTER:                  -9.101
REMARK INTRA:                  -2.178
REMARK UNBOUND:                -1.719
REMARK SMILES CCCCCCCCCCCCCCCCCC(=O)[O-]
REMARK SMILES IDX 10 1 11 2 12 3 13 4 14 5 15 6 16 7 17 8 18 9 19 10 20 11
REMARK SMILES IDX 9 12 8 13 7 14 6 15 5 16 4 17 3 18 2 19 1 20
REMARK H PARENT
REMARK Flexibility Score: inf
ROOT
ATOM      1  C   UNL     1     -25.133 -31.435 -11.784  1.00  0.00     0.000 C 
ENDROOT
BRANCH   1   2
ATOM      2  C   UNL     1     -23.726 -31.787 -11.279  1.00  0.00     0.000 C 
BRANCH   2   3
ATOM      3  C   UNL     1     -22.772 -32.219 -12.408  1.00  0.00     0.000 C 
BRANCH   3   4
ATOM      4  C   UNL     1     -21.830 -33.384 -12.055  1.00  0.00     0.000 C 
BRANCH   4   5
ATOM      5  C   UNL     1     -21.762 -34.454 -13.154  1.00  0.00     0.000 C 
BRANCH   5   6
ATOM      6  C   UNL     1     -20.305 -34.786 -13.508  1.00  0.00     0.000 C 
BRANCH   6   7
ATOM      7  C   UNL     1     -19.632 -33.681 -14.339  1.00  0.00     0.006 C 
BRANCH   7   8
ATOM      8  C   UNL     1     -20.575 -33.068 -15.381  1.00  0.00     0.053 C 
BRANCH   8   9
ATOM      9  C   UNL     1     -20.494 -31.575 -15.344  1.00  0.00     0.041 C 
ATOM     10  O   UNL     1     -20.024 -30.991 -14.331  1.00  0.00    -0.550 OA
ATOM     11  O   UNL     1     -20.900 -30.828 -16.443  1.00  0.00    -0.550 OA
ENDBRANCH   8   9
ENDBRANCH   7   8
ENDBRANCH   6   7
ENDBRANCH   5   6
ENDBRANCH   4   5
ENDBRANCH   3   4
ENDBRANCH   2   3
ENDBRANCH   1   2
BRANCH   1  12
ATOM     12  C   UNL     1     -26.067 -31.098 -10.615  1.00  0.00     0.000 C 
BRANCH  12  13
ATOM     13  C   UNL     1     -27.509 -30.900 -11.105  1.00  0.00    -0.000 C 
BRANCH  13  14
ATOM     14  C   UNL     1     -27.656 -31.093 -12.625  1.00  0.00    -0.000 C 
BRANCH  14  15
ATOM     15  C   UNL     1     -28.477 -32.326 -13.047  1.00  0.00    -0.000 C 
BRANCH  15  16
ATOM     16  C   UNL     1     -27.627 -33.401 -13.745  1.00  0.00    -0.000 C 
BRANCH  16  17
ATOM     17  C   UNL     1     -27.649 -34.744 -12.987  1.00  0.00    -0.000 C 
BRANCH  17  18
ATOM     18  C   UNL     1     -26.877 -34.723 -11.654  1.00  0.00    -0.000 C 
BRANCH  18  19
ATOM     19  C   UNL     1     -25.371 -35.015 -11.789  1.00  0.00    -0.003 C 
ATOM     20  C   UNL     1     -25.054 -35.990 -12.924  1.00  0.00     0.004 C 
ENDBRANCH  18  19
ENDBRANCH  17  18
ENDBRANCH  16  17
ENDBRANCH  15  16
ENDBRANCH  14  15
ENDBRANCH  13  14
ENDBRANCH  12  13
ENDBRANCH   1  12
TORSDOF 16
ENDMDL
MODEL 4
REMARK VINA RESULT:    -4.917      1.846      2.846
REMARK INTER + INTRA:         -11.235
REMARK INTER:                  -9.857
REMARK INTRA:                  -1.378
REMARK UNBOUND:                -1.719
REMARK SMILES CCCCCCCCCCCCCCCCCC(=O)[O-]
REMARK SMILES IDX 10 1 11 2 12 3 13 4 14 5 15 6 16 7 17 8 18 9 19 10 20 11
REMARK SMILES IDX 9 12 8 13 7 14 6 15 5 16 4 17 3 18 2 19 1 20
REMARK H PARENT
REMARK Flexibility Score: inf
ROOT
ATOM      1  C   UNL     1     -26.802 -34.744 -11.667  1.00  0.00     0.000 C 
ENDROOT
BRANCH   1   2
ATOM      2  C   UNL     1     -27.168 -34.920 -13.148  1.00  0.00     0.000 C 
BRANCH   2   3
ATOM      3  C   UNL     1     -27.710 -33.630 -13.791  1.00  0.00     0.000 C 
BRANCH   3   4
ATOM      4  C   UNL     1     -28.432 -32.674 -12.825  1.00  0.00     0.000 C 
BRANCH   4   5
ATOM      5  C   UNL     1     -27.863 -31.248 -12.854  1.00  0.00     0.000 C 
BRANCH   5   6
ATOM      6  C   UNL     1     -27.899 -30.614 -11.455  1.00  0.00     0.000 C 
BRANCH   6   7
ATOM      7  C   UNL     1     -26.504 -30.213 -10.950  1.00  0.00     0.006 C 
BRANCH   7   8
ATOM      8  C   UNL     1     -25.749 -31.383 -10.309  1.00  0.00     0.053 C 
BRANCH   8   9
ATOM      9  C   UNL     1     -24.273 -31.216 -10.493  1.00  0.00     0.041 C 
ATOM     10  O   UNL     1     -23.703 -31.690 -11.511  1.00  0.00    -0.550 OA
ATOM     11  O   UNL     1     -23.533 -30.499  -9.560  1.00  0.00    -0.550 OA
ENDBRANCH   8   9
ENDBRANCH   7   8
ENDBRANCH   6   7
ENDBRANCH   5   6
ENDBRANCH   4   5
ENDBRANCH   3   4
ENDBRANCH   2   3
ENDBRANCH   1   2
BRANCH   1  12
ATOM     12  C   UNL     1     -25.290 -34.886 -11.455  1.00  0.00     0.000 C 
BRANCH  12  13
ATOM     13  C   UNL     1     -24.581 -35.226 -12.773  1.00  0.00    -0.000 C 
BRANCH  13  14
ATOM     14  C   UNL     1     -23.146 -35.743 -12.566  1.00  0.00    -0.000 C 
BRANCH  14  15
ATOM     15  C   UNL     1     -22.044 -34.676 -12.704  1.00  0.00    -0.000 C 
BRANCH  15  16
ATOM     16  C   UNL     1     -20.749 -35.229 -13.322  1.00  0.00    -0.000 C 
BRANCH  16  17
ATOM     17  C   UNL     1     -19.884 -35.979 -12.287  1.00  0.00    -0.000 C 
BRANCH  17  18
ATOM     18  C   UNL     1     -20.042 -35.459 -10.846  1.00  0.00    -0.000 C 
BRANCH  18  19
ATOM     19  C   UNL     1     -18.875 -35.824  -9.909  1.00  0.00    -0.003 C 
ATOM     20  C   UNL     1     -19.260 -36.866  -8.859  1.00  0.00     0.004 C 
ENDBRANCH  18  19
ENDBRANCH  17  18
ENDBRANCH  16  17
ENDBRANCH  15  16
ENDBRANCH  14  15
ENDBRANCH  13  14
ENDBRANCH  12  13
ENDBRANCH   1  12
TORSDOF 16
ENDMDL
MODEL 5
REMARK VINA RESULT:    -4.885      1.703      3.341
REMARK INTER + INTRA:         -11.173
REMARK INTER:                  -9.192
REMARK INTRA:                  -1.981
REMARK UNBOUND:                -1.719
REMARK SMILES CCCCCCCCCCCCCCCCCC(=O)[O-]
REMARK SMILES IDX 10 1 11 2 12 3 13 4 14 5 15 6 16 7 17 8 18 9 19 10 20 11
REMARK SMILES IDX 9 12 8 13 7 14 6 15 5 16 4 17 3 18 2 19 1 20
REMARK H PARENT
REMARK Flexibility Score: inf
ROOT
ATOM      1  C   UNL     1     -24.938 -35.487 -12.100  1.00  0.00     0.000 C 
ENDROOT
BRANCH   1   2
ATOM      2  C   UNL     1     -25.948 -34.648 -11.303  1.00  0.00     0.000 C 
BRANCH   2   3
ATOM      3  C   UNL     1     -27.403 -34.873 -11.754  1.00  0.00     0.000 C 
BRANCH   3   4
ATOM      4  C   UNL     1     -27.693 -34.517 -13.224  1.00  0.00     0.000 C 
BRANCH   4   5
ATOM      5  C   UNL     1     -27.408 -33.044 -13.552  1.00  0.00     0.000 C 
BRANCH   5   6
ATOM      6  C   UNL     1     -28.559 -32.144 -13.079  1.00  0.00     0.000 C 
BRANCH   6   7
ATOM      7  C   UNL     1     -28.064 -30.824 -12.465  1.00  0.00     0.006 C 
BRANCH   7   8
ATOM      8  C   UNL     1     -27.117 -31.043 -11.280  1.00  0.00     0.053 C 
BRANCH   8   9
ATOM      9  C   UNL     1     -25.859 -30.255 -11.465  1.00  0.00     0.041 C 
ATOM     10  O   UNL     1     -25.140 -29.965 -10.472  1.00  0.00    -0.550 OA
ATOM     11  O   UNL     1     -25.457 -29.875 -12.740  1.00  0.00    -0.550 OA
ENDBRANCH   8   9
ENDBRANCH   7   8
ENDBRANCH   6   7
ENDBRANCH   5   6
ENDBRANCH   4   5
ENDBRANCH   3   4
ENDBRANCH   2   3
ENDBRANCH   1   2
BRANCH   1  12
ATOM     12  C   UNL     1     -23.776 -34.618 -12.598  1.00  0.00     0.000 C 
BRANCH  12  13
ATOM     13  C   UNL     1     -24.014 -33.139 -12.261  1.00  0.00    -0.000 C 
BRANCH  13  14
ATOM     14  C   UNL     1     -22.705 -32.351 -12.071  1.00  0.00    -0.000 C 
BRANCH  14  15
ATOM     15  C   UNL     1     -21.417 -33.174 -12.261  1.00  0.00    -0.000 C 
BRANCH  15  16
ATOM     16  C   UNL     1     -20.854 -33.082 -13.690  1.00  0.00    -0.000 C 
BRANCH  16  17
ATOM     17  C   UNL     1     -19.788 -34.162 -13.966  1.00  0.00    -0.000 C 
BRANCH  17  18
ATOM     18  C   UNL     1     -20.173 -35.566 -13.462  1.00  0.00    -0.000 C 
BRANCH  18  19
ATOM     19  C   UNL     1     -19.129 -36.214 -12.533  1.00  0.00    -0.003 C 
ATOM     20  C   UNL     1     -19.387 -35.922 -11.054  1.00  0.00     0.004 C 
ENDBRANCH  18  19
ENDBRANCH  17  18
ENDBRANCH  16  17
ENDBRANCH  15  16
ENDBRANCH  14  15
ENDBRANCH  13  14
ENDBRANCH  12  13
ENDBRANCH   1  12
TORSDOF 16
ENDMDL
MODEL 6
REMARK VINA RESULT:    -4.869      2.147      3.850
REMARK INTER + INTRA:         -11.142
REMARK INTER:                  -8.813
REMARK INTRA:                  -2.329
REMARK UNBOUND:                -1.719
REMARK SMILES CCCCCCCCCCCCCCCCCC(=O)[O-]
REMARK SMILES IDX 10 1 11 2 12 3 13 4 14 5 15 6 16 7 17 8 18 9 19 10 20 11
REMARK SMILES IDX 9 12 8 13 7 14 6 15 5 16 4 17 3 18 2 19 1 20
REMARK H PARENT
REMARK Flexibility Score: inf
ROOT
ATOM      1  C   UNL     1     -25.685 -31.111 -10.142  1.00  0.00     0.000 C 
ENDROOT
BRANCH   1   2
ATOM      2  C   UNL     1     -26.595 -30.091 -10.843  1.00  0.00     0.000 C 
BRANCH   2   3
ATOM      3  C   UNL     1     -27.881 -30.720 -11.408  1.00  0.00     0.000 C 
BRANCH   3   4
ATOM      4  C   UNL     1     -27.828 -31.080 -12.904  1.00  0.00     0.000 C 
BRANCH   4   5
ATOM      5  C   UNL     1     -27.593 -32.577 -13.153  1.00  0.00     0.000 C 
BRANCH   5   6
ATOM      6  C   UNL     1     -28.250 -33.426 -12.055  1.00  0.00     0.000 C 
BRANCH   6   7
ATOM      7  C   UNL     1     -27.361 -34.594 -11.599  1.00  0.00     0.006 C 
BRANCH   7   8
ATOM      8  C   UNL     1     -25.869 -34.327 -11.830  1.00  0.00     0.053 C 
BRANCH   8   9
ATOM      9  C   UNL     1     -25.262 -35.427 -12.641  1.00  0.00     0.041 C 
ATOM     10  O   UNL     1     -25.848 -35.854 -13.671  1.00  0.00    -0.550 OA
ATOM     11  O   UNL     1     -24.027 -35.955 -12.283  1.00  0.00    -0.550 OA
ENDBRANCH   8   9
ENDBRANCH   7   8
ENDBRANCH   6   7
ENDBRANCH   5   6
ENDBRANCH   4   5
ENDBRANCH   3   4
ENDBRANCH   2   3
ENDBRANCH   1   2
BRANCH   1  12
ATOM     12  C   UNL     1     -24.241 -30.995 -10.645  1.00  0.00     0.000 C 
BRANCH  12  13
ATOM     13  C   UNL     1     -24.188 -31.045 -12.179  1.00  0.00    -0.000 C 
BRANCH  13  14
ATOM     14  C   UNL     1     -22.882 -31.659 -12.713  1.00  0.00    -0.000 C 
BRANCH  14  15
ATOM     15  C   UNL     1     -21.983 -32.308 -11.644  1.00  0.00    -0.000 C 
BRANCH  15  16
ATOM     16  C   UNL     1     -21.264 -33.569 -12.151  1.00  0.00    -0.000 C 
BRANCH  16  17
ATOM     17  C   UNL     1     -21.679 -33.937 -13.591  1.00  0.00    -0.000 C 
BRANCH  17  18
ATOM     18  C   UNL     1     -20.529 -33.853 -14.613  1.00  0.00    -0.000 C 
BRANCH  18  19
ATOM     19  C   UNL     1     -19.940 -32.441 -14.789  1.00  0.00    -0.003 C 
ATOM     20  C   UNL     1     -20.542 -31.688 -15.976  1.00  0.00     0.004 C 
ENDBRANCH  18  19
ENDBRANCH  17  18
ENDBRANCH  16  17
ENDBRANCH  15  16
ENDBRANCH  14  15
ENDBRANCH  13  14
ENDBRANCH  12  13
ENDBRANCH   1  12
TORSDOF 16
ENDMDL
MODEL 7
REMARK VINA RESULT:    -4.842      2.354      4.415
REMARK INTER + INTRA:         -11.090
REMARK INTER:                  -8.859
REMARK INTRA:                  -2.231
REMARK UNBOUND:                -1.719
REMARK SMILES CCCCCCCCCCCCCCCCCC(=O)[O-]
REMARK SMILES IDX 10 1 11 2 12 3 13 4 14 5 15 6 16 7 17 8 18 9 19 10 20 11
REMARK SMILES IDX 9 12 8 13 7 14 6 15 5 16 4 17 3 18 2 19 1 20
REMARK H PARENT
REMARK Flexibility Score: inf
ROOT
ATOM      1  C   UNL     1     -23.778 -32.630 -12.189  1.00  0.00     0.000 C 
ENDROOT
BRANCH   1   2
ATOM      2  C   UNL     1     -24.777 -31.463 -12.187  1.00  0.00     0.000 C 
BRANCH   2   3
ATOM      3  C   UNL     1     -25.628 -31.402 -10.906  1.00  0.00     0.000 C 
BRANCH   3   4
ATOM      4  C   UNL     1     -27.122 -31.104 -11.130  1.00  0.00     0.000 C 
BRANCH   4   5
ATOM      5  C   UNL     1     -27.472 -30.867 -12.606  1.00  0.00     0.000 C 
BRANCH   5   6
ATOM      6  C   UNL     1     -28.707 -31.683 -13.015  1.00  0.00     0.000 C 
BRANCH   6   7
ATOM      7  C   UNL     1     -28.550 -33.183 -12.719  1.00  0.00     0.006 C 
BRANCH   7   8
ATOM      8  C   UNL     1     -27.475 -33.848 -13.587  1.00  0.00     0.053 C 
BRANCH   8   9
ATOM      9  C   UNL     1     -26.644 -34.781 -12.764  1.00  0.00     0.041 C 
ATOM     10  O   UNL     1     -25.859 -35.592 -13.324  1.00  0.00    -0.550 OA
ATOM     11  O   UNL     1     -26.706 -34.728 -11.377  1.00  0.00    -0.550 OA
ENDBRANCH   8   9
ENDBRANCH   7   8
ENDBRANCH   6   7
ENDBRANCH   5   6
ENDBRANCH   4   5
ENDBRANCH   3   4
ENDBRANCH   2   3
ENDBRANCH   1   2
BRANCH   1  12
ATOM     12  C   UNL     1     -22.466 -32.230 -11.504  1.00  0.00     0.000 C 
BRANCH  12  13
ATOM     13  C   UNL     1     -21.744 -31.133 -12.300  1.00  0.00    -0.000 C 
BRANCH  13  14
ATOM     14  C   UNL     1     -20.544 -31.666 -13.102  1.00  0.00    -0.000 C 
BRANCH  14  15
ATOM     15  C   UNL     1     -20.823 -31.926 -14.594  1.00  0.00    -0.000 C 
BRANCH  15  16
ATOM     16  C   UNL     1     -20.369 -33.322 -15.053  1.00  0.00    -0.000 C 
BRANCH  16  17
ATOM     17  C   UNL     1     -19.664 -34.105 -13.926  1.00  0.00    -0.000 C 
BRANCH  17  18
ATOM     18  C   UNL     1     -20.347 -35.439 -13.569  1.00  0.00    -0.000 C 
BRANCH  18  19
ATOM     19  C   UNL     1     -20.985 -35.469 -12.168  1.00  0.00    -0.003 C 
ATOM     20  C   UNL     1     -19.952 -35.414 -11.042  1.00  0.00     0.004 C 
ENDBRANCH  18  19
ENDBRANCH  17  18
ENDBRANCH  16  17
ENDBRANCH  15  16
ENDBRANCH  14  15
ENDBRANCH  13  14
ENDBRANCH  12  13
ENDBRANCH   1  12
TORSDOF 16
ENDMDL
MODEL 8
REMARK VINA RESULT:    -4.750      1.488      2.968
REMARK INTER + INTRA:         -10.912
REMARK INTER:                  -9.028
REMARK INTRA:                  -1.883
REMARK UNBOUND:                -1.719
REMARK SMILES CCCCCCCCCCCCCCCCCC(=O)[O-]
REMARK SMILES IDX 10 1 11 2 12 3 13 4 14 5 15 6 16 7 17 8 18 9 19 10 20 11
REMARK SMILES IDX 9 12 8 13 7 14 6 15 5 16 4 17 3 18 2 19 1 20
REMARK H PARENT
REMARK Flexibility Score: inf
ROOT
ATOM      1  C   UNL     1     -25.096 -35.907 -13.003  1.00  0.00     0.000 C 
ENDROOT
BRANCH   1   2
ATOM      2  C   UNL     1     -26.352 -35.206 -12.465  1.00  0.00     0.000 C 
BRANCH   2   3
ATOM      3  C   UNL     1     -27.471 -35.087 -13.516  1.00  0.00     0.000 C 
BRANCH   3   4
ATOM      4  C   UNL     1     -27.871 -33.647 -13.883  1.00  0.00     0.000 C 
BRANCH   4   5
ATOM      5  C   UNL     1     -28.522 -32.890 -12.717  1.00  0.00     0.000 C 
BRANCH   5   6
ATOM      6  C   UNL     1     -28.484 -31.373 -12.957  1.00  0.00     0.000 C 
BRANCH   6   7
ATOM      7  C   UNL     1     -27.812 -30.608 -11.804  1.00  0.00     0.006 C 
BRANCH   7   8
ATOM      8  C   UNL     1     -26.745 -31.441 -11.085  1.00  0.00     0.053 C 
BRANCH   8   9
ATOM      9  C   UNL     1     -25.403 -31.222 -11.711  1.00  0.00     0.041 C 
ATOM     10  O   UNL     1     -24.941 -32.061 -12.530  1.00  0.00    -0.550 OA
ATOM     11  O   UNL     1     -24.680 -30.072 -11.422  1.00  0.00    -0.550 OA
ENDBRANCH   8   9
ENDBRANCH   7   8
ENDBRANCH   6   7
ENDBRANCH   5   6
ENDBRANCH   4   5
ENDBRANCH   3   4
ENDBRANCH   2   3
ENDBRANCH   1   2
BRANCH   1  12
ATOM     12  C   UNL     1     -23.898 -35.677 -12.073  1.00  0.00     0.000 C 
BRANCH  12  13
ATOM     13  C   UNL     1     -22.781 -34.911 -12.797  1.00  0.00    -0.000 C 
BRANCH  13  14
ATOM     14  C   UNL     1     -21.378 -35.466 -12.490  1.00  0.00    -0.000 C 
BRANCH  14  15
ATOM     15  C   UNL     1     -20.282 -35.049 -13.488  1.00  0.00    -0.000 C 
BRANCH  15  16
ATOM     16  C   UNL     1     -20.750 -33.963 -14.472  1.00  0.00    -0.000 C 
BRANCH  16  17
ATOM     17  C   UNL     1     -19.766 -32.777 -14.541  1.00  0.00    -0.000 C 
BRANCH  17  18
ATOM     18  C   UNL     1     -19.896 -31.787 -13.367  1.00  0.00    -0.000 C 
BRANCH  18  19
ATOM     19  C   UNL     1     -21.345 -31.539 -12.906  1.00  0.00    -0.003 C 
ATOM     20  C   UNL     1     -21.542 -31.784 -11.409  1.00  0.00     0.004 C 
ENDBRANCH  18  19
ENDBRANCH  17  18
ENDBRANCH  16  17
ENDBRANCH  15  16
ENDBRANCH  14  15
ENDBRANCH  13  14
ENDBRANCH  12  13
ENDBRANCH   1  12
TORSDOF 16
ENDMDL
MODEL 9
REMARK VINA RESULT:    -4.681      2.608      4.485
REMARK INTER + INTRA:         -10.778
REMARK INTER:                  -8.219
REMARK INTRA:                  -2.559
REMARK UNBOUND:                -1.719
REMARK SMILES CCCCCCCCCCCCCCCCCC(=O)[O-]
REMARK SMILES IDX 10 1 11 2 12 3 13 4 14 5 15 6 16 7 17 8 18 9 19 10 20 11
REMARK SMILES IDX 9 12 8 13 7 14 6 15 5 16 4 17 3 18 2 19 1 20
REMARK H PARENT
REMARK Flexibility Score: inf
ROOT
ATOM      1  C   UNL     1     -24.196 -34.728 -12.285  1.00  0.00     0.000 C 
ENDROOT
BRANCH   1   2
ATOM      2  C   UNL     1     -23.900 -33.221 -12.258  1.00  0.00     0.000 C 
BRANCH   2   3
ATOM      3  C   UNL     1     -24.982 -32.410 -11.523  1.00  0.00     0.000 C 
BRANCH   3   4
ATOM      4  C   UNL     1     -25.202 -30.983 -12.057  1.00  0.00     0.000 C 
BRANCH   4   5
ATOM      5  C   UNL     1     -26.366 -30.888 -13.054  1.00  0.00     0.000 C 
BRANCH   5   6
ATOM      6  C   UNL     1     -27.718 -30.990 -12.331  1.00  0.00     0.000 C 
BRANCH   6   7
ATOM      7  C   UNL     1     -28.576 -32.156 -12.845  1.00  0.00     0.006 C 
BRANCH   7   8
ATOM      8  C   UNL     1     -27.778 -33.146 -13.701  1.00  0.00     0.053 C 
BRANCH   8   9
ATOM      9  C   UNL     1     -27.739 -34.490 -13.045  1.00  0.00     0.041 C 
ATOM     10  O   UNL     1     -27.501 -35.522 -13.728  1.00  0.00    -0.550 OA
ATOM     11  O   UNL     1     -27.925 -34.600 -11.673  1.00  0.00    -0.550 OA
ENDBRANCH   8   9
ENDBRANCH   7   8
ENDBRANCH   6   7
ENDBRANCH   5   6
ENDBRANCH   4   5
ENDBRANCH   3   4
ENDBRANCH   2   3
ENDBRANCH   1   2
BRANCH   1  12
ATOM     12  C   UNL     1     -22.934 -35.529 -12.629  1.00  0.00     0.000 C 
BRANCH  12  13
ATOM     13  C   UNL     1     -21.683 -34.641 -12.552  1.00  0.00    -0.000 C 
BRANCH  13  14
ATOM     14  C   UNL     1     -20.831 -34.695 -13.833  1.00  0.00    -0.000 C 
BRANCH  14  15
ATOM     15  C   UNL     1     -20.734 -33.366 -14.606  1.00  0.00    -0.000 C 
BRANCH  15  16
ATOM     16  C   UNL     1     -20.355 -32.178 -13.706  1.00  0.00    -0.000 C 
BRANCH  16  17
ATOM     17  C   UNL     1     -21.401 -31.046 -13.765  1.00  0.00    -0.000 C 
BRANCH  17  18
ATOM     18  C   UNL     1     -21.595 -30.303 -12.429  1.00  0.00    -0.000 C 
BRANCH  18  19
ATOM     19  C   UNL     1     -21.153 -31.104 -11.189  1.00  0.00    -0.003 C 
ATOM     20  C   UNL     1     -21.965 -30.763  -9.940  1.00  0.00     0.004 C 
ENDBRANCH  18  19
ENDBRANCH  17  18
ENDBRANCH  16  17
ENDBRANCH  15  16
ENDBRANCH  14  15
ENDBRANCH  13  14
ENDBRANCH  12  13
ENDBRANCH   1  12
TORSDOF 16
ENDMDL
