MODEL 1
REMARK VINA RESULT:    -4.652      0.000      0.000
REMARK INTER + INTRA:          -7.853
REMARK INTER:                  -7.100
REMARK INTRA:                  -0.753
REMARK UNBOUND:                -0.753
REMARK SMILES OC[C@H]1O[C@@H](O[C@]2(CO)O[C@H](CO)[C@@H](O)[C@H]2O)[C@@H](O)[C@H](O)[C@H]1O
REMARK SMILES IDX 6 1 5 2 3 3 22 4 4 5 20 6 18 7 2 8 1 9 23 11 21 13 19 15
REMARK SMILES IDX 7 17 16 18 10 19 14 20 11 21 8 22 9 23 17 25 15 27 12 29
REMARK SMILES IDX 13 30
REMARK H PARENT 1 10 23 12 21 14 19 16 9 24 17 26 15 28 13 31
REMARK Flexibility Score: inf
ROOT
ATOM      1  O   UNL     1       3.987   2.567  11.913  1.00  0.00    -0.313 OA
ENDROOT
BRANCH   1   2
ATOM      2  C   UNL     1       3.874   1.504  10.974  1.00  0.00     0.285 C 
ATOM      3  C   UNL     1       1.661   1.997  10.197  1.00  0.00     0.178 C 
ATOM      4  C   UNL     1       1.084   0.735  10.887  1.00  0.00     0.177 C 
ATOM      5  O   UNL     1       3.043   1.865   9.875  1.00  0.00    -0.341 OA
ATOM      6  C   UNL     1       1.927   0.340  12.108  1.00  0.00     0.179 C 
ATOM      7  C   UNL     1       3.391   0.214  11.669  1.00  0.00     0.202 C 
BRANCH   3   8
ATOM      8  C   UNL     1       1.355   3.323  10.927  1.00  0.00     0.191 C 
BRANCH   8   9
ATOM      9  O   UNL     1       0.316   3.998  10.269  1.00  0.00    -0.394 OA
ATOM     10  H   UNL     1      -0.316   4.319  10.968  1.00  0.00     0.210 HD
ENDBRANCH   8   9
ENDBRANCH   3   8
BRANCH   4  11
ATOM     11  O   UNL     1      -0.252   0.958  11.269  1.00  0.00    -0.387 OA
ATOM     12  H   UNL     1      -0.562   0.140  11.735  1.00  0.00     0.211 HD
ENDBRANCH   4  11
BRANCH   6  13
ATOM     13  O   UNL     1       1.497  -0.895  12.623  1.00  0.00    -0.387 OA
ATOM     14  H   UNL     1       1.171  -0.726  13.546  1.00  0.00     0.211 HD
ENDBRANCH   6  13
BRANCH   7  15
ATOM     15  O   UNL     1       4.226  -0.121  12.752  1.00  0.00    -0.385 OA
ATOM     16  H   UNL     1       4.316   0.682  13.331  1.00  0.00     0.211 HD
ENDBRANCH   7  15
ENDBRANCH   1   2
BRANCH   1  17
ATOM     17  C   UNL     1       5.329   2.984  12.161  1.00  0.00     0.224 C 
ATOM     18  C   UNL     1       5.566   4.408  11.569  1.00  0.00     0.208 C 
ATOM     19  O   UNL     1       5.599   3.019  13.555  1.00  0.00    -0.337 OA
ATOM     20  C   UNL     1       5.867   5.263  12.792  1.00  0.00     0.180 C 
ATOM     21  C   UNL     1       6.273   4.227  13.833  1.00  0.00     0.179 C 
BRANCH  17  22
ATOM     22  C   UNL     1       6.230   1.897  11.524  1.00  0.00     0.225 C 
BRANCH  22  23
ATOM     23  O   UNL     1       6.733   1.007  12.486  1.00  0.00    -0.391 OA
ATOM     24  H   UNL     1       6.609   0.089  12.128  1.00  0.00     0.210 HD
ENDBRANCH  22  23
ENDBRANCH  17  22
BRANCH  18  25
ATOM     25  O   UNL     1       6.588   4.458  10.596  1.00  0.00    -0.385 OA
ATOM     26  H   UNL     1       6.199   4.781   9.742  1.00  0.00     0.211 HD
ENDBRANCH  18  25
BRANCH  20  27
ATOM     27  O   UNL     1       6.902   6.186  12.574  1.00  0.00    -0.387 OA
ATOM     28  H   UNL     1       6.591   7.051  12.955  1.00  0.00     0.211 HD
ENDBRANCH  20  27
BRANCH  21  29
ATOM     29  C   UNL     1       5.979   4.676  15.271  1.00  0.00     0.191 C 
BRANCH  29  30
ATOM     30  O   UNL     1       6.728   5.816  15.611  1.00  0.00    -0.394 OA
ATOM     31  H   UNL     1       7.630   5.502  15.886  1.00  0.00     0.210 HD
ENDBRANCH  29  30
ENDBRANCH  21  29
ENDBRANCH   1  17
TORSDOF 13
ENDMDL
MODEL 2
REMARK VINA RESULT:    -3.779      8.937     13.247
REMARK INTER + INTRA:          -6.520
REMARK INTER:                  -5.313
REMARK INTRA:                  -1.207
REMARK UNBOUND:                -0.753
REMARK SMILES OC[C@H]1O[C@@H](O[C@]2(CO)O[C@H](CO)[C@@H](O)[C@H]2O)[C@@H](O)[C@H](O)[C@H]1O
REMARK SMILES IDX 6 1 5 2 3 3 22 4 4 5 20 6 18 7 2 8 1 9 23 11 21 13 19 15
REMARK SMILES IDX 7 17 16 18 10 19 14 20 11 21 8 22 9 23 17 25 15 27 12 29
REMARK SMILES IDX 13 30
REMARK H PARENT 1 10 23 12 21 14 19 16 9 24 17 26 15 28 13 31
REMARK Flexibility Score: inf
ROOT
ATOM      1  O   UNL     1      -4.109  -5.606  11.183  1.00  0.00    -0.313 OA
ENDROOT
BRANCH   1   2
ATOM      2  C   UNL     1      -3.891  -4.872   9.984  1.00  0.00     0.285 C 
ATOM      3  C   UNL     1      -2.163  -3.428  10.803  1.00  0.00     0.178 C 
ATOM      4  C   UNL     1      -3.101  -2.195  10.754  1.00  0.00     0.177 C 
ATOM      5  O   UNL     1      -2.538  -4.442   9.875  1.00  0.00    -0.341 OA
ATOM      6  C   UNL     1      -4.569  -2.614  10.916  1.00  0.00     0.179 C 
ATOM      7  C   UNL     1      -4.885  -3.698   9.878  1.00  0.00     0.202 C 
BRANCH   3   8
ATOM      8  C   UNL     1      -1.919  -3.992  12.220  1.00  0.00     0.191 C 
BRANCH   8   9
ATOM      9  O   UNL     1      -3.101  -3.916  12.972  1.00  0.00    -0.394 OA
ATOM     10  H   UNL     1      -2.838  -3.857  13.929  1.00  0.00     0.210 HD
ENDBRANCH   8   9
ENDBRANCH   3   8
BRANCH   4  11
ATOM     11  O   UNL     1      -2.744  -1.272  11.755  1.00  0.00    -0.387 OA
ATOM     12  H   UNL     1      -1.794  -1.441  11.981  1.00  0.00     0.211 HD
ENDBRANCH   4  11
BRANCH   6  13
ATOM     13  O   UNL     1      -5.419  -1.515  10.703  1.00  0.00    -0.387 OA
ATOM     14  H   UNL     1      -6.018  -1.453  11.493  1.00  0.00     0.211 HD
ENDBRANCH   6  13
BRANCH   7  15
ATOM     15  O   UNL     1      -6.214  -4.147   9.991  1.00  0.00    -0.385 OA
ATOM     16  H   UNL     1      -6.679  -3.951   9.135  1.00  0.00     0.211 HD
ENDBRANCH   7  15
ENDBRANCH   1   2
BRANCH   1  17
ATOM     17  C   UNL     1      -4.584  -6.936  10.973  1.00  0.00     0.224 C 
ATOM     18  C   UNL     1      -5.125  -7.529  12.311  1.00  0.00     0.208 C 
ATOM     19  O   UNL     1      -5.629  -6.953  10.011  1.00  0.00    -0.337 OA
ATOM     20  C   UNL     1      -6.605  -7.756  12.034  1.00  0.00     0.180 C 
ATOM     21  C   UNL     1      -6.662  -7.774  10.511  1.00  0.00     0.179 C 
BRANCH  17  22
ATOM     22  C   UNL     1      -3.384  -7.723  10.394  1.00  0.00     0.225 C 
BRANCH  22  23
ATOM     23  O   UNL     1      -2.334  -7.831  11.321  1.00  0.00    -0.391 OA
ATOM     24  H   UNL     1      -1.744  -8.566  11.010  1.00  0.00     0.210 HD
ENDBRANCH  22  23
ENDBRANCH  17  22
BRANCH  18  25
ATOM     25  O   UNL     1      -4.456  -8.700  12.727  1.00  0.00    -0.385 OA
ATOM     26  H   UNL     1      -4.952  -9.489  12.386  1.00  0.00     0.211 HD
ENDBRANCH  18  25
BRANCH  20  27
ATOM     27  O   UNL     1      -7.083  -8.964  12.568  1.00  0.00    -0.387 OA
ATOM     28  H   UNL     1      -6.672  -9.054  13.469  1.00  0.00     0.211 HD
ENDBRANCH  20  27
BRANCH  21  29
ATOM     29  C   UNL     1      -8.017  -7.314   9.957  1.00  0.00     0.191 C 
BRANCH  29  30
ATOM     30  O   UNL     1      -8.347  -6.029  10.423  1.00  0.00    -0.394 OA
ATOM     31  H   UNL     1      -9.338  -5.962  10.414  1.00  0.00     0.210 HD
ENDBRANCH  29  30
ENDBRANCH  21  29
ENDBRANCH   1  17
TORSDOF 13
ENDMDL
MODEL 3
REMARK VINA RESULT:    -3.439      6.990     11.420
REMARK INTER + INTRA:          -6.002
REMARK INTER:                  -5.166
REMARK INTRA:                  -0.836
REMARK UNBOUND:                -0.753
REMARK SMILES OC[C@H]1O[C@@H](O[C@]2(CO)O[C@H](CO)[C@@H](O)[C@H]2O)[C@@H](O)[C@H](O)[C@H]1O
REMARK SMILES IDX 6 1 5 2 3 3 22 4 4 5 20 6 18 7 2 8 1 9 23 11 21 13 19 15
REMARK SMILES IDX 7 17 16 18 10 19 14 20 11 21 8 22 9 23 17 25 15 27 12 29
REMARK SMILES IDX 13 30
REMARK H PARENT 1 10 23 12 21 14 19 16 9 24 17 26 15 28 13 31
REMARK Flexibility Score: inf
ROOT
ATOM      1  O   UNL     1      -2.664  -4.298  11.919  1.00  0.00    -0.313 OA
ENDROOT
BRANCH   1   2
ATOM      2  C   UNL     1      -2.829  -4.097  10.520  1.00  0.00     0.285 C 
ATOM      3  C   UNL     1      -0.972  -2.618  10.188  1.00  0.00     0.178 C 
ATOM      4  C   UNL     1      -1.914  -1.414   9.928  1.00  0.00     0.177 C 
ATOM      5  O   UNL     1      -1.579  -3.868   9.875  1.00  0.00    -0.341 OA
ATOM      6  C   UNL     1      -3.257  -1.601  10.647  1.00  0.00     0.179 C 
ATOM      7  C   UNL     1      -3.839  -2.963  10.249  1.00  0.00     0.202 C 
BRANCH   3   8
ATOM      8  C   UNL     1      -0.307  -2.623  11.581  1.00  0.00     0.191 C 
BRANCH   8   9
ATOM      9  O   UNL     1       0.683  -1.630  11.639  1.00  0.00    -0.394 OA
ATOM     10  H   UNL     1       0.886  -1.472  12.600  1.00  0.00     0.210 HD
ENDBRANCH   8   9
ENDBRANCH   3   8
BRANCH   4  11
ATOM     11  O   UNL     1      -1.300  -0.219  10.345  1.00  0.00    -0.387 OA
ATOM     12  H   UNL     1      -0.885  -0.396  11.227  1.00  0.00     0.211 HD
ENDBRANCH   4  11
BRANCH   6  13
ATOM     13  O   UNL     1      -4.159  -0.591  10.271  1.00  0.00    -0.387 OA
ATOM     14  H   UNL     1      -4.880  -1.027   9.744  1.00  0.00     0.211 HD
ENDBRANCH   6  13
BRANCH   7  15
ATOM     15  O   UNL     1      -5.063  -3.210  10.897  1.00  0.00    -0.385 OA
ATOM     16  H   UNL     1      -5.383  -4.108  10.619  1.00  0.00     0.211 HD
ENDBRANCH   7  15
ENDBRANCH   1   2
BRANCH   1  17
ATOM     17  C   UNL     1      -3.089  -5.581  12.376  1.00  0.00     0.224 C 
ATOM     18  C   UNL     1      -4.130  -6.186  11.384  1.00  0.00     0.208 C 
ATOM     19  O   UNL     1      -1.988  -6.471  12.481  1.00  0.00    -0.337 OA
ATOM     20  C   UNL     1      -3.439  -7.433  10.850  1.00  0.00     0.180 C 
ATOM     21  C   UNL     1      -2.371  -7.701  11.904  1.00  0.00     0.179 C 
BRANCH  17  22
ATOM     22  C   UNL     1      -3.659  -5.351  13.798  1.00  0.00     0.225 C 
BRANCH  22  23
ATOM     23  O   UNL     1      -2.642  -5.089  14.731  1.00  0.00    -0.391 OA
ATOM     24  H   UNL     1      -3.056  -4.587  15.481  1.00  0.00     0.210 HD
ENDBRANCH  22  23
ENDBRANCH  17  22
BRANCH  18  25
ATOM     25  O   UNL     1      -5.385  -6.458  11.970  1.00  0.00    -0.385 OA
ATOM     26  H   UNL     1      -5.433  -6.000  12.848  1.00  0.00     0.211 HD
ENDBRANCH  18  25
BRANCH  20  27
ATOM     27  O   UNL     1      -4.308  -8.530  10.728  1.00  0.00    -0.387 OA
ATOM     28  H   UNL     1      -4.998  -8.268  10.062  1.00  0.00     0.211 HD
ENDBRANCH  20  27
BRANCH  21  29
ATOM     29  C   UNL     1      -1.142  -8.426  11.340  1.00  0.00     0.191 C 
BRANCH  29  30
ATOM     30  O   UNL     1      -1.460  -9.125  10.162  1.00  0.00    -0.394 OA
ATOM     31  H   UNL     1      -1.312 -10.090  10.348  1.00  0.00     0.210 HD
ENDBRANCH  29  30
ENDBRANCH  21  29
ENDBRANCH   1  17
TORSDOF 13
ENDMDL
MODEL 4
REMARK VINA RESULT:    -3.327      8.413     12.453
REMARK INTER + INTRA:          -5.831
REMARK INTER:                  -5.434
REMARK INTRA:                  -0.397
REMARK UNBOUND:                -0.753
REMARK SMILES OC[C@H]1O[C@@H](O[C@]2(CO)O[C@H](CO)[C@@H](O)[C@H]2O)[C@@H](O)[C@H](O)[C@H]1O
REMARK SMILES IDX 6 1 5 2 3 3 22 4 4 5 20 6 18 7 2 8 1 9 23 11 21 13 19 15
REMARK SMILES IDX 7 17 16 18 10 19 14 20 11 21 8 22 9 23 17 25 15 27 12 29
REMARK SMILES IDX 13 30
REMARK H PARENT 1 10 23 12 21 14 19 16 9 24 17 26 15 28 13 31
REMARK Flexibility Score: inf
ROOT
ATOM      1  O   UNL     1      -3.931  -4.969  11.666  1.00  0.00    -0.313 OA
ENDROOT
BRANCH   1   2
ATOM      2  C   UNL     1      -3.815  -4.707  10.272  1.00  0.00     0.285 C 
ATOM      3  C   UNL     1      -1.832  -3.364  10.364  1.00  0.00     0.178 C 
ATOM      4  C   UNL     1      -2.622  -2.083   9.994  1.00  0.00     0.177 C 
ATOM      5  O   UNL     1      -2.454  -4.552   9.882  1.00  0.00    -0.341 OA
ATOM      6  C   UNL     1      -4.087  -2.191  10.442  1.00  0.00     0.179 C 
ATOM      7  C   UNL     1      -4.675  -3.489   9.875  1.00  0.00     0.202 C 
BRANCH   3   8
ATOM      8  C   UNL     1      -1.443  -3.470  11.855  1.00  0.00     0.191 C 
BRANCH   8   9
ATOM      9  O   UNL     1      -2.548  -3.151  12.658  1.00  0.00    -0.394 OA
ATOM     10  H   UNL     1      -2.928  -4.008  12.989  1.00  0.00     0.210 HD
ENDBRANCH   8   9
ENDBRANCH   3   8
BRANCH   4  11
ATOM     11  O   UNL     1      -2.017  -0.954  10.577  1.00  0.00    -0.387 OA
ATOM     12  H   UNL     1      -1.400  -1.284  11.279  1.00  0.00     0.211 HD
ENDBRANCH   4  11
BRANCH   6  13
ATOM     13  O   UNL     1      -4.830  -1.102   9.955  1.00  0.00    -0.387 OA
ATOM     14  H   UNL     1      -5.140  -1.346   9.044  1.00  0.00     0.211 HD
ENDBRANCH   6  13
BRANCH   7  15
ATOM     15  O   UNL     1      -6.014  -3.664  10.272  1.00  0.00    -0.385 OA
ATOM     16  H   UNL     1      -6.221  -4.635  10.236  1.00  0.00     0.211 HD
ENDBRANCH   7  15
ENDBRANCH   1   2
BRANCH   1  17
ATOM     17  C   UNL     1      -4.132  -6.346  11.983  1.00  0.00     0.224 C 
ATOM     18  C   UNL     1      -5.410  -6.880  11.266  1.00  0.00     0.208 C 
ATOM     19  O   UNL     1      -3.019  -7.127  11.573  1.00  0.00    -0.337 OA
ATOM     20  C   UNL     1      -4.877  -7.948  10.321  1.00  0.00     0.180 C 
ATOM     21  C   UNL     1      -3.516  -8.278  10.924  1.00  0.00     0.179 C 
BRANCH  17  22
ATOM     22  C   UNL     1      -4.222  -6.411  13.527  1.00  0.00     0.225 C 
BRANCH  22  23
ATOM     23  O   UNL     1      -3.306  -5.542  14.141  1.00  0.00    -0.391 OA
ATOM     24  H   UNL     1      -3.820  -4.974  14.773  1.00  0.00     0.210 HD
ENDBRANCH  22  23
ENDBRANCH  17  22
BRANCH  18  25
ATOM     25  O   UNL     1      -6.398  -7.369  12.149  1.00  0.00    -0.385 OA
ATOM     26  H   UNL     1      -7.078  -6.660  12.290  1.00  0.00     0.211 HD
ENDBRANCH  18  25
BRANCH  20  27
ATOM     27  O   UNL     1      -5.692  -9.091  10.270  1.00  0.00    -0.387 OA
ATOM     28  H   UNL     1      -5.979  -9.272  11.205  1.00  0.00     0.211 HD
ENDBRANCH  20  27
BRANCH  21  29
ATOM     29  C   UNL     1      -2.504  -8.774   9.882  1.00  0.00     0.191 C 
BRANCH  29  30
ATOM     30  O   UNL     1      -1.231  -8.947  10.452  1.00  0.00    -0.394 OA
ATOM     31  H   UNL     1      -0.874  -9.809  10.111  1.00  0.00     0.210 HD
ENDBRANCH  29  30
ENDBRANCH  21  29
ENDBRANCH   1  17
TORSDOF 13
ENDMDL
MODEL 5
REMARK VINA RESULT:    -3.274      1.294      2.915
REMARK INTER + INTRA:          -5.750
REMARK INTER:                  -4.973
REMARK INTRA:                  -0.777
REMARK UNBOUND:                -0.753
REMARK SMILES OC[C@H]1O[C@@H](O[C@]2(CO)O[C@H](CO)[C@@H](O)[C@H]2O)[C@@H](O)[C@H](O)[C@H]1O
REMARK SMILES IDX 6 1 5 2 3 3 22 4 4 5 20 6 18 7 2 8 1 9 23 11 21 13 19 15
REMARK SMILES IDX 7 17 16 18 10 19 14 20 11 21 8 22 9 23 17 25 15 27 12 29
REMARK SMILES IDX 13 30
REMARK H PARENT 1 10 23 12 21 14 19 16 9 24 17 26 15 28 13 31
REMARK Flexibility Score: inf
ROOT
ATOM      1  O   UNL     1       3.460   2.103  11.038  1.00  0.00    -0.313 OA
ENDROOT
BRANCH   1   2
ATOM      2  C   UNL     1       2.499   2.771  11.847  1.00  0.00     0.285 C 
ATOM      3  C   UNL     1       1.324   0.830  12.618  1.00  0.00     0.178 C 
ATOM      4  C   UNL     1       0.074   1.190  11.775  1.00  0.00     0.177 C 
ATOM      5  O   UNL     1       2.106   1.971  12.958  1.00  0.00    -0.341 OA
ATOM      6  C   UNL     1       0.463   2.014  10.539  1.00  0.00     0.179 C 
ATOM      7  C   UNL     1       1.292   3.220  10.998  1.00  0.00     0.202 C 
BRANCH   3   8
ATOM      8  C   UNL     1       2.182  -0.315  12.036  1.00  0.00     0.191 C 
BRANCH   8   9
ATOM      9  O   UNL     1       2.592  -1.173  13.067  1.00  0.00    -0.394 OA
ATOM     10  H   UNL     1       1.933  -1.081  13.807  1.00  0.00     0.210 HD
ENDBRANCH   8   9
ENDBRANCH   3   8
BRANCH   4  11
ATOM     11  O   UNL     1      -0.603   0.019  11.387  1.00  0.00    -0.387 OA
ATOM     12  H   UNL     1      -1.573   0.224  11.408  1.00  0.00     0.211 HD
ENDBRANCH   4  11
BRANCH   6  13
ATOM     13  O   UNL     1      -0.687   2.475   9.876  1.00  0.00    -0.387 OA
ATOM     14  H   UNL     1      -1.313   2.803  10.575  1.00  0.00     0.211 HD
ENDBRANCH   6  13
BRANCH   7  15
ATOM     15  O   UNL     1       1.705   4.006   9.906  1.00  0.00    -0.385 OA
ATOM     16  H   UNL     1       1.039   3.893   9.176  1.00  0.00     0.211 HD
ENDBRANCH   7  15
ENDBRANCH   1   2
BRANCH   1  17
ATOM     17  C   UNL     1       4.808   2.280  11.471  1.00  0.00     0.224 C 
ATOM     18  C   UNL     1       5.657   2.920  10.329  1.00  0.00     0.208 C 
ATOM     19  O   UNL     1       4.867   3.125  12.611  1.00  0.00    -0.337 OA
ATOM     20  C   UNL     1       6.085   4.263  10.904  1.00  0.00     0.180 C 
ATOM     21  C   UNL     1       5.907   4.056  12.404  1.00  0.00     0.179 C 
BRANCH  17  22
ATOM     22  C   UNL     1       5.303   0.873  11.888  1.00  0.00     0.225 C 
BRANCH  22  23
ATOM     23  O   UNL     1       6.569   0.924  12.493  1.00  0.00    -0.391 OA
ATOM     24  H   UNL     1       7.240   0.971  11.764  1.00  0.00     0.210 HD
ENDBRANCH  22  23
ENDBRANCH  17  22
BRANCH  18  25
ATOM     25  O   UNL     1       6.749   2.125   9.915  1.00  0.00    -0.385 OA
ATOM     26  H   UNL     1       7.273   2.630   9.241  1.00  0.00     0.211 HD
ENDBRANCH  18  25
BRANCH  20  27
ATOM     27  O   UNL     1       7.416   4.592  10.599  1.00  0.00    -0.387 OA
ATOM     28  H   UNL     1       7.406   4.976   9.682  1.00  0.00     0.211 HD
ENDBRANCH  20  27
BRANCH  21  29
ATOM     29  C   UNL     1       5.605   5.360  13.156  1.00  0.00     0.191 C 
BRANCH  29  30
ATOM     30  O   UNL     1       6.785   6.070  13.436  1.00  0.00    -0.394 OA
ATOM     31  H   UNL     1       6.514   6.964  13.776  1.00  0.00     0.210 HD
ENDBRANCH  29  30
ENDBRANCH  21  29
ENDBRANCH   1  17
TORSDOF 13
ENDMDL
MODEL 6
REMARK VINA RESULT:    -3.151      1.797      6.307
REMARK INTER + INTRA:          -5.563
REMARK INTER:                  -4.507
REMARK INTRA:                  -1.056
REMARK UNBOUND:                -0.753
REMARK SMILES OC[C@H]1O[C@@H](O[C@]2(CO)O[C@H](CO)[C@@H](O)[C@H]2O)[C@@H](O)[C@H](O)[C@H]1O
REMARK SMILES IDX 6 1 5 2 3 3 22 4 4 5 20 6 18 7 2 8 1 9 23 11 21 13 19 15
REMARK SMILES IDX 7 17 16 18 10 19 14 20 11 21 8 22 9 23 17 25 15 27 12 29
REMARK SMILES IDX 13 30
REMARK H PARENT 1 10 23 12 21 14 19 16 9 24 17 26 15 28 13 31
REMARK Flexibility Score: inf
ROOT
ATOM      1  O   UNL     1       6.595   3.816  13.137  1.00  0.00    -0.313 OA
ENDROOT
BRANCH   1   2
ATOM      2  C   UNL     1       5.629   4.676  13.729  1.00  0.00     0.285 C 
ATOM      3  C   UNL     1       6.643   6.762  13.128  1.00  0.00     0.178 C 
ATOM      4  C   UNL     1       7.024   7.058  14.601  1.00  0.00     0.177 C 
ATOM      5  O   UNL     1       5.513   5.902  13.014  1.00  0.00    -0.341 OA
ATOM      6  C   UNL     1       7.204   5.757  15.396  1.00  0.00     0.179 C 
ATOM      7  C   UNL     1       5.944   4.901  15.222  1.00  0.00     0.202 C 
BRANCH   3   8
ATOM      8  C   UNL     1       7.821   6.300  12.242  1.00  0.00     0.191 C 
BRANCH   8   9
ATOM      9  O   UNL     1       8.705   7.369  12.031  1.00  0.00    -0.394 OA
ATOM     10  H   UNL     1       9.576   7.116  12.438  1.00  0.00     0.210 HD
ENDBRANCH   8   9
ENDBRANCH   3   8
BRANCH   4  11
ATOM     11  O   UNL     1       8.200   7.828  14.653  1.00  0.00    -0.387 OA
ATOM     12  H   UNL     1       7.946   8.727  14.986  1.00  0.00     0.211 HD
ENDBRANCH   4  11
BRANCH   6  13
ATOM     13  O   UNL     1       7.382   6.037  16.761  1.00  0.00    -0.387 OA
ATOM     14  H   UNL     1       6.755   6.772  16.991  1.00  0.00     0.211 HD
ENDBRANCH   6  13
BRANCH   7  15
ATOM     15  O   UNL     1       6.055   3.676  15.907  1.00  0.00    -0.385 OA
ATOM     16  H   UNL     1       6.246   3.874  16.862  1.00  0.00     0.211 HD
ENDBRANCH   7  15
ENDBRANCH   1   2
BRANCH   1  17
ATOM     17  C   UNL     1       6.070   2.961  12.122  1.00  0.00     0.224 C 
ATOM     18  C   UNL     1       5.888   1.516  12.680  1.00  0.00     0.208 C 
ATOM     19  O   UNL     1       4.812   3.435  11.663  1.00  0.00    -0.337 OA
ATOM     20  C   UNL     1       4.385   1.285  12.605  1.00  0.00     0.180 C 
ATOM     21  C   UNL     1       3.936   2.331  11.591  1.00  0.00     0.179 C 
BRANCH  17  22
ATOM     22  C   UNL     1       7.073   3.043  10.945  1.00  0.00     0.225 C 
BRANCH  22  23
ATOM     23  O   UNL     1       6.690   2.216   9.876  1.00  0.00    -0.391 OA
ATOM     24  H   UNL     1       7.393   2.296   9.179  1.00  0.00     0.210 HD
ENDBRANCH  22  23
ENDBRANCH  17  22
BRANCH  18  25
ATOM     25  O   UNL     1       6.631   0.538  11.984  1.00  0.00    -0.385 OA
ATOM     26  H   UNL     1       6.091   0.211  11.219  1.00  0.00     0.211 HD
ENDBRANCH  18  25
BRANCH  20  27
ATOM     27  O   UNL     1       4.050  -0.008  12.172  1.00  0.00    -0.387 OA
ATOM     28  H   UNL     1       3.676  -0.480  12.964  1.00  0.00     0.211 HD
ENDBRANCH  20  27
BRANCH  21  29
ATOM     29  C   UNL     1       2.488   2.791  11.806  1.00  0.00     0.191 C 
BRANCH  29  30
ATOM     30  O   UNL     1       1.669   1.721  12.210  1.00  0.00    -0.394 OA
ATOM     31  H   UNL     1       2.133   0.884  11.944  1.00  0.00     0.210 HD
ENDBRANCH  29  30
ENDBRANCH  21  29
ENDBRANCH   1  17
TORSDOF 13
ENDMDL
MODEL 7
REMARK VINA RESULT:    -2.686      7.523     11.102
REMARK INTER + INTRA:          -4.852
REMARK INTER:                  -3.926
REMARK INTRA:                  -0.926
REMARK UNBOUND:                -0.753
REMARK SMILES OC[C@H]1O[C@@H](O[C@]2(CO)O[C@H](CO)[C@@H](O)[C@H]2O)[C@@H](O)[C@H](O)[C@H]1O
REMARK SMILES IDX 6 1 5 2 3 3 22 4 4 5 20 6 18 7 2 8 1 9 23 11 21 13 19 15
REMARK SMILES IDX 7 17 16 18 10 19 14 20 11 21 8 22 9 23 17 25 15 27 12 29
REMARK SMILES IDX 13 30
REMARK H PARENT 1 10 23 12 21 14 19 16 9 24 17 26 15 28 13 31
REMARK Flexibility Score: inf
ROOT
ATOM      1  O   UNL     1      -3.645  -4.104  11.745  1.00  0.00    -0.313 OA
ENDROOT
BRANCH   1   2
ATOM      2  C   UNL     1      -3.590  -3.909  10.337  1.00  0.00     0.285 C 
ATOM      3  C   UNL     1      -1.559  -2.638  10.270  1.00  0.00     0.178 C 
ATOM      4  C   UNL     1      -2.322  -1.347   9.879  1.00  0.00     0.177 C 
ATOM      5  O   UNL     1      -2.245  -3.823   9.875  1.00  0.00    -0.341 OA
ATOM      6  C   UNL     1      -3.766  -1.381  10.400  1.00  0.00     0.179 C 
ATOM      7  C   UNL     1      -4.426  -2.681   9.925  1.00  0.00     0.202 C 
BRANCH   3   8
ATOM      8  C   UNL     1      -1.100  -2.691  11.743  1.00  0.00     0.191 C 
BRANCH   8   9
ATOM      9  O   UNL     1       0.219  -2.226  11.847  1.00  0.00    -0.394 OA
ATOM     10  H   UNL     1       0.635  -2.690  12.623  1.00  0.00     0.210 HD
ENDBRANCH   8   9
ENDBRANCH   3   8
BRANCH   4  11
ATOM     11  O   UNL     1      -1.650  -0.216  10.377  1.00  0.00    -0.387 OA
ATOM     12  H   UNL     1      -0.885  -0.040   9.771  1.00  0.00     0.211 HD
ENDBRANCH   4  11
BRANCH   6  13
ATOM     13  O   UNL     1      -4.494  -0.288   9.900  1.00  0.00    -0.387 OA
ATOM     14  H   UNL     1      -4.732  -0.505   8.960  1.00  0.00     0.211 HD
ENDBRANCH   6  13
BRANCH   7  15
ATOM     15  O   UNL     1      -5.748  -2.787  10.394  1.00  0.00    -0.385 OA
ATOM     16  H   UNL     1      -6.016  -1.904  10.763  1.00  0.00     0.211 HD
ENDBRANCH   7  15
ENDBRANCH   1   2
BRANCH   1  17
ATOM     17  C   UNL     1      -3.723  -5.473  12.141  1.00  0.00     0.224 C 
ATOM     18  C   UNL     1      -2.435  -6.233  11.696  1.00  0.00     0.208 C 
ATOM     19  O   UNL     1      -3.855  -5.586  13.550  1.00  0.00    -0.337 OA
ATOM     20  C   UNL     1      -1.798  -6.666  13.010  1.00  0.00     0.180 C 
ATOM     21  C   UNL     1      -2.965  -6.589  13.988  1.00  0.00     0.179 C 
BRANCH  17  22
ATOM     22  C   UNL     1      -5.015  -6.025  11.490  1.00  0.00     0.225 C 
BRANCH  22  23
ATOM     23  O   UNL     1      -5.220  -7.379  11.803  1.00  0.00    -0.391 OA
ATOM     24  H   UNL     1      -4.354  -7.738  12.129  1.00  0.00     0.210 HD
ENDBRANCH  22  23
ENDBRANCH  17  22
BRANCH  18  25
ATOM     25  O   UNL     1      -2.682  -7.313  10.821  1.00  0.00    -0.385 OA
ATOM     26  H   UNL     1      -3.156  -6.971  10.019  1.00  0.00     0.211 HD
ENDBRANCH  18  25
BRANCH  20  27
ATOM     27  O   UNL     1      -1.271  -7.967  12.961  1.00  0.00    -0.387 OA
ATOM     28  H   UNL     1      -2.051  -8.585  12.956  1.00  0.00     0.211 HD
ENDBRANCH  20  27
BRANCH  21  29
ATOM     29  C   UNL     1      -2.520  -6.307  15.429  1.00  0.00     0.191 C 
BRANCH  29  30
ATOM     30  O   UNL     1      -2.338  -4.930  15.645  1.00  0.00    -0.394 OA
ATOM     31  H   UNL     1      -1.757  -4.834  16.445  1.00  0.00     0.210 HD
ENDBRANCH  29  30
ENDBRANCH  21  29
ENDBRANCH   1  17
TORSDOF 13
ENDMDL
MODEL 8
REMARK VINA RESULT:    -2.198      9.488     13.988
REMARK INTER + INTRA:          -4.108
REMARK INTER:                  -3.258
REMARK INTRA:                  -0.849
REMARK UNBOUND:                -0.753
REMARK SMILES OC[C@H]1O[C@@H](O[C@]2(CO)O[C@H](CO)[C@@H](O)[C@H]2O)[C@@H](O)[C@H](O)[C@H]1O
REMARK SMILES IDX 6 1 5 2 3 3 22 4 4 5 20 6 18 7 2 8 1 9 23 11 21 13 19 15
REMARK SMILES IDX 7 17 16 18 10 19 14 20 11 21 8 22 9 23 17 25 15 27 12 29
REMARK SMILES IDX 13 30
REMARK H PARENT 1 10 23 12 21 14 19 16 9 24 17 26 15 28 13 31
REMARK Flexibility Score: inf
ROOT
ATOM      1  O   UNL     1      -4.889  -6.212  11.596  1.00  0.00    -0.313 OA
ENDROOT
BRANCH   1   2
ATOM      2  C   UNL     1      -3.658  -5.977  10.922  1.00  0.00     0.285 C 
ATOM      3  C   UNL     1      -2.262  -5.791  12.860  1.00  0.00     0.178 C 
ATOM      4  C   UNL     1      -2.060  -4.271  12.630  1.00  0.00     0.177 C 
ATOM      5  O   UNL     1      -2.554  -6.496  11.657  1.00  0.00    -0.341 OA
ATOM      6  C   UNL     1      -3.254  -3.665  11.879  1.00  0.00     0.179 C 
ATOM      7  C   UNL     1      -3.491  -4.478  10.601  1.00  0.00     0.202 C 
BRANCH   3   8
ATOM      8  C   UNL     1      -3.246  -6.141  13.998  1.00  0.00     0.191 C 
BRANCH   8   9
ATOM      9  O   UNL     1      -2.690  -5.782  15.235  1.00  0.00    -0.394 OA
ATOM     10  H   UNL     1      -3.330  -6.070  15.940  1.00  0.00     0.210 HD
ENDBRANCH   8   9
ENDBRANCH   3   8
BRANCH   4  11
ATOM     11  O   UNL     1      -1.873  -3.614  13.860  1.00  0.00    -0.387 OA
ATOM     12  H   UNL     1      -2.185  -4.230  14.570  1.00  0.00     0.211 HD
ENDBRANCH   4  11
BRANCH   6  13
ATOM     13  O   UNL     1      -2.987  -2.330  11.530  1.00  0.00    -0.387 OA
ATOM     14  H   UNL     1      -2.147  -2.332  10.999  1.00  0.00     0.211 HD
ENDBRANCH   6  13
BRANCH   7  15
ATOM     15  O   UNL     1      -4.594  -3.989   9.877  1.00  0.00    -0.385 OA
ATOM     16  H   UNL     1      -4.249  -3.426   9.134  1.00  0.00     0.211 HD
ENDBRANCH   7  15
ENDBRANCH   1   2
BRANCH   1  17
ATOM     17  C   UNL     1      -5.853  -6.919  10.817  1.00  0.00     0.224 C 
ATOM     18  C   UNL     1      -6.841  -7.683  11.753  1.00  0.00     0.208 C 
ATOM     19  O   UNL     1      -6.597  -6.027  10.000  1.00  0.00    -0.337 OA
ATOM     20  C   UNL     1      -8.188  -7.034  11.465  1.00  0.00     0.180 C 
ATOM     21  C   UNL     1      -7.960  -6.378  10.109  1.00  0.00     0.179 C 
BRANCH  17  22
ATOM     22  C   UNL     1      -5.039  -7.855   9.891  1.00  0.00     0.225 C 
BRANCH  22  23
ATOM     23  O   UNL     1      -4.054  -8.562  10.599  1.00  0.00    -0.391 OA
ATOM     24  H   UNL     1      -3.177  -8.165  10.355  1.00  0.00     0.210 HD
ENDBRANCH  22  23
ENDBRANCH  17  22
BRANCH  18  25
ATOM     25  O   UNL     1      -6.849  -9.081  11.555  1.00  0.00    -0.385 OA
ATOM     26  H   UNL     1      -6.993  -9.265  10.590  1.00  0.00     0.211 HD
ENDBRANCH  18  25
BRANCH  20  27
ATOM     27  O   UNL     1      -9.241  -7.961  11.402  1.00  0.00    -0.387 OA
ATOM     28  H   UNL     1      -8.975  -8.726  11.980  1.00  0.00     0.211 HD
ENDBRANCH  20  27
BRANCH  21  29
ATOM     29  C   UNL     1      -8.842  -5.141   9.886  1.00  0.00     0.191 C 
BRANCH  29  30
ATOM     30  O   UNL     1     -10.096  -5.294  10.503  1.00  0.00    -0.394 OA
ATOM     31  H   UNL     1     -10.069  -4.776  11.350  1.00  0.00     0.210 HD
ENDBRANCH  29  30
ENDBRANCH  21  29
ENDBRANCH   1  17
TORSDOF 13
ENDMDL
