MODEL 1
REMARK VINA RESULT:    -4.876      0.000      0.000
REMARK INTER + INTRA:          -7.004
REMARK INTER:                  -6.587
REMARK INTRA:                  -0.417
REMARK UNBOUND:                -0.417
REMARK SMILES O=C[C@@H](O)[C@H](O)[C@H](O)CO
REMARK SMILES IDX 7 1 9 2 10 3 5 5 3 6 2 7 1 8 4 9 6 11 8 13
REMARK H PARENT 10 4 4 10 6 12 8 14
REMARK Flexibility Score: inf
ROOT
ATOM      1  C   UNL     1       8.493  -9.632  18.789  1.00  0.00     0.171 C 
ENDROOT
BRANCH   1   2
ATOM      2  C   UNL     1       7.570 -10.485  19.675  1.00  0.00     0.190 C 
BRANCH   2   3
ATOM      3  O   UNL     1       6.273  -9.957  19.682  1.00  0.00    -0.394 OA
ATOM      4  H   UNL     1       6.045  -9.773  18.734  1.00  0.00     0.210 HD
ENDBRANCH   2   3
ENDBRANCH   1   2
BRANCH   1   5
ATOM      5  C   UNL     1       8.634 -10.184  17.341  1.00  0.00     0.181 C 
BRANCH   5   6
ATOM      6  C   UNL     1       9.714  -9.472  16.479  1.00  0.00     0.209 C 
BRANCH   6   7
ATOM      7  C   UNL     1       9.560  -9.805  15.015  1.00  0.00     0.258 C 
ATOM      8  O   UNL     1      10.415  -9.466  14.212  1.00  0.00    -0.300 OA
ENDBRANCH   6   7
BRANCH   6   9
ATOM      9  O   UNL     1       9.712  -8.079  16.673  1.00  0.00    -0.383 OA
ATOM     10  H   UNL     1       9.832  -7.902  17.642  1.00  0.00     0.211 HD
ENDBRANCH   6   9
ENDBRANCH   5   6
BRANCH   5  11
ATOM     11  O   UNL     1       7.386 -10.189  16.688  1.00  0.00    -0.387 OA
ATOM     12  H   UNL     1       6.829  -9.469  17.079  1.00  0.00     0.211 HD
ENDBRANCH   5  11
ENDBRANCH   1   5
BRANCH   1  13
ATOM     13  O   UNL     1       9.757  -9.521  19.392  1.00  0.00    -0.388 OA
ATOM     14  H   UNL     1      10.400 -10.000  18.807  1.00  0.00     0.211 HD
ENDBRANCH   1  13
TORSDOF 8
ENDMDL
MODEL 2
REMARK VINA RESULT:    -4.779      8.157      9.678
REMARK INTER + INTRA:          -6.873
REMARK INTER:                  -6.159
REMARK INTRA:                  -0.713
REMARK UNBOUND:                -0.417
REMARK SMILES O=C[C@@H](O)[C@H](O)[C@H](O)CO
REMARK SMILES IDX 7 1 9 2 10 3 5 5 3 6 2 7 1 8 4 9 6 11 8 13
REMARK H PARENT 10 4 4 10 6 12 8 14
REMARK Flexibility Score: inf
ROOT
ATOM      1  C   UNL     1       6.222 -14.847  10.390  1.00  0.00     0.171 C 
ENDROOT
BRANCH   1   2
ATOM      2  C   UNL     1       5.853 -14.036  11.643  1.00  0.00     0.190 C 
BRANCH   2   3
ATOM      3  O   UNL     1       4.802 -13.153  11.363  1.00  0.00    -0.394 OA
ATOM      4  H   UNL     1       5.062 -12.281  11.759  1.00  0.00     0.210 HD
ENDBRANCH   2   3
ENDBRANCH   1   2
BRANCH   1   5
ATOM      5  C   UNL     1       6.412 -13.964   9.123  1.00  0.00     0.181 C 
BRANCH   5   6
ATOM      6  C   UNL     1       7.220 -14.638   7.978  1.00  0.00     0.209 C 
BRANCH   6   7
ATOM      7  C   UNL     1       8.703 -14.419   8.147  1.00  0.00     0.258 C 
ATOM      8  O   UNL     1       9.222 -13.385   7.757  1.00  0.00    -0.300 OA
ENDBRANCH   6   7
BRANCH   6   9
ATOM      9  O   UNL     1       6.931 -16.010   7.865  1.00  0.00    -0.383 OA
ATOM     10  H   UNL     1       6.174 -16.217   8.473  1.00  0.00     0.211 HD
ENDBRANCH   6   9
ENDBRANCH   5   6
BRANCH   5  11
ATOM     11  O   UNL     1       6.962 -12.714   9.467  1.00  0.00    -0.387 OA
ATOM     12  H   UNL     1       7.830 -12.619   8.998  1.00  0.00     0.211 HD
ENDBRANCH   5  11
ENDBRANCH   1   5
BRANCH   1  13
ATOM     13  O   UNL     1       5.244 -15.829  10.157  1.00  0.00    -0.388 OA
ATOM     14  H   UNL     1       4.434 -15.555  10.660  1.00  0.00     0.211 HD
ENDBRANCH   1  13
TORSDOF 8
ENDMDL
MODEL 3
REMARK VINA RESULT:    -4.750      7.569      8.504
REMARK INTER + INTRA:          -6.834
REMARK INTER:                  -6.386
REMARK INTRA:                  -0.448
REMARK UNBOUND:                -0.417
REMARK SMILES O=C[C@@H](O)[C@H](O)[C@H](O)CO
REMARK SMILES IDX 7 1 9 2 10 3 5 5 3 6 2 7 1 8 4 9 6 11 8 13
REMARK H PARENT 10 4 4 10 6 12 8 14
REMARK Flexibility Score: inf
ROOT
ATOM      1  C   UNL     1       4.193 -13.084  11.922  1.00  0.00     0.171 C 
ENDROOT
BRANCH   1   2
ATOM      2  C   UNL     1       3.032 -13.769  12.662  1.00  0.00     0.190 C 
BRANCH   2   3
ATOM      3  O   UNL     1       2.184 -12.812  13.235  1.00  0.00    -0.394 OA
ATOM      4  H   UNL     1       2.287 -11.991  12.690  1.00  0.00     0.210 HD
ENDBRANCH   2   3
ENDBRANCH   1   2
BRANCH   1   5
ATOM      5  C   UNL     1       5.030 -14.066  11.054  1.00  0.00     0.181 C 
BRANCH   5   6
ATOM      6  C   UNL     1       6.208 -13.406  10.283  1.00  0.00     0.209 C 
BRANCH   6   7
ATOM      7  C   UNL     1       6.641 -14.249   9.108  1.00  0.00     0.258 C 
ATOM      8  O   UNL     1       6.192 -14.029   7.994  1.00  0.00    -0.300 OA
ENDBRANCH   6   7
BRANCH   6   9
ATOM      9  O   UNL     1       5.901 -12.098   9.868  1.00  0.00    -0.383 OA
ATOM     10  H   UNL     1       4.934 -12.063   9.645  1.00  0.00     0.211 HD
ENDBRANCH   6   9
ENDBRANCH   5   6
BRANCH   5  11
ATOM     11  O   UNL     1       4.197 -14.793  10.182  1.00  0.00    -0.387 OA
ATOM     12  H   UNL     1       3.978 -15.659  10.613  1.00  0.00     0.211 HD
ENDBRANCH   5  11
ENDBRANCH   1   5
BRANCH   1  13
ATOM     13  O   UNL     1       5.020 -12.426  12.848  1.00  0.00    -0.388 OA
ATOM     14  H   UNL     1       5.830 -12.988  12.962  1.00  0.00     0.211 HD
ENDBRANCH   1  13
TORSDOF 8
ENDMDL
MODEL 4
REMARK VINA RESULT:    -4.744      7.386      9.376
REMARK INTER + INTRA:          -6.825
REMARK INTER:                  -6.143
REMARK INTRA:                  -0.682
REMARK UNBOUND:                -0.417
REMARK SMILES O=C[C@@H](O)[C@H](O)[C@H](O)CO
REMARK SMILES IDX 7 1 9 2 10 3 5 5 3 6 2 7 1 8 4 9 6 11 8 13
REMARK H PARENT 10 4 4 10 6 12 8 14
REMARK Flexibility Score: inf
ROOT
ATOM      1  C   UNL     1       6.255 -13.431  10.103  1.00  0.00     0.171 C 
ENDROOT
BRANCH   1   2
ATOM      2  C   UNL     1       6.986 -14.122   8.940  1.00  0.00     0.190 C 
BRANCH   2   3
ATOM      3  O   UNL     1       6.180 -14.137   7.794  1.00  0.00    -0.394 OA
ATOM      4  H   UNL     1       5.249 -14.005   8.111  1.00  0.00     0.210 HD
ENDBRANCH   2   3
ENDBRANCH   1   2
BRANCH   1   5
ATOM      5  C   UNL     1       4.912 -14.122  10.479  1.00  0.00     0.181 C 
BRANCH   5   6
ATOM      6  C   UNL     1       4.309 -13.669  11.838  1.00  0.00     0.209 C 
BRANCH   6   7
ATOM      7  C   UNL     1       5.344 -13.693  12.936  1.00  0.00     0.258 C 
ATOM      8  O   UNL     1       5.832 -14.751  13.301  1.00  0.00    -0.300 OA
ENDBRANCH   6   7
BRANCH   6   9
ATOM      9  O   UNL     1       3.706 -12.401  11.753  1.00  0.00    -0.383 OA
ATOM     10  H   UNL     1       3.997 -11.867  12.537  1.00  0.00     0.211 HD
ENDBRANCH   6   9
ENDBRANCH   5   6
BRANCH   5  11
ATOM     11  O   UNL     1       5.041 -15.523  10.421  1.00  0.00    -0.387 OA
ATOM     12  H   UNL     1       5.974 -15.737  10.164  1.00  0.00     0.211 HD
ENDBRANCH   5  11
ENDBRANCH   1   5
BRANCH   1  13
ATOM     13  O   UNL     1       6.035 -12.080   9.787  1.00  0.00    -0.388 OA
ATOM     14  H   UNL     1       5.054 -11.932   9.815  1.00  0.00     0.211 HD
ENDBRANCH   1  13
TORSDOF 8
ENDMDL
MODEL 5
REMARK VINA RESULT:    -4.734      1.344      2.629
REMARK INTER + INTRA:          -6.811
REMARK INTER:                  -6.262
REMARK INTRA:                  -0.549
REMARK UNBOUND:                -0.417
REMARK SMILES O=C[C@@H](O)[C@H](O)[C@H](O)CO
REMARK SMILES IDX 7 1 9 2 10 3 5 5 3 6 2 7 1 8 4 9 6 11 8 13
REMARK H PARENT 10 4 4 10 6 12 8 14
REMARK Flexibility Score: inf
ROOT
ATOM      1  C   UNL     1       7.052 -10.415  19.714  1.00  0.00     0.171 C 
ENDROOT
BRANCH   1   2
ATOM      2  C   UNL     1       7.568 -11.668  20.442  1.00  0.00     0.190 C 
BRANCH   2   3
ATOM      3  O   UNL     1       8.198 -12.534  19.538  1.00  0.00    -0.394 OA
ATOM      4  H   UNL     1       9.165 -12.505  19.758  1.00  0.00     0.210 HD
ENDBRANCH   2   3
ENDBRANCH   1   2
BRANCH   1   5
ATOM      5  C   UNL     1       8.178  -9.615  18.997  1.00  0.00     0.181 C 
BRANCH   5   6
ATOM      6  C   UNL     1       8.253  -9.838  17.460  1.00  0.00     0.209 C 
BRANCH   6   7
ATOM      7  C   UNL     1       9.668 -10.102  17.008  1.00  0.00     0.258 C 
ATOM      8  O   UNL     1      10.149  -9.465  16.085  1.00  0.00    -0.300 OA
ENDBRANCH   6   7
BRANCH   6   9
ATOM      9  O   UNL     1       7.395 -10.868  17.034  1.00  0.00    -0.383 OA
ATOM     10  H   UNL     1       7.945 -11.677  16.864  1.00  0.00     0.211 HD
ENDBRANCH   6   9
ENDBRANCH   5   6
BRANCH   5  11
ATOM     11  O   UNL     1       9.425  -9.858  19.607  1.00  0.00    -0.387 OA
ATOM     12  H   UNL     1       9.491 -10.828  19.800  1.00  0.00     0.211 HD
ENDBRANCH   5  11
ENDBRANCH   1   5
BRANCH   1  13
ATOM     13  O   UNL     1       6.372  -9.587  20.623  1.00  0.00    -0.388 OA
ATOM     14  H   UNL     1       5.595 -10.105  20.960  1.00  0.00     0.211 HD
ENDBRANCH   1  13
TORSDOF 8
ENDMDL
MODEL 6
REMARK VINA RESULT:    -4.708      1.479      2.533
REMARK INTER + INTRA:          -6.776
REMARK INTER:                  -6.074
REMARK INTRA:                  -0.703
REMARK UNBOUND:                -0.417
REMARK SMILES O=C[C@@H](O)[C@H](O)[C@H](O)CO
REMARK SMILES IDX 7 1 9 2 10 3 5 5 3 6 2 7 1 8 4 9 6 11 8 13
REMARK H PARENT 10 4 4 10 6 12 8 14
REMARK Flexibility Score: inf
ROOT
ATOM      1  C   UNL     1       8.713 -10.407  17.681  1.00  0.00     0.171 C 
ENDROOT
BRANCH   1   2
ATOM      2  C   UNL     1       8.924  -9.307  18.734  1.00  0.00     0.190 C 
BRANCH   2   3
ATOM      3  O   UNL     1      10.230  -9.358  19.241  1.00  0.00    -0.394 OA
ATOM      4  H   UNL     1      10.723  -9.998  18.666  1.00  0.00     0.210 HD
ENDBRANCH   2   3
ENDBRANCH   1   2
BRANCH   1   5
ATOM      5  C   UNL     1       9.459 -10.127  16.344  1.00  0.00     0.181 C 
BRANCH   5   6
ATOM      6  C   UNL     1      10.644 -11.090  16.050  1.00  0.00     0.209 C 
BRANCH   6   7
ATOM      7  C   UNL     1      11.352 -10.719  14.770  1.00  0.00     0.258 C 
ATOM      8  O   UNL     1      10.876  -9.879  14.024  1.00  0.00    -0.300 OA
ENDBRANCH   6   7
BRANCH   6   9
ATOM      9  O   UNL     1      11.555 -11.149  17.121  1.00  0.00    -0.383 OA
ATOM     10  H   UNL     1      11.036 -11.208  17.965  1.00  0.00     0.211 HD
ENDBRANCH   6   9
ENDBRANCH   5   6
BRANCH   5  11
ATOM     11  O   UNL     1       9.869  -8.781  16.277  1.00  0.00    -0.387 OA
ATOM     12  H   UNL     1       9.060  -8.216  16.185  1.00  0.00     0.211 HD
ENDBRANCH   5  11
ENDBRANCH   1   5
BRANCH   1  13
ATOM     13  O   UNL     1       7.339 -10.577  17.444  1.00  0.00    -0.388 OA
ATOM     14  H   UNL     1       7.163 -10.261  16.520  1.00  0.00     0.211 HD
ENDBRANCH   1  13
TORSDOF 8
ENDMDL
MODEL 7
REMARK VINA RESULT:    -4.660      9.589     10.803
REMARK INTER + INTRA:          -6.711
REMARK INTER:                  -5.986
REMARK INTRA:                  -0.726
REMARK UNBOUND:                -0.417
REMARK SMILES O=C[C@@H](O)[C@H](O)[C@H](O)CO
REMARK SMILES IDX 7 1 9 2 10 3 5 5 3 6 2 7 1 8 4 9 6 11 8 13
REMARK H PARENT 10 4 4 10 6 12 8 14
REMARK Flexibility Score: inf
ROOT
ATOM      1  C   UNL     1       1.822 -16.740  11.724  1.00  0.00     0.171 C 
ENDROOT
BRANCH   1   2
ATOM      2  C   UNL     1       1.030 -16.931  10.420  1.00  0.00     0.190 C 
BRANCH   2   3
ATOM      3  O   UNL     1       0.027 -15.959  10.308  1.00  0.00    -0.394 OA
ATOM      4  H   UNL     1      -0.707 -16.379   9.789  1.00  0.00     0.210 HD
ENDBRANCH   2   3
ENDBRANCH   1   2
BRANCH   1   5
ATOM      5  C   UNL     1       2.773 -15.508  11.688  1.00  0.00     0.181 C 
BRANCH   5   6
ATOM      6  C   UNL     1       2.291 -14.294  12.531  1.00  0.00     0.209 C 
BRANCH   6   7
ATOM      7  C   UNL     1       3.402 -13.295  12.745  1.00  0.00     0.258 C 
ATOM      8  O   UNL     1       3.906 -12.720  11.794  1.00  0.00    -0.300 OA
ENDBRANCH   6   7
BRANCH   6   9
ATOM      9  O   UNL     1       1.166 -13.669  11.962  1.00  0.00    -0.383 OA
ATOM     10  H   UNL     1       0.543 -13.427  12.695  1.00  0.00     0.211 HD
ENDBRANCH   6   9
ENDBRANCH   5   6
BRANCH   5  11
ATOM     11  O   UNL     1       3.045 -15.130  10.360  1.00  0.00    -0.387 OA
ATOM     12  H   UNL     1       2.195 -15.155   9.850  1.00  0.00     0.211 HD
ENDBRANCH   5  11
ENDBRANCH   1   5
BRANCH   1  13
ATOM     13  O   UNL     1       2.549 -17.907  12.011  1.00  0.00    -0.388 OA
ATOM     14  H   UNL     1       2.357 -18.554  11.283  1.00  0.00     0.211 HD
ENDBRANCH   1  13
TORSDOF 8
ENDMDL
MODEL 8
REMARK VINA RESULT:    -4.563      1.473      3.736
REMARK INTER + INTRA:          -6.581
REMARK INTER:                  -5.989
REMARK INTRA:                  -0.591
REMARK UNBOUND:                -0.417
REMARK SMILES O=C[C@@H](O)[C@H](O)[C@H](O)CO
REMARK SMILES IDX 7 1 9 2 10 3 5 5 3 6 2 7 1 8 4 9 6 11 8 13
REMARK H PARENT 10 4 4 10 6 12 8 14
REMARK Flexibility Score: inf
ROOT
ATOM      1  C   UNL     1      10.032 -10.688  16.756  1.00  0.00     0.171 C 
ENDROOT
BRANCH   1   2
ATOM      2  C   UNL     1       9.500 -12.077  16.362  1.00  0.00     0.190 C 
BRANCH   2   3
ATOM      3  O   UNL     1       9.137 -12.804  17.503  1.00  0.00    -0.394 OA
ATOM      4  H   UNL     1       9.851 -12.643  18.172  1.00  0.00     0.210 HD
ENDBRANCH   2   3
ENDBRANCH   1   2
BRANCH   1   5
ATOM      5  C   UNL     1       8.906  -9.696  17.169  1.00  0.00     0.181 C 
BRANCH   5   6
ATOM      6  C   UNL     1       8.887  -9.331  18.680  1.00  0.00     0.209 C 
BRANCH   6   7
ATOM      7  C   UNL     1       7.866 -10.148  19.433  1.00  0.00     0.258 C 
ATOM      8  O   UNL     1       6.691  -9.818  19.433  1.00  0.00    -0.300 OA
ENDBRANCH   6   7
BRANCH   6   9
ATOM      9  O   UNL     1      10.158  -9.459  19.270  1.00  0.00    -0.383 OA
ATOM     10  H   UNL     1      10.201  -8.843  20.047  1.00  0.00     0.211 HD
ENDBRANCH   6   9
ENDBRANCH   5   6
BRANCH   5  11
ATOM     11  O   UNL     1       7.649 -10.167  16.744  1.00  0.00    -0.387 OA
ATOM     12  H   UNL     1       7.795 -10.842  16.033  1.00  0.00     0.211 HD
ENDBRANCH   5  11
ENDBRANCH   1   5
BRANCH   1  13
ATOM     13  O   UNL     1      10.787 -10.154  15.699  1.00  0.00    -0.388 OA
ATOM     14  H   UNL     1      11.622 -10.688  15.641  1.00  0.00     0.211 HD
ENDBRANCH   1  13
TORSDOF 8
ENDMDL
MODEL 9
REMARK VINA RESULT:    -4.520      8.040      9.149
REMARK INTER + INTRA:          -6.523
REMARK INTER:                  -6.026
REMARK INTRA:                  -0.498
REMARK UNBOUND:                -0.417
REMARK SMILES O=C[C@@H](O)[C@H](O)[C@H](O)CO
REMARK SMILES IDX 7 1 9 2 10 3 5 5 3 6 2 7 1 8 4 9 6 11 8 13
REMARK H PARENT 10 4 4 10 6 12 8 14
REMARK Flexibility Score: inf
ROOT
ATOM      1  C   UNL     1       2.666 -14.514  11.842  1.00  0.00     0.171 C 
ENDROOT
BRANCH   1   2
ATOM      2  C   UNL     1       1.960 -15.868  11.663  1.00  0.00     0.190 C 
BRANCH   2   3
ATOM      3  O   UNL     1       2.886 -16.917  11.739  1.00  0.00    -0.394 OA
ATOM      4  H   UNL     1       3.101 -17.164  10.803  1.00  0.00     0.210 HD
ENDBRANCH   2   3
ENDBRANCH   1   2
BRANCH   1   5
ATOM      5  C   UNL     1       4.183 -14.564  11.501  1.00  0.00     0.181 C 
BRANCH   5   6
ATOM      6  C   UNL     1       4.920 -13.200  11.622  1.00  0.00     0.209 C 
BRANCH   6   7
ATOM      7  C   UNL     1       5.894 -12.996  10.488  1.00  0.00     0.258 C 
ATOM      8  O   UNL     1       5.945 -11.925   9.903  1.00  0.00    -0.300 OA
ENDBRANCH   6   7
BRANCH   6   9
ATOM      9  O   UNL     1       4.021 -12.120  11.703  1.00  0.00    -0.383 OA
ATOM     10  H   UNL     1       3.966 -11.836  12.653  1.00  0.00     0.211 HD
ENDBRANCH   6   9
ENDBRANCH   5   6
BRANCH   5  11
ATOM     11  O   UNL     1       4.388 -15.141  10.233  1.00  0.00    -0.387 OA
ATOM     12  H   UNL     1       3.516 -15.175   9.764  1.00  0.00     0.211 HD
ENDBRANCH   5  11
ENDBRANCH   1   5
BRANCH   1  13
ATOM     13  O   UNL     1       2.478 -14.054  13.157  1.00  0.00    -0.388 OA
ATOM     14  H   UNL     1       2.756 -14.789  13.763  1.00  0.00     0.211 HD
ENDBRANCH   1  13
TORSDOF 8
ENDMDL
