MODEL 1
REMARK VINA RESULT:    -6.395      0.000      0.000
REMARK INTER + INTRA:          -8.265
REMARK INTER:                  -7.890
REMARK INTRA:                  -0.374
REMARK UNBOUND:                -0.374
REMARK SMILES COc1cc(-c2oc3cc(O)cc(O)c3c(=O)c2O)ccc1O
REMARK SMILES IDX 6 1 18 2 16 3 17 4 15 5 13 6 12 7 10 8 9 9 8 10 7 11 5 12
REMARK SMILES IDX 3 13 22 14 4 15 21 16 20 17 2 18 1 19 23 20 19 22 14 24
REMARK SMILES IDX 11 26
REMARK H PARENT 23 21 19 23 14 25 11 27
REMARK Flexibility Score: inf
ROOT
ATOM      1  C   UNL     1      10.462 -16.544 -24.709  1.00  0.00     0.180 A 
ATOM      2  C   UNL     1       9.902 -17.428 -23.770  1.00  0.00     0.208 A 
ATOM      3  C   UNL     1       9.675 -16.976 -22.461  1.00  0.00     0.238 A 
ATOM      4  O   UNL     1       9.122 -17.754 -21.639  1.00  0.00    -0.285 OA
ATOM      5  C   UNL     1      10.026 -15.652 -22.101  1.00  0.00     0.111 A 
ATOM      6  C   UNL     1       9.878 -15.100 -20.793  1.00  0.00     0.134 A 
ATOM      7  C   UNL     1      10.137 -13.741 -20.584  1.00  0.00     0.093 A 
ATOM      8  C   UNL     1      10.601 -12.927 -21.621  1.00  0.00     0.123 A 
ATOM      9  C   UNL     1      10.806 -13.470 -22.886  1.00  0.00     0.094 A 
ATOM     10  C   UNL     1      10.521 -14.815 -23.135  1.00  0.00     0.146 A 
ATOM     11  O   UNL     1      10.721 -15.290 -24.359  1.00  0.00    -0.452 OA
ENDROOT
BRANCH   1  12
ATOM     12  C   UNL     1      10.754 -16.956 -26.101  1.00  0.00     0.025 A 
ATOM     13  C   UNL     1      12.349 -17.800 -27.751  1.00  0.00     0.161 A 
ATOM     14  C   UNL     1      11.336 -17.804 -28.720  1.00  0.00     0.157 A 
ATOM     15  C   UNL     1      12.050 -17.380 -26.439  1.00  0.00     0.062 A 
ATOM     16  C   UNL     1      10.038 -17.402 -28.381  1.00  0.00     0.051 A 
ATOM     17  C   UNL     1       9.747 -16.987 -27.080  1.00  0.00     0.016 A 
BRANCH  13  18
ATOM     18  O   UNL     1      13.636 -18.217 -28.127  1.00  0.00    -0.493 OA
ATOM     19  C   UNL     1      14.701 -17.338 -28.472  1.00  0.00     0.278 C 
ENDBRANCH  13  18
BRANCH  14  20
ATOM     20  O   UNL     1      11.627 -18.217 -30.018  1.00  0.00    -0.504 OA
ATOM     21  H   UNL     1      12.082 -19.103 -30.203  1.00  0.00     0.293 HD
ENDBRANCH  14  20
ENDBRANCH   1  12
BRANCH   2  22
ATOM     22  O   UNL     1       9.541 -18.723 -24.151  1.00  0.00    -0.502 OA
ATOM     23  H   UNL     1       8.760 -18.912 -24.767  1.00  0.00     0.293 HD
ENDBRANCH   2  22
BRANCH   6  24
ATOM     24  O   UNL     1       9.509 -15.846 -19.669  1.00  0.00    -0.507 OA
ATOM     25  H   UNL     1       9.091 -15.462 -18.836  1.00  0.00     0.293 HD
ENDBRANCH   6  24
BRANCH   8  26
ATOM     26  O   UNL     1      10.872 -11.579 -21.400  1.00  0.00    -0.508 OA
ATOM     27  H   UNL     1      11.803 -11.197 -21.529  1.00  0.00     0.293 HD
ENDBRANCH   8  26
TORSDOF 6
ENDMDL
MODEL 2
REMARK VINA RESULT:    -6.367      3.065      6.253
REMARK INTER + INTRA:          -8.230
REMARK INTER:                  -8.100
REMARK INTRA:                  -0.130
REMARK UNBOUND:                -0.374
REMARK SMILES COc1cc(-c2oc3cc(O)cc(O)c3c(=O)c2O)ccc1O
REMARK SMILES IDX 6 1 18 2 16 3 17 4 15 5 13 6 12 7 10 8 9 9 8 10 7 11 5 12
REMARK SMILES IDX 3 13 22 14 4 15 21 16 20 17 2 18 1 19 23 20 19 22 14 24
REMARK SMILES IDX 11 26
REMARK H PARENT 23 21 19 23 14 25 11 27
REMARK Flexibility Score: inf
ROOT
ATOM      1  C   UNL     1       9.963 -13.470 -23.549  1.00  0.00     0.180 A 
ATOM      2  C   UNL     1       9.705 -13.741 -22.193  1.00  0.00     0.208 A 
ATOM      3  C   UNL     1       9.848 -15.055 -21.723  1.00  0.00     0.238 A 
ATOM      4  O   UNL     1       9.670 -15.282 -20.496  1.00  0.00    -0.285 OA
ATOM      5  C   UNL     1      10.231 -16.085 -22.615  1.00  0.00     0.111 A 
ATOM      6  C   UNL     1      10.367 -17.461 -22.255  1.00  0.00     0.134 A 
ATOM      7  C   UNL     1      10.877 -18.371 -23.189  1.00  0.00     0.093 A 
ATOM      8  C   UNL     1      11.193 -17.969 -24.489  1.00  0.00     0.123 A 
ATOM      9  C   UNL     1      11.007 -16.642 -24.867  1.00  0.00     0.094 A 
ATOM     10  C   UNL     1      10.535 -15.702 -23.947  1.00  0.00     0.146 A 
ATOM     11  O   UNL     1      10.382 -14.445 -24.346  1.00  0.00    -0.452 OA
ENDROOT
BRANCH   1  12
ATOM     12  C   UNL     1       9.810 -12.114 -24.123  1.00  0.00     0.025 A 
ATOM     13  C   UNL     1       8.742 -10.630 -25.748  1.00  0.00     0.161 A 
ATOM     14  C   UNL     1       9.442  -9.543 -25.207  1.00  0.00     0.157 A 
ATOM     15  C   UNL     1       8.925 -11.915 -25.197  1.00  0.00     0.062 A 
ATOM     16  C   UNL     1      10.309  -9.735 -24.124  1.00  0.00     0.051 A 
ATOM     17  C   UNL     1      10.487 -11.010 -23.581  1.00  0.00     0.016 A 
BRANCH  13  18
ATOM     18  O   UNL     1       7.876 -10.397 -26.828  1.00  0.00    -0.493 OA
ATOM     19  C   UNL     1       8.040 -10.953 -28.128  1.00  0.00     0.278 C 
ENDBRANCH  13  18
BRANCH  14  20
ATOM     20  O   UNL     1       9.265  -8.272 -25.748  1.00  0.00    -0.504 OA
ATOM     21  H   UNL     1       8.489  -7.682 -25.472  1.00  0.00     0.293 HD
ENDBRANCH  14  20
ENDBRANCH   1  12
BRANCH   2  22
ATOM     22  O   UNL     1       9.351 -12.705 -21.324  1.00  0.00    -0.502 OA
ATOM     23  H   UNL     1      10.039 -12.131 -20.852  1.00  0.00     0.293 HD
ENDBRANCH   2  22
BRANCH   6  24
ATOM     24  O   UNL     1       9.993 -17.983 -21.014  1.00  0.00    -0.507 OA
ATOM     25  H   UNL     1      10.637 -18.283 -20.299  1.00  0.00     0.293 HD
ENDBRANCH   6  24
BRANCH   8  26
ATOM     26  O   UNL     1      11.685 -18.884 -25.417  1.00  0.00    -0.508 OA
ATOM     27  H   UNL     1      11.329 -18.920 -26.366  1.00  0.00     0.293 HD
ENDBRANCH   8  26
TORSDOF 6
ENDMDL
MODEL 3
REMARK VINA RESULT:    -6.182      1.411      2.304
REMARK INTER + INTRA:          -8.002
REMARK INTER:                  -7.602
REMARK INTRA:                  -0.400
REMARK UNBOUND:                -0.374
REMARK SMILES COc1cc(-c2oc3cc(O)cc(O)c3c(=O)c2O)ccc1O
REMARK SMILES IDX 6 1 18 2 16 3 17 4 15 5 13 6 12 7 10 8 9 9 8 10 7 11 5 12
REMARK SMILES IDX 3 13 22 14 4 15 21 16 20 17 2 18 1 19 23 20 19 22 14 24
REMARK SMILES IDX 11 26
REMARK H PARENT 23 21 19 23 14 25 11 27
REMARK Flexibility Score: inf
ROOT
ATOM      1  C   UNL     1      11.227 -16.878 -25.522  1.00  0.00     0.180 A 
ATOM      2  C   UNL     1      11.323 -17.852 -24.512  1.00  0.00     0.208 A 
ATOM      3  C   UNL     1      11.054 -17.485 -23.185  1.00  0.00     0.238 A 
ATOM      4  O   UNL     1      11.087 -18.374 -22.293  1.00  0.00    -0.285 OA
ATOM      5  C   UNL     1      10.707 -16.147 -22.880  1.00  0.00     0.111 A 
ATOM      6  C   UNL     1      10.452 -15.655 -21.564  1.00  0.00     0.134 A 
ATOM      7  C   UNL     1       9.991 -14.344 -21.395  1.00  0.00     0.093 A 
ATOM      8  C   UNL     1       9.838 -13.486 -22.488  1.00  0.00     0.123 A 
ATOM      9  C   UNL     1      10.141 -13.939 -23.769  1.00  0.00     0.094 A 
ATOM     10  C   UNL     1      10.568 -15.253 -23.974  1.00  0.00     0.146 A 
ATOM     11  O   UNL     1      10.837 -15.647 -25.213  1.00  0.00    -0.452 OA
ENDROOT
BRANCH   1  12
ATOM     12  C   UNL     1      11.520 -17.183 -26.941  1.00  0.00     0.025 A 
ATOM     13  C   UNL     1      10.707 -17.688 -29.191  1.00  0.00     0.161 A 
ATOM     14  C   UNL     1      12.029 -17.707 -29.658  1.00  0.00     0.157 A 
ATOM     15  C   UNL     1      10.458 -17.419 -27.830  1.00  0.00     0.062 A 
ATOM     16  C   UNL     1      13.088 -17.453 -28.778  1.00  0.00     0.051 A 
ATOM     17  C   UNL     1      12.836 -17.186 -27.431  1.00  0.00     0.016 A 
BRANCH  13  18
ATOM     18  O   UNL     1       9.671 -17.941 -30.105  1.00  0.00    -0.493 OA
ATOM     19  C   UNL     1       8.854 -16.936 -30.696  1.00  0.00     0.278 C 
ENDBRANCH  13  18
BRANCH  14  20
ATOM     20  O   UNL     1      12.281 -17.974 -31.002  1.00  0.00    -0.504 OA
ATOM     21  H   UNL     1      13.137 -18.427 -31.301  1.00  0.00     0.293 HD
ENDBRANCH  14  20
ENDBRANCH   1  12
BRANCH   2  22
ATOM     22  O   UNL     1      11.644 -19.172 -24.838  1.00  0.00    -0.502 OA
ATOM     23  H   UNL     1      12.578 -19.455 -25.108  1.00  0.00     0.293 HD
ENDBRANCH   2  22
BRANCH   6  24
ATOM     24  O   UNL     1      10.662 -16.399 -20.399  1.00  0.00    -0.507 OA
ATOM     25  H   UNL     1      10.003 -16.474 -19.639  1.00  0.00     0.293 HD
ENDBRANCH   6  24
BRANCH   8  26
ATOM     26  O   UNL     1       9.394 -12.178 -22.309  1.00  0.00    -0.508 OA
ATOM     27  H   UNL     1       8.717 -11.942 -21.591  1.00  0.00     0.293 HD
ENDBRANCH   8  26
TORSDOF 6
ENDMDL
MODEL 4
REMARK VINA RESULT:    -6.158      1.549      6.786
REMARK INTER + INTRA:          -7.972
REMARK INTER:                  -8.163
REMARK INTRA:                   0.190
REMARK UNBOUND:                -0.374
REMARK SMILES COc1cc(-c2oc3cc(O)cc(O)c3c(=O)c2O)ccc1O
REMARK SMILES IDX 6 1 18 2 16 3 17 4 15 5 13 6 12 7 10 8 9 9 8 10 7 11 5 12
REMARK SMILES IDX 3 13 22 14 4 15 21 16 20 17 2 18 1 19 23 20 19 22 14 24
REMARK SMILES IDX 11 26
REMARK H PARENT 23 21 19 23 14 25 11 27
REMARK Flexibility Score: inf
ROOT
ATOM      1  C   UNL     1      10.432 -16.613 -22.872  1.00  0.00     0.180 A 
ATOM      2  C   UNL     1       9.874 -17.812 -22.395  1.00  0.00     0.208 A 
ATOM      3  C   UNL     1       9.854 -18.936 -23.236  1.00  0.00     0.238 A 
ATOM      4  O   UNL     1       9.404 -20.022 -22.785  1.00  0.00    -0.285 OA
ATOM      5  C   UNL     1      10.377 -18.843 -24.549  1.00  0.00     0.111 A 
ATOM      6  C   UNL     1      10.372 -19.907 -25.501  1.00  0.00     0.134 A 
ATOM      7  C   UNL     1      11.032 -19.741 -26.724  1.00  0.00     0.093 A 
ATOM      8  C   UNL     1      11.642 -18.528 -27.056  1.00  0.00     0.123 A 
ATOM      9  C   UNL     1      11.600 -17.465 -26.159  1.00  0.00     0.094 A 
ATOM     10  C   UNL     1      10.980 -17.612 -24.915  1.00  0.00     0.146 A 
ATOM     11  O   UNL     1      10.972 -16.576 -24.084  1.00  0.00    -0.452 OA
ENDROOT
BRANCH   1  12
ATOM     12  C   UNL     1      10.467 -15.380 -22.053  1.00  0.00     0.025 A 
ATOM     13  C   UNL     1      10.318 -12.943 -21.919  1.00  0.00     0.161 A 
ATOM     14  C   UNL     1      10.465 -13.016 -20.527  1.00  0.00     0.157 A 
ATOM     15  C   UNL     1      10.313 -14.131 -22.678  1.00  0.00     0.062 A 
ATOM     16  C   UNL     1      10.599 -14.261 -19.900  1.00  0.00     0.051 A 
ATOM     17  C   UNL     1      10.593 -15.435 -20.655  1.00  0.00     0.016 A 
BRANCH  13  18
ATOM     18  O   UNL     1      10.179 -11.678 -22.511  1.00  0.00    -0.493 OA
ATOM     19  C   UNL     1       9.786 -11.457 -23.861  1.00  0.00     0.278 C 
ENDBRANCH  13  18
BRANCH  14  20
ATOM     20  O   UNL     1      10.472 -11.845 -19.773  1.00  0.00    -0.504 OA
ATOM     21  H   UNL     1       9.869 -11.064 -20.002  1.00  0.00     0.293 HD
ENDBRANCH  14  20
ENDBRANCH   1  12
BRANCH   2  22
ATOM     22  O   UNL     1       9.385 -17.889 -21.089  1.00  0.00    -0.502 OA
ATOM     23  H   UNL     1       8.906 -18.708 -20.733  1.00  0.00     0.293 HD
ENDBRANCH   2  22
BRANCH   6  24
ATOM     24  O   UNL     1       9.714 -21.125 -25.306  1.00  0.00    -0.507 OA
ATOM     25  H   UNL     1      10.093 -21.908 -24.796  1.00  0.00     0.293 HD
ENDBRANCH   6  24
BRANCH   8  26
ATOM     26  O   UNL     1      12.283 -18.367 -28.282  1.00  0.00    -0.508 OA
ATOM     27  H   UNL     1      12.979 -17.643 -28.426  1.00  0.00     0.293 HD
ENDBRANCH   8  26
TORSDOF 6
ENDMDL
MODEL 5
REMARK VINA RESULT:    -6.115      4.112      6.994
REMARK INTER + INTRA:          -7.919
REMARK INTER:                  -8.328
REMARK INTRA:                   0.409
REMARK UNBOUND:                -0.374
REMARK SMILES COc1cc(-c2oc3cc(O)cc(O)c3c(=O)c2O)ccc1O
REMARK SMILES IDX 6 1 18 2 16 3 17 4 15 5 13 6 12 7 10 8 9 9 8 10 7 11 5 12
REMARK SMILES IDX 3 13 22 14 4 15 21 16 20 17 2 18 1 19 23 20 19 22 14 24
REMARK SMILES IDX 11 26
REMARK H PARENT 23 21 19 23 14 25 11 27
REMARK Flexibility Score: inf
ROOT
ATOM      1  C   UNL     1       9.570 -12.670 -23.417  1.00  0.00     0.180 A 
ATOM      2  C   UNL     1       9.052 -13.320 -24.552  1.00  0.00     0.208 A 
ATOM      3  C   UNL     1       8.724 -12.557 -25.683  1.00  0.00     0.238 A 
ATOM      4  O   UNL     1       8.313 -13.151 -26.715  1.00  0.00    -0.285 OA
ATOM      5  C   UNL     1       8.901 -11.153 -25.661  1.00  0.00     0.111 A 
ATOM      6  C   UNL     1       8.564 -10.276 -26.737  1.00  0.00     0.134 A 
ATOM      7  C   UNL     1       8.904  -8.921 -26.654  1.00  0.00     0.093 A 
ATOM      8  C   UNL     1       9.509  -8.397 -25.509  1.00  0.00     0.123 A 
ATOM      9  C   UNL     1       9.787  -9.233 -24.430  1.00  0.00     0.094 A 
ATOM     10  C   UNL     1       9.494 -10.597 -24.497  1.00  0.00     0.146 A 
ATOM     11  O   UNL     1       9.784 -11.361 -23.451  1.00  0.00    -0.452 OA
ENDROOT
BRANCH   1  12
ATOM     12  C   UNL     1       9.915 -13.404 -22.179  1.00  0.00     0.025 A 
ATOM     13  C   UNL     1      10.446 -15.518 -21.070  1.00  0.00     0.161 A 
ATOM     14  C   UNL     1      10.632 -14.831 -19.862  1.00  0.00     0.157 A 
ATOM     15  C   UNL     1      10.094 -14.797 -22.229  1.00  0.00     0.062 A 
ATOM     16  C   UNL     1      10.476 -13.440 -19.814  1.00  0.00     0.051 A 
ATOM     17  C   UNL     1      10.126 -12.731 -20.965  1.00  0.00     0.016 A 
BRANCH  13  18
ATOM     18  O   UNL     1      10.620 -16.911 -21.080  1.00  0.00    -0.493 OA
ATOM     19  C   UNL     1       9.813 -17.820 -21.823  1.00  0.00     0.278 C 
ENDBRANCH  13  18
BRANCH  14  20
ATOM     20  O   UNL     1      10.980 -15.539 -18.714  1.00  0.00    -0.504 OA
ATOM     21  H   UNL     1      10.619 -16.469 -18.535  1.00  0.00     0.293 HD
ENDBRANCH  14  20
ENDBRANCH   1  12
BRANCH   2  22
ATOM     22  O   UNL     1       8.906 -14.710 -24.560  1.00  0.00    -0.502 OA
ATOM     23  H   UNL     1       8.053 -15.167 -24.859  1.00  0.00     0.293 HD
ENDBRANCH   2  22
BRANCH   6  24
ATOM     24  O   UNL     1       7.877 -10.679 -27.886  1.00  0.00    -0.507 OA
ATOM     25  H   UNL     1       8.308 -10.860 -28.779  1.00  0.00     0.293 HD
ENDBRANCH   6  24
BRANCH   8  26
ATOM     26  O   UNL     1       9.828  -7.043 -25.428  1.00  0.00    -0.508 OA
ATOM     27  H   UNL     1      10.358  -6.669 -24.649  1.00  0.00     0.293 HD
ENDBRANCH   8  26
TORSDOF 6
ENDMDL
MODEL 6
REMARK VINA RESULT:    -5.984      2.434      6.267
REMARK INTER + INTRA:          -7.757
REMARK INTER:                  -7.450
REMARK INTRA:                  -0.307
REMARK UNBOUND:                -0.374
REMARK SMILES COc1cc(-c2oc3cc(O)cc(O)c3c(=O)c2O)ccc1O
REMARK SMILES IDX 6 1 18 2 16 3 17 4 15 5 13 6 12 7 10 8 9 9 8 10 7 11 5 12
REMARK SMILES IDX 3 13 22 14 4 15 21 16 20 17 2 18 1 19 23 20 19 22 14 24
REMARK SMILES IDX 11 26
REMARK H PARENT 23 21 19 23 14 25 11 27
REMARK Flexibility Score: inf
ROOT
ATOM      1  C   UNL     1       9.895 -15.678 -23.590  1.00  0.00     0.180 A 
ATOM      2  C   UNL     1       9.432 -16.338 -22.438  1.00  0.00     0.208 A 
ATOM      3  C   UNL     1       9.421 -17.741 -22.416  1.00  0.00     0.238 A 
ATOM      4  O   UNL     1       9.057 -18.327 -21.362  1.00  0.00    -0.285 OA
ATOM      5  C   UNL     1       9.856 -18.467 -23.551  1.00  0.00     0.111 A 
ATOM      6  C   UNL     1       9.850 -19.892 -23.654  1.00  0.00     0.134 A 
ATOM      7  C   UNL     1      10.424 -20.505 -24.773  1.00  0.00     0.093 A 
ATOM      8  C   UNL     1      10.947 -19.745 -25.824  1.00  0.00     0.123 A 
ATOM      9  C   UNL     1      10.903 -18.355 -25.759  1.00  0.00     0.094 A 
ATOM     10  C   UNL     1      10.369 -17.714 -24.638  1.00  0.00     0.146 A 
ATOM     11  O   UNL     1      10.357 -16.387 -24.613  1.00  0.00    -0.452 OA
ENDROOT
BRANCH   1  12
ATOM     12  C   UNL     1       9.914 -14.201 -23.697  1.00  0.00     0.025 A 
ATOM     13  C   UNL     1       8.939 -12.149 -24.601  1.00  0.00     0.161 A 
ATOM     14  C   UNL     1       9.874 -11.394 -23.880  1.00  0.00     0.157 A 
ATOM     15  C   UNL     1       8.959 -13.555 -24.500  1.00  0.00     0.062 A 
ATOM     16  C   UNL     1      10.814 -12.034 -23.063  1.00  0.00     0.051 A 
ATOM     17  C   UNL     1      10.830 -13.427 -22.966  1.00  0.00     0.016 A 
BRANCH  13  18
ATOM     18  O   UNL     1       8.008 -11.471 -25.404  1.00  0.00    -0.493 OA
ATOM     19  C   UNL     1       8.071 -11.395 -26.824  1.00  0.00     0.278 C 
ENDBRANCH  13  18
BRANCH  14  20
ATOM     20  O   UNL     1       9.859 -10.004 -23.978  1.00  0.00    -0.504 OA
ATOM     21  H   UNL     1       9.924  -9.535 -24.873  1.00  0.00     0.293 HD
ENDBRANCH  14  20
ENDBRANCH   1  12
BRANCH   2  22
ATOM     22  O   UNL     1       9.028 -15.603 -21.320  1.00  0.00    -0.502 OA
ATOM     23  H   UNL     1       9.678 -15.294 -20.607  1.00  0.00     0.293 HD
ENDBRANCH   2  22
BRANCH   6  24
ATOM     24  O   UNL     1       9.271 -20.740 -22.705  1.00  0.00    -0.507 OA
ATOM     25  H   UNL     1       8.288 -20.959 -22.653  1.00  0.00     0.293 HD
ENDBRANCH   6  24
BRANCH   8  26
ATOM     26  O   UNL     1      11.502 -20.364 -26.941  1.00  0.00    -0.508 OA
ATOM     27  H   UNL     1      12.290 -19.958 -27.435  1.00  0.00     0.293 HD
ENDBRANCH   8  26
TORSDOF 6
ENDMDL
MODEL 7
REMARK VINA RESULT:    -5.971      1.739      6.799
REMARK INTER + INTRA:          -7.741
REMARK INTER:                  -8.007
REMARK INTRA:                   0.266
REMARK UNBOUND:                -0.374
REMARK SMILES COc1cc(-c2oc3cc(O)cc(O)c3c(=O)c2O)ccc1O
REMARK SMILES IDX 6 1 18 2 16 3 17 4 15 5 13 6 12 7 10 8 9 9 8 10 7 11 5 12
REMARK SMILES IDX 3 13 22 14 4 15 21 16 20 17 2 18 1 19 23 20 19 22 14 24
REMARK SMILES IDX 11 26
REMARK H PARENT 23 21 19 23 14 25 11 27
REMARK Flexibility Score: inf
ROOT
ATOM      1  C   UNL     1      10.740 -16.512 -23.809  1.00  0.00     0.180 A 
ATOM      2  C   UNL     1      11.036 -17.813 -23.365  1.00  0.00     0.208 A 
ATOM      3  C   UNL     1      11.194 -18.836 -24.313  1.00  0.00     0.238 A 
ATOM      4  O   UNL     1      11.514 -19.987 -23.913  1.00  0.00    -0.285 OA
ATOM      5  C   UNL     1      11.037 -18.550 -25.690  1.00  0.00     0.111 A 
ATOM      6  C   UNL     1      11.135 -19.518 -26.736  1.00  0.00     0.134 A 
ATOM      7  C   UNL     1      11.091 -19.100 -28.070  1.00  0.00     0.093 A 
ATOM      8  C   UNL     1      10.887 -17.757 -28.399  1.00  0.00     0.123 A 
ATOM      9  C   UNL     1      10.731 -16.814 -27.386  1.00  0.00     0.094 A 
ATOM     10  C   UNL     1      10.807 -17.196 -26.044  1.00  0.00     0.146 A 
ATOM     11  O   UNL     1      10.663 -16.263 -25.110  1.00  0.00    -0.452 OA
ENDROOT
BRANCH   1  12
ATOM     12  C   UNL     1      10.536 -15.387 -22.868  1.00  0.00     0.025 A 
ATOM     13  C   UNL     1      10.427 -12.977 -22.469  1.00  0.00     0.161 A 
ATOM     14  C   UNL     1      10.095 -13.219 -21.129  1.00  0.00     0.157 A 
ATOM     15  C   UNL     1      10.640 -14.066 -23.337  1.00  0.00     0.062 A 
ATOM     16  C   UNL     1       9.971 -14.534 -20.663  1.00  0.00     0.051 A 
ATOM     17  C   UNL     1      10.182 -15.611 -21.527  1.00  0.00     0.016 A 
BRANCH  13  18
ATOM     18  O   UNL     1      10.536 -11.645 -22.900  1.00  0.00    -0.493 OA
ATOM     19  C   UNL     1       9.841 -11.099 -24.016  1.00  0.00     0.278 C 
ENDBRANCH  13  18
BRANCH  14  20
ATOM     20  O   UNL     1       9.885 -12.146 -20.266  1.00  0.00    -0.504 OA
ATOM     21  H   UNL     1      10.129 -11.198 -20.530  1.00  0.00     0.293 HD
ENDBRANCH  14  20
ENDBRANCH   1  12
BRANCH   2  22
ATOM     22  O   UNL     1      11.210 -18.069 -22.002  1.00  0.00    -0.502 OA
ATOM     23  H   UNL     1      11.963 -17.659 -21.462  1.00  0.00     0.293 HD
ENDBRANCH   2  22
BRANCH   6  24
ATOM     24  O   UNL     1      11.247 -20.895 -26.516  1.00  0.00    -0.507 OA
ATOM     25  H   UNL     1      10.919 -21.606 -27.150  1.00  0.00     0.293 HD
ENDBRANCH   6  24
BRANCH   8  26
ATOM     26  O   UNL     1      10.828 -17.351 -29.730  1.00  0.00    -0.508 OA
ATOM     27  H   UNL     1      11.030 -17.992 -30.489  1.00  0.00     0.293 HD
ENDBRANCH   8  26
TORSDOF 6
ENDMDL
MODEL 8
REMARK VINA RESULT:    -5.865      2.747      5.014
REMARK INTER + INTRA:          -7.611
REMARK INTER:                  -7.356
REMARK INTRA:                  -0.254
REMARK UNBOUND:                -0.374
REMARK SMILES COc1cc(-c2oc3cc(O)cc(O)c3c(=O)c2O)ccc1O
REMARK SMILES IDX 6 1 18 2 16 3 17 4 15 5 13 6 12 7 10 8 9 9 8 10 7 11 5 12
REMARK SMILES IDX 3 13 22 14 4 15 21 16 20 17 2 18 1 19 23 20 19 22 14 24
REMARK SMILES IDX 11 26
REMARK H PARENT 23 21 19 23 14 25 11 27
REMARK Flexibility Score: inf
ROOT
ATOM      1  C   UNL     1       9.947 -14.537 -23.684  1.00  0.00     0.180 A 
ATOM      2  C   UNL     1      10.497 -13.696 -22.700  1.00  0.00     0.208 A 
ATOM      3  C   UNL     1      10.465 -12.307 -22.897  1.00  0.00     0.238 A 
ATOM      4  O   UNL     1      10.909 -11.557 -21.988  1.00  0.00    -0.285 OA
ATOM      5  C   UNL     1       9.900 -11.775 -24.081  1.00  0.00     0.111 A 
ATOM      6  C   UNL     1       9.850 -10.385 -24.403  1.00  0.00     0.134 A 
ATOM      7  C   UNL     1       9.151  -9.965 -25.540  1.00  0.00     0.093 A 
ATOM      8  C   UNL     1       8.555 -10.889 -26.403  1.00  0.00     0.123 A 
ATOM      9  C   UNL     1       8.649 -12.250 -26.130  1.00  0.00     0.094 A 
ATOM     10  C   UNL     1       9.308 -12.699 -24.982  1.00  0.00     0.146 A 
ATOM     11  O   UNL     1       9.366 -14.005 -24.753  1.00  0.00    -0.452 OA
ENDROOT
BRANCH   1  12
ATOM     12  C   UNL     1       9.965 -16.012 -23.559  1.00  0.00     0.025 A 
ATOM     13  C   UNL     1      10.836 -18.172 -24.306  1.00  0.00     0.161 A 
ATOM     14  C   UNL     1      10.077 -18.813 -23.317  1.00  0.00     0.157 A 
ATOM     15  C   UNL     1      10.781 -16.768 -24.419  1.00  0.00     0.062 A 
ATOM     16  C   UNL     1       9.280 -18.061 -22.446  1.00  0.00     0.051 A 
ATOM     17  C   UNL     1       9.228 -16.670 -22.561  1.00  0.00     0.016 A 
BRANCH  13  18
ATOM     18  O   UNL     1      11.629 -18.959 -25.156  1.00  0.00    -0.493 OA
ATOM     19  C   UNL     1      11.299 -19.278 -26.503  1.00  0.00     0.278 C 
ENDBRANCH  13  18
BRANCH  14  20
ATOM     20  O   UNL     1      10.128 -20.200 -23.202  1.00  0.00    -0.504 OA
ATOM     21  H   UNL     1      10.258 -20.654 -22.305  1.00  0.00     0.293 HD
ENDBRANCH  14  20
ENDBRANCH   1  12
BRANCH   2  22
ATOM     22  O   UNL     1      11.029 -14.240 -21.529  1.00  0.00    -0.502 OA
ATOM     23  H   UNL     1      10.518 -14.897 -20.951  1.00  0.00     0.293 HD
ENDBRANCH   2  22
BRANCH   6  24
ATOM     24  O   UNL     1      10.489  -9.389 -23.659  1.00  0.00    -0.507 OA
ATOM     25  H   UNL     1      11.415  -9.036 -23.848  1.00  0.00     0.293 HD
ENDBRANCH   6  24
BRANCH   8  26
ATOM     26  O   UNL     1       7.875 -10.462 -27.542  1.00  0.00    -0.508 OA
ATOM     27  H   UNL     1       7.096 -10.988 -27.922  1.00  0.00     0.293 HD
ENDBRANCH   8  26
TORSDOF 6
ENDMDL
