MODEL 1
REMARK VINA RESULT:    -4.373      0.000      0.000
REMARK INTER + INTRA:          -7.714
REMARK INTER:                  -6.035
REMARK INTRA:                  -1.679
REMARK UNBOUND:                -1.679
REMARK SMILES O=C([O-])[C@H]1O[C@@H](Oc2cc3oc(-c4ccccc4)cc(=O)c3c(O)c2O)[C@@H](O)[C@@H](O)[C@@H]1O
REMARK SMILES IDX 7 1 6 2 4 3 31 4 5 5 29 6 27 7 2 8 1 9 3 10 32 11 30 13
REMARK SMILES IDX 28 15 8 17 25 18 9 19 23 20 10 21 22 22 11 23 20 24 12 25
REMARK SMILES IDX 19 26 21 27 26 28 24 30 13 32 14 33 18 34 15 35 17 36 16 37
REMARK H PARENT 32 12 30 14 28 16 26 29 24 31
REMARK Flexibility Score: inf
ROOT
ATOM      1  O   UNL     1      11.872  14.580  -1.696  1.00  0.00    -0.458 OA
ENDROOT
BRANCH   1   2
ATOM      2  C   UNL     1      12.880  14.746  -0.696  1.00  0.00     0.339 C 
ATOM      3  C   UNL     1      12.319  17.000  -0.144  1.00  0.00     0.199 C 
ATOM      4  C   UNL     1      13.524  17.562  -0.965  1.00  0.00     0.180 C 
ATOM      5  O   UNL     1      12.475  15.660   0.313  1.00  0.00    -0.328 OA
ATOM      6  C   UNL     1      14.112  16.552  -1.973  1.00  0.00     0.181 C 
ATOM      7  C   UNL     1      14.217  15.165  -1.326  1.00  0.00     0.214 C 
BRANCH   3   8
ATOM      8  C   UNL     1      10.976  17.209  -0.807  1.00  0.00     0.073 C 
ATOM      9  O   UNL     1       9.920  16.941  -0.172  1.00  0.00    -0.547 OA
ATOM     10  O   UNL     1      10.882  17.678  -2.113  1.00  0.00    -0.547 OA
ENDBRANCH   3   8
BRANCH   4  11
ATOM     11  O   UNL     1      14.534  18.029  -0.106  1.00  0.00    -0.387 OA
ATOM     12  H   UNL     1      15.401  17.895  -0.569  1.00  0.00     0.211 HD
ENDBRANCH   4  11
BRANCH   6  13
ATOM     13  O   UNL     1      13.310  16.492  -3.125  1.00  0.00    -0.387 OA
ATOM     14  H   UNL     1      13.920  16.558  -3.904  1.00  0.00     0.211 HD
ENDBRANCH   6  13
BRANCH   7  15
ATOM     15  O   UNL     1      14.686  14.201  -2.237  1.00  0.00    -0.384 OA
ATOM     16  H   UNL     1      15.369  13.644  -1.778  1.00  0.00     0.211 HD
ENDBRANCH   7  15
ENDBRANCH   1   2
BRANCH   1  17
ATOM     17  C   UNL     1      10.934  13.537  -1.804  1.00  0.00     0.172 A 
ATOM     18  C   UNL     1       9.554  13.720  -2.062  1.00  0.00     0.201 A 
ATOM     19  C   UNL     1      11.426  12.246  -1.626  1.00  0.00     0.098 A 
ATOM     20  C   UNL     1       8.685  12.610  -2.090  1.00  0.00     0.176 A 
ATOM     21  C   UNL     1      10.593  11.134  -1.716  1.00  0.00     0.146 A 
ATOM     22  C   UNL     1       9.209  11.293  -1.965  1.00  0.00     0.111 A 
ATOM     23  O   UNL     1      11.126   9.924  -1.576  1.00  0.00    -0.456 OA
ATOM     24  C   UNL     1       8.445  10.111  -2.116  1.00  0.00     0.197 A 
ATOM     25  C   UNL     1      10.424   8.801  -1.669  1.00  0.00     0.138 A 
ATOM     26  C   UNL     1       9.053   8.868  -1.946  1.00  0.00     0.100 A 
ATOM     27  O   UNL     1       7.230  10.140  -2.446  1.00  0.00    -0.289 OA
BRANCH  18  28
ATOM     28  O   UNL     1       9.039  15.001  -2.272  1.00  0.00    -0.502 OA
ATOM     29  H   UNL     1       8.117  15.277  -1.965  1.00  0.00     0.293 HD
ENDBRANCH  18  28
BRANCH  20  30
ATOM     30  O   UNL     1       7.316  12.865  -2.211  1.00  0.00    -0.504 OA
ATOM     31  H   UNL     1       6.919  13.472  -2.911  1.00  0.00     0.293 HD
ENDBRANCH  20  30
BRANCH  25  32
ATOM     32  C   UNL     1      11.123   7.501  -1.516  1.00  0.00     0.017 A 
ATOM     33  C   UNL     1      12.255   7.175  -2.289  1.00  0.00     0.012 A 
ATOM     34  C   UNL     1      10.648   6.566  -0.580  1.00  0.00     0.012 A 
ATOM     35  C   UNL     1      12.910   5.953  -2.107  1.00  0.00     0.001 A 
ATOM     36  C   UNL     1      11.309   5.347  -0.400  1.00  0.00     0.001 A 
ATOM     37  C   UNL     1      12.440   5.040  -1.160  1.00  0.00     0.000 A 
ENDBRANCH  25  32
ENDBRANCH   1  17
TORSDOF 9
ENDMDL
MODEL 2
REMARK VINA RESULT:    -4.112      2.737      8.783
REMARK INTER + INTRA:          -7.353
REMARK INTER:                  -5.768
REMARK INTRA:                  -1.585
REMARK UNBOUND:                -1.679
REMARK SMILES O=C([O-])[C@H]1O[C@@H](Oc2cc3oc(-c4ccccc4)cc(=O)c3c(O)c2O)[C@@H](O)[C@@H](O)[C@@H]1O
REMARK SMILES IDX 7 1 6 2 4 3 31 4 5 5 29 6 27 7 2 8 1 9 3 10 32 11 30 13
REMARK SMILES IDX 28 15 8 17 25 18 9 19 23 20 10 21 22 22 11 23 20 24 12 25
REMARK SMILES IDX 19 26 21 27 26 28 24 30 13 32 14 33 18 34 15 35 17 36 16 37
REMARK H PARENT 32 12 30 14 28 16 26 29 24 31
REMARK Flexibility Score: inf
ROOT
ATOM      1  O   UNL     1      11.809   7.823  -1.976  1.00  0.00    -0.458 OA
ENDROOT
BRANCH   1   2
ATOM      2  C   UNL     1      11.459   6.954  -3.056  1.00  0.00     0.339 C 
ATOM      3  C   UNL     1       9.520   6.028  -2.013  1.00  0.00     0.199 C 
ATOM      4  C   UNL     1      10.275   4.709  -1.649  1.00  0.00     0.180 C 
ATOM      5  O   UNL     1      10.056   6.740  -3.125  1.00  0.00    -0.328 OA
ATOM      6  C   UNL     1      11.812   4.838  -1.712  1.00  0.00     0.181 C 
ATOM      7  C   UNL     1      12.223   5.624  -2.963  1.00  0.00     0.214 C 
BRANCH   3   8
ATOM      8  C   UNL     1       9.276   6.940  -0.833  1.00  0.00     0.073 C 
ATOM      9  O   UNL     1       9.922   6.764   0.235  1.00  0.00    -0.547 OA
ATOM     10  O   UNL     1       8.336   7.964  -0.896  1.00  0.00    -0.547 OA
ENDBRANCH   3   8
BRANCH   4  11
ATOM     11  O   UNL     1       9.847   3.649  -2.467  1.00  0.00    -0.387 OA
ATOM     12  H   UNL     1       9.019   3.944  -2.924  1.00  0.00     0.211 HD
ENDBRANCH   4  11
BRANCH   6  13
ATOM     13  O   UNL     1      12.294   5.474  -0.557  1.00  0.00    -0.387 OA
ATOM     14  H   UNL     1      13.032   6.072  -0.844  1.00  0.00     0.211 HD
ENDBRANCH   6  13
BRANCH   7  15
ATOM     15  O   UNL     1      13.615   5.821  -3.020  1.00  0.00    -0.384 OA
ATOM     16  H   UNL     1      13.797   6.591  -3.620  1.00  0.00     0.211 HD
ENDBRANCH   7  15
ENDBRANCH   1   2
BRANCH   1  17
ATOM     17  C   UNL     1      12.145   9.187  -2.047  1.00  0.00     0.172 A 
ATOM     18  C   UNL     1      13.399   9.685  -2.474  1.00  0.00     0.201 A 
ATOM     19  C   UNL     1      11.157  10.086  -1.649  1.00  0.00     0.098 A 
ATOM     20  C   UNL     1      13.657  11.072  -2.450  1.00  0.00     0.176 A 
ATOM     21  C   UNL     1      11.373  11.461  -1.683  1.00  0.00     0.146 A 
ATOM     22  C   UNL     1      12.621  11.981  -2.098  1.00  0.00     0.111 A 
ATOM     23  O   UNL     1      10.380  12.271  -1.328  1.00  0.00    -0.456 OA
ATOM     24  C   UNL     1      12.735  13.390  -2.174  1.00  0.00     0.197 A 
ATOM     25  C   UNL     1      10.475  13.596  -1.349  1.00  0.00     0.138 A 
ATOM     26  C   UNL     1      11.666  14.193  -1.778  1.00  0.00     0.100 A 
ATOM     27  O   UNL     1      13.764  13.952  -2.635  1.00  0.00    -0.289 OA
BRANCH  18  28
ATOM     28  O   UNL     1      14.397   8.809  -2.904  1.00  0.00    -0.502 OA
ATOM     29  H   UNL     1      14.477   8.496  -3.862  1.00  0.00     0.293 HD
ENDBRANCH  18  28
BRANCH  20  30
ATOM     30  O   UNL     1      14.955  11.492  -2.750  1.00  0.00    -0.504 OA
ATOM     31  H   UNL     1      15.667  11.654  -2.054  1.00  0.00     0.293 HD
ENDBRANCH  20  30
BRANCH  25  32
ATOM     32  C   UNL     1       9.298  14.406  -0.952  1.00  0.00     0.017 A 
ATOM     33  C   UNL     1       9.402  15.791  -0.709  1.00  0.00     0.012 A 
ATOM     34  C   UNL     1       8.045  13.785  -0.808  1.00  0.00     0.012 A 
ATOM     35  C   UNL     1       8.271  16.536  -0.360  1.00  0.00     0.001 A 
ATOM     36  C   UNL     1       6.918  14.536  -0.462  1.00  0.00     0.001 A 
ATOM     37  C   UNL     1       7.028  15.911  -0.240  1.00  0.00     0.000 A 
ENDBRANCH  25  32
ENDBRANCH   1  17
TORSDOF 9
ENDMDL
MODEL 3
REMARK VINA RESULT:    -3.878      1.887      4.288
REMARK INTER + INTRA:          -7.030
REMARK INTER:                  -5.372
REMARK INTRA:                  -1.658
REMARK UNBOUND:                -1.679
REMARK SMILES O=C([O-])[C@H]1O[C@@H](Oc2cc3oc(-c4ccccc4)cc(=O)c3c(O)c2O)[C@@H](O)[C@@H](O)[C@@H]1O
REMARK SMILES IDX 7 1 6 2 4 3 31 4 5 5 29 6 27 7 2 8 1 9 3 10 32 11 30 13
REMARK SMILES IDX 28 15 8 17 25 18 9 19 23 20 10 21 22 22 11 23 20 24 12 25
REMARK SMILES IDX 19 26 21 27 26 28 24 30 13 32 14 33 18 34 15 35 17 36 16 37
REMARK H PARENT 32 12 30 14 28 16 26 29 24 31
REMARK Flexibility Score: inf
ROOT
ATOM      1  O   UNL     1      10.529  14.283  -1.955  1.00  0.00    -0.458 OA
ENDROOT
BRANCH   1   2
ATOM      2  C   UNL     1       9.631  14.815  -2.932  1.00  0.00     0.339 C 
ATOM      3  C   UNL     1       9.506  17.006  -1.989  1.00  0.00     0.199 C 
ATOM      4  C   UNL     1       8.106  16.717  -1.358  1.00  0.00     0.180 C 
ATOM      5  O   UNL     1       9.829  16.209  -3.125  1.00  0.00    -0.328 OA
ATOM      6  C   UNL     1       7.766  15.214  -1.267  1.00  0.00     0.181 C 
ATOM      7  C   UNL     1       8.172  14.504  -2.564  1.00  0.00     0.214 C 
BRANCH   3   8
ATOM      8  C   UNL     1      10.637  17.032  -0.987  1.00  0.00     0.073 C 
ATOM      9  O   UNL     1      10.378  16.976   0.246  1.00  0.00    -0.547 OA
ATOM     10  O   UNL     1      11.962  17.133  -1.398  1.00  0.00    -0.547 OA
ENDBRANCH   3   8
BRANCH   4  11
ATOM     11  O   UNL     1       7.095  17.398  -2.058  1.00  0.00    -0.387 OA
ATOM     12  H   UNL     1       7.471  18.268  -2.349  1.00  0.00     0.211 HD
ENDBRANCH   4  11
BRANCH   6  13
ATOM     13  O   UNL     1       8.420  14.633  -0.168  1.00  0.00    -0.387 OA
ATOM     14  H   UNL     1       7.827  14.755   0.618  1.00  0.00     0.211 HD
ENDBRANCH   6  13
BRANCH   7  15
ATOM     15  O   UNL     1       7.939  13.119  -2.493  1.00  0.00    -0.384 OA
ATOM     16  H   UNL     1       8.521  12.669  -3.160  1.00  0.00     0.211 HD
ENDBRANCH   7  15
ENDBRANCH   1   2
BRANCH   1  17
ATOM     17  C   UNL     1      11.545  13.329  -2.154  1.00  0.00     0.172 A 
ATOM     18  C   UNL     1      12.893  13.641  -2.452  1.00  0.00     0.201 A 
ATOM     19  C   UNL     1      11.162  11.993  -2.056  1.00  0.00     0.098 A 
ATOM     20  C   UNL     1      13.822  12.608  -2.695  1.00  0.00     0.176 A 
ATOM     21  C   UNL     1      12.082  10.962  -2.227  1.00  0.00     0.146 A 
ATOM     22  C   UNL     1      13.432  11.249  -2.535  1.00  0.00     0.111 A 
ATOM     23  O   UNL     1      11.666   9.707  -2.084  1.00  0.00    -0.456 OA
ATOM     24  C   UNL     1      14.319  10.148  -2.620  1.00  0.00     0.197 A 
ATOM     25  C   UNL     1      12.468   8.654  -2.201  1.00  0.00     0.138 A 
ATOM     26  C   UNL     1      13.827   8.852  -2.473  1.00  0.00     0.100 A 
ATOM     27  O   UNL     1      15.559  10.301  -2.781  1.00  0.00    -0.289 OA
BRANCH  18  28
ATOM     28  O   UNL     1      13.309  14.971  -2.529  1.00  0.00    -0.502 OA
ATOM     29  H   UNL     1      12.840  15.722  -2.042  1.00  0.00     0.293 HD
ENDBRANCH  18  28
BRANCH  20  30
ATOM     30  O   UNL     1      15.101  12.977  -3.121  1.00  0.00    -0.504 OA
ATOM     31  H   UNL     1      15.344  13.143  -4.085  1.00  0.00     0.293 HD
ENDBRANCH  20  30
BRANCH  25  32
ATOM     32  C   UNL     1      11.905   7.296  -2.002  1.00  0.00     0.017 A 
ATOM     33  C   UNL     1      12.723   6.149  -2.002  1.00  0.00     0.012 A 
ATOM     34  C   UNL     1      10.521   7.142  -1.810  1.00  0.00     0.012 A 
ATOM     35  C   UNL     1      12.169   4.883  -1.787  1.00  0.00     0.001 A 
ATOM     36  C   UNL     1       9.973   5.874  -1.593  1.00  0.00     0.001 A 
ATOM     37  C   UNL     1      10.796   4.745  -1.578  1.00  0.00     0.000 A 
ENDBRANCH  25  32
ENDBRANCH   1  17
TORSDOF 9
ENDMDL
MODEL 4
REMARK VINA RESULT:    -3.583      0.885      2.374
REMARK INTER + INTRA:          -6.624
REMARK INTER:                  -5.344
REMARK INTRA:                  -1.280
REMARK UNBOUND:                -1.679
REMARK SMILES O=C([O-])[C@H]1O[C@@H](Oc2cc3oc(-c4ccccc4)cc(=O)c3c(O)c2O)[C@@H](O)[C@@H](O)[C@@H]1O
REMARK SMILES IDX 7 1 6 2 4 3 31 4 5 5 29 6 27 7 2 8 1 9 3 10 32 11 30 13
REMARK SMILES IDX 28 15 8 17 25 18 9 19 23 20 10 21 22 22 11 23 20 24 12 25
REMARK SMILES IDX 19 26 21 27 26 28 24 30 13 32 14 33 18 34 15 35 17 36 16 37
REMARK H PARENT 32 12 30 14 28 16 26 29 24 31
REMARK Flexibility Score: inf
ROOT
ATOM      1  O   UNL     1      11.590  14.270  -1.462  1.00  0.00    -0.458 OA
ENDROOT
BRANCH   1   2
ATOM      2  C   UNL     1      11.522  15.519  -2.155  1.00  0.00     0.339 C 
ATOM      3  C   UNL     1      13.866  15.698  -2.574  1.00  0.00     0.199 C 
ATOM      4  C   UNL     1      14.052  16.738  -1.423  1.00  0.00     0.180 C 
ATOM      5  O   UNL     1      12.554  15.638  -3.125  1.00  0.00    -0.328 OA
ATOM      6  C   UNL     1      12.879  16.766  -0.419  1.00  0.00     0.181 C 
ATOM      7  C   UNL     1      11.543  16.697  -1.169  1.00  0.00     0.214 C 
BRANCH   3   8
ATOM      8  C   UNL     1      14.397  14.321  -2.248  1.00  0.00     0.073 C 
ATOM      9  O   UNL     1      15.061  14.144  -1.192  1.00  0.00    -0.547 OA
ATOM     10  O   UNL     1      14.181  13.244  -3.102  1.00  0.00    -0.547 OA
ENDBRANCH   3   8
BRANCH   4  11
ATOM     11  O   UNL     1      14.268  18.025  -1.945  1.00  0.00    -0.387 OA
ATOM     12  H   UNL     1      14.905  18.486  -1.342  1.00  0.00     0.211 HD
ENDBRANCH   4  11
BRANCH   6  13
ATOM     13  O   UNL     1      12.987  15.694   0.483  1.00  0.00    -0.387 OA
ATOM     14  H   UNL     1      12.793  16.057   1.386  1.00  0.00     0.211 HD
ENDBRANCH   6  13
BRANCH   7  15
ATOM     15  O   UNL     1      10.452  16.651  -0.283  1.00  0.00    -0.384 OA
ATOM     16  H   UNL     1       9.615  16.715  -0.814  1.00  0.00     0.211 HD
ENDBRANCH   7  15
ENDBRANCH   1   2
BRANCH   1  17
ATOM     17  C   UNL     1      10.700  13.184  -1.562  1.00  0.00     0.172 A 
ATOM     18  C   UNL     1       9.299  13.305  -1.715  1.00  0.00     0.201 A 
ATOM     19  C   UNL     1      11.269  11.914  -1.489  1.00  0.00     0.098 A 
ATOM     20  C   UNL     1       8.486  12.152  -1.743  1.00  0.00     0.176 A 
ATOM     21  C   UNL     1      10.489  10.764  -1.583  1.00  0.00     0.146 A 
ATOM     22  C   UNL     1       9.085  10.861  -1.727  1.00  0.00     0.111 A 
ATOM     23  O   UNL     1      11.092   9.580  -1.546  1.00  0.00    -0.456 OA
ATOM     24  C   UNL     1       8.372   9.648  -1.890  1.00  0.00     0.197 A 
ATOM     25  C   UNL     1      10.442   8.426  -1.653  1.00  0.00     0.138 A 
ATOM     26  C   UNL     1       9.053   8.432  -1.831  1.00  0.00     0.100 A 
ATOM     27  O   UNL     1       7.137   9.628  -2.134  1.00  0.00    -0.289 OA
BRANCH  18  28
ATOM     28  O   UNL     1       8.706  14.564  -1.817  1.00  0.00    -0.502 OA
ATOM     29  H   UNL     1       8.614  15.057  -2.695  1.00  0.00     0.293 HD
ENDBRANCH  18  28
BRANCH  20  30
ATOM     30  O   UNL     1       7.102  12.337  -1.755  1.00  0.00    -0.504 OA
ATOM     31  H   UNL     1       6.485  11.913  -2.431  1.00  0.00     0.293 HD
ENDBRANCH  20  30
BRANCH  25  32
ATOM     32  C   UNL     1      11.215   7.161  -1.619  1.00  0.00     0.017 A 
ATOM     33  C   UNL     1      12.133   6.828  -2.635  1.00  0.00     0.012 A 
ATOM     34  C   UNL     1      11.031   6.264  -0.552  1.00  0.00     0.012 A 
ATOM     35  C   UNL     1      12.867   5.640  -2.566  1.00  0.00     0.001 A 
ATOM     36  C   UNL     1      11.770   5.079  -0.487  1.00  0.00     0.001 A 
ATOM     37  C   UNL     1      12.689   4.767  -1.491  1.00  0.00     0.000 A 
ENDBRANCH  25  32
ENDBRANCH   1  17
TORSDOF 9
ENDMDL
MODEL 5
REMARK VINA RESULT:    -3.517      2.155      3.973
REMARK INTER + INTRA:          -6.532
REMARK INTER:                  -4.940
REMARK INTRA:                  -1.592
REMARK UNBOUND:                -1.679
REMARK SMILES O=C([O-])[C@H]1O[C@@H](Oc2cc3oc(-c4ccccc4)cc(=O)c3c(O)c2O)[C@@H](O)[C@@H](O)[C@@H]1O
REMARK SMILES IDX 7 1 6 2 4 3 31 4 5 5 29 6 27 7 2 8 1 9 3 10 32 11 30 13
REMARK SMILES IDX 28 15 8 17 25 18 9 19 23 20 10 21 22 22 11 23 20 24 12 25
REMARK SMILES IDX 19 26 21 27 26 28 24 30 13 32 14 33 18 34 15 35 17 36 16 37
REMARK H PARENT 32 12 30 14 28 16 26 29 24 31
REMARK Flexibility Score: inf
ROOT
ATOM      1  O   UNL     1      10.681  11.089  -1.693  1.00  0.00    -0.458 OA
ENDROOT
BRANCH   1   2
ATOM      2  C   UNL     1      11.559  11.556  -0.666  1.00  0.00     0.339 C 
ATOM      3  C   UNL     1      10.347  13.558  -0.192  1.00  0.00     0.199 C 
ATOM      4  C   UNL     1      11.368  14.434  -0.988  1.00  0.00     0.180 C 
ATOM      5  O   UNL     1      10.868  12.329   0.305  1.00  0.00    -0.328 OA
ATOM      6  C   UNL     1      12.261  13.622  -1.950  1.00  0.00     0.181 C 
ATOM      7  C   UNL     1      12.740  12.336  -1.265  1.00  0.00     0.214 C 
BRANCH   3   8
ATOM      8  C   UNL     1       9.028  13.357  -0.902  1.00  0.00     0.073 C 
ATOM      9  O   UNL     1       8.030  12.938  -0.255  1.00  0.00    -0.547 OA
ATOM     10  O   UNL     1       8.896  13.610  -2.263  1.00  0.00    -0.547 OA
ENDBRANCH   3   8
BRANCH   4  11
ATOM     11  O   UNL     1      12.166  15.188  -0.111  1.00  0.00    -0.387 OA
ATOM     12  H   UNL     1      12.110  16.134  -0.399  1.00  0.00     0.211 HD
ENDBRANCH   4  11
BRANCH   6  13
ATOM     13  O   UNL     1      11.556  13.314  -3.125  1.00  0.00    -0.387 OA
ATOM     14  H   UNL     1      11.141  14.157  -3.441  1.00  0.00     0.211 HD
ENDBRANCH   6  13
BRANCH   7  15
ATOM     15  O   UNL     1      13.503  11.536  -2.135  1.00  0.00    -0.384 OA
ATOM     16  H   UNL     1      14.304  11.216  -1.642  1.00  0.00     0.211 HD
ENDBRANCH   7  15
ENDBRANCH   1   2
BRANCH   1  17
ATOM     17  C   UNL     1      10.155   9.793  -1.848  1.00  0.00     0.172 A 
ATOM     18  C   UNL     1       8.778   9.497  -1.993  1.00  0.00     0.201 A 
ATOM     19  C   UNL     1      11.077   8.749  -1.839  1.00  0.00     0.098 A 
ATOM     20  C   UNL     1       8.347   8.157  -2.079  1.00  0.00     0.176 A 
ATOM     21  C   UNL     1      10.674   7.425  -1.990  1.00  0.00     0.146 A 
ATOM     22  C   UNL     1       9.303   7.104  -2.128  1.00  0.00     0.111 A 
ATOM     23  O   UNL     1      11.603   6.474  -2.014  1.00  0.00    -0.456 OA
ATOM     24  C   UNL     1       8.982   5.743  -2.351  1.00  0.00     0.197 A 
ATOM     25  C   UNL     1      11.325   5.185  -2.178  1.00  0.00     0.138 A 
ATOM     26  C   UNL     1       9.995   4.785  -2.354  1.00  0.00     0.100 A 
ATOM     27  O   UNL     1       7.805   5.367  -2.595  1.00  0.00    -0.289 OA
BRANCH  18  28
ATOM     28  O   UNL     1       7.835  10.526  -2.032  1.00  0.00    -0.502 OA
ATOM     29  H   UNL     1       7.709  11.123  -2.837  1.00  0.00     0.293 HD
ENDBRANCH  18  28
BRANCH  20  30
ATOM     30  O   UNL     1       6.970   7.921  -2.081  1.00  0.00    -0.504 OA
ATOM     31  H   UNL     1       6.555   7.024  -2.277  1.00  0.00     0.293 HD
ENDBRANCH  20  30
BRANCH  25  32
ATOM     32  C   UNL     1      12.441   4.208  -2.208  1.00  0.00     0.017 A 
ATOM     33  C   UNL     1      13.563   4.341  -1.365  1.00  0.00     0.012 A 
ATOM     34  C   UNL     1      12.387   3.123  -3.100  1.00  0.00     0.012 A 
ATOM     35  C   UNL     1      14.589   3.392  -1.397  1.00  0.00     0.001 A 
ATOM     36  C   UNL     1      13.415   2.176  -3.125  1.00  0.00     0.001 A 
ATOM     37  C   UNL     1      14.515   2.307  -2.274  1.00  0.00     0.000 A 
ENDBRANCH  25  32
ENDBRANCH   1  17
TORSDOF 9
ENDMDL
MODEL 6
REMARK VINA RESULT:    -3.415      1.928      4.304
REMARK INTER + INTRA:          -6.391
REMARK INTER:                  -4.732
REMARK INTRA:                  -1.659
REMARK UNBOUND:                -1.679
REMARK SMILES O=C([O-])[C@H]1O[C@@H](Oc2cc3oc(-c4ccccc4)cc(=O)c3c(O)c2O)[C@@H](O)[C@@H](O)[C@@H]1O
REMARK SMILES IDX 7 1 6 2 4 3 31 4 5 5 29 6 27 7 2 8 1 9 3 10 32 11 30 13
REMARK SMILES IDX 28 15 8 17 25 18 9 19 23 20 10 21 22 22 11 23 20 24 12 25
REMARK SMILES IDX 19 26 21 27 26 28 24 30 13 32 14 33 18 34 15 35 17 36 16 37
REMARK H PARENT 32 12 30 14 28 16 26 29 24 31
REMARK Flexibility Score: inf
ROOT
ATOM      1  O   UNL     1      10.278  14.176  -1.856  1.00  0.00    -0.458 OA
ENDROOT
BRANCH   1   2
ATOM      2  C   UNL     1       9.980  14.872  -0.644  1.00  0.00     0.339 C 
ATOM      3  C   UNL     1       7.605  14.774  -0.877  1.00  0.00     0.199 C 
ATOM      4  C   UNL     1       7.532  16.263  -1.347  1.00  0.00     0.180 C 
ATOM      5  O   UNL     1       8.744  14.449  -0.085  1.00  0.00    -0.328 OA
ATOM      6  C   UNL     1       8.888  16.830  -1.819  1.00  0.00     0.181 C 
ATOM      7  C   UNL     1      10.003  16.393  -0.862  1.00  0.00     0.214 C 
BRANCH   3   8
ATOM      8  C   UNL     1       7.393  13.770  -1.987  1.00  0.00     0.073 C 
ATOM      9  O   UNL     1       7.019  14.167  -3.123  1.00  0.00    -0.547 OA
ATOM     10  O   UNL     1       7.588  12.409  -1.774  1.00  0.00    -0.547 OA
ENDBRANCH   3   8
BRANCH   4  11
ATOM     11  O   UNL     1       6.996  17.078  -0.335  1.00  0.00    -0.387 OA
ATOM     12  H   UNL     1       6.050  17.256  -0.569  1.00  0.00     0.211 HD
ENDBRANCH   4  11
BRANCH   6  13
ATOM     13  O   UNL     1       9.168  16.395  -3.125  1.00  0.00    -0.387 OA
ATOM     14  H   UNL     1      10.153  16.291  -3.188  1.00  0.00     0.211 HD
ENDBRANCH   6  13
BRANCH   7  15
ATOM     15  O   UNL     1      11.265  16.835  -1.298  1.00  0.00    -0.384 OA
ATOM     16  H   UNL     1      11.320  17.816  -1.152  1.00  0.00     0.211 HD
ENDBRANCH   7  15
ENDBRANCH   1   2
BRANCH   1  17
ATOM     17  C   UNL     1      11.327  13.267  -2.088  1.00  0.00     0.172 A 
ATOM     18  C   UNL     1      12.660  13.638  -2.385  1.00  0.00     0.201 A 
ATOM     19  C   UNL     1      10.995  11.915  -2.028  1.00  0.00     0.098 A 
ATOM     20  C   UNL     1      13.626  12.648  -2.663  1.00  0.00     0.176 A 
ATOM     21  C   UNL     1      11.951  10.924  -2.233  1.00  0.00     0.146 A 
ATOM     22  C   UNL     1      13.288  11.271  -2.540  1.00  0.00     0.111 A 
ATOM     23  O   UNL     1      11.584   9.651  -2.124  1.00  0.00    -0.456 OA
ATOM     24  C   UNL     1      14.214  10.207  -2.662  1.00  0.00     0.197 A 
ATOM     25  C   UNL     1      12.423   8.633  -2.276  1.00  0.00     0.138 A 
ATOM     26  C   UNL     1      13.772   8.889  -2.549  1.00  0.00     0.100 A 
ATOM     27  O   UNL     1      15.447  10.411  -2.824  1.00  0.00    -0.289 OA
BRANCH  18  28
ATOM     28  O   UNL     1      13.027  14.984  -2.426  1.00  0.00    -0.502 OA
ATOM     29  H   UNL     1      12.575  15.692  -1.864  1.00  0.00     0.293 HD
ENDBRANCH  18  28
BRANCH  20  30
ATOM     30  O   UNL     1      14.887  13.076  -3.084  1.00  0.00    -0.504 OA
ATOM     31  H   UNL     1      15.479  13.691  -2.547  1.00  0.00     0.293 HD
ENDBRANCH  20  30
BRANCH  25  32
ATOM     32  C   UNL     1      11.912   7.250  -2.113  1.00  0.00     0.017 A 
ATOM     33  C   UNL     1      12.768   6.132  -2.186  1.00  0.00     0.012 A 
ATOM     34  C   UNL     1      10.541   7.041  -1.884  1.00  0.00     0.012 A 
ATOM     35  C   UNL     1      12.263   4.841  -2.004  1.00  0.00     0.001 A 
ATOM     36  C   UNL     1      10.044   5.748  -1.699  1.00  0.00     0.001 A 
ATOM     37  C   UNL     1      10.903   4.648  -1.757  1.00  0.00     0.000 A 
ENDBRANCH  25  32
ENDBRANCH   1  17
TORSDOF 9
ENDMDL
MODEL 7
REMARK VINA RESULT:    -3.083      1.890      8.178
REMARK INTER + INTRA:          -5.934
REMARK INTER:                  -4.337
REMARK INTRA:                  -1.597
REMARK UNBOUND:                -1.679
REMARK SMILES O=C([O-])[C@H]1O[C@@H](Oc2cc3oc(-c4ccccc4)cc(=O)c3c(O)c2O)[C@@H](O)[C@@H](O)[C@@H]1O
REMARK SMILES IDX 7 1 6 2 4 3 31 4 5 5 29 6 27 7 2 8 1 9 3 10 32 11 30 13
REMARK SMILES IDX 28 15 8 17 25 18 9 19 23 20 10 21 22 22 11 23 20 24 12 25
REMARK SMILES IDX 19 26 21 27 26 28 24 30 13 32 14 33 18 34 15 35 17 36 16 37
REMARK H PARENT 32 12 30 14 28 16 26 29 24 31
REMARK Flexibility Score: inf
ROOT
ATOM      1  O   UNL     1      10.233   9.610  -1.761  1.00  0.00    -0.458 OA
ENDROOT
BRANCH   1   2
ATOM      2  C   UNL     1      10.279   8.878  -2.988  1.00  0.00     0.339 C 
ATOM      3  C   UNL     1       9.133   6.948  -2.172  1.00  0.00     0.199 C 
ATOM      4  C   UNL     1      10.465   6.142  -2.039  1.00  0.00     0.180 C 
ATOM      5  O   UNL     1       9.163   8.008  -3.124  1.00  0.00    -0.328 OA
ATOM      6  C   UNL     1      11.729   7.029  -2.046  1.00  0.00     0.181 C 
ATOM      7  C   UNL     1      11.604   8.113  -3.123  1.00  0.00     0.214 C 
BRANCH   3   8
ATOM      8  C   UNL     1       8.557   7.404  -0.850  1.00  0.00     0.073 C 
ATOM      9  O   UNL     1       9.216   7.226   0.210  1.00  0.00    -0.547 OA
ATOM     10  O   UNL     1       7.304   8.002  -0.778  1.00  0.00    -0.547 OA
ENDBRANCH   3   8
BRANCH   4  11
ATOM     11  O   UNL     1      10.557   5.165  -3.045  1.00  0.00    -0.387 OA
ATOM     12  H   UNL     1      11.183   5.508  -3.733  1.00  0.00     0.211 HD
ENDBRANCH   4  11
BRANCH   6  13
ATOM     13  O   UNL     1      11.917   7.617  -0.784  1.00  0.00    -0.387 OA
ATOM     14  H   UNL     1      12.894   7.630  -0.616  1.00  0.00     0.211 HD
ENDBRANCH   6  13
BRANCH   7  15
ATOM     15  O   UNL     1      12.709   8.984  -3.115  1.00  0.00    -0.384 OA
ATOM     16  H   UNL     1      13.411   8.603  -3.706  1.00  0.00     0.211 HD
ENDBRANCH   7  15
ENDBRANCH   1   2
BRANCH   1  17
ATOM     17  C   UNL     1       9.863  10.955  -1.578  1.00  0.00     0.172 A 
ATOM     18  C   UNL     1       8.529  11.425  -1.546  1.00  0.00     0.201 A 
ATOM     19  C   UNL     1      10.908  11.867  -1.436  1.00  0.00     0.098 A 
ATOM     20  C   UNL     1       8.265  12.805  -1.419  1.00  0.00     0.176 A 
ATOM     21  C   UNL     1      10.664  13.224  -1.242  1.00  0.00     0.146 A 
ATOM     22  C   UNL     1       9.338  13.717  -1.215  1.00  0.00     0.111 A 
ATOM     23  O   UNL     1      11.700  14.040  -1.074  1.00  0.00    -0.456 OA
ATOM     24  C   UNL     1       9.173  15.096  -0.941  1.00  0.00     0.197 A 
ATOM     25  C   UNL     1      11.574  15.345  -0.858  1.00  0.00     0.138 A 
ATOM     26  C   UNL     1      10.295  15.910  -0.784  1.00  0.00     0.100 A 
ATOM     27  O   UNL     1       8.035  15.614  -0.787  1.00  0.00    -0.289 OA
BRANCH  18  28
ATOM     28  O   UNL     1       7.463  10.531  -1.659  1.00  0.00    -0.502 OA
ATOM     29  H   UNL     1       6.626  10.739  -2.186  1.00  0.00     0.293 HD
ENDBRANCH  18  28
BRANCH  20  30
ATOM     30  O   UNL     1       6.937  13.222  -1.532  1.00  0.00    -0.504 OA
ATOM     31  H   UNL     1       6.399  13.155  -2.383  1.00  0.00     0.293 HD
ENDBRANCH  20  30
BRANCH  25  32
ATOM     32  C   UNL     1      12.796  16.162  -0.663  1.00  0.00     0.017 A 
ATOM     33  C   UNL     1      13.801  16.237  -1.649  1.00  0.00     0.012 A 
ATOM     34  C   UNL     1      12.967  16.879   0.535  1.00  0.00     0.012 A 
ATOM     35  C   UNL     1      14.932  17.034  -1.449  1.00  0.00     0.001 A 
ATOM     36  C   UNL     1      14.098  17.677   0.727  1.00  0.00     0.001 A 
ATOM     37  C   UNL     1      15.080  17.757  -0.263  1.00  0.00     0.000 A 
ENDBRANCH  25  32
ENDBRANCH   1  17
TORSDOF 9
ENDMDL
MODEL 8
REMARK VINA RESULT:    -3.052      2.329      4.818
REMARK INTER + INTRA:          -5.891
REMARK INTER:                  -5.885
REMARK INTRA:                  -0.006
REMARK UNBOUND:                -1.679
REMARK SMILES O=C([O-])[C@H]1O[C@@H](Oc2cc3oc(-c4ccccc4)cc(=O)c3c(O)c2O)[C@@H](O)[C@@H](O)[C@@H]1O
REMARK SMILES IDX 7 1 6 2 4 3 31 4 5 5 29 6 27 7 2 8 1 9 3 10 32 11 30 13
REMARK SMILES IDX 28 15 8 17 25 18 9 19 23 20 10 21 22 22 11 23 20 24 12 25
REMARK SMILES IDX 19 26 21 27 26 28 24 30 13 32 14 33 18 34 15 35 17 36 16 37
REMARK H PARENT 32 12 30 14 28 16 26 29 24 31
REMARK Flexibility Score: inf
ROOT
ATOM      1  O   UNL     1      10.318  10.803  -1.437  1.00  0.00    -0.458 OA
ENDROOT
BRANCH   1   2
ATOM      2  C   UNL     1      10.018  12.007  -2.149  1.00  0.00     0.339 C 
ATOM      3  C   UNL     1      12.287  12.613  -2.581  1.00  0.00     0.199 C 
ATOM      4  C   UNL     1      12.277  13.687  -1.446  1.00  0.00     0.180 C 
ATOM      5  O   UNL     1      11.009  12.301  -3.125  1.00  0.00    -0.328 OA
ATOM      6  C   UNL     1      11.121  13.512  -0.438  1.00  0.00     0.181 C 
ATOM      7  C   UNL     1       9.820  13.183  -1.181  1.00  0.00     0.214 C 
BRANCH   3   8
ATOM      8  C   UNL     1      13.066  11.364  -2.236  1.00  0.00     0.073 C 
ATOM      9  O   UNL     1      12.842  10.772  -1.146  1.00  0.00    -0.547 OA
ATOM     10  O   UNL     1      14.040  10.862  -3.092  1.00  0.00    -0.547 OA
ENDBRANCH   3   8
BRANCH   4  11
ATOM     11  O   UNL     1      12.250  14.983  -1.989  1.00  0.00    -0.387 OA
ATOM     12  H   UNL     1      13.045  15.076  -2.573  1.00  0.00     0.211 HD
ENDBRANCH   4  11
BRANCH   6  13
ATOM     13  O   UNL     1      11.427  12.494   0.480  1.00  0.00    -0.387 OA
ATOM     14  H   UNL     1      12.079  11.892   0.036  1.00  0.00     0.211 HD
ENDBRANCH   6  13
BRANCH   7  15
ATOM     15  O   UNL     1       8.757  12.950  -0.290  1.00  0.00    -0.384 OA
ATOM     16  H   UNL     1       8.726  13.699   0.361  1.00  0.00     0.211 HD
ENDBRANCH   7  15
ENDBRANCH   1   2
BRANCH   1  17
ATOM     17  C   UNL     1       9.893   9.497  -1.744  1.00  0.00     0.172 A 
ATOM     18  C   UNL     1       8.562   9.140  -2.063  1.00  0.00     0.201 A 
ATOM     19  C   UNL     1      10.873   8.507  -1.708  1.00  0.00     0.098 A 
ATOM     20  C   UNL     1       8.226   7.789  -2.294  1.00  0.00     0.176 A 
ATOM     21  C   UNL     1      10.572   7.179  -2.000  1.00  0.00     0.146 A 
ATOM     22  C   UNL     1       9.246   6.797  -2.313  1.00  0.00     0.111 A 
ATOM     23  O   UNL     1      11.556   6.285  -1.989  1.00  0.00    -0.456 OA
ATOM     24  C   UNL     1       9.037   5.443  -2.669  1.00  0.00     0.197 A 
ATOM     25  C   UNL     1      11.379   5.001  -2.276  1.00  0.00     0.138 A 
ATOM     26  C   UNL     1      10.103   4.544  -2.629  1.00  0.00     0.100 A 
ATOM     27  O   UNL     1       7.919   5.023  -3.069  1.00  0.00    -0.289 OA
BRANCH  18  28
ATOM     28  O   UNL     1       7.566  10.115  -2.131  1.00  0.00    -0.502 OA
ATOM     29  H   UNL     1       7.268  10.534  -3.001  1.00  0.00     0.293 HD
ENDBRANCH  18  28
BRANCH  20  30
ATOM     30  O   UNL     1       6.875   7.480  -2.467  1.00  0.00    -0.504 OA
ATOM     31  H   UNL     1       6.446   7.323  -3.365  1.00  0.00     0.293 HD
ENDBRANCH  20  30
BRANCH  25  32
ATOM     32  C   UNL     1      12.551   4.091  -2.253  1.00  0.00     0.017 A 
ATOM     33  C   UNL     1      12.619   2.953  -3.082  1.00  0.00     0.012 A 
ATOM     34  C   UNL     1      13.622   4.363  -1.384  1.00  0.00     0.012 A 
ATOM     35  C   UNL     1      13.747   2.126  -3.057  1.00  0.00     0.001 A 
ATOM     36  C   UNL     1      14.747   3.534  -1.367  1.00  0.00     0.001 A 
ATOM     37  C   UNL     1      14.813   2.418  -2.204  1.00  0.00     0.000 A 
ENDBRANCH  25  32
ENDBRANCH   1  17
TORSDOF 9
ENDMDL
MODEL 9
REMARK VINA RESULT:    -2.393      2.064      8.320
REMARK INTER + INTRA:          -4.981
REMARK INTER:                  -3.724
REMARK INTRA:                  -1.257
REMARK UNBOUND:                -1.679
REMARK SMILES O=C([O-])[C@H]1O[C@@H](Oc2cc3oc(-c4ccccc4)cc(=O)c3c(O)c2O)[C@@H](O)[C@@H](O)[C@@H]1O
REMARK SMILES IDX 7 1 6 2 4 3 31 4 5 5 29 6 27 7 2 8 1 9 3 10 32 11 30 13
REMARK SMILES IDX 28 15 8 17 25 18 9 19 23 20 10 21 22 22 11 23 20 24 12 25
REMARK SMILES IDX 19 26 21 27 26 28 24 30 13 32 14 33 18 34 15 35 17 36 16 37
REMARK H PARENT 32 12 30 14 28 16 26 29 24 31
REMARK Flexibility Score: inf
ROOT
ATOM      1  O   UNL     1      11.039   8.613  -2.024  1.00  0.00    -0.458 OA
ENDROOT
BRANCH   1   2
ATOM      2  C   UNL     1      11.042   7.665  -3.095  1.00  0.00     0.339 C 
ATOM      3  C   UNL     1       9.673   6.045  -1.999  1.00  0.00     0.199 C 
ATOM      4  C   UNL     1      10.907   5.148  -1.658  1.00  0.00     0.180 C 
ATOM      5  O   UNL     1       9.844   6.901  -3.124  1.00  0.00    -0.328 OA
ATOM      6  C   UNL     1      12.257   5.887  -1.765  1.00  0.00     0.181 C 
ATOM      7  C   UNL     1      12.281   6.760  -3.025  1.00  0.00     0.214 C 
BRANCH   3   8
ATOM      8  C   UNL     1       9.111   6.792  -0.811  1.00  0.00     0.073 C 
ATOM      9  O   UNL     1       9.755   6.813   0.272  1.00  0.00    -0.547 OA
ATOM     10  O   UNL     1       7.885   7.445  -0.884  1.00  0.00    -0.547 OA
ENDBRANCH   3   8
BRANCH   4  11
ATOM     11  O   UNL     1      10.923   3.997  -2.465  1.00  0.00    -0.387 OA
ATOM     12  H   UNL     1      10.698   3.226  -1.885  1.00  0.00     0.211 HD
ENDBRANCH   4  11
BRANCH   6  13
ATOM     13  O   UNL     1      12.471   6.676  -0.622  1.00  0.00    -0.387 OA
ATOM     14  H   UNL     1      12.175   7.596  -0.848  1.00  0.00     0.211 HD
ENDBRANCH   6  13
BRANCH   7  15
ATOM     15  O   UNL     1      13.472   7.502  -3.121  1.00  0.00    -0.384 OA
ATOM     16  H   UNL     1      14.091   7.022  -3.732  1.00  0.00     0.211 HD
ENDBRANCH   7  15
ENDBRANCH   1   2
BRANCH   1  17
ATOM     17  C   UNL     1      10.503   9.913  -2.031  1.00  0.00     0.172 A 
ATOM     18  C   UNL     1       9.167  10.230  -2.375  1.00  0.00     0.201 A 
ATOM     19  C   UNL     1      11.377  10.942  -1.684  1.00  0.00     0.098 A 
ATOM     20  C   UNL     1       8.744  11.575  -2.411  1.00  0.00     0.176 A 
ATOM     21  C   UNL     1      10.957  12.269  -1.650  1.00  0.00     0.146 A 
ATOM     22  C   UNL     1       9.629  12.610  -1.998  1.00  0.00     0.111 A 
ATOM     23  O   UNL     1      11.825  13.203  -1.273  1.00  0.00    -0.456 OA
ATOM     24  C   UNL     1       9.261  13.971  -1.866  1.00  0.00     0.197 A 
ATOM     25  C   UNL     1      11.518  14.492  -1.183  1.00  0.00     0.138 A 
ATOM     26  C   UNL     1      10.215  14.911  -1.478  1.00  0.00     0.100 A 
ATOM     27  O   UNL     1       8.077  14.362  -2.045  1.00  0.00    -0.289 OA
BRANCH  18  28
ATOM     28  O   UNL     1       8.263   9.218  -2.700  1.00  0.00    -0.502 OA
ATOM     29  H   UNL     1       7.267   9.375  -2.775  1.00  0.00     0.293 HD
ENDBRANCH  18  28
BRANCH  20  30
ATOM     30  O   UNL     1       7.457  11.835  -2.891  1.00  0.00    -0.504 OA
ATOM     31  H   UNL     1       7.267  12.377  -3.719  1.00  0.00     0.293 HD
ENDBRANCH  20  30
BRANCH  25  32
ATOM     32  C   UNL     1      12.559  15.448  -0.733  1.00  0.00     0.017 A 
ATOM     33  C   UNL     1      13.894  15.350  -1.174  1.00  0.00     0.012 A 
ATOM     34  C   UNL     1      12.213  16.479   0.159  1.00  0.00     0.012 A 
ATOM     35  C   UNL     1      14.849  16.280  -0.753  1.00  0.00     0.001 A 
ATOM     36  C   UNL     1      13.172  17.407   0.573  1.00  0.00     0.001 A 
ATOM     37  C   UNL     1      14.489  17.311   0.117  1.00  0.00     0.000 A 
ENDBRANCH  25  32
ENDBRANCH   1  17
TORSDOF 9
ENDMDL
