MODEL 1
REMARK VINA RESULT:    -3.508      0.000      0.000
REMARK INTER + INTRA:          -4.406
REMARK INTER:                  -4.328
REMARK INTRA:                  -0.079
REMARK UNBOUND:                -0.079
REMARK SMILES CCCCCC(=O)[O-]
REMARK SMILES IDX 4 1 5 2 6 3 7 4 8 5 3 6 2 7 1 8
REMARK H PARENT
REMARK Flexibility Score: inf
ROOT
ATOM      1  C   UNL     1      86.749  75.994  68.155  1.00  0.00     0.006 C 
ENDROOT
BRANCH   1   2
ATOM      2  C   UNL     1      87.182  75.142  66.958  1.00  0.00     0.053 C 
BRANCH   2   3
ATOM      3  C   UNL     1      87.407  73.724  67.379  1.00  0.00     0.041 C 
ATOM      4  O   UNL     1      86.623  72.816  66.992  1.00  0.00    -0.550 OA
ATOM      5  O   UNL     1      88.509  73.396  68.158  1.00  0.00    -0.550 OA
ENDBRANCH   2   3
ENDBRANCH   1   2
BRANCH   1   6
ATOM      6  C   UNL     1      87.365  77.396  68.083  1.00  0.00     0.000 C 
BRANCH   6   7
ATOM      7  C   UNL     1      88.319  77.518  66.889  1.00  0.00    -0.003 C 
ATOM      8  C   UNL     1      89.775  77.523  67.346  1.00  0.00     0.004 C 
ENDBRANCH   6   7
ENDBRANCH   1   6
TORSDOF 4
ENDMDL
MODEL 2
REMARK VINA RESULT:    -3.442      2.189      3.297
REMARK INTER + INTRA:          -4.326
REMARK INTER:                  -4.096
REMARK INTRA:                  -0.230
REMARK UNBOUND:                -0.079
REMARK SMILES CCCCCC(=O)[O-]
REMARK SMILES IDX 4 1 5 2 6 3 7 4 8 5 3 6 2 7 1 8
REMARK H PARENT
REMARK Flexibility Score: inf
ROOT
ATOM      1  C   UNL     1      86.426  76.866  67.824  1.00  0.00     0.006 C 
ENDROOT
BRANCH   1   2
ATOM      2  C   UNL     1      87.626  76.955  66.876  1.00  0.00     0.053 C 
BRANCH   2   3
ATOM      3  C   UNL     1      88.870  76.487  67.561  1.00  0.00     0.041 C 
ATOM      4  O   UNL     1      88.977  75.288  67.932  1.00  0.00    -0.550 OA
ATOM      5  O   UNL     1      89.934  77.362  67.746  1.00  0.00    -0.550 OA
ENDBRANCH   2   3
ENDBRANCH   1   2
BRANCH   1   6
ATOM      6  C   UNL     1      86.435  78.019  68.833  1.00  0.00     0.000 C 
BRANCH   6   7
ATOM      7  C   UNL     1      86.579  77.496  70.267  1.00  0.00    -0.003 C 
ATOM      8  C   UNL     1      85.955  76.111  70.412  1.00  0.00     0.004 C 
ENDBRANCH   6   7
ENDBRANCH   1   6
TORSDOF 4
ENDMDL
MODEL 3
REMARK VINA RESULT:    -3.438      2.109      2.542
REMARK INTER + INTRA:          -4.320
REMARK INTER:                  -4.159
REMARK INTRA:                  -0.161
REMARK UNBOUND:                -0.079
REMARK SMILES CCCCCC(=O)[O-]
REMARK SMILES IDX 4 1 5 2 6 3 7 4 8 5 3 6 2 7 1 8
REMARK H PARENT
REMARK Flexibility Score: inf
ROOT
ATOM      1  C   UNL     1      86.295  76.971  67.935  1.00  0.00     0.006 C 
ENDROOT
BRANCH   1   2
ATOM      2  C   UNL     1      86.879  76.754  69.334  1.00  0.00     0.053 C 
BRANCH   2   3
ATOM      3  C   UNL     1      86.329  75.504  69.943  1.00  0.00     0.041 C 
ATOM      4  O   UNL     1      85.385  75.567  70.776  1.00  0.00    -0.550 OA
ATOM      5  O   UNL     1      86.823  74.264  69.556  1.00  0.00    -0.550 OA
ENDBRANCH   2   3
ENDBRANCH   1   2
BRANCH   1   6
ATOM      6  C   UNL     1      87.374  77.446  66.955  1.00  0.00     0.000 C 
BRANCH   6   7
ATOM      7  C   UNL     1      88.662  76.630  67.116  1.00  0.00    -0.003 C 
ATOM      8  C   UNL     1      89.884  77.540  67.192  1.00  0.00     0.004 C 
ENDBRANCH   6   7
ENDBRANCH   1   6
TORSDOF 4
ENDMDL
MODEL 4
REMARK VINA RESULT:    -3.402      2.923      4.088
REMARK INTER + INTRA:          -4.276
REMARK INTER:                  -4.069
REMARK INTRA:                  -0.207
REMARK UNBOUND:                -0.079
REMARK SMILES CCCCCC(=O)[O-]
REMARK SMILES IDX 4 1 5 2 6 3 7 4 8 5 3 6 2 7 1 8
REMARK H PARENT
REMARK Flexibility Score: inf
ROOT
ATOM      1  C   UNL     1      86.808  77.072  70.279  1.00  0.00     0.006 C 
ENDROOT
BRANCH   1   2
ATOM      2  C   UNL     1      86.305  78.078  69.239  1.00  0.00     0.053 C 
BRANCH   2   3
ATOM      3  C   UNL     1      86.620  77.603  67.857  1.00  0.00     0.041 C 
ATOM      4  O   UNL     1      85.758  76.964  67.194  1.00  0.00    -0.550 OA
ATOM      5  O   UNL     1      87.846  77.906  67.277  1.00  0.00    -0.550 OA
ENDBRANCH   2   3
ENDBRANCH   1   2
BRANCH   1   6
ATOM      6  C   UNL     1      85.743  76.010  70.578  1.00  0.00     0.000 C 
BRANCH   6   7
ATOM      7  C   UNL     1      86.367  74.612  70.659  1.00  0.00    -0.003 C 
ATOM      8  C   UNL     1      87.290  74.351  69.473  1.00  0.00     0.004 C 
ENDBRANCH   6   7
ENDBRANCH   1   6
TORSDOF 4
ENDMDL
MODEL 5
REMARK VINA RESULT:    -3.381      2.551      3.609
REMARK INTER + INTRA:          -4.250
REMARK INTER:                  -4.017
REMARK INTRA:                  -0.233
REMARK UNBOUND:                -0.079
REMARK SMILES CCCCCC(=O)[O-]
REMARK SMILES IDX 4 1 5 2 6 3 7 4 8 5 3 6 2 7 1 8
REMARK H PARENT
REMARK Flexibility Score: inf
ROOT
ATOM      1  C   UNL     1      86.930  76.248  69.293  1.00  0.00     0.006 C 
ENDROOT
BRANCH   1   2
ATOM      2  C   UNL     1      85.789  75.878  70.245  1.00  0.00     0.053 C 
BRANCH   2   3
ATOM      3  C   UNL     1      86.114  74.623  70.991  1.00  0.00     0.041 C 
ATOM      4  O   UNL     1      87.260  74.107  70.893  1.00  0.00    -0.550 OA
ATOM      5  O   UNL     1      85.170  74.049  71.833  1.00  0.00    -0.550 OA
ENDBRANCH   2   3
ENDBRANCH   1   2
BRANCH   1   6
ATOM      6  C   UNL     1      86.541  75.980  67.835  1.00  0.00     0.000 C 
BRANCH   6   7
ATOM      7  C   UNL     1      87.560  75.060  67.153  1.00  0.00    -0.003 C 
ATOM      8  C   UNL     1      87.181  73.593  67.328  1.00  0.00     0.004 C 
ENDBRANCH   6   7
ENDBRANCH   1   6
TORSDOF 4
ENDMDL
MODEL 6
REMARK VINA RESULT:    -3.366     13.342     14.208
REMARK INTER + INTRA:          -4.231
REMARK INTER:                  -4.083
REMARK INTRA:                  -0.148
REMARK UNBOUND:                -0.079
REMARK SMILES CCCCCC(=O)[O-]
REMARK SMILES IDX 4 1 5 2 6 3 7 4 8 5 3 6 2 7 1 8
REMARK H PARENT
REMARK Flexibility Score: inf
ROOT
ATOM      1  C   UNL     1      92.189  83.211  77.074  1.00  0.00     0.006 C 
ENDROOT
BRANCH   1   2
ATOM      2  C   UNL     1      93.393  83.540  77.961  1.00  0.00     0.053 C 
BRANCH   2   3
ATOM      3  C   UNL     1      94.400  84.342  77.201  1.00  0.00     0.041 C 
ATOM      4  O   UNL     1      95.601  84.379  77.583  1.00  0.00    -0.550 OA
ATOM      5  O   UNL     1      94.027  85.010  76.041  1.00  0.00    -0.550 OA
ENDBRANCH   2   3
ENDBRANCH   1   2
BRANCH   1   6
ATOM      6  C   UNL     1      90.876  83.608  77.758  1.00  0.00     0.000 C 
BRANCH   6   7
ATOM      7  C   UNL     1      89.793  83.934  76.723  1.00  0.00    -0.003 C 
ATOM      8  C   UNL     1      90.266  85.011  75.752  1.00  0.00     0.004 C 
ENDBRANCH   6   7
ENDBRANCH   1   6
TORSDOF 4
ENDMDL
MODEL 7
REMARK VINA RESULT:    -3.329      2.452      2.889
REMARK INTER + INTRA:          -4.186
REMARK INTER:                  -3.941
REMARK INTRA:                  -0.244
REMARK UNBOUND:                -0.079
REMARK SMILES CCCCCC(=O)[O-]
REMARK SMILES IDX 4 1 5 2 6 3 7 4 8 5 3 6 2 7 1 8
REMARK H PARENT
REMARK Flexibility Score: inf
ROOT
ATOM      1  C   UNL     1      87.876  75.309  68.145  1.00  0.00     0.006 C 
ENDROOT
BRANCH   1   2
ATOM      2  C   UNL     1      87.365  74.065  68.878  1.00  0.00     0.053 C 
BRANCH   2   3
ATOM      3  C   UNL     1      86.939  74.415  70.268  1.00  0.00     0.041 C 
ATOM      4  O   UNL     1      85.865  75.045  70.462  1.00  0.00    -0.550 OA
ATOM      5  O   UNL     1      87.700  74.003  71.355  1.00  0.00    -0.550 OA
ENDBRANCH   2   3
ENDBRANCH   1   2
BRANCH   1   6
ATOM      6  C   UNL     1      87.048  75.583  66.884  1.00  0.00     0.000 C 
BRANCH   6   7
ATOM      7  C   UNL     1      86.012  76.685  67.134  1.00  0.00    -0.003 C 
ATOM      8  C   UNL     1      86.509  77.681  68.177  1.00  0.00     0.004 C 
ENDBRANCH   6   7
ENDBRANCH   1   6
TORSDOF 4
ENDMDL
MODEL 8
REMARK VINA RESULT:    -3.315      1.344      2.529
REMARK INTER + INTRA:          -4.169
REMARK INTER:                  -3.927
REMARK INTRA:                  -0.243
REMARK UNBOUND:                -0.079
REMARK SMILES CCCCCC(=O)[O-]
REMARK SMILES IDX 4 1 5 2 6 3 7 4 8 5 3 6 2 7 1 8
REMARK H PARENT
REMARK Flexibility Score: inf
ROOT
ATOM      1  C   UNL     1      87.471  76.638  67.637  1.00  0.00     0.006 C 
ENDROOT
BRANCH   1   2
ATOM      2  C   UNL     1      86.745  75.433  67.031  1.00  0.00     0.053 C 
BRANCH   2   3
ATOM      3  C   UNL     1      87.280  74.159  67.602  1.00  0.00     0.041 C 
ATOM      4  O   UNL     1      87.842  74.156  68.730  1.00  0.00    -0.550 OA
ATOM      5  O   UNL     1      87.115  72.964  66.912  1.00  0.00    -0.550 OA
ENDBRANCH   2   3
ENDBRANCH   1   2
BRANCH   1   6
ATOM      6  C   UNL     1      86.497  77.541  68.403  1.00  0.00     0.000 C 
BRANCH   6   7
ATOM      7  C   UNL     1      86.757  77.477  69.912  1.00  0.00    -0.003 C 
ATOM      8  C   UNL     1      85.855  76.446  70.583  1.00  0.00     0.004 C 
ENDBRANCH   6   7
ENDBRANCH   1   6
TORSDOF 4
ENDMDL
