MODEL 1
REMARK VINA RESULT:    -2.608      0.000      0.000
REMARK INTER + INTRA:          -2.944
REMARK INTER:                  -2.913
REMARK INTRA:                  -0.032
REMARK UNBOUND:                -0.032
REMARK SMILES CCCC(=O)[O-]
REMARK SMILES IDX 3 1 4 2 5 3 6 4 2 5 1 6
REMARK H PARENT
REMARK Flexibility Score: inf
ROOT
ATOM      1  C   UNL     1      59.125  -6.550   0.573  1.00  0.00     0.052 C 
ENDROOT
BRANCH   1   2
ATOM      2  C   UNL     1      58.067  -6.414   1.623  1.00  0.00     0.041 C 
ATOM      3  O   UNL     1      57.001  -5.792   1.371  1.00  0.00    -0.550 OA
ATOM      4  O   UNL     1      58.279  -6.930   2.895  1.00  0.00    -0.550 OA
ENDBRANCH   1   2
BRANCH   1   5
ATOM      5  C   UNL     1      59.119  -5.331  -0.355  1.00  0.00     0.003 C 
ATOM      6  C   UNL     1      59.124  -5.755  -1.820  1.00  0.00     0.004 C 
ENDBRANCH   1   5
TORSDOF 2
ENDMDL
MODEL 2
REMARK VINA RESULT:    -2.547     25.107     25.618
REMARK INTER + INTRA:          -2.877
REMARK INTER:                  -2.867
REMARK INTRA:                  -0.010
REMARK UNBOUND:                -0.032
REMARK SMILES CCCC(=O)[O-]
REMARK SMILES IDX 3 1 4 2 5 3 6 4 2 5 1 6
REMARK H PARENT
REMARK Flexibility Score: inf
ROOT
ATOM      1  C   UNL     1      40.308   6.291  13.120  1.00  0.00     0.052 C 
ENDROOT
BRANCH   1   2
ATOM      2  C   UNL     1      40.341   7.512  12.255  1.00  0.00     0.041 C 
ATOM      3  O   UNL     1      40.757   7.436  11.069  1.00  0.00    -0.550 OA
ATOM      4  O   UNL     1      39.960   8.743  12.774  1.00  0.00    -0.550 OA
ENDBRANCH   1   2
BRANCH   1   5
ATOM      5  C   UNL     1      38.940   5.608  13.031  1.00  0.00     0.003 C 
ATOM      6  C   UNL     1      39.075   4.091  13.125  1.00  0.00     0.004 C 
ENDBRANCH   1   5
TORSDOF 2
ENDMDL
MODEL 3
REMARK VINA RESULT:    -2.496      2.186      3.381
REMARK INTER + INTRA:          -2.820
REMARK INTER:                  -2.813
REMARK INTRA:                  -0.007
REMARK UNBOUND:                -0.032
REMARK SMILES CCCC(=O)[O-]
REMARK SMILES IDX 3 1 4 2 5 3 6 4 2 5 1 6
REMARK H PARENT
REMARK Flexibility Score: inf
ROOT
ATOM      1  C   UNL     1      57.754  -6.010   1.502  1.00  0.00     0.052 C 
ENDROOT
BRANCH   1   2
ATOM      2  C   UNL     1      58.545  -5.361   0.409  1.00  0.00     0.041 C 
ATOM      3  O   UNL     1      58.693  -4.110   0.392  1.00  0.00    -0.550 OA
ATOM      4  O   UNL     1      59.075  -6.132  -0.618  1.00  0.00    -0.550 OA
ENDBRANCH   1   2
BRANCH   1   5
ATOM      5  C   UNL     1      58.569  -7.125   2.163  1.00  0.00     0.003 C 
ATOM      6  C   UNL     1      58.376  -7.125   3.677  1.00  0.00     0.004 C 
ENDBRANCH   1   5
TORSDOF 2
ENDMDL
MODEL 4
REMARK VINA RESULT:    -2.469     25.119     26.019
REMARK INTER + INTRA:          -2.789
REMARK INTER:                  -2.784
REMARK INTRA:                  -0.006
REMARK UNBOUND:                -0.032
REMARK SMILES CCCC(=O)[O-]
REMARK SMILES IDX 3 1 4 2 5 3 6 4 2 5 1 6
REMARK H PARENT
REMARK Flexibility Score: inf
ROOT
ATOM      1  C   UNL     1      40.327   7.900  12.329  1.00  0.00     0.052 C 
ENDROOT
BRANCH   1   2
ATOM      2  C   UNL     1      40.482   6.478  12.770  1.00  0.00     0.041 C 
ATOM      3  O   UNL     1      41.610   6.045  13.124  1.00  0.00    -0.550 OA
ATOM      4  O   UNL     1      39.391   5.618  12.743  1.00  0.00    -0.550 OA
ENDBRANCH   1   2
BRANCH   1   5
ATOM      5  C   UNL     1      39.215   8.589  13.123  1.00  0.00     0.003 C 
ATOM      6  C   UNL     1      39.266  10.103  12.941  1.00  0.00     0.004 C 
ENDBRANCH   1   5
TORSDOF 2
ENDMDL
MODEL 5
REMARK VINA RESULT:    -2.462      2.136      3.450
REMARK INTER + INTRA:          -2.782
REMARK INTER:                  -2.775
REMARK INTRA:                  -0.008
REMARK UNBOUND:                -0.032
REMARK SMILES CCCC(=O)[O-]
REMARK SMILES IDX 3 1 4 2 5 3 6 4 2 5 1 6
REMARK H PARENT
REMARK Flexibility Score: inf
ROOT
ATOM      1  C   UNL     1      57.771  -6.149   1.498  1.00  0.00     0.052 C 
ENDROOT
BRANCH   1   2
ATOM      2  C   UNL     1      58.524  -5.451   0.409  1.00  0.00     0.041 C 
ATOM      3  O   UNL     1      59.124  -6.119  -0.474  1.00  0.00    -0.550 OA
ATOM      4  O   UNL     1      58.607  -4.064   0.399  1.00  0.00    -0.550 OA
ENDBRANCH   1   2
BRANCH   1   5
ATOM      5  C   UNL     1      58.686  -7.125   2.242  1.00  0.00     0.003 C 
ATOM      6  C   UNL     1      58.425  -7.087   3.745  1.00  0.00     0.004 C 
ENDBRANCH   1   5
TORSDOF 2
ENDMDL
MODEL 6
REMARK VINA RESULT:    -1.724     25.978     26.911
REMARK INTER + INTRA:          -1.957
REMARK INTER:                  -1.952
REMARK INTRA:                  -0.005
REMARK UNBOUND:                -0.032
REMARK SMILES CCCC(=O)[O-]
REMARK SMILES IDX 3 1 4 2 5 3 6 4 2 5 1 6
REMARK H PARENT
REMARK Flexibility Score: inf
ROOT
ATOM      1  C   UNL     1      39.178   8.422  12.759  1.00  0.00     0.052 C 
ENDROOT
BRANCH   1   2
ATOM      2  C   UNL     1      39.285   9.839  12.289  1.00  0.00     0.041 C 
ATOM      3  O   UNL     1      39.359  10.779  13.125  1.00  0.00    -0.550 OA
ATOM      4  O   UNL     1      39.250  10.127  10.931  1.00  0.00    -0.550 OA
ENDBRANCH   1   2
BRANCH   1   5
ATOM      5  C   UNL     1      40.569   7.799  12.900  1.00  0.00     0.003 C 
ATOM      6  C   UNL     1      40.488   6.276  12.950  1.00  0.00     0.004 C 
ENDBRANCH   1   5
TORSDOF 2
ENDMDL
MODEL 7
REMARK VINA RESULT:    -1.063      6.910      7.769
REMARK INTER + INTRA:          -1.219
REMARK INTER:                  -1.276
REMARK INTRA:                   0.056
REMARK UNBOUND:                -0.032
REMARK SMILES CCCC(=O)[O-]
REMARK SMILES IDX 3 1 4 2 5 3 6 4 2 5 1 6
REMARK H PARENT
REMARK Flexibility Score: inf
ROOT
ATOM      1  C   UNL     1      57.916  -2.575  -4.888  1.00  0.00     0.052 C 
ENDROOT
BRANCH   1   2
ATOM      2  C   UNL     1      58.466  -2.035  -6.172  1.00  0.00     0.041 C 
ATOM      3  O   UNL     1      59.107  -2.788  -6.952  1.00  0.00    -0.550 OA
ATOM      4  O   UNL     1      58.314  -0.690  -6.482  1.00  0.00    -0.550 OA
ENDBRANCH   1   2
BRANCH   1   5
ATOM      5  C   UNL     1      59.032  -3.207  -4.052  1.00  0.00     0.003 C 
ATOM      6  C   UNL     1      59.111  -4.712  -4.289  1.00  0.00     0.004 C 
ENDBRANCH   1   5
TORSDOF 2
ENDMDL
