MODEL 1
REMARK VINA RESULT:    -6.914      0.000      0.000
REMARK INTER + INTRA:         -13.034
REMARK INTER:                 -12.169
REMARK INTRA:                  -0.865
REMARK UNBOUND:                -0.865
REMARK SMILES CCCCCCC=CCCCCCCCC(=O)[O-]
REMARK SMILES IDX 10 1 11 2 12 3 13 4 14 5 15 6 16 7 17 8 18 9 9 10 8 11 7 12
REMARK SMILES IDX 6 13 5 14 4 15 3 16 2 17 1 18
REMARK H PARENT
REMARK Flexibility Score: inf
ROOT
ATOM      1  C   UNL     1      11.197  -2.160 -22.346  1.00  0.00     0.004 C 
ENDROOT
BRANCH   1   2
ATOM      2  C   UNL     1      11.381  -1.297 -21.085  1.00  0.00     0.000 C 
BRANCH   2   3
ATOM      3  C   UNL     1      12.762  -0.608 -21.043  1.00  0.00     0.000 C 
BRANCH   3   4
ATOM      4  C   UNL     1      13.415  -0.615 -19.647  1.00  0.00     0.000 C 
BRANCH   4   5
ATOM      5  C   UNL     1      12.425  -0.675 -18.468  1.00  0.00     0.006 C 
BRANCH   5   6
ATOM      6  C   UNL     1      11.965   0.700 -17.957  1.00  0.00     0.053 C 
BRANCH   6   7
ATOM      7  C   UNL     1      13.081   1.457 -17.304  1.00  0.00     0.041 C 
ATOM      8  O   UNL     1      13.346   2.634 -17.665  1.00  0.00    -0.550 OA
ATOM      9  O   UNL     1      13.807   0.874 -16.273  1.00  0.00    -0.550 OA
ENDBRANCH   6   7
ENDBRANCH   5   6
ENDBRANCH   4   5
ENDBRANCH   3   4
ENDBRANCH   2   3
ENDBRANCH   1   2
BRANCH   1  10
ATOM     10  C   UNL     1      12.530  -2.458 -23.042  1.00  0.00     0.027 C 
BRANCH  10  11
ATOM     11  C   UNL     1      12.453  -3.729 -23.856  1.00  0.00    -0.031 C 
ATOM     12  C   UNL     1      13.493  -4.539 -24.130  1.00  0.00    -0.031 C 
BRANCH  12  13
ATOM     13  C   UNL     1      14.900  -4.341 -23.621  1.00  0.00     0.027 C 
BRANCH  13  14
ATOM     14  C   UNL     1      15.945  -4.990 -24.542  1.00  0.00     0.004 C 
BRANCH  14  15
ATOM     15  C   UNL     1      16.327  -4.073 -25.717  1.00  0.00     0.000 C 
BRANCH  15  16
ATOM     16  C   UNL     1      17.705  -3.419 -25.533  1.00  0.00    -0.000 C 
BRANCH  16  17
ATOM     17  C   UNL     1      18.583  -4.168 -24.519  1.00  0.00    -0.003 C 
ATOM     18  C   UNL     1      19.778  -3.319 -24.096  1.00  0.00     0.004 C 
ENDBRANCH  16  17
ENDBRANCH  15  16
ENDBRANCH  14  15
ENDBRANCH  13  14
ENDBRANCH  12  13
ENDBRANCH  10  11
ENDBRANCH   1  10
TORSDOF 13
ENDMDL
MODEL 2
REMARK VINA RESULT:    -6.910      1.546      2.306
REMARK INTER + INTRA:         -13.027
REMARK INTER:                 -12.281
REMARK INTRA:                  -0.746
REMARK UNBOUND:                -0.865
REMARK SMILES CCCCCCC=CCCCCCCCC(=O)[O-]
REMARK SMILES IDX 10 1 11 2 12 3 13 4 14 5 15 6 16 7 17 8 18 9 9 10 8 11 7 12
REMARK SMILES IDX 6 13 5 14 4 15 3 16 2 17 1 18
REMARK H PARENT
REMARK Flexibility Score: inf
ROOT
ATOM      1  C   UNL     1      12.173  -3.889 -23.846  1.00  0.00     0.004 C 
ENDROOT
BRANCH   1   2
ATOM      2  C   UNL     1      12.568  -2.708 -22.942  1.00  0.00     0.000 C 
BRANCH   2   3
ATOM      3  C   UNL     1      11.357  -2.114 -22.192  1.00  0.00     0.000 C 
BRANCH   3   4
ATOM      4  C   UNL     1      11.722  -0.943 -21.258  1.00  0.00     0.000 C 
BRANCH   4   5
ATOM      5  C   UNL     1      11.214  -1.085 -19.811  1.00  0.00     0.006 C 
BRANCH   5   6
ATOM      6  C   UNL     1      11.995  -0.251 -18.782  1.00  0.00     0.053 C 
BRANCH   6   7
ATOM      7  C   UNL     1      13.093  -1.040 -18.138  1.00  0.00     0.041 C 
ATOM      8  O   UNL     1      14.261  -1.002 -18.607  1.00  0.00    -0.550 OA
ATOM      9  O   UNL     1      12.833  -1.792 -16.998  1.00  0.00    -0.550 OA
ENDBRANCH   6   7
ENDBRANCH   5   6
ENDBRANCH   4   5
ENDBRANCH   3   4
ENDBRANCH   2   3
ENDBRANCH   1   2
BRANCH   1  10
ATOM     10  C   UNL     1      13.295  -4.928 -23.962  1.00  0.00     0.027 C 
BRANCH  10  11
ATOM     11  C   UNL     1      13.721  -5.120 -25.399  1.00  0.00    -0.031 C 
ATOM     12  C   UNL     1      14.882  -4.690 -25.928  1.00  0.00    -0.031 C 
BRANCH  12  13
ATOM     13  C   UNL     1      15.978  -3.995 -25.158  1.00  0.00     0.027 C 
BRANCH  13  14
ATOM     14  C   UNL     1      16.916  -4.992 -24.460  1.00  0.00     0.004 C 
BRANCH  14  15
ATOM     15  C   UNL     1      18.367  -4.482 -24.410  1.00  0.00     0.000 C 
BRANCH  15  16
ATOM     16  C   UNL     1      18.566  -3.187 -25.215  1.00  0.00    -0.000 C 
BRANCH  16  17
ATOM     17  C   UNL     1      19.928  -2.529 -24.945  1.00  0.00    -0.003 C 
ATOM     18  C   UNL     1      20.853  -3.475 -24.185  1.00  0.00     0.004 C 
ENDBRANCH  16  17
ENDBRANCH  15  16
ENDBRANCH  14  15
ENDBRANCH  13  14
ENDBRANCH  12  13
ENDBRANCH  10  11
ENDBRANCH   1  10
TORSDOF 13
ENDMDL
MODEL 3
REMARK VINA RESULT:    -6.816      0.968      2.074
REMARK INTER + INTRA:         -12.862
REMARK INTER:                 -12.063
REMARK INTRA:                  -0.799
REMARK UNBOUND:                -0.865
REMARK SMILES CCCCCCC=CCCCCCCCC(=O)[O-]
REMARK SMILES IDX 10 1 11 2 12 3 13 4 14 5 15 6 16 7 17 8 18 9 9 10 8 11 7 12
REMARK SMILES IDX 6 13 5 14 4 15 3 16 2 17 1 18
REMARK H PARENT
REMARK Flexibility Score: inf
ROOT
ATOM      1  C   UNL     1      12.900  -2.461 -23.243  1.00  0.00     0.004 C 
ENDROOT
BRANCH   1   2
ATOM      2  C   UNL     1      11.548  -2.495 -22.510  1.00  0.00     0.000 C 
BRANCH   2   3
ATOM      3  C   UNL     1      11.371  -1.300 -21.549  1.00  0.00     0.000 C 
BRANCH   3   4
ATOM      4  C   UNL     1      12.662  -0.487 -21.329  1.00  0.00     0.000 C 
BRANCH   4   5
ATOM      5  C   UNL     1      13.220  -0.531 -19.894  1.00  0.00     0.006 C 
BRANCH   5   6
ATOM      6  C   UNL     1      12.148  -0.449 -18.796  1.00  0.00     0.053 C 
BRANCH   6   7
ATOM      7  C   UNL     1      12.752  -0.269 -17.436  1.00  0.00     0.041 C 
ATOM      8  O   UNL     1      12.498  -1.090 -16.516  1.00  0.00    -0.550 OA
ATOM      9  O   UNL     1      13.624   0.786 -17.196  1.00  0.00    -0.550 OA
ENDBRANCH   6   7
ENDBRANCH   5   6
ENDBRANCH   4   5
ENDBRANCH   3   4
ENDBRANCH   2   3
ENDBRANCH   1   2
BRANCH   1  10
ATOM     10  C   UNL     1      13.180  -3.764 -24.001  1.00  0.00     0.027 C 
BRANCH  10  11
ATOM     11  C   UNL     1      14.362  -4.499 -23.413  1.00  0.00    -0.031 C 
ATOM     12  C   UNL     1      15.517  -4.752 -24.057  1.00  0.00    -0.031 C 
BRANCH  12  13
ATOM     13  C   UNL     1      15.845  -4.292 -25.456  1.00  0.00     0.027 C 
BRANCH  13  14
ATOM     14  C   UNL     1      17.234  -3.640 -25.540  1.00  0.00     0.004 C 
BRANCH  14  15
ATOM     15  C   UNL     1      18.220  -4.253 -24.531  1.00  0.00     0.000 C 
BRANCH  15  16
ATOM     16  C   UNL     1      19.235  -3.229 -23.999  1.00  0.00    -0.000 C 
BRANCH  16  17
ATOM     17  C   UNL     1      20.670  -3.526 -24.461  1.00  0.00    -0.003 C 
ATOM     18  C   UNL     1      21.125  -2.523 -25.517  1.00  0.00     0.004 C 
ENDBRANCH  16  17
ENDBRANCH  15  16
ENDBRANCH  14  15
ENDBRANCH  13  14
ENDBRANCH  12  13
ENDBRANCH  10  11
ENDBRANCH   1  10
TORSDOF 13
ENDMDL
MODEL 4
REMARK VINA RESULT:    -6.645      4.059      8.250
REMARK INTER + INTRA:         -12.560
REMARK INTER:                 -11.805
REMARK INTRA:                  -0.755
REMARK UNBOUND:                -0.865
REMARK SMILES CCCCCCC=CCCCCCCCC(=O)[O-]
REMARK SMILES IDX 10 1 11 2 12 3 13 4 14 5 15 6 16 7 17 8 18 9 9 10 8 11 7 12
REMARK SMILES IDX 6 13 5 14 4 15 3 16 2 17 1 18
REMARK H PARENT
REMARK Flexibility Score: inf
ROOT
ATOM      1  C   UNL     1      13.553  -5.138 -24.285  1.00  0.00     0.004 C 
ENDROOT
BRANCH   1   2
ATOM      2  C   UNL     1      14.044  -5.015 -25.738  1.00  0.00     0.000 C 
BRANCH   2   3
ATOM      3  C   UNL     1      15.489  -4.481 -25.826  1.00  0.00     0.000 C 
BRANCH   3   4
ATOM      4  C   UNL     1      16.287  -4.637 -24.516  1.00  0.00     0.000 C 
BRANCH   4   5
ATOM      5  C   UNL     1      17.804  -4.830 -24.699  1.00  0.00     0.006 C 
BRANCH   5   6
ATOM      6  C   UNL     1      18.655  -3.639 -24.230  1.00  0.00     0.053 C 
BRANCH   6   7
ATOM      7  C   UNL     1      20.117  -3.867 -24.467  1.00  0.00     0.041 C 
ATOM      8  O   UNL     1      20.939  -3.743 -23.522  1.00  0.00    -0.550 OA
ATOM      9  O   UNL     1      20.566  -4.253 -25.724  1.00  0.00    -0.550 OA
ENDBRANCH   6   7
ENDBRANCH   5   6
ENDBRANCH   4   5
ENDBRANCH   3   4
ENDBRANCH   2   3
ENDBRANCH   1   2
BRANCH   1  10
ATOM     10  C   UNL     1      12.547  -4.040 -23.920  1.00  0.00     0.027 C 
BRANCH  10  11
ATOM     11  C   UNL     1      13.236  -2.852 -23.288  1.00  0.00    -0.031 C 
ATOM     12  C   UNL     1      12.639  -1.938 -22.500  1.00  0.00    -0.031 C 
BRANCH  12  13
ATOM     13  C   UNL     1      11.194  -1.982 -22.068  1.00  0.00     0.027 C 
BRANCH  13  14
ATOM     14  C   UNL     1      10.997  -1.422 -20.650  1.00  0.00     0.004 C 
BRANCH  14  15
ATOM     15  C   UNL     1      12.300  -0.842 -20.073  1.00  0.00     0.000 C 
BRANCH  15  16
ATOM     16  C   UNL     1      12.200  -0.544 -18.569  1.00  0.00    -0.000 C 
BRANCH  16  17
ATOM     17  C   UNL     1      12.387   0.946 -18.248  1.00  0.00    -0.003 C 
ATOM     18  C   UNL     1      12.843   1.144 -16.805  1.00  0.00     0.004 C 
ENDBRANCH  16  17
ENDBRANCH  15  16
ENDBRANCH  14  15
ENDBRANCH  13  14
ENDBRANCH  12  13
ENDBRANCH  10  11
ENDBRANCH   1  10
TORSDOF 13
ENDMDL
MODEL 5
REMARK VINA RESULT:    -6.131      1.736      2.424
REMARK INTER + INTRA:         -11.655
REMARK INTER:                 -11.115
REMARK INTRA:                  -0.540
REMARK UNBOUND:                -0.865
REMARK SMILES CCCCCCC=CCCCCCCCC(=O)[O-]
REMARK SMILES IDX 10 1 11 2 12 3 13 4 14 5 15 6 16 7 17 8 18 9 9 10 8 11 7 12
REMARK SMILES IDX 6 13 5 14 4 15 3 16 2 17 1 18
REMARK H PARENT
REMARK Flexibility Score: inf
ROOT
ATOM      1  C   UNL     1      10.985  -1.014 -21.634  1.00  0.00     0.004 C 
ENDROOT
BRANCH   1   2
ATOM      2  C   UNL     1      11.423  -1.092 -20.161  1.00  0.00     0.000 C 
BRANCH   2   3
ATOM      3  C   UNL     1      10.224  -1.057 -19.190  1.00  0.00     0.000 C 
BRANCH   3   4
ATOM      4  C   UNL     1      10.277   0.110 -18.184  1.00  0.00     0.000 C 
BRANCH   4   5
ATOM      5  C   UNL     1      11.642   0.816 -18.079  1.00  0.00     0.006 C 
BRANCH   5   6
ATOM      6  C   UNL     1      12.544   0.285 -16.954  1.00  0.00     0.053 C 
BRANCH   6   7
ATOM      7  C   UNL     1      13.183  -1.021 -17.317  1.00  0.00     0.041 C 
ATOM      8  O   UNL     1      12.836  -2.080 -16.732  1.00  0.00    -0.550 OA
ATOM      9  O   UNL     1      14.136  -1.072 -18.327  1.00  0.00    -0.550 OA
ENDBRANCH   6   7
ENDBRANCH   5   6
ENDBRANCH   4   5
ENDBRANCH   3   4
ENDBRANCH   2   3
ENDBRANCH   1   2
BRANCH   1  10
ATOM     10  C   UNL     1      11.393  -2.263 -22.425  1.00  0.00     0.027 C 
BRANCH  10  11
ATOM     11  C   UNL     1      12.755  -2.091 -23.058  1.00  0.00    -0.031 C 
ATOM     12  C   UNL     1      13.384  -3.015 -23.808  1.00  0.00    -0.031 C 
BRANCH  12  13
ATOM     13  C   UNL     1      12.806  -4.356 -24.192  1.00  0.00     0.027 C 
BRANCH  13  14
ATOM     14  C   UNL     1      13.890  -5.341 -24.656  1.00  0.00     0.004 C 
BRANCH  14  15
ATOM     15  C   UNL     1      14.474  -4.953 -26.025  1.00  0.00     0.000 C 
BRANCH  15  16
ATOM     16  C   UNL     1      15.944  -4.512 -25.938  1.00  0.00    -0.000 C 
BRANCH  16  17
ATOM     17  C   UNL     1      16.458  -4.454 -24.491  1.00  0.00    -0.003 C 
ATOM     18  C   UNL     1      17.706  -5.315 -24.317  1.00  0.00     0.004 C 
ENDBRANCH  16  17
ENDBRANCH  15  16
ENDBRANCH  14  15
ENDBRANCH  13  14
ENDBRANCH  12  13
ENDBRANCH  10  11
ENDBRANCH   1  10
TORSDOF 13
ENDMDL
MODEL 6
REMARK VINA RESULT:    -5.590      3.841      8.094
REMARK INTER + INTRA:         -10.704
REMARK INTER:                  -9.518
REMARK INTRA:                  -1.186
REMARK UNBOUND:                -0.865
REMARK SMILES CCCCCCC=CCCCCCCCC(=O)[O-]
REMARK SMILES IDX 10 1 11 2 12 3 13 4 14 5 15 6 16 7 17 8 18 9 9 10 8 11 7 12
REMARK SMILES IDX 6 13 5 14 4 15 3 16 2 17 1 18
REMARK H PARENT
REMARK Flexibility Score: inf
ROOT
ATOM      1  C   UNL     1      11.249  -2.919 -22.816  1.00  0.00     0.004 C 
ENDROOT
BRANCH   1   2
ATOM      2  C   UNL     1      11.698  -3.962 -23.854  1.00  0.00     0.000 C 
BRANCH   2   3
ATOM      3  C   UNL     1      13.234  -4.057 -23.964  1.00  0.00     0.000 C 
BRANCH   3   4
ATOM      4  C   UNL     1      13.718  -4.985 -25.096  1.00  0.00     0.000 C 
BRANCH   4   5
ATOM      5  C   UNL     1      15.198  -4.814 -25.487  1.00  0.00     0.006 C 
BRANCH   5   6
ATOM      6  C   UNL     1      16.128  -4.475 -24.311  1.00  0.00     0.053 C 
BRANCH   6   7
ATOM      7  C   UNL     1      17.566  -4.430 -24.730  1.00  0.00     0.041 C 
ATOM      8  O   UNL     1      17.944  -5.032 -25.768  1.00  0.00    -0.550 OA
ATOM      9  O   UNL     1      18.483  -3.692 -23.990  1.00  0.00    -0.550 OA
ENDBRANCH   6   7
ENDBRANCH   5   6
ENDBRANCH   4   5
ENDBRANCH   3   4
ENDBRANCH   2   3
ENDBRANCH   1   2
BRANCH   1  10
ATOM     10  C   UNL     1      12.439  -2.199 -22.170  1.00  0.00     0.027 C 
BRANCH  10  11
ATOM     11  C   UNL     1      12.118  -0.748 -21.893  1.00  0.00    -0.031 C 
ATOM     12  C   UNL     1      12.788   0.044 -21.035  1.00  0.00    -0.031 C 
BRANCH  12  13
ATOM     13  C   UNL     1      14.008  -0.369 -20.249  1.00  0.00     0.027 C 
BRANCH  13  14
ATOM     14  C   UNL     1      13.665  -0.731 -18.796  1.00  0.00     0.004 C 
BRANCH  14  15
ATOM     15  C   UNL     1      12.784   0.338 -18.128  1.00  0.00     0.000 C 
BRANCH  15  16
ATOM     16  C   UNL     1      11.489  -0.245 -17.539  1.00  0.00    -0.000 C 
BRANCH  16  17
ATOM     17  C   UNL     1      10.279  -0.047 -18.463  1.00  0.00    -0.003 C 
ATOM     18  C   UNL     1       9.963  -1.325 -19.235  1.00  0.00     0.004 C 
ENDBRANCH  16  17
ENDBRANCH  15  16
ENDBRANCH  14  15
ENDBRANCH  13  14
ENDBRANCH  12  13
ENDBRANCH  10  11
ENDBRANCH   1  10
TORSDOF 13
ENDMDL
MODEL 7
REMARK VINA RESULT:    -5.578      1.674      2.473
REMARK INTER + INTRA:         -10.681
REMARK INTER:                  -9.643
REMARK INTRA:                  -1.038
REMARK UNBOUND:                -0.865
REMARK SMILES CCCCCCC=CCCCCCCCC(=O)[O-]
REMARK SMILES IDX 10 1 11 2 12 3 13 4 14 5 15 6 16 7 17 8 18 9 9 10 8 11 7 12
REMARK SMILES IDX 6 13 5 14 4 15 3 16 2 17 1 18
REMARK H PARENT
REMARK Flexibility Score: inf
ROOT
ATOM      1  C   UNL     1      12.110  -0.276 -21.380  1.00  0.00     0.004 C 
ENDROOT
BRANCH   1   2
ATOM      2  C   UNL     1      13.293   0.313 -20.593  1.00  0.00     0.000 C 
BRANCH   2   3
ATOM      3  C   UNL     1      13.202   1.848 -20.459  1.00  0.00     0.000 C 
BRANCH   3   4
ATOM      4  C   UNL     1      12.779   2.322 -19.054  1.00  0.00     0.000 C 
BRANCH   4   5
ATOM      5  C   UNL     1      13.272   1.437 -17.894  1.00  0.00     0.006 C 
BRANCH   5   6
ATOM      6  C   UNL     1      12.149   0.847 -17.027  1.00  0.00     0.053 C 
BRANCH   6   7
ATOM      7  C   UNL     1      11.563  -0.391 -17.635  1.00  0.00     0.041 C 
ATOM      8  O   UNL     1      12.241  -1.450 -17.696  1.00  0.00    -0.550 OA
ATOM      9  O   UNL     1      10.255  -0.383 -18.104  1.00  0.00    -0.550 OA
ENDBRANCH   6   7
ENDBRANCH   5   6
ENDBRANCH   4   5
ENDBRANCH   3   4
ENDBRANCH   2   3
ENDBRANCH   1   2
BRANCH   1  10
ATOM     10  C   UNL     1      12.051  -1.805 -21.276  1.00  0.00     0.027 C 
BRANCH  10  11
ATOM     11  C   UNL     1      11.490  -2.420 -22.538  1.00  0.00    -0.031 C 
ATOM     12  C   UNL     1      12.217  -3.036 -23.489  1.00  0.00    -0.031 C 
BRANCH  12  13
ATOM     13  C   UNL     1      13.707  -3.266 -23.426  1.00  0.00     0.027 C 
BRANCH  13  14
ATOM     14  C   UNL     1      14.091  -4.689 -23.862  1.00  0.00     0.004 C 
BRANCH  14  15
ATOM     15  C   UNL     1      14.468  -4.753 -25.352  1.00  0.00     0.000 C 
BRANCH  15  16
ATOM     16  C   UNL     1      15.960  -4.475 -25.598  1.00  0.00    -0.000 C 
BRANCH  16  17
ATOM     17  C   UNL     1      16.833  -4.830 -24.385  1.00  0.00    -0.003 C 
ATOM     18  C   UNL     1      18.295  -4.471 -24.638  1.00  0.00     0.004 C 
ENDBRANCH  16  17
ENDBRANCH  15  16
ENDBRANCH  14  15
ENDBRANCH  13  14
ENDBRANCH  12  13
ENDBRANCH  10  11
ENDBRANCH   1  10
TORSDOF 13
ENDMDL
MODEL 8
REMARK VINA RESULT:    -5.566      1.539      1.872
REMARK INTER + INTRA:         -10.661
REMARK INTER:                  -9.955
REMARK INTRA:                  -0.705
REMARK UNBOUND:                -0.865
REMARK SMILES CCCCCCC=CCCCCCCCC(=O)[O-]
REMARK SMILES IDX 10 1 11 2 12 3 13 4 14 5 15 6 16 7 17 8 18 9 9 10 8 11 7 12
REMARK SMILES IDX 6 13 5 14 4 15 3 16 2 17 1 18
REMARK H PARENT
REMARK Flexibility Score: inf
ROOT
ATOM      1  C   UNL     1      12.050  -1.446 -22.149  1.00  0.00     0.004 C 
ENDROOT
BRANCH   1   2
ATOM      2  C   UNL     1      12.594  -0.895 -20.820  1.00  0.00     0.000 C 
BRANCH   2   3
ATOM      3  C   UNL     1      13.530   0.314 -21.026  1.00  0.00     0.000 C 
BRANCH   3   4
ATOM      4  C   UNL     1      13.102   1.570 -20.241  1.00  0.00     0.000 C 
BRANCH   4   5
ATOM      5  C   UNL     1      13.078   1.402 -18.710  1.00  0.00     0.006 C 
BRANCH   5   6
ATOM      6  C   UNL     1      11.669   1.281 -18.108  1.00  0.00     0.053 C 
BRANCH   6   7
ATOM      7  C   UNL     1      11.381  -0.109 -17.630  1.00  0.00     0.041 C 
ATOM      8  O   UNL     1      12.169  -0.682 -16.833  1.00  0.00    -0.550 OA
ATOM      9  O   UNL     1      10.222  -0.758 -18.039  1.00  0.00    -0.550 OA
ENDBRANCH   6   7
ENDBRANCH   5   6
ENDBRANCH   4   5
ENDBRANCH   3   4
ENDBRANCH   2   3
ENDBRANCH   1   2
BRANCH   1  10
ATOM     10  C   UNL     1      12.988  -2.489 -22.769  1.00  0.00     0.027 C 
BRANCH  10  11
ATOM     11  C   UNL     1      12.227  -3.472 -23.629  1.00  0.00    -0.031 C 
ATOM     12  C   UNL     1      12.779  -4.479 -24.331  1.00  0.00    -0.031 C 
BRANCH  12  13
ATOM     13  C   UNL     1      14.247  -4.831 -24.329  1.00  0.00     0.027 C 
BRANCH  13  14
ATOM     14  C   UNL     1      14.861  -4.755 -25.735  1.00  0.00     0.004 C 
BRANCH  14  15
ATOM     15  C   UNL     1      16.335  -4.316 -25.697  1.00  0.00     0.000 C 
BRANCH  15  16
ATOM     16  C   UNL     1      17.032  -4.693 -24.380  1.00  0.00    -0.000 C 
BRANCH  16  17
ATOM     17  C   UNL     1      18.465  -4.146 -24.292  1.00  0.00    -0.003 C 
ATOM     18  C   UNL     1      18.666  -2.980 -25.255  1.00  0.00     0.004 C 
ENDBRANCH  16  17
ENDBRANCH  15  16
ENDBRANCH  14  15
ENDBRANCH  13  14
ENDBRANCH  12  13
ENDBRANCH  10  11
ENDBRANCH   1  10
TORSDOF 13
ENDMDL
MODEL 9
REMARK VINA RESULT:    -5.185      3.952      7.976
REMARK INTER + INTRA:          -9.991
REMARK INTER:                  -9.313
REMARK INTRA:                  -0.678
REMARK UNBOUND:                -0.865
REMARK SMILES CCCCCCC=CCCCCCCCC(=O)[O-]
REMARK SMILES IDX 10 1 11 2 12 3 13 4 14 5 15 6 16 7 17 8 18 9 9 10 8 11 7 12
REMARK SMILES IDX 6 13 5 14 4 15 3 16 2 17 1 18
REMARK H PARENT
REMARK Flexibility Score: inf
ROOT
ATOM      1  C   UNL     1      12.665  -2.314 -23.627  1.00  0.00     0.004 C 
ENDROOT
BRANCH   1   2
ATOM      2  C   UNL     1      12.845  -3.834 -23.781  1.00  0.00     0.000 C 
BRANCH   2   3
ATOM      3  C   UNL     1      14.319  -4.268 -23.628  1.00  0.00     0.000 C 
BRANCH   3   4
ATOM      4  C   UNL     1      14.817  -5.178 -24.768  1.00  0.00     0.000 C 
BRANCH   4   5
ATOM      5  C   UNL     1      15.653  -4.466 -25.849  1.00  0.00     0.006 C 
BRANCH   5   6
ATOM      6  C   UNL     1      16.864  -3.692 -25.304  1.00  0.00     0.053 C 
BRANCH   6   7
ATOM      7  C   UNL     1      17.994  -4.604 -24.939  1.00  0.00     0.041 C 
ATOM      8  O   UNL     1      17.775  -5.653 -24.279  1.00  0.00    -0.550 OA
ATOM      9  O   UNL     1      19.286  -4.313 -25.360  1.00  0.00    -0.550 OA
ENDBRANCH   6   7
ENDBRANCH   5   6
ENDBRANCH   4   5
ENDBRANCH   3   4
ENDBRANCH   2   3
ENDBRANCH   1   2
BRANCH   1  10
ATOM     10  C   UNL     1      12.100  -1.936 -22.252  1.00  0.00     0.027 C 
BRANCH  10  11
ATOM     11  C   UNL     1      10.799  -2.654 -21.975  1.00  0.00    -0.031 C 
ATOM     12  C   UNL     1       9.895  -2.290 -21.046  1.00  0.00    -0.031 C 
BRANCH  12  13
ATOM     13  C   UNL     1      10.004  -1.070 -20.165  1.00  0.00     0.027 C 
BRANCH  13  14
ATOM     14  C   UNL     1      10.830  -1.344 -18.899  1.00  0.00     0.004 C 
BRANCH  14  15
ATOM     15  C   UNL     1      11.155  -0.050 -18.132  1.00  0.00     0.000 C 
BRANCH  15  16
ATOM     16  C   UNL     1      12.658   0.273 -18.128  1.00  0.00    -0.000 C 
BRANCH  16  17
ATOM     17  C   UNL     1      13.390  -0.311 -19.346  1.00  0.00    -0.003 C 
ATOM     18  C   UNL     1      13.379   0.671 -20.514  1.00  0.00     0.004 C 
ENDBRANCH  16  17
ENDBRANCH  15  16
ENDBRANCH  14  15
ENDBRANCH  13  14
ENDBRANCH  12  13
ENDBRANCH  10  11
ENDBRANCH   1  10
TORSDOF 13
ENDMDL
