MODEL 1
REMARK VINA RESULT:    -2.215      0.000      0.000
REMARK INTER + INTRA:          -2.820
REMARK INTER:                  -3.122
REMARK INTRA:                   0.301
REMARK UNBOUND:                 0.301
REMARK SMILES CC1=CCC(=C(C)C)C(=O)CC(C)=CCC1
REMARK SMILES IDX 12 1 14 2 13 3 15 4 16 5 2 6 1 7 3 8 11 10 9 11 10 12 5 13
REMARK SMILES IDX 6 14 7 15 8 16 4 17
REMARK H PARENT
REMARK Flexibility Score: 60.00
ROOT
ATOM      1  C   UNL     1    -127.234  37.395  17.904  1.00  0.00    -0.070 C 
ATOM      2  C   UNL     1    -126.345  37.779  16.964  1.00  0.00    -0.027 C 
ATOM      3  C   UNL     1    -126.706  36.698  19.133  1.00  0.00     0.039 C 
ENDROOT
BRANCH   2   4
ATOM      4  C   UNL     1    -126.685  38.402  15.627  1.00  0.00     0.032 C 
BRANCH   4   5
ATOM      5  C   UNL     1    -127.022  39.907  15.679  1.00  0.00     0.034 C 
BRANCH   5   6
ATOM      6  C   UNL     1    -128.408  40.227  15.150  1.00  0.00    -0.077 C 
ATOM      7  C   UNL     1    -128.635  40.112  13.663  1.00  0.00     0.039 C 
ATOM      8  C   UNL     1    -129.434  40.676  15.914  1.00  0.00    -0.023 CG0
ATOM      9  G   UNL     1    -129.444  40.851  17.419  1.00  0.00     0.000 G0
ENDBRANCH   5   6
ENDBRANCH   4   5
ENDBRANCH   2   4
BRANCH   1  10
ATOM     10  C   UNL     1    -128.734  37.547  17.743  1.00  0.00     0.111 C 
BRANCH  10  11
ATOM     11  C   UNL     1    -129.286  38.613  18.652  1.00  0.00     0.163 C 
ATOM     12  O   UNL     1    -129.036  38.529  19.885  1.00  0.00    -0.294 OA
BRANCH  11  13
ATOM     13  C   UNL     1    -130.161  39.716  18.154  1.00  0.00    -0.002 C 
ATOM     14  C   UNL     1    -131.519  39.644  18.283  1.00  0.00    -0.069 C 
ATOM     15  C   UNL     1    -132.174  38.528  19.068  1.00  0.00     0.039 C 
ATOM     16  C   UNL     1    -132.439  40.664  17.651  1.00  0.00     0.039 C 
BRANCH  13  17
ATOM     17  C   UNL     1    -129.484  40.863  17.421  1.00  0.00     0.066 CG0
ATOM     18  G   UNL     1    -129.445  40.645  15.922  1.00  0.00     0.000 G0
ENDBRANCH  13  17
ENDBRANCH  11  13
ENDBRANCH  10  11
ENDBRANCH   1  10
TORSDOF 0
ENDMDL
MODEL 2
REMARK VINA RESULT:    -2.201      2.175      5.343
REMARK INTER + INTRA:          -2.800
REMARK INTER:                  -2.901
REMARK INTRA:                   0.101
REMARK UNBOUND:                 0.301
REMARK SMILES CC1=CCC(=C(C)C)C(=O)CC(C)=CCC1
REMARK SMILES IDX 12 1 14 2 13 3 15 4 16 5 2 6 1 7 3 8 11 10 9 11 10 12 5 13
REMARK SMILES IDX 6 14 7 15 8 16 4 17
REMARK H PARENT
REMARK Flexibility Score: 60.00
ROOT
ATOM      1  C   UNL     1    -128.665  40.674  14.964  1.00  0.00    -0.070 C 
ATOM      2  C   UNL     1    -129.875  40.759  15.559  1.00  0.00    -0.027 C 
ATOM      3  C   UNL     1    -128.597  40.865  13.470  1.00  0.00     0.039 C 
ENDROOT
BRANCH   2   4
ATOM      4  C   UNL     1    -130.160  40.504  17.022  1.00  0.00     0.032 C 
BRANCH   4   5
ATOM      5  C   UNL     1    -130.356  39.019  17.396  1.00  0.00     0.034 C 
BRANCH   5   6
ATOM      6  C   UNL     1    -129.542  38.595  18.605  1.00  0.00    -0.077 C 
ATOM      7  C   UNL     1    -129.950  39.138  19.951  1.00  0.00     0.039 C 
ATOM      8  C   UNL     1    -128.432  37.819  18.545  1.00  0.00    -0.023 CG0
ATOM      9  G   UNL     1    -127.849  37.151  17.316  1.00  0.00     0.000 G0
ENDBRANCH   5   6
ENDBRANCH   4   5
ENDBRANCH   2   4
BRANCH   1  10
ATOM     10  C   UNL     1    -127.396  40.309  15.709  1.00  0.00     0.111 C 
BRANCH  10  11
ATOM     11  C   UNL     1    -127.052  38.852  15.540  1.00  0.00     0.163 C 
ATOM     12  O   UNL     1    -127.122  38.356  14.383  1.00  0.00    -0.294 OA
BRANCH  11  13
ATOM     13  C   UNL     1    -126.697  37.974  16.695  1.00  0.00    -0.002 C 
ATOM     14  C   UNL     1    -125.402  37.863  17.116  1.00  0.00    -0.069 C 
ATOM     15  C   UNL     1    -124.311  38.738  16.537  1.00  0.00     0.039 C 
ATOM     16  C   UNL     1    -124.987  36.865  18.175  1.00  0.00     0.039 C 
BRANCH  13  17
ATOM     17  C   UNL     1    -127.815  37.146  17.308  1.00  0.00     0.066 CG0
ATOM     18  G   UNL     1    -128.417  37.809  18.532  1.00  0.00     0.000 G0
ENDBRANCH  13  17
ENDBRANCH  11  13
ENDBRANCH  10  11
ENDBRANCH   1  10
TORSDOF 0
ENDMDL
MODEL 3
REMARK VINA RESULT:    -1.969     12.363     13.732
REMARK INTER + INTRA:          -2.473
REMARK INTER:                  -2.612
REMARK INTRA:                   0.139
REMARK UNBOUND:                 0.301
REMARK SMILES CC1=CCC(=C(C)C)C(=O)CC(C)=CCC1
REMARK SMILES IDX 12 1 14 2 13 3 15 4 16 5 2 6 1 7 3 8 11 10 9 11 10 12 5 13
REMARK SMILES IDX 6 14 7 15 8 16 4 17
REMARK H PARENT
REMARK Flexibility Score: 60.00
ROOT
ATOM      1  C   UNL     1    -125.429  38.393   3.610  1.00  0.00    -0.070 C 
ATOM      2  C   UNL     1    -124.977  37.306   2.949  1.00  0.00    -0.027 C 
ATOM      3  C   UNL     1    -124.445  39.171   4.447  1.00  0.00     0.039 C 
ENDROOT
BRANCH   2   4
ATOM      4  C   UNL     1    -125.824  36.347   2.141  1.00  0.00     0.032 C 
BRANCH   4   5
ATOM      5  C   UNL     1    -126.610  35.315   2.976  1.00  0.00     0.034 C 
BRANCH   5   6
ATOM      6  C   UNL     1    -128.089  35.273   2.635  1.00  0.00    -0.077 C 
ATOM      7  C   UNL     1    -128.480  34.769   1.269  1.00  0.00     0.039 C 
ATOM      8  C   UNL     1    -129.074  35.724   3.450  1.00  0.00    -0.023 CG0
ATOM      9  G   UNL     1    -128.923  36.252   4.863  1.00  0.00     0.000 G0
ENDBRANCH   5   6
ENDBRANCH   4   5
ENDBRANCH   2   4
BRANCH   1  10
ATOM     10  C   UNL     1    -126.886  38.811   3.626  1.00  0.00     0.111 C 
BRANCH  10  11
ATOM     11  C   UNL     1    -127.561  38.428   4.917  1.00  0.00     0.163 C 
ATOM     12  O   UNL     1    -126.936  38.625   5.994  1.00  0.00    -0.294 OA
BRANCH  11  13
ATOM     13  C   UNL     1    -128.902  37.773   4.956  1.00  0.00    -0.002 C 
ATOM     14  C   UNL     1    -130.036  38.513   5.143  1.00  0.00    -0.069 C 
ATOM     15  C   UNL     1    -129.991  40.027   5.160  1.00  0.00     0.039 C 
ATOM     16  C   UNL     1    -131.389  37.868   5.346  1.00  0.00     0.039 C 
BRANCH  13  17
ATOM     17  C   UNL     1    -128.938  36.256   4.875  1.00  0.00     0.066 CG0
ATOM     18  G   UNL     1    -129.083  35.758   3.451  1.00  0.00     0.000 G0
ENDBRANCH  13  17
ENDBRANCH  11  13
ENDBRANCH  10  11
ENDBRANCH   1  10
TORSDOF 0
ENDMDL
MODEL 4
REMARK VINA RESULT:    -1.910     14.165     16.765
REMARK INTER + INTRA:          -2.390
REMARK INTER:                  -2.748
REMARK INTRA:                   0.358
REMARK UNBOUND:                 0.301
REMARK SMILES CC1=CCC(=C(C)C)C(=O)CC(C)=CCC1
REMARK SMILES IDX 12 1 14 2 13 3 15 4 16 5 2 6 1 7 3 8 11 10 9 11 10 12 5 13
REMARK SMILES IDX 6 14 7 15 8 16 4 17
REMARK H PARENT
REMARK Flexibility Score: 60.00
ROOT
ATOM      1  C   UNL     1    -122.441  37.124   2.779  1.00  0.00    -0.070 C 
ATOM      2  C   UNL     1    -123.171  37.487   3.857  1.00  0.00    -0.027 C 
ATOM      3  C   UNL     1    -123.083  36.210   1.766  1.00  0.00     0.039 C 
ENDROOT
BRANCH   2   4
ATOM      4  C   UNL     1    -122.675  38.313   5.023  1.00  0.00     0.032 C 
BRANCH   4   5
ATOM      5  C   UNL     1    -123.012  39.817   4.943  1.00  0.00     0.034 C 
BRANCH   5   6
ATOM      6  C   UNL     1    -121.799  40.711   5.124  1.00  0.00    -0.077 C 
ATOM      7  C   UNL     1    -121.413  41.094   6.530  1.00  0.00     0.039 C 
ATOM      8  C   UNL     1    -121.083  41.244   4.103  1.00  0.00    -0.023 CG0
ATOM      9  G   UNL     1    -121.273  40.988   2.622  1.00  0.00     0.000 G0
ENDBRANCH   5   6
ENDBRANCH   4   5
ENDBRANCH   2   4
BRANCH   1  10
ATOM     10  C   UNL     1    -120.989  37.515   2.589  1.00  0.00     0.111 C 
BRANCH  10  11
ATOM     11  C   UNL     1    -120.845  38.676   1.639  1.00  0.00     0.163 C 
ATOM     12  O   UNL     1    -121.167  38.498   0.433  1.00  0.00    -0.294 OA
BRANCH  11  13
ATOM     13  C   UNL     1    -120.283  39.992   2.062  1.00  0.00    -0.002 C 
ATOM     14  C   UNL     1    -118.936  40.220   2.029  1.00  0.00    -0.069 C 
ATOM     15  C   UNL     1    -117.985  39.213   1.419  1.00  0.00     0.039 C 
ATOM     16  C   UNL     1    -118.323  41.481   2.598  1.00  0.00     0.039 C 
BRANCH  13  17
ATOM     17  C   UNL     1    -121.258  41.020   2.615  1.00  0.00     0.066 CG0
ATOM     18  G   UNL     1    -121.076  41.244   4.103  1.00  0.00     0.000 G0
ENDBRANCH  13  17
ENDBRANCH  11  13
ENDBRANCH  10  11
ENDBRANCH   1  10
TORSDOF 0
ENDMDL
MODEL 5
REMARK VINA RESULT:    -1.814     14.315     16.933
REMARK INTER + INTRA:          -2.254
REMARK INTER:                  -2.502
REMARK INTRA:                   0.247
REMARK UNBOUND:                 0.301
REMARK SMILES CC1=CCC(=C(C)C)C(=O)CC(C)=CCC1
REMARK SMILES IDX 12 1 14 2 13 3 15 4 16 5 2 6 1 7 3 8 11 10 9 11 10 12 5 13
REMARK SMILES IDX 6 14 7 15 8 16 4 17
REMARK H PARENT
REMARK Flexibility Score: 60.00
ROOT
ATOM      1  C   UNL     1    -118.639  39.253   4.798  1.00  0.00    -0.070 C 
ATOM      2  C   UNL     1    -119.567  39.098   5.767  1.00  0.00    -0.027 C 
ATOM      3  C   UNL     1    -117.963  38.016   4.263  1.00  0.00     0.039 C 
ENDROOT
BRANCH   2   4
ATOM      4  C   UNL     1    -120.280  40.217   6.494  1.00  0.00     0.032 C 
BRANCH   4   5
ATOM      5  C   UNL     1    -121.316  40.985   5.646  1.00  0.00     0.034 C 
BRANCH   5   6
ATOM      6  C   UNL     1    -122.068  40.095   4.672  1.00  0.00    -0.077 C 
ATOM      7  C   UNL     1    -123.055  39.109   5.243  1.00  0.00     0.039 C 
ATOM      8  C   UNL     1    -121.859  40.080   3.333  1.00  0.00    -0.023 CG0
ATOM      9  G   UNL     1    -120.939  40.987   2.541  1.00  0.00     0.000 G0
ENDBRANCH   5   6
ENDBRANCH   4   5
ENDBRANCH   2   4
BRANCH   1  10
ATOM     10  C   UNL     1    -118.182  40.607   4.293  1.00  0.00     0.111 C 
BRANCH  10  11
ATOM     11  C   UNL     1    -118.384  40.743   2.806  1.00  0.00     0.163 C 
ATOM     12  O   UNL     1    -117.473  41.296   2.132  1.00  0.00    -0.294 OA
BRANCH  11  13
ATOM     13  C   UNL     1    -119.638  40.306   2.125  1.00  0.00    -0.002 C 
ATOM     14  C   UNL     1    -119.601  39.390   1.112  1.00  0.00    -0.069 C 
ATOM     15  C   UNL     1    -118.318  38.672   0.751  1.00  0.00     0.039 C 
ATOM     16  C   UNL     1    -120.828  39.046   0.298  1.00  0.00     0.039 C 
BRANCH  13  17
ATOM     17  C   UNL     1    -120.930  40.991   2.541  1.00  0.00     0.066 CG0
ATOM     18  G   UNL     1    -121.835  40.076   3.342  1.00  0.00     0.000 G0
ENDBRANCH  13  17
ENDBRANCH  11  13
ENDBRANCH  10  11
ENDBRANCH   1  10
TORSDOF 0
ENDMDL
MODEL 6
REMARK VINA RESULT:    -1.779      2.606      4.623
REMARK INTER + INTRA:          -2.205
REMARK INTER:                  -2.426
REMARK INTRA:                   0.221
REMARK UNBOUND:                 0.301
REMARK SMILES CC1=CCC(=C(C)C)C(=O)CC(C)=CCC1
REMARK SMILES IDX 12 1 14 2 13 3 15 4 16 5 2 6 1 7 3 8 11 10 9 11 10 12 5 13
REMARK SMILES IDX 6 14 7 15 8 16 4 17
REMARK H PARENT
REMARK Flexibility Score: 60.00
ROOT
ATOM      1  C   UNL     1    -125.571  39.848  14.001  1.00  0.00    -0.070 C 
ATOM      2  C   UNL     1    -124.492  39.041  14.097  1.00  0.00    -0.027 C 
ATOM      3  C   UNL     1    -125.858  40.489  12.667  1.00  0.00     0.039 C 
ENDROOT
BRANCH   2   4
ATOM      4  C   UNL     1    -123.986  38.387  15.364  1.00  0.00     0.032 C 
BRANCH   4   5
ATOM      5  C   UNL     1    -124.734  37.100  15.773  1.00  0.00     0.034 C 
BRANCH   5   6
ATOM      6  C   UNL     1    -125.211  37.119  17.214  1.00  0.00    -0.077 C 
ATOM      7  C   UNL     1    -124.167  37.026  18.299  1.00  0.00     0.039 C 
ATOM      8  C   UNL     1    -126.513  37.144  17.588  1.00  0.00    -0.023 CG0
ATOM      9  G   UNL     1    -127.723  37.257  16.682  1.00  0.00     0.000 G0
ENDBRANCH   5   6
ENDBRANCH   4   5
ENDBRANCH   2   4
BRANCH   1  10
ATOM     10  C   UNL     1    -126.446  40.210  15.185  1.00  0.00     0.111 C 
BRANCH  10  11
ATOM     11  C   UNL     1    -127.699  39.375  15.226  1.00  0.00     0.163 C 
ATOM     12  O   UNL     1    -128.395  39.299  14.177  1.00  0.00    -0.294 OA
BRANCH  11  13
ATOM     13  C   UNL     1    -128.169  38.695  16.469  1.00  0.00    -0.002 C 
ATOM     14  C   UNL     1    -128.894  39.376  17.406  1.00  0.00    -0.069 C 
ATOM     15  C   UNL     1    -129.379  40.787  17.151  1.00  0.00     0.039 C 
ATOM     16  C   UNL     1    -129.248  38.765  18.744  1.00  0.00     0.039 C 
BRANCH  13  17
ATOM     17  C   UNL     1    -127.727  37.257  16.685  1.00  0.00     0.066 CG0
ATOM     18  G   UNL     1    -126.531  37.155  17.610  1.00  0.00     0.000 G0
ENDBRANCH  13  17
ENDBRANCH  11  13
ENDBRANCH  10  11
ENDBRANCH   1  10
TORSDOF 0
ENDMDL
MODEL 7
REMARK VINA RESULT:    -1.769     11.962     14.622
REMARK INTER + INTRA:          -2.192
REMARK INTER:                  -2.422
REMARK INTRA:                   0.230
REMARK UNBOUND:                 0.301
REMARK SMILES CC1=CCC(=C(C)C)C(=O)CC(C)=CCC1
REMARK SMILES IDX 12 1 14 2 13 3 15 4 16 5 2 6 1 7 3 8 11 10 9 11 10 12 5 13
REMARK SMILES IDX 6 14 7 15 8 16 4 17
REMARK H PARENT
REMARK Flexibility Score: 60.00
ROOT
ATOM      1  C   UNL     1    -125.524  37.942   3.669  1.00  0.00    -0.070 C 
ATOM      2  C   UNL     1    -124.843  37.317   2.685  1.00  0.00    -0.027 C 
ATOM      3  C   UNL     1    -126.963  38.312   3.407  1.00  0.00     0.039 C 
ENDROOT
BRANCH   2   4
ATOM      4  C   UNL     1    -123.374  36.954   2.719  1.00  0.00     0.032 C 
BRANCH   4   5
ATOM      5  C   UNL     1    -122.427  38.029   2.145  1.00  0.00     0.034 C 
BRANCH   5   6
ATOM      6  C   UNL     1    -121.268  38.358   3.070  1.00  0.00    -0.077 C 
ATOM      7  C   UNL     1    -120.113  37.391   3.118  1.00  0.00     0.039 C 
ATOM      8  C   UNL     1    -121.237  39.426   3.904  1.00  0.00    -0.023 CG0
ATOM      9  G   UNL     1    -122.267  40.532   4.014  1.00  0.00     0.000 G0
ENDBRANCH   5   6
ENDBRANCH   4   5
ENDBRANCH   2   4
BRANCH   1  10
ATOM     10  C   UNL     1    -124.891  38.369   4.978  1.00  0.00     0.111 C 
BRANCH  10  11
ATOM     11  C   UNL     1    -124.549  39.836   4.978  1.00  0.00     0.163 C 
ATOM     12  O   UNL     1    -125.465  40.659   4.706  1.00  0.00    -0.294 OA
BRANCH  11  13
ATOM     13  C   UNL     1    -123.164  40.336   5.226  1.00  0.00    -0.002 C 
ATOM     14  C   UNL     1    -122.762  40.687   6.484  1.00  0.00    -0.069 C 
ATOM     15  C   UNL     1    -123.645  40.436   7.688  1.00  0.00     0.039 C 
ATOM     16  C   UNL     1    -121.424  41.344   6.743  1.00  0.00     0.039 C 
BRANCH  13  17
ATOM     17  C   UNL     1    -122.265  40.524   4.014  1.00  0.00     0.066 CG0
ATOM     18  G   UNL     1    -121.222  39.431   3.895  1.00  0.00     0.000 G0
ENDBRANCH  13  17
ENDBRANCH  11  13
ENDBRANCH  10  11
ENDBRANCH   1  10
TORSDOF 0
ENDMDL
MODEL 8
REMARK VINA RESULT:    -1.753     13.627     15.539
REMARK INTER + INTRA:          -2.169
REMARK INTER:                  -2.502
REMARK INTRA:                   0.333
REMARK UNBOUND:                 0.301
REMARK SMILES CC1=CCC(=C(C)C)C(=O)CC(C)=CCC1
REMARK SMILES IDX 12 1 14 2 13 3 15 4 16 5 2 6 1 7 3 8 11 10 9 11 10 12 5 13
REMARK SMILES IDX 6 14 7 15 8 16 4 17
REMARK H PARENT
REMARK Flexibility Score: 60.00
ROOT
ATOM      1  C   UNL     1    -120.190  41.245   4.470  1.00  0.00    -0.070 C 
ATOM      2  C   UNL     1    -119.532  40.765   3.392  1.00  0.00    -0.027 C 
ATOM      3  C   UNL     1    -119.370  41.754   5.629  1.00  0.00     0.039 C 
ENDROOT
BRANCH   2   4
ATOM      4  C   UNL     1    -120.171  40.126   2.179  1.00  0.00     0.032 C 
BRANCH   4   5
ATOM      5  C   UNL     1    -119.978  38.598   2.073  1.00  0.00     0.034 C 
BRANCH   5   6
ATOM      6  C   UNL     1    -121.248  37.861   1.685  1.00  0.00    -0.077 C 
ATOM      7  C   UNL     1    -121.475  37.578   0.222  1.00  0.00     0.039 C 
ATOM      8  C   UNL     1    -122.221  37.505   2.558  1.00  0.00    -0.023 CG0
ATOM      9  G   UNL     1    -122.203  37.668   4.065  1.00  0.00     0.000 G0
ENDBRANCH   5   6
ENDBRANCH   4   5
ENDBRANCH   2   4
BRANCH   1  10
ATOM     10  C   UNL     1    -121.699  41.213   4.605  1.00  0.00     0.111 C 
BRANCH  10  11
ATOM     11  C   UNL     1    -122.171  39.941   5.261  1.00  0.00     0.163 C 
ATOM     12  O   UNL     1    -121.835  39.731   6.458  1.00  0.00    -0.294 OA
BRANCH  11  13
ATOM     13  C   UNL     1    -122.962  38.908   4.529  1.00  0.00    -0.002 C 
ATOM     14  C   UNL     1    -124.310  39.050   4.358  1.00  0.00    -0.069 C 
ATOM     15  C   UNL     1    -125.022  40.324   4.761  1.00  0.00     0.039 C 
ATOM     16  C   UNL     1    -125.162  37.951   3.763  1.00  0.00     0.039 C 
BRANCH  13  17
ATOM     17  C   UNL     1    -122.221  37.660   4.073  1.00  0.00     0.066 CG0
ATOM     18  G   UNL     1    -122.207  37.518   2.564  1.00  0.00     0.000 G0
ENDBRANCH  13  17
ENDBRANCH  11  13
ENDBRANCH  10  11
ENDBRANCH   1  10
TORSDOF 0
ENDMDL
MODEL 9
REMARK VINA RESULT:    -1.725      1.973      4.237
REMARK INTER + INTRA:          -2.129
REMARK INTER:                  -2.285
REMARK INTRA:                   0.156
REMARK UNBOUND:                 0.301
REMARK SMILES CC1=CCC(=C(C)C)C(=O)CC(C)=CCC1
REMARK SMILES IDX 12 1 14 2 13 3 15 4 16 5 2 6 1 7 3 8 11 10 9 11 10 12 5 13
REMARK SMILES IDX 6 14 7 15 8 16 4 17
REMARK H PARENT
REMARK Flexibility Score: 60.00
ROOT
ATOM      1  C   UNL     1    -130.909  38.644  18.753  1.00  0.00    -0.070 C 
ATOM      2  C   UNL     1    -131.886  39.534  19.027  1.00  0.00    -0.027 C 
ATOM      3  C   UNL     1    -130.063  38.148  19.900  1.00  0.00     0.039 C 
ENDROOT
BRANCH   2   4
ATOM      4  C   UNL     1    -132.771  40.217  18.008  1.00  0.00     0.032 C 
BRANCH   4   5
ATOM      5  C   UNL     1    -132.215  41.546  17.454  1.00  0.00     0.034 C 
BRANCH   5   6
ATOM      6  C   UNL     1    -132.246  41.620  15.937  1.00  0.00    -0.077 C 
ATOM      7  C   UNL     1    -133.576  41.873  15.274  1.00  0.00     0.039 C 
ATOM      8  C   UNL     1    -131.171  41.405  15.140  1.00  0.00    -0.023 CG0
ATOM      9  G   UNL     1    -129.742  41.154  15.579  1.00  0.00     0.000 G0
ENDBRANCH   5   6
ENDBRANCH   4   5
ENDBRANCH   2   4
BRANCH   1  10
ATOM     10  C   UNL     1    -130.564  38.193  17.348  1.00  0.00     0.111 C 
BRANCH  10  11
ATOM     11  C   UNL     1    -129.351  38.910  16.816  1.00  0.00     0.163 C 
ATOM     12  O   UNL     1    -128.305  38.909  17.520  1.00  0.00    -0.294 OA
BRANCH  11  13
ATOM     13  C   UNL     1    -129.367  39.664  15.527  1.00  0.00    -0.002 C 
ATOM     14  C   UNL     1    -128.979  39.064  14.362  1.00  0.00    -0.069 C 
ATOM     15  C   UNL     1    -128.672  37.583  14.306  1.00  0.00     0.039 C 
ATOM     16  C   UNL     1    -128.832  39.841  13.072  1.00  0.00     0.039 C 
BRANCH  13  17
ATOM     17  C   UNL     1    -129.737  41.137  15.587  1.00  0.00     0.066 CG0
ATOM     18  G   UNL     1    -131.163  41.391  15.140  1.00  0.00     0.000 G0
ENDBRANCH  13  17
ENDBRANCH  11  13
ENDBRANCH  10  11
ENDBRANCH   1  10
TORSDOF 0
ENDMDL
