MODEL 1
REMARK VINA RESULT:    -1.970      0.000      0.000
REMARK INTER + INTRA:          -2.936
REMARK INTER:                  -3.006
REMARK INTRA:                   0.070
REMARK UNBOUND:                 0.070
REMARK SMILES CC1=CCC[C@H](C)C(=O)C[C@H](C(C)C)C(=O)C1
REMARK SMILES IDX 8 1 9 2 6 3 7 4 5 5 4 6 3 7 2 8 1 9 10 11 11 12 15 13 16 14
REMARK SMILES IDX 17 15 12 17 13 18 14 19
REMARK H PARENT
REMARK Flexibility Score: 70.00
ROOT
ATOM      1  C   UNL     1       3.002  13.854  -5.004  1.00  0.00     0.136 C 
ATOM      2  O   UNL     1       3.715  13.105  -4.350  1.00  0.00    -0.299 OA
ENDROOT
BRANCH   1   3
ATOM      3  C   UNL     1       2.164  13.257  -6.118  1.00  0.00     0.053 C 
ATOM      4  C   UNL     1       1.469  14.380  -6.902  1.00  0.00     0.016 C 
BRANCH   3   5
ATOM      5  C   UNL     1       3.047  12.375  -7.055  1.00  0.00     0.015 C 
BRANCH   5   6
ATOM      6  C   UNL     1       3.123  12.907  -8.503  1.00  0.00     0.028 C 
BRANCH   6   7
ATOM      7  C   UNL     1       4.525  13.232  -8.976  1.00  0.00    -0.028 C 
ATOM      8  C   UNL     1       5.267  14.316  -8.632  1.00  0.00    -0.070 CG0
ATOM      9  C   UNL     1       6.693  14.363  -9.124  1.00  0.00     0.039 C 
ATOM     10  G   UNL     1       4.727  15.518  -7.869  1.00  0.00     0.000 G0
ENDBRANCH   6   7
ENDBRANCH   5   6
ENDBRANCH   3   5
ENDBRANCH   1   3
BRANCH   1  11
ATOM     11  C   UNL     1       3.037  15.331  -4.658  1.00  0.00     0.087 C 
BRANCH  11  12
ATOM     12  C   UNL     1       4.098  16.231  -5.362  1.00  0.00     0.066 C 
BRANCH  12  13
ATOM     13  C   UNL     1       4.975  15.472  -6.356  1.00  0.00     0.140 C 
ATOM     14  O   UNL     1       5.965  14.892  -5.931  1.00  0.00    -0.299 OA
BRANCH  13  15
ATOM     15  C   UNL     1       4.750  15.541  -7.850  1.00  0.00     0.106 CG0
ATOM     16  G   UNL     1       5.256  14.325  -8.615  1.00  0.00     0.000 G0
ENDBRANCH  13  15
ENDBRANCH  12  13
BRANCH  12  17
ATOM     17  C   UNL     1       3.419  17.454  -6.067  1.00  0.00    -0.006 C 
ATOM     18  C   UNL     1       1.918  17.561  -5.735  1.00  0.00     0.008 C 
ATOM     19  C   UNL     1       4.100  18.787  -5.700  1.00  0.00     0.008 C 
ENDBRANCH  12  17
ENDBRANCH  11  12
ENDBRANCH   1  11
TORSDOF 1
ENDMDL
MODEL 2
REMARK VINA RESULT:    -1.216      2.019      2.900
REMARK INTER + INTRA:          -1.785
REMARK INTER:                  -3.856
REMARK INTRA:                   2.071
REMARK UNBOUND:                 0.070
REMARK SMILES CC1=CCC[C@H](C)C(=O)C[C@H](C(C)C)C(=O)C1
REMARK SMILES IDX 8 1 9 2 6 3 7 4 5 5 4 6 3 7 2 8 1 9 10 11 11 12 15 13 16 14
REMARK SMILES IDX 17 15 12 17 13 18 14 19
REMARK H PARENT
REMARK Flexibility Score: 70.00
ROOT
ATOM      1  C   UNL     1       2.418  13.545  -8.029  1.00  0.00     0.136 C 
ATOM      2  O   UNL     1       2.178  14.033  -9.125  1.00  0.00    -0.299 OA
ENDROOT
BRANCH   1   3
ATOM      3  C   UNL     1       3.326  12.331  -7.967  1.00  0.00     0.053 C 
ATOM      4  C   UNL     1       2.482  11.049  -8.029  1.00  0.00     0.016 C 
BRANCH   3   5
ATOM      5  C   UNL     1       4.377  12.373  -9.119  1.00  0.00     0.015 C 
BRANCH   5   6
ATOM      6  C   UNL     1       5.696  13.070  -8.720  1.00  0.00     0.028 C 
BRANCH   6   7
ATOM      7  C   UNL     1       6.255  12.629  -7.383  1.00  0.00    -0.028 C 
ATOM      8  C   UNL     1       5.988  13.176  -6.170  1.00  0.00    -0.070 CG0
ATOM      9  C   UNL     1       6.559  12.484  -4.956  1.00  0.00     0.039 C 
ATOM     10  G   UNL     1       5.234  14.484  -5.967  1.00  0.00     0.000 G0
ENDBRANCH   6   7
ENDBRANCH   5   6
ENDBRANCH   3   5
ENDBRANCH   1   3
BRANCH   1  11
ATOM     11  C   UNL     1       1.763  14.185  -6.820  1.00  0.00     0.087 C 
BRANCH  11  12
ATOM     12  C   UNL     1       2.643  15.072  -5.886  1.00  0.00     0.066 C 
BRANCH  12  13
ATOM     13  C   UNL     1       3.868  14.345  -5.333  1.00  0.00     0.140 C 
ATOM     14  O   UNL     1       3.754  13.737  -4.278  1.00  0.00    -0.299 OA
BRANCH  13  15
ATOM     15  C   UNL     1       5.238  14.479  -5.959  1.00  0.00     0.106 CG0
ATOM     16  G   UNL     1       5.958  13.154  -6.174  1.00  0.00     0.000 G0
ENDBRANCH  13  15
ENDBRANCH  12  13
BRANCH  12  17
ATOM     17  C   UNL     1       3.081  16.391  -6.611  1.00  0.00    -0.006 C 
ATOM     18  C   UNL     1       3.722  17.404  -5.644  1.00  0.00     0.008 C 
ATOM     19  C   UNL     1       4.066  16.119  -7.764  1.00  0.00     0.008 C 
ENDBRANCH  12  17
ENDBRANCH  11  12
ENDBRANCH   1  11
TORSDOF 1
ENDMDL
MODEL 3
REMARK VINA RESULT:    -1.143      1.969      3.498
REMARK INTER + INTRA:          -1.674
REMARK INTER:                  -2.524
REMARK INTRA:                   0.850
REMARK UNBOUND:                 0.070
REMARK SMILES CC1=CCC[C@H](C)C(=O)C[C@H](C(C)C)C(=O)C1
REMARK SMILES IDX 8 1 9 2 6 3 7 4 5 5 4 6 3 7 2 8 1 9 10 11 11 12 15 13 16 14
REMARK SMILES IDX 17 15 12 17 13 18 14 19
REMARK H PARENT
REMARK Flexibility Score: 70.00
ROOT
ATOM      1  C   UNL     1       3.011  15.103  -8.512  1.00  0.00     0.136 C 
ATOM      2  O   UNL     1       2.300  14.313  -9.117  1.00  0.00    -0.299 OA
ENDROOT
BRANCH   1   3
ATOM      3  C   UNL     1       4.362  15.454  -9.105  1.00  0.00     0.053 C 
ATOM      4  C   UNL     1       4.568  16.975  -9.061  1.00  0.00     0.016 C 
BRANCH   3   5
ATOM      5  C   UNL     1       5.503  14.706  -8.348  1.00  0.00     0.015 C 
BRANCH   5   6
ATOM      6  C   UNL     1       6.019  13.457  -9.096  1.00  0.00     0.028 C 
BRANCH   6   7
ATOM      7  C   UNL     1       5.153  12.226  -8.926  1.00  0.00    -0.028 C 
ATOM      8  C   UNL     1       4.316  11.957  -7.891  1.00  0.00    -0.070 CG0
ATOM      9  C   UNL     1       3.451  10.726  -8.001  1.00  0.00     0.039 C 
ATOM     10  G   UNL     1       4.267  12.761  -6.598  1.00  0.00     0.000 G0
ENDBRANCH   6   7
ENDBRANCH   5   6
ENDBRANCH   3   5
ENDBRANCH   1   3
BRANCH   1  11
ATOM     11  C   UNL     1       2.487  15.651  -7.197  1.00  0.00     0.087 C 
BRANCH  11  12
ATOM     12  C   UNL     1       2.648  14.776  -5.916  1.00  0.00     0.066 C 
BRANCH  12  13
ATOM     13  C   UNL     1       2.893  13.298  -6.215  1.00  0.00     0.140 C 
ATOM     14  O   UNL     1       1.974  12.510  -6.035  1.00  0.00    -0.299 OA
BRANCH  13  15
ATOM     15  C   UNL     1       4.260  12.761  -6.575  1.00  0.00     0.106 CG0
ATOM     16  G   UNL     1       4.301  11.983  -7.883  1.00  0.00     0.000 G0
ENDBRANCH  13  15
ENDBRANCH  12  13
BRANCH  12  17
ATOM     17  C   UNL     1       3.785  15.334  -4.993  1.00  0.00    -0.006 C 
ATOM     18  C   UNL     1       4.179  16.778  -5.361  1.00  0.00     0.008 C 
ATOM     19  C   UNL     1       3.394  15.295  -3.504  1.00  0.00     0.008 C 
ENDBRANCH  12  17
ENDBRANCH  11  12
ENDBRANCH   1  11
TORSDOF 1
ENDMDL
MODEL 4
REMARK VINA RESULT:    -1.010      1.632      4.002
REMARK INTER + INTRA:          -1.471
REMARK INTER:                  -2.012
REMARK INTRA:                   0.541
REMARK UNBOUND:                 0.070
REMARK SMILES CC1=CCC[C@H](C)C(=O)C[C@H](C(C)C)C(=O)C1
REMARK SMILES IDX 8 1 9 2 6 3 7 4 5 5 4 6 3 7 2 8 1 9 10 11 11 12 15 13 16 14
REMARK SMILES IDX 17 15 12 17 13 18 14 19
REMARK H PARENT
REMARK Flexibility Score: 70.00
ROOT
ATOM      1  C   UNL     1       3.326  13.843  -5.044  1.00  0.00     0.136 C 
ATOM      2  O   UNL     1       3.430  13.410  -3.905  1.00  0.00    -0.299 OA
ENDROOT
BRANCH   1   3
ATOM      3  C   UNL     1       2.594  15.155  -5.250  1.00  0.00     0.053 C 
ATOM      4  C   UNL     1       1.585  15.370  -4.113  1.00  0.00     0.016 C 
BRANCH   3   5
ATOM      5  C   UNL     1       3.607  16.339  -5.340  1.00  0.00     0.015 C 
BRANCH   5   6
ATOM      6  C   UNL     1       3.901  16.785  -6.789  1.00  0.00     0.028 C 
BRANCH   6   7
ATOM      7  C   UNL     1       5.010  16.009  -7.468  1.00  0.00    -0.028 C 
ATOM      8  C   UNL     1       4.885  15.176  -8.533  1.00  0.00    -0.070 CG0
ATOM      9  C   UNL     1       6.155  14.614  -9.125  1.00  0.00     0.039 C 
ATOM     10  G   UNL     1       3.553  14.706  -9.102  1.00  0.00     0.000 G0
ENDBRANCH   6   7
ENDBRANCH   5   6
ENDBRANCH   3   5
ENDBRANCH   1   3
BRANCH   1  11
ATOM     11  C   UNL     1       3.922  13.012  -6.165  1.00  0.00     0.087 C 
BRANCH  11  12
ATOM     12  C   UNL     1       3.046  12.734  -7.425  1.00  0.00     0.066 C 
BRANCH  12  13
ATOM     13  C   UNL     1       2.627  14.002  -8.167  1.00  0.00     0.140 C 
ATOM     14  O   UNL     1       1.465  14.372  -8.074  1.00  0.00    -0.299 OA
BRANCH  13  15
ATOM     15  C   UNL     1       3.552  14.720  -9.125  1.00  0.00     0.106 CG0
ATOM     16  G   UNL     1       4.881  15.142  -8.512  1.00  0.00     0.000 G0
ENDBRANCH  13  15
ENDBRANCH  12  13
BRANCH  12  17
ATOM     17  C   UNL     1       3.768  11.748  -8.406  1.00  0.00    -0.006 C 
ATOM     18  C   UNL     1       5.166  11.342  -7.902  1.00  0.00     0.008 C 
ATOM     19  C   UNL     1       2.944  10.471  -8.656  1.00  0.00     0.008 C 
ENDBRANCH  12  17
ENDBRANCH  11  12
ENDBRANCH   1  11
TORSDOF 1
ENDMDL
MODEL 5
REMARK VINA RESULT:    -0.638      2.081      3.676
REMARK INTER + INTRA:          -0.904
REMARK INTER:                  -2.754
REMARK INTRA:                   1.850
REMARK UNBOUND:                 0.070
REMARK SMILES CC1=CCC[C@H](C)C(=O)C[C@H](C(C)C)C(=O)C1
REMARK SMILES IDX 8 1 9 2 6 3 7 4 5 5 4 6 3 7 2 8 1 9 10 11 11 12 15 13 16 14
REMARK SMILES IDX 17 15 12 17 13 18 14 19
REMARK H PARENT
REMARK Flexibility Score: 70.00
ROOT
ATOM      1  C   UNL     1       5.766  13.723  -8.251  1.00  0.00     0.136 C 
ATOM      2  O   UNL     1       6.389  14.314  -9.122  1.00  0.00    -0.299 OA
ENDROOT
BRANCH   1   3
ATOM      3  C   UNL     1       5.541  12.232  -8.413  1.00  0.00     0.053 C 
ATOM      4  C   UNL     1       5.615  11.544  -7.042  1.00  0.00     0.016 C 
BRANCH   3   5
ATOM      5  C   UNL     1       4.173  11.957  -9.111  1.00  0.00     0.015 C 
BRANCH   5   6
ATOM      6  C   UNL     1       3.119  11.336  -8.169  1.00  0.00     0.028 C 
BRANCH   6   7
ATOM      7  C   UNL     1       3.176  11.848  -6.744  1.00  0.00    -0.028 C 
ATOM      8  C   UNL     1       2.570  12.960  -6.256  1.00  0.00    -0.070 CG0
ATOM      9  C   UNL     1       2.659  13.201  -4.769  1.00  0.00     0.039 C 
ATOM     10  G   UNL     1       1.894  14.017  -7.120  1.00  0.00     0.000 G0
ENDBRANCH   6   7
ENDBRANCH   5   6
ENDBRANCH   3   5
ENDBRANCH   1   3
BRANCH   1  11
ATOM     11  C   UNL     1       5.246  14.543  -7.084  1.00  0.00     0.087 C 
BRANCH  11  12
ATOM     12  C   UNL     1       4.068  15.532  -7.343  1.00  0.00     0.066 C 
BRANCH  12  13
ATOM     13  C   UNL     1       2.831  14.862  -7.940  1.00  0.00     0.140 C 
ATOM     14  O   UNL     1       2.541  15.110  -9.102  1.00  0.00    -0.299 OA
BRANCH  13  15
ATOM     15  C   UNL     1       1.879  14.033  -7.107  1.00  0.00     0.106 CG0
ATOM     16  G   UNL     1       2.559  12.972  -6.252  1.00  0.00     0.000 G0
ENDBRANCH  13  15
ENDBRANCH  12  13
BRANCH  12  17
ATOM     17  C   UNL     1       3.684  16.304  -6.035  1.00  0.00    -0.006 C 
ATOM     18  C   UNL     1       4.826  16.307  -5.002  1.00  0.00     0.008 C 
ATOM     19  C   UNL     1       3.274  17.762  -6.322  1.00  0.00     0.008 C 
ENDBRANCH  12  17
ENDBRANCH  11  12
ENDBRANCH   1  11
TORSDOF 1
ENDMDL
MODEL 6
REMARK VINA RESULT:    -0.504      1.989      4.369
REMARK INTER + INTRA:          -0.699
REMARK INTER:                  -1.782
REMARK INTRA:                   1.083
REMARK UNBOUND:                 0.070
REMARK SMILES CC1=CCC[C@H](C)C(=O)C[C@H](C(C)C)C(=O)C1
REMARK SMILES IDX 8 1 9 2 6 3 7 4 5 5 4 6 3 7 2 8 1 9 10 11 11 12 15 13 16 14
REMARK SMILES IDX 17 15 12 17 13 18 14 19
REMARK H PARENT
REMARK Flexibility Score: 70.00
ROOT
ATOM      1  C   UNL     1       4.167  13.118  -5.939  1.00  0.00     0.136 C 
ATOM      2  O   UNL     1       3.635  13.970  -5.240  1.00  0.00    -0.299 OA
ENDROOT
BRANCH   1   3
ATOM      3  C   UNL     1       5.656  13.231  -6.201  1.00  0.00     0.053 C 
ATOM      4  C   UNL     1       6.436  12.620  -5.027  1.00  0.00     0.016 C 
BRANCH   3   5
ATOM      5  C   UNL     1       6.029  12.539  -7.549  1.00  0.00     0.015 C 
BRANCH   5   6
ATOM      6  C   UNL     1       6.297  13.538  -8.696  1.00  0.00     0.028 C 
BRANCH   6   7
ATOM      7  C   UNL     1       5.737  14.926  -8.459  1.00  0.00    -0.028 C 
ATOM      8  C   UNL     1       4.436  15.303  -8.547  1.00  0.00    -0.070 CG0
ATOM      9  C   UNL     1       4.094  16.714  -8.136  1.00  0.00     0.039 C 
ATOM     10  G   UNL     1       3.327  14.428  -9.117  1.00  0.00     0.000 G0
ENDBRANCH   6   7
ENDBRANCH   5   6
ENDBRANCH   3   5
ENDBRANCH   1   3
BRANCH   1  11
ATOM     11  C   UNL     1       3.279  12.027  -6.508  1.00  0.00     0.087 C 
BRANCH  11  12
ATOM     12  C   UNL     1       2.348  12.382  -7.707  1.00  0.00     0.066 C 
BRANCH  12  13
ATOM     13  C   UNL     1       2.377  13.862  -8.083  1.00  0.00     0.140 C 
ATOM     14  O   UNL     1       1.512  14.594  -7.622  1.00  0.00    -0.299 OA
BRANCH  13  15
ATOM     15  C   UNL     1       3.335  14.416  -9.114  1.00  0.00     0.106 CG0
ATOM     16  G   UNL     1       4.434  15.298  -8.535  1.00  0.00     0.000 G0
ENDBRANCH  13  15
ENDBRANCH  12  13
BRANCH  12  17
ATOM     17  C   UNL     1       2.684  11.502  -8.960  1.00  0.00    -0.006 C 
ATOM     18  C   UNL     1       4.156  11.048  -8.977  1.00  0.00     0.008 C 
ATOM     19  C   UNL     1       1.784  10.255  -9.051  1.00  0.00     0.008 C 
ENDBRANCH  12  17
ENDBRANCH  11  12
ENDBRANCH   1  11
TORSDOF 1
ENDMDL
MODEL 7
REMARK VINA RESULT:    -0.377      1.668      2.086
REMARK INTER + INTRA:          -0.505
REMARK INTER:                  -0.724
REMARK INTRA:                   0.219
REMARK UNBOUND:                 0.070
REMARK SMILES CC1=CCC[C@H](C)C(=O)C[C@H](C(C)C)C(=O)C1
REMARK SMILES IDX 8 1 9 2 6 3 7 4 5 5 4 6 3 7 2 8 1 9 10 11 11 12 15 13 16 14
REMARK SMILES IDX 17 15 12 17 13 18 14 19
REMARK H PARENT
REMARK Flexibility Score: 70.00
ROOT
ATOM      1  C   UNL     1       4.072  13.739  -4.961  1.00  0.00     0.136 C 
ATOM      2  O   UNL     1       3.664  13.068  -4.023  1.00  0.00    -0.299 OA
ENDROOT
BRANCH   1   3
ATOM      3  C   UNL     1       5.134  13.143  -5.864  1.00  0.00     0.053 C 
ATOM      4  C   UNL     1       6.340  12.700  -5.022  1.00  0.00     0.016 C 
BRANCH   3   5
ATOM      5  C   UNL     1       4.549  11.952  -6.685  1.00  0.00     0.015 C 
BRANCH   5   6
ATOM      6  C   UNL     1       4.769  12.093  -8.208  1.00  0.00     0.028 C 
BRANCH   6   7
ATOM      7  C   UNL     1       5.609  13.288  -8.610  1.00  0.00    -0.028 C 
ATOM      8  C   UNL     1       5.163  14.544  -8.872  1.00  0.00    -0.070 CG0
ATOM      9  C   UNL     1       6.202  15.609  -9.125  1.00  0.00     0.039 C 
ATOM     10  G   UNL     1       3.694  14.919  -9.017  1.00  0.00     0.000 G0
ENDBRANCH   6   7
ENDBRANCH   5   6
ENDBRANCH   3   5
ENDBRANCH   1   3
BRANCH   1  11
ATOM     11  C   UNL     1       3.493  15.132  -5.127  1.00  0.00     0.087 C 
BRANCH  11  12
ATOM     12  C   UNL     1       3.671  15.848  -6.501  1.00  0.00     0.066 C 
BRANCH  12  13
ATOM     13  C   UNL     1       2.997  15.116  -7.661  1.00  0.00     0.140 C 
ATOM     14  O   UNL     1       1.921  14.573  -7.456  1.00  0.00    -0.299 OA
BRANCH  13  15
ATOM     15  C   UNL     1       3.680  14.913  -8.995  1.00  0.00     0.106 CG0
ATOM     16  G   UNL     1       5.161  14.570  -8.892  1.00  0.00     0.000 G0
ENDBRANCH  13  15
ENDBRANCH  12  13
BRANCH  12  17
ATOM     17  C   UNL     1       3.169  17.330  -6.433  1.00  0.00    -0.006 C 
ATOM     18  C   UNL     1       2.057  17.522  -5.384  1.00  0.00     0.008 C 
ATOM     19  C   UNL     1       4.312  18.317  -6.127  1.00  0.00     0.008 C 
ENDBRANCH  12  17
ENDBRANCH  11  12
ENDBRANCH   1  11
TORSDOF 1
ENDMDL
MODEL 8
REMARK VINA RESULT:    -0.262      1.704      4.769
REMARK INTER + INTRA:          -0.330
REMARK INTER:                  -1.347
REMARK INTRA:                   1.017
REMARK UNBOUND:                 0.070
REMARK SMILES CC1=CCC[C@H](C)C(=O)C[C@H](C(C)C)C(=O)C1
REMARK SMILES IDX 8 1 9 2 6 3 7 4 5 5 4 6 3 7 2 8 1 9 10 11 11 12 15 13 16 14
REMARK SMILES IDX 17 15 12 17 13 18 14 19
REMARK H PARENT
REMARK Flexibility Score: 70.00
ROOT
ATOM      1  C   UNL     1       5.563  13.726  -6.968  1.00  0.00     0.136 C 
ATOM      2  O   UNL     1       5.590  14.438  -5.973  1.00  0.00    -0.299 OA
ENDROOT
BRANCH   1   3
ATOM      3  C   UNL     1       6.018  14.318  -8.288  1.00  0.00     0.053 C 
ATOM      4  C   UNL     1       6.830  13.276  -9.071  1.00  0.00     0.016 C 
BRANCH   3   5
ATOM      5  C   UNL     1       4.792  14.818  -9.115  1.00  0.00     0.015 C 
BRANCH   5   6
ATOM      6  C   UNL     1       4.465  16.310  -8.883  1.00  0.00     0.028 C 
BRANCH   6   7
ATOM      7  C   UNL     1       3.672  16.587  -7.623  1.00  0.00    -0.028 C 
ATOM      8  C   UNL     1       2.842  15.726  -6.979  1.00  0.00    -0.070 CG0
ATOM      9  C   UNL     1       2.260  16.180  -5.662  1.00  0.00     0.039 C 
ATOM     10  G   UNL     1       2.394  14.384  -7.543  1.00  0.00     0.000 G0
ENDBRANCH   6   7
ENDBRANCH   5   6
ENDBRANCH   3   5
ENDBRANCH   1   3
BRANCH   1  11
ATOM     11  C   UNL     1       5.051  12.308  -6.798  1.00  0.00     0.087 C 
BRANCH  11  12
ATOM     12  C   UNL     1       3.536  12.035  -7.047  1.00  0.00     0.066 C 
BRANCH  12  13
ATOM     13  C   UNL     1       2.633  13.199  -6.642  1.00  0.00     0.140 C 
ATOM     14  O   UNL     1       1.998  13.105  -5.601  1.00  0.00    -0.299 OA
BRANCH  13  15
ATOM     15  C   UNL     1       2.384  14.382  -7.550  1.00  0.00     0.106 CG0
ATOM     16  G   UNL     1       2.847  15.716  -6.979  1.00  0.00     0.000 G0
ENDBRANCH  13  15
ENDBRANCH  12  13
BRANCH  12  17
ATOM     17  C   UNL     1       3.273  11.643  -8.541  1.00  0.00    -0.006 C 
ATOM     18  C   UNL     1       4.403  10.773  -9.124  1.00  0.00     0.008 C 
ATOM     19  C   UNL     1       1.936  10.897  -8.718  1.00  0.00     0.008 C 
ENDBRANCH  12  17
ENDBRANCH  11  12
ENDBRANCH   1  11
TORSDOF 1
ENDMDL
MODEL 9
REMARK VINA RESULT:    -0.126      2.119      3.706
REMARK INTER + INTRA:          -0.122
REMARK INTER:                  -0.854
REMARK INTRA:                   0.732
REMARK UNBOUND:                 0.070
REMARK SMILES CC1=CCC[C@H](C)C(=O)C[C@H](C(C)C)C(=O)C1
REMARK SMILES IDX 8 1 9 2 6 3 7 4 5 5 4 6 3 7 2 8 1 9 10 11 11 12 15 13 16 14
REMARK SMILES IDX 17 15 12 17 13 18 14 19
REMARK H PARENT
REMARK Flexibility Score: 70.00
ROOT
ATOM      1  C   UNL     1       3.643  15.138  -5.818  1.00  0.00     0.136 C 
ATOM      2  O   UNL     1       4.183  15.803  -4.944  1.00  0.00    -0.299 OA
ENDROOT
BRANCH   1   3
ATOM      3  C   UNL     1       3.016  15.866  -6.991  1.00  0.00     0.053 C 
ATOM      4  C   UNL     1       4.118  16.452  -7.887  1.00  0.00     0.016 C 
BRANCH   3   5
ATOM      5  C   UNL     1       2.084  14.908  -7.796  1.00  0.00     0.015 C 
BRANCH   5   6
ATOM      6  C   UNL     1       2.759  14.304  -9.047  1.00  0.00     0.028 C 
BRANCH   6   7
ATOM      7  C   UNL     1       2.704  12.792  -9.117  1.00  0.00    -0.028 C 
ATOM      8  C   UNL     1       3.723  11.929  -8.869  1.00  0.00    -0.070 CG0
ATOM      9  C   UNL     1       3.399  10.455  -8.872  1.00  0.00     0.039 C 
ATOM     10  G   UNL     1       5.176  12.349  -8.683  1.00  0.00     0.000 G0
ENDBRANCH   6   7
ENDBRANCH   5   6
ENDBRANCH   3   5
ENDBRANCH   1   3
BRANCH   1  11
ATOM     11  C   UNL     1       3.625  13.631  -5.639  1.00  0.00     0.087 C 
BRANCH  11  12
ATOM     12  C   UNL     1       4.889  12.822  -6.063  1.00  0.00     0.066 C 
BRANCH  12  13
ATOM     13  C   UNL     1       5.418  13.200  -7.445  1.00  0.00     0.140 C 
ATOM     14  O   UNL     1       5.942  14.296  -7.586  1.00  0.00    -0.299 OA
BRANCH  13  15
ATOM     15  C   UNL     1       5.181  12.337  -8.665  1.00  0.00     0.106 CG0
ATOM     16  G   UNL     1       3.727  11.936  -8.873  1.00  0.00     0.000 G0
ENDBRANCH  13  15
ENDBRANCH  12  13
BRANCH  12  17
ATOM     17  C   UNL     1       6.027  12.955  -4.995  1.00  0.00    -0.006 C 
ATOM     18  C   UNL     1       5.495  12.820  -3.555  1.00  0.00     0.008 C 
ATOM     19  C   UNL     1       7.146  11.918  -5.206  1.00  0.00     0.008 C 
ENDBRANCH  12  17
ENDBRANCH  11  12
ENDBRANCH   1  11
TORSDOF 1
ENDMDL
