MODEL 1
REMARK VINA RESULT:    -4.043      0.000      0.000
REMARK INTER + INTRA:          -5.109
REMARK INTER:                  -4.988
REMARK INTRA:                  -0.121
REMARK UNBOUND:                -0.121
REMARK SMILES CCCCCC(=O)[O-]
REMARK SMILES IDX 4 1 5 2 6 3 7 4 8 5 3 6 2 7 1 8
REMARK H PARENT
REMARK Flexibility Score: inf
ROOT
ATOM      1  C   UNL     1     -31.432   7.546   5.615  1.00  0.00     0.006 C 
ENDROOT
BRANCH   1   2
ATOM      2  C   UNL     1     -30.297   6.676   5.059  1.00  0.00     0.053 C 
BRANCH   2   3
ATOM      3  C   UNL     1     -29.262   6.379   6.102  1.00  0.00     0.041 C 
ATOM      4  O   UNL     1     -28.044   6.333   5.791  1.00  0.00    -0.550 OA
ATOM      5  O   UNL     1     -29.644   6.182   7.423  1.00  0.00    -0.550 OA
ENDBRANCH   2   3
ENDBRANCH   1   2
BRANCH   1   6
ATOM      6  C   UNL     1     -32.753   7.331   4.856  1.00  0.00     0.000 C 
BRANCH   6   7
ATOM      7  C   UNL     1     -32.561   6.545   3.550  1.00  0.00    -0.003 C 
ATOM      8  C   UNL     1     -33.565   5.404   3.392  1.00  0.00     0.004 C 
ENDBRANCH   6   7
ENDBRANCH   1   6
TORSDOF 4
ENDMDL
MODEL 2
REMARK VINA RESULT:    -3.946     15.882     17.145
REMARK INTER + INTRA:          -4.990
REMARK INTER:                  -4.867
REMARK INTRA:                  -0.123
REMARK UNBOUND:                -0.121
REMARK SMILES CCCCCC(=O)[O-]
REMARK SMILES IDX 4 1 5 2 6 3 7 4 8 5 3 6 2 7 1 8
REMARK H PARENT
REMARK Flexibility Score: inf
ROOT
ATOM      1  C   UNL     1     -18.758  -6.004   1.075  1.00  0.00     0.006 C 
ENDROOT
BRANCH   1   2
ATOM      2  C   UNL     1     -19.660  -4.869   1.577  1.00  0.00     0.053 C 
BRANCH   2   3
ATOM      3  C   UNL     1     -19.512  -3.632   0.745  1.00  0.00     0.041 C 
ATOM      4  O   UNL     1     -19.425  -3.717  -0.507  1.00  0.00    -0.550 OA
ATOM      5  O   UNL     1     -19.499  -2.383   1.354  1.00  0.00    -0.550 OA
ENDBRANCH   2   3
ENDBRANCH   1   2
BRANCH   1   6
ATOM      6  C   UNL     1     -19.374  -7.392   1.330  1.00  0.00     0.000 C 
BRANCH   6   7
ATOM      7  C   UNL     1     -20.401  -7.378   2.472  1.00  0.00    -0.003 C 
ATOM      8  C   UNL     1     -21.696  -8.107   2.112  1.00  0.00     0.004 C 
ENDBRANCH   6   7
ENDBRANCH   1   6
TORSDOF 4
ENDMDL
MODEL 3
REMARK VINA RESULT:    -3.842      2.939      4.373
REMARK INTER + INTRA:          -4.862
REMARK INTER:                  -4.790
REMARK INTRA:                  -0.072
REMARK UNBOUND:                -0.121
REMARK SMILES CCCCCC(=O)[O-]
REMARK SMILES IDX 4 1 5 2 6 3 7 4 8 5 3 6 2 7 1 8
REMARK H PARENT
REMARK Flexibility Score: inf
ROOT
ATOM      1  C   UNL     1     -30.931   6.664   4.869  1.00  0.00     0.006 C 
ENDROOT
BRANCH   1   2
ATOM      2  C   UNL     1     -32.440   6.654   4.588  1.00  0.00     0.053 C 
BRANCH   2   3
ATOM      3  C   UNL     1     -32.765   5.920   3.323  1.00  0.00     0.041 C 
ATOM      4  O   UNL     1     -31.956   5.929   2.359  1.00  0.00    -0.550 OA
ATOM      5  O   UNL     1     -33.950   5.202   3.221  1.00  0.00    -0.550 OA
ENDBRANCH   2   3
ENDBRANCH   1   2
BRANCH   1   6
ATOM      6  C   UNL     1     -30.610   7.137   6.298  1.00  0.00     0.000 C 
BRANCH   6   7
ATOM      7  C   UNL     1     -29.514   6.291   6.965  1.00  0.00    -0.003 C 
ATOM      8  C   UNL     1     -28.364   5.956   6.016  1.00  0.00     0.004 C 
ENDBRANCH   6   7
ENDBRANCH   1   6
TORSDOF 4
ENDMDL
MODEL 4
REMARK VINA RESULT:    -3.616     16.023     17.289
REMARK INTER + INTRA:          -4.582
REMARK INTER:                  -4.711
REMARK INTRA:                   0.129
REMARK UNBOUND:                -0.121
REMARK SMILES CCCCCC(=O)[O-]
REMARK SMILES IDX 4 1 5 2 6 3 7 4 8 5 3 6 2 7 1 8
REMARK H PARENT
REMARK Flexibility Score: inf
ROOT
ATOM      1  C   UNL     1     -18.740  -6.157   1.289  1.00  0.00     0.006 C 
ENDROOT
BRANCH   1   2
ATOM      2  C   UNL     1     -19.442  -7.518   1.386  1.00  0.00     0.053 C 
BRANCH   2   3
ATOM      3  C   UNL     1     -20.634  -7.466   2.293  1.00  0.00     0.041 C 
ATOM      4  O   UNL     1     -21.743  -7.919   1.909  1.00  0.00    -0.550 OA
ATOM      5  O   UNL     1     -20.509  -6.942   3.574  1.00  0.00    -0.550 OA
ENDBRANCH   2   3
ENDBRANCH   1   2
BRANCH   1   6
ATOM      6  C   UNL     1     -19.739  -4.986   1.308  1.00  0.00     0.000 C 
BRANCH   6   7
ATOM      7  C   UNL     1     -19.370  -3.882   0.306  1.00  0.00    -0.003 C 
ATOM      8  C   UNL     1     -19.970  -2.524   0.673  1.00  0.00     0.004 C 
ENDBRANCH   6   7
ENDBRANCH   1   6
TORSDOF 4
ENDMDL
MODEL 5
REMARK VINA RESULT:    -3.251     17.538     18.497
REMARK INTER + INTRA:          -4.132
REMARK INTER:                  -4.034
REMARK INTRA:                  -0.098
REMARK UNBOUND:                -0.121
REMARK SMILES CCCCCC(=O)[O-]
REMARK SMILES IDX 4 1 5 2 6 3 7 4 8 5 3 6 2 7 1 8
REMARK H PARENT
REMARK Flexibility Score: inf
ROOT
ATOM      1  C   UNL     1     -33.776 -11.930   2.694  1.00  0.00     0.006 C 
ENDROOT
BRANCH   1   2
ATOM      2  C   UNL     1     -34.829 -11.308   1.767  1.00  0.00     0.053 C 
BRANCH   2   3
ATOM      3  C   UNL     1     -35.797 -10.449   2.523  1.00  0.00     0.041 C 
ATOM      4  O   UNL     1     -36.555 -10.958   3.388  1.00  0.00    -0.550 OA
ATOM      5  O   UNL     1     -35.839  -9.079   2.290  1.00  0.00    -0.550 OA
ENDBRANCH   2   3
ENDBRANCH   1   2
BRANCH   1   6
ATOM      6  C   UNL     1     -32.402 -12.052   2.011  1.00  0.00     0.000 C 
BRANCH   6   7
ATOM      7  C   UNL     1     -31.296 -11.310   2.778  1.00  0.00    -0.003 C 
ATOM      8  C   UNL     1     -31.718 -10.920   4.195  1.00  0.00     0.004 C 
ENDBRANCH   6   7
ENDBRANCH   1   6
TORSDOF 4
ENDMDL
MODEL 6
REMARK VINA RESULT:    -3.233     14.256     15.885
REMARK INTER + INTRA:          -4.110
REMARK INTER:                  -4.052
REMARK INTRA:                  -0.058
REMARK UNBOUND:                -0.121
REMARK SMILES CCCCCC(=O)[O-]
REMARK SMILES IDX 4 1 5 2 6 3 7 4 8 5 3 6 2 7 1 8
REMARK H PARENT
REMARK Flexibility Score: inf
ROOT
ATOM      1  C   UNL     1     -37.452  -6.057  -0.772  1.00  0.00     0.006 C 
ENDROOT
BRANCH   1   2
ATOM      2  C   UNL     1     -37.699  -7.460  -1.343  1.00  0.00     0.053 C 
BRANCH   2   3
ATOM      3  C   UNL     1     -36.618  -8.419  -0.948  1.00  0.00     0.041 C 
ATOM      4  O   UNL     1     -36.086  -9.165  -1.810  1.00  0.00    -0.550 OA
ATOM      5  O   UNL     1     -36.179  -8.467   0.370  1.00  0.00    -0.550 OA
ENDBRANCH   2   3
ENDBRANCH   1   2
BRANCH   1   6
ATOM      6  C   UNL     1     -37.815  -4.949  -1.776  1.00  0.00     0.000 C 
BRANCH   6   7
ATOM      7  C   UNL     1     -37.091  -3.627  -1.481  1.00  0.00    -0.003 C 
ATOM      8  C   UNL     1     -37.462  -3.039  -0.119  1.00  0.00     0.004 C 
ENDBRANCH   6   7
ENDBRANCH   1   6
TORSDOF 4
ENDMDL
MODEL 7
REMARK VINA RESULT:    -3.218     17.620     18.436
REMARK INTER + INTRA:          -4.091
REMARK INTER:                  -3.970
REMARK INTRA:                  -0.121
REMARK UNBOUND:                -0.121
REMARK SMILES CCCCCC(=O)[O-]
REMARK SMILES IDX 4 1 5 2 6 3 7 4 8 5 3 6 2 7 1 8
REMARK H PARENT
REMARK Flexibility Score: inf
ROOT
ATOM      1  C   UNL     1     -32.829 -12.125   2.296  1.00  0.00     0.006 C 
ENDROOT
BRANCH   1   2
ATOM      2  C   UNL     1     -34.048 -11.577   3.051  1.00  0.00     0.053 C 
BRANCH   2   3
ATOM      3  C   UNL     1     -34.931 -10.756   2.161  1.00  0.00     0.041 C 
ATOM      4  O   UNL     1     -35.149 -11.119   0.976  1.00  0.00    -0.550 OA
ATOM      5  O   UNL     1     -35.536  -9.606   2.652  1.00  0.00    -0.550 OA
ENDBRANCH   2   3
ENDBRANCH   1   2
BRANCH   1   6
ATOM      6  C   UNL     1     -31.537 -11.368   2.651  1.00  0.00     0.000 C 
BRANCH   6   7
ATOM      7  C   UNL     1     -31.495 -10.936   4.125  1.00  0.00    -0.003 C 
ATOM      8  C   UNL     1     -30.074 -10.867   4.682  1.00  0.00     0.004 C 
ENDBRANCH   6   7
ENDBRANCH   1   6
TORSDOF 4
ENDMDL
MODEL 8
REMARK VINA RESULT:    -3.159     16.958     17.770
REMARK INTER + INTRA:          -4.019
REMARK INTER:                  -3.960
REMARK INTRA:                  -0.059
REMARK UNBOUND:                -0.121
REMARK SMILES CCCCCC(=O)[O-]
REMARK SMILES IDX 4 1 5 2 6 3 7 4 8 5 3 6 2 7 1 8
REMARK H PARENT
REMARK Flexibility Score: inf
ROOT
ATOM      1  C   UNL     1     -34.376 -11.371   2.937  1.00  0.00     0.006 C 
ENDROOT
BRANCH   1   2
ATOM      2  C   UNL     1     -32.985 -11.751   2.411  1.00  0.00     0.053 C 
BRANCH   2   3
ATOM      3  C   UNL     1     -31.896 -11.264   3.319  1.00  0.00     0.041 C 
ATOM      4  O   UNL     1     -32.122 -11.091   4.544  1.00  0.00    -0.550 OA
ATOM      5  O   UNL     1     -30.623 -11.029   2.813  1.00  0.00    -0.550 OA
ENDBRANCH   2   3
ENDBRANCH   1   2
BRANCH   1   6
ATOM      6  C   UNL     1     -35.305 -10.877   1.814  1.00  0.00     0.000 C 
BRANCH   6   7
ATOM      7  C   UNL     1     -35.905  -9.495   2.112  1.00  0.00    -0.003 C 
ATOM      8  C   UNL     1     -36.352  -8.758   0.849  1.00  0.00     0.004 C 
ENDBRANCH   6   7
ENDBRANCH   1   6
TORSDOF 4
ENDMDL
MODEL 9
REMARK VINA RESULT:    -3.056     13.676     15.429
REMARK INTER + INTRA:          -3.892
REMARK INTER:                  -3.761
REMARK INTRA:                  -0.131
REMARK UNBOUND:                -0.121
REMARK SMILES CCCCCC(=O)[O-]
REMARK SMILES IDX 4 1 5 2 6 3 7 4 8 5 3 6 2 7 1 8
REMARK H PARENT
REMARK Flexibility Score: inf
ROOT
ATOM      1  C   UNL     1     -38.125  -6.071  -1.696  1.00  0.00     0.006 C 
ENDROOT
BRANCH   1   2
ATOM      2  C   UNL     1     -38.056  -5.105  -0.506  1.00  0.00     0.053 C 
BRANCH   2   3
ATOM      3  C   UNL     1     -37.441  -3.793  -0.890  1.00  0.00     0.041 C 
ATOM      4  O   UNL     1     -37.004  -3.615  -2.056  1.00  0.00    -0.550 OA
ATOM      5  O   UNL     1     -37.379  -2.757   0.034  1.00  0.00    -0.550 OA
ENDBRANCH   2   3
ENDBRANCH   1   2
BRANCH   1   6
ATOM      6  C   UNL     1     -37.853  -7.527  -1.278  1.00  0.00     0.000 C 
BRANCH   6   7
ATOM      7  C   UNL     1     -36.553  -7.674  -0.473  1.00  0.00    -0.003 C 
ATOM      8  C   UNL     1     -36.644  -8.751   0.609  1.00  0.00     0.004 C 
ENDBRANCH   6   7
ENDBRANCH   1   6
TORSDOF 4
ENDMDL
