MODEL 1
REMARK VINA RESULT:    -3.388      0.000      0.000
REMARK INTER + INTRA:          -5.149
REMARK INTER:                  -4.379
REMARK INTRA:                  -0.771
REMARK UNBOUND:                -0.771
REMARK SMILES CO[C@@]1(CO)O[C@H](CO)[C@H](O)[C@@H]1O
REMARK SMILES IDX 3 1 12 2 10 3 7 4 6 5 2 6 1 7 4 8 5 9 13 11 11 13 8 15 9 16
REMARK H PARENT 5 10 13 12 11 14 9 17
REMARK Flexibility Score: inf
ROOT
ATOM      1  C   UNL     1      19.144  -7.889   6.239  1.00  0.00     0.221 C 
ATOM      2  C   UNL     1      18.740  -9.368   6.063  1.00  0.00     0.207 C 
ATOM      3  C   UNL     1      17.313  -9.293   5.589  1.00  0.00     0.180 C 
ATOM      4  C   UNL     1      17.328  -7.969   4.829  1.00  0.00     0.179 C 
ATOM      5  O   UNL     1      18.276  -7.112   5.425  1.00  0.00    -0.337 OA
ENDROOT
BRANCH   1   6
ATOM      6  O   UNL     1      20.495  -7.772   5.797  1.00  0.00    -0.349 OA
ATOM      7  C   UNL     1      20.755  -6.573   5.094  1.00  0.00     0.198 C 
ENDBRANCH   1   6
BRANCH   1   8
ATOM      8  C   UNL     1      18.989  -7.436   7.719  1.00  0.00     0.224 C 
BRANCH   8   9
ATOM      9  O   UNL     1      17.652  -7.132   8.012  1.00  0.00    -0.391 OA
ATOM     10  H   UNL     1      17.332  -6.551   7.273  1.00  0.00     0.210 HD
ENDBRANCH   8   9
ENDBRANCH   1   8
BRANCH   2  11
ATOM     11  O   UNL     1      18.878 -10.125   7.241  1.00  0.00    -0.385 OA
ATOM     12  H   UNL     1      19.731  -9.839   7.662  1.00  0.00     0.211 HD
ENDBRANCH   2  11
BRANCH   3  13
ATOM     13  O   UNL     1      16.435  -9.255   6.689  1.00  0.00    -0.387 OA
ATOM     14  H   UNL     1      16.950  -9.569   7.478  1.00  0.00     0.211 HD
ENDBRANCH   3  13
BRANCH   4  15
ATOM     15  C   UNL     1      15.958  -7.279   4.765  1.00  0.00     0.191 C 
BRANCH  15  16
ATOM     16  O   UNL     1      15.634  -6.722   6.011  1.00  0.00    -0.394 OA
ATOM     17  H   UNL     1      14.644  -6.652   6.043  1.00  0.00     0.210 HD
ENDBRANCH  15  16
ENDBRANCH   4  15
TORSDOF 7
ENDMDL
MODEL 2
REMARK VINA RESULT:    -3.154      1.374      1.650
REMARK INTER + INTRA:          -4.846
REMARK INTER:                  -3.997
REMARK INTRA:                  -0.850
REMARK UNBOUND:                -0.771
REMARK SMILES CO[C@@]1(CO)O[C@H](CO)[C@H](O)[C@@H]1O
REMARK SMILES IDX 3 1 12 2 10 3 7 4 6 5 2 6 1 7 4 8 5 9 13 11 11 13 8 15 9 16
REMARK H PARENT 5 10 13 12 11 14 9 17
REMARK Flexibility Score: inf
ROOT
ATOM      1  C   UNL     1      17.532  -7.924   5.718  1.00  0.00     0.221 C 
ATOM      2  C   UNL     1      17.579  -9.467   5.711  1.00  0.00     0.207 C 
ATOM      3  C   UNL     1      16.140  -9.864   5.509  1.00  0.00     0.180 C 
ATOM      4  C   UNL     1      15.628  -8.690   4.679  1.00  0.00     0.179 C 
ATOM      5  O   UNL     1      16.351  -7.531   5.034  1.00  0.00    -0.337 OA
ENDROOT
BRANCH   1   6
ATOM      6  O   UNL     1      18.694  -7.471   5.024  1.00  0.00    -0.349 OA
ATOM      7  C   UNL     1      19.745  -7.079   5.884  1.00  0.00     0.198 C 
ENDBRANCH   1   6
BRANCH   1   8
ATOM      8  C   UNL     1      17.484  -7.369   7.170  1.00  0.00     0.224 C 
BRANCH   8   9
ATOM      9  O   UNL     1      16.167  -7.073   7.549  1.00  0.00    -0.391 OA
ATOM     10  H   UNL     1      15.746  -7.941   7.784  1.00  0.00     0.210 HD
ENDBRANCH   8   9
ENDBRANCH   1   8
BRANCH   2  11
ATOM     11  O   UNL     1      18.127 -10.010   6.887  1.00  0.00    -0.385 OA
ATOM     12  H   UNL     1      18.636  -9.279   7.326  1.00  0.00     0.211 HD
ENDBRANCH   2  11
BRANCH   3  13
ATOM     13  O   UNL     1      15.480  -9.957   6.749  1.00  0.00    -0.387 OA
ATOM     14  H   UNL     1      15.884  -9.270   7.341  1.00  0.00     0.211 HD
ENDBRANCH   3  13
BRANCH   4  15
ATOM     15  C   UNL     1      14.121  -8.439   4.830  1.00  0.00     0.191 C 
BRANCH  15  16
ATOM     16  O   UNL     1      13.858  -7.747   6.021  1.00  0.00    -0.394 OA
ATOM     17  H   UNL     1      13.434  -8.398   6.640  1.00  0.00     0.210 HD
ENDBRANCH  15  16
ENDBRANCH   4  15
TORSDOF 7
ENDMDL
MODEL 3
REMARK VINA RESULT:    -3.054      1.471      3.782
REMARK INTER + INTRA:          -4.717
REMARK INTER:                  -3.895
REMARK INTRA:                  -0.821
REMARK UNBOUND:                -0.771
REMARK SMILES CO[C@@]1(CO)O[C@H](CO)[C@H](O)[C@@H]1O
REMARK SMILES IDX 3 1 12 2 10 3 7 4 6 5 2 6 1 7 4 8 5 9 13 11 11 13 8 15 9 16
REMARK H PARENT 5 10 13 12 11 14 9 17
REMARK Flexibility Score: inf
ROOT
ATOM      1  C   UNL     1      17.542  -8.546   5.688  1.00  0.00     0.221 C 
ATOM      2  C   UNL     1      18.793  -8.021   4.952  1.00  0.00     0.207 C 
ATOM      3  C   UNL     1      19.861  -8.033   6.015  1.00  0.00     0.180 C 
ATOM      4  C   UNL     1      19.397  -9.201   6.880  1.00  0.00     0.179 C 
ATOM      5  O   UNL     1      17.991  -9.289   6.813  1.00  0.00    -0.337 OA
ENDROOT
BRANCH   1   6
ATOM      6  O   UNL     1      16.843  -9.386   4.771  1.00  0.00    -0.349 OA
ATOM      7  C   UNL     1      15.543  -9.732   5.204  1.00  0.00     0.198 C 
ENDBRANCH   1   6
BRANCH   1   8
ATOM      8  C   UNL     1      16.647  -7.374   6.182  1.00  0.00     0.224 C 
BRANCH   8   9
ATOM      9  O   UNL     1      16.792  -7.181   7.563  1.00  0.00    -0.391 OA
ATOM     10  H   UNL     1      17.597  -7.695   7.831  1.00  0.00     0.210 HD
ENDBRANCH   8   9
ENDBRANCH   1   8
BRANCH   2  11
ATOM     11  O   UNL     1      18.610  -6.746   4.386  1.00  0.00    -0.385 OA
ATOM     12  H   UNL     1      18.748  -6.849   3.409  1.00  0.00     0.211 HD
ENDBRANCH   2  11
BRANCH   3  13
ATOM     13  O   UNL     1      19.854  -6.819   6.727  1.00  0.00    -0.387 OA
ATOM     14  H   UNL     1      19.034  -6.331   6.454  1.00  0.00     0.211 HD
ENDBRANCH   3  13
BRANCH   4  15
ATOM     15  C   UNL     1      19.851  -9.104   8.344  1.00  0.00     0.191 C 
BRANCH  15  16
ATOM     16  O   UNL     1      19.097  -8.137   9.024  1.00  0.00    -0.394 OA
ATOM     17  H   UNL     1      19.518  -8.024   9.916  1.00  0.00     0.210 HD
ENDBRANCH  15  16
ENDBRANCH   4  15
TORSDOF 7
ENDMDL
MODEL 4
REMARK VINA RESULT:    -3.052      9.515     11.622
REMARK INTER + INTRA:          -4.715
REMARK INTER:                  -3.860
REMARK INTRA:                  -0.854
REMARK UNBOUND:                -0.771
REMARK SMILES CO[C@@]1(CO)O[C@H](CO)[C@H](O)[C@@H]1O
REMARK SMILES IDX 3 1 12 2 10 3 7 4 6 5 2 6 1 7 4 8 5 9 13 11 11 13 8 15 9 16
REMARK H PARENT 5 10 13 12 11 14 9 17
REMARK Flexibility Score: inf
ROOT
ATOM      1  C   UNL     1       6.310  -8.043   5.191  1.00  0.00     0.221 C 
ATOM      2  C   UNL     1       7.605  -8.066   4.351  1.00  0.00     0.207 C 
ATOM      3  C   UNL     1       8.589  -8.787   5.234  1.00  0.00     0.180 C 
ATOM      4  C   UNL     1       7.659  -9.721   6.004  1.00  0.00     0.179 C 
ATOM      5  O   UNL     1       6.398  -9.102   6.135  1.00  0.00    -0.337 OA
ENDROOT
BRANCH   1   6
ATOM      6  O   UNL     1       5.226  -8.256   4.289  1.00  0.00    -0.349 OA
ATOM      7  C   UNL     1       4.197  -7.293   4.409  1.00  0.00     0.198 C 
ENDBRANCH   1   6
BRANCH   1   8
ATOM      8  C   UNL     1       6.159  -6.697   5.956  1.00  0.00     0.224 C 
BRANCH   8   9
ATOM      9  O   UNL     1       6.679  -6.798   7.254  1.00  0.00    -0.391 OA
ATOM     10  H   UNL     1       5.911  -7.019   7.842  1.00  0.00     0.210 HD
ENDBRANCH   8   9
ENDBRANCH   1   8
BRANCH   2  11
ATOM     11  O   UNL     1       8.050  -6.783   3.984  1.00  0.00    -0.385 OA
ATOM     12  H   UNL     1       8.249  -6.300   4.828  1.00  0.00     0.211 HD
ENDBRANCH   2  11
BRANCH   3  13
ATOM     13  O   UNL     1       9.239  -7.875   6.086  1.00  0.00    -0.387 OA
ATOM     14  H   UNL     1      10.214  -8.033   5.985  1.00  0.00     0.211 HD
ENDBRANCH   3  13
BRANCH   4  15
ATOM     15  C   UNL     1       8.195 -10.125   7.385  1.00  0.00     0.191 C 
BRANCH  15  16
ATOM     16  O   UNL     1       7.791  -9.196   8.355  1.00  0.00    -0.394 OA
ATOM     17  H   UNL     1       8.106  -9.544   9.230  1.00  0.00     0.210 HD
ENDBRANCH  15  16
ENDBRANCH   4  15
TORSDOF 7
ENDMDL
MODEL 5
REMARK VINA RESULT:    -3.036      1.377      2.236
REMARK INTER + INTRA:          -4.694
REMARK INTER:                  -4.182
REMARK INTRA:                  -0.512
REMARK UNBOUND:                -0.771
REMARK SMILES CO[C@@]1(CO)O[C@H](CO)[C@H](O)[C@@H]1O
REMARK SMILES IDX 3 1 12 2 10 3 7 4 6 5 2 6 1 7 4 8 5 9 13 11 11 13 8 15 9 16
REMARK H PARENT 5 10 13 12 11 14 9 17
REMARK Flexibility Score: inf
ROOT
ATOM      1  C   UNL     1      19.743  -7.374   5.013  1.00  0.00     0.221 C 
ATOM      2  C   UNL     1      19.524  -8.487   6.061  1.00  0.00     0.207 C 
ATOM      3  C   UNL     1      18.090  -8.300   6.483  1.00  0.00     0.180 C 
ATOM      4  C   UNL     1      17.480  -7.743   5.199  1.00  0.00     0.179 C 
ATOM      5  O   UNL     1      18.467  -7.013   4.504  1.00  0.00    -0.337 OA
ENDROOT
BRANCH   1   6
ATOM      6  O   UNL     1      20.561  -7.929   3.985  1.00  0.00    -0.349 OA
ATOM      7  C   UNL     1      20.527  -9.341   3.938  1.00  0.00     0.198 C 
ENDBRANCH   1   6
BRANCH   1   8
ATOM      8  C   UNL     1      20.405  -6.121   5.653  1.00  0.00     0.224 C 
BRANCH   8   9
ATOM      9  O   UNL     1      21.801  -6.185   5.550  1.00  0.00    -0.391 OA
ATOM     10  H   UNL     1      22.097  -6.853   6.222  1.00  0.00     0.210 HD
ENDBRANCH   8   9
ENDBRANCH   1   8
BRANCH   2  11
ATOM     11  O   UNL     1      20.418  -8.411   7.145  1.00  0.00    -0.385 OA
ATOM     12  H   UNL     1      19.971  -8.855   7.912  1.00  0.00     0.211 HD
ENDBRANCH   2  11
BRANCH   3  13
ATOM     13  O   UNL     1      18.009  -7.378   7.544  1.00  0.00    -0.387 OA
ATOM     14  H   UNL     1      17.087  -7.011   7.535  1.00  0.00     0.211 HD
ENDBRANCH   3  13
BRANCH   4  15
ATOM     15  C   UNL     1      16.242  -6.867   5.434  1.00  0.00     0.191 C 
BRANCH  15  16
ATOM     16  O   UNL     1      15.433  -7.424   6.434  1.00  0.00    -0.394 OA
ATOM     17  H   UNL     1      14.582  -6.912   6.431  1.00  0.00     0.210 HD
ENDBRANCH  15  16
ENDBRANCH   4  15
TORSDOF 7
ENDMDL
MODEL 6
REMARK VINA RESULT:    -2.981      1.380      3.747
REMARK INTER + INTRA:          -4.623
REMARK INTER:                  -3.804
REMARK INTRA:                  -0.819
REMARK UNBOUND:                -0.771
REMARK SMILES CO[C@@]1(CO)O[C@H](CO)[C@H](O)[C@@H]1O
REMARK SMILES IDX 3 1 12 2 10 3 7 4 6 5 2 6 1 7 4 8 5 9 13 11 11 13 8 15 9 16
REMARK H PARENT 5 10 13 12 11 14 9 17
REMARK Flexibility Score: inf
ROOT
ATOM      1  C   UNL     1      17.089  -7.865   5.663  1.00  0.00     0.221 C 
ATOM      2  C   UNL     1      17.410  -7.039   6.927  1.00  0.00     0.207 C 
ATOM      3  C   UNL     1      18.829  -7.426   7.253  1.00  0.00     0.180 C 
ATOM      4  C   UNL     1      19.376  -7.724   5.859  1.00  0.00     0.179 C 
ATOM      5  O   UNL     1      18.325  -8.199   5.048  1.00  0.00    -0.337 OA
ENDROOT
BRANCH   1   6
ATOM      6  O   UNL     1      16.306  -7.031   4.811  1.00  0.00    -0.349 OA
ATOM      7  C   UNL     1      14.981  -7.489   4.636  1.00  0.00     0.198 C 
ENDBRANCH   1   6
BRANCH   1   8
ATOM      8  C   UNL     1      16.334  -9.176   6.025  1.00  0.00     0.224 C 
BRANCH   8   9
ATOM      9  O   UNL     1      17.211 -10.125   6.567  1.00  0.00    -0.391 OA
ATOM     10  H   UNL     1      16.652 -10.903   6.826  1.00  0.00     0.210 HD
ENDBRANCH   8   9
ENDBRANCH   1   8
BRANCH   2  11
ATOM     11  O   UNL     1      16.525  -7.288   7.992  1.00  0.00    -0.385 OA
ATOM     12  H   UNL     1      16.600  -6.513   8.609  1.00  0.00     0.211 HD
ENDBRANCH   2  11
BRANCH   3  13
ATOM     13  O   UNL     1      18.846  -8.568   8.077  1.00  0.00    -0.387 OA
ATOM     14  H   UNL     1      19.800  -8.779   8.254  1.00  0.00     0.211 HD
ENDBRANCH   3  13
BRANCH   4  15
ATOM     15  C   UNL     1      20.541  -8.724   5.854  1.00  0.00     0.191 C 
BRANCH  15  16
ATOM     16  O   UNL     1      20.057 -10.036   5.951  1.00  0.00    -0.394 OA
ATOM     17  H   UNL     1      19.925 -10.221   6.917  1.00  0.00     0.210 HD
ENDBRANCH  15  16
ENDBRANCH   4  15
TORSDOF 7
ENDMDL
MODEL 7
REMARK VINA RESULT:    -2.915      1.702      3.466
REMARK INTER + INTRA:          -4.538
REMARK INTER:                  -3.710
REMARK INTRA:                  -0.828
REMARK UNBOUND:                -0.771
REMARK SMILES CO[C@@]1(CO)O[C@H](CO)[C@H](O)[C@@H]1O
REMARK SMILES IDX 3 1 12 2 10 3 7 4 6 5 2 6 1 7 4 8 5 9 13 11 11 13 8 15 9 16
REMARK H PARENT 5 10 13 12 11 14 9 17
REMARK Flexibility Score: inf
ROOT
ATOM      1  C   UNL     1      18.525  -7.653   4.834  1.00  0.00     0.221 C 
ATOM      2  C   UNL     1      19.104  -9.073   5.014  1.00  0.00     0.207 C 
ATOM      3  C   UNL     1      19.577  -9.084   6.444  1.00  0.00     0.180 C 
ATOM      4  C   UNL     1      18.585  -8.117   7.086  1.00  0.00     0.179 C 
ATOM      5  O   UNL     1      18.191  -7.163   6.125  1.00  0.00    -0.337 OA
ENDROOT
BRANCH   1   6
ATOM      6  O   UNL     1      17.359  -7.781   4.022  1.00  0.00    -0.349 OA
ATOM      7  C   UNL     1      16.403  -6.763   4.246  1.00  0.00     0.198 C 
ENDBRANCH   1   6
BRANCH   1   8
ATOM      8  C   UNL     1      19.568  -6.699   4.185  1.00  0.00     0.224 C 
BRANCH   8   9
ATOM      9  O   UNL     1      20.347  -6.069   5.166  1.00  0.00    -0.391 OA
ATOM     10  H   UNL     1      20.907  -5.403   4.688  1.00  0.00     0.210 HD
ENDBRANCH   8   9
ENDBRANCH   1   8
BRANCH   2  11
ATOM     11  O   UNL     1      20.134  -9.372   4.104  1.00  0.00    -0.385 OA
ATOM     12  H   UNL     1      20.086 -10.349   3.934  1.00  0.00     0.211 HD
ENDBRANCH   2  11
BRANCH   3  13
ATOM     13  O   UNL     1      20.899  -8.609   6.525  1.00  0.00    -0.387 OA
ATOM     14  H   UNL     1      20.845  -7.620   6.592  1.00  0.00     0.211 HD
ENDBRANCH   3  13
BRANCH   4  15
ATOM     15  C   UNL     1      19.131  -7.414   8.337  1.00  0.00     0.191 C 
BRANCH  15  16
ATOM     16  O   UNL     1      19.825  -6.249   7.977  1.00  0.00    -0.394 OA
ATOM     17  H   UNL     1      19.686  -6.125   7.001  1.00  0.00     0.210 HD
ENDBRANCH  15  16
ENDBRANCH   4  15
TORSDOF 7
ENDMDL
MODEL 8
REMARK VINA RESULT:    -2.905      1.756      3.188
REMARK INTER + INTRA:          -4.525
REMARK INTER:                  -3.678
REMARK INTRA:                  -0.847
REMARK UNBOUND:                -0.771
REMARK SMILES CO[C@@]1(CO)O[C@H](CO)[C@H](O)[C@@H]1O
REMARK SMILES IDX 3 1 12 2 10 3 7 4 6 5 2 6 1 7 4 8 5 9 13 11 11 13 8 15 9 16
REMARK H PARENT 5 10 13 12 11 14 9 17
REMARK Flexibility Score: inf
ROOT
ATOM      1  C   UNL     1      19.445  -7.292   4.892  1.00  0.00     0.221 C 
ATOM      2  C   UNL     1      17.904  -7.375   4.929  1.00  0.00     0.207 C 
ATOM      3  C   UNL     1      17.601  -7.702   6.367  1.00  0.00     0.180 C 
ATOM      4  C   UNL     1      18.768  -7.017   7.073  1.00  0.00     0.179 C 
ATOM      5  O   UNL     1      19.888  -7.025   6.215  1.00  0.00    -0.337 OA
ENDROOT
BRANCH   1   6
ATOM      6  O   UNL     1      19.782  -6.215   4.018  1.00  0.00    -0.349 OA
ATOM      7  C   UNL     1      20.907  -5.474   4.445  1.00  0.00     0.198 C 
ENDBRANCH   1   6
BRANCH   1   8
ATOM      8  C   UNL     1      20.070  -8.632   4.410  1.00  0.00     0.224 C 
BRANCH   8   9
ATOM      9  O   UNL     1      20.431  -9.436   5.501  1.00  0.00    -0.391 OA
ATOM     10  H   UNL     1      20.435 -10.370   5.166  1.00  0.00     0.210 HD
ENDBRANCH   8   9
ENDBRANCH   1   8
BRANCH   2  11
ATOM     11  O   UNL     1      17.380  -8.329   4.037  1.00  0.00    -0.385 OA
ATOM     12  H   UNL     1      16.474  -8.561   4.372  1.00  0.00     0.211 HD
ENDBRANCH   2  11
BRANCH   3  13
ATOM     13  O   UNL     1      17.613  -9.095   6.565  1.00  0.00    -0.387 OA
ATOM     14  H   UNL     1      18.456  -9.310   7.045  1.00  0.00     0.211 HD
ENDBRANCH   3  13
BRANCH   4  15
ATOM     15  C   UNL     1      19.132  -7.653   8.423  1.00  0.00     0.191 C 
BRANCH  15  16
ATOM     16  O   UNL     1      20.004  -8.735   8.232  1.00  0.00    -0.394 OA
ATOM     17  H   UNL     1      19.992  -8.942   7.261  1.00  0.00     0.210 HD
ENDBRANCH  15  16
ENDBRANCH   4  15
TORSDOF 7
ENDMDL
MODEL 9
REMARK VINA RESULT:    -2.821      7.650     10.319
REMARK INTER + INTRA:          -4.416
REMARK INTER:                  -3.668
REMARK INTRA:                  -0.748
REMARK UNBOUND:                -0.771
REMARK SMILES CO[C@@]1(CO)O[C@H](CO)[C@H](O)[C@@H]1O
REMARK SMILES IDX 3 1 12 2 10 3 7 4 6 5 2 6 1 7 4 8 5 9 13 11 11 13 8 15 9 16
REMARK H PARENT 5 10 13 12 11 14 9 17
REMARK Flexibility Score: inf
ROOT
ATOM      1  C   UNL     1       7.905  -8.802   5.145  1.00  0.00     0.221 C 
ATOM      2  C   UNL     1       7.813  -7.776   3.995  1.00  0.00     0.207 C 
ATOM      3  C   UNL     1       9.178  -7.140   3.976  1.00  0.00     0.180 C 
ATOM      4  C   UNL     1      10.044  -8.297   4.466  1.00  0.00     0.179 C 
ATOM      5  O   UNL     1       9.280  -9.103   5.336  1.00  0.00    -0.337 OA
ENDROOT
BRANCH   1   6
ATOM      6  O   UNL     1       7.186  -9.960   4.725  1.00  0.00    -0.349 OA
ATOM      7  C   UNL     1       5.933 -10.106   5.363  1.00  0.00     0.198 C 
ENDBRANCH   1   6
BRANCH   1   8
ATOM      8  C   UNL     1       7.326  -8.220   6.466  1.00  0.00     0.224 C 
BRANCH   8   9
ATOM      9  O   UNL     1       8.298  -8.207   7.475  1.00  0.00    -0.391 OA
ATOM     10  H   UNL     1       7.851  -8.545   8.294  1.00  0.00     0.210 HD
ENDBRANCH   8   9
ENDBRANCH   1   8
BRANCH   2  11
ATOM     11  O   UNL     1       6.782  -6.835   4.173  1.00  0.00    -0.385 OA
ATOM     12  H   UNL     1       5.967  -7.350   4.412  1.00  0.00     0.211 HD
ENDBRANCH   2  11
BRANCH   3  13
ATOM     13  O   UNL     1       9.218  -6.045   4.859  1.00  0.00    -0.387 OA
ATOM     14  H   UNL     1       8.495  -5.425   4.580  1.00  0.00     0.211 HD
ENDBRANCH   3  13
BRANCH   4  15
ATOM     15  C   UNL     1      11.338  -7.848   5.161  1.00  0.00     0.191 C 
BRANCH  15  16
ATOM     16  O   UNL     1      11.084  -7.528   6.503  1.00  0.00    -0.394 OA
ATOM     17  H   UNL     1      10.982  -8.388   6.987  1.00  0.00     0.210 HD
ENDBRANCH  15  16
ENDBRANCH   4  15
TORSDOF 7
ENDMDL
