MODEL 1
REMARK VINA RESULT:    -6.733      0.000      0.000
REMARK INTER + INTRA:         -11.630
REMARK INTER:                  -9.881
REMARK INTRA:                  -1.749
REMARK UNBOUND:                -1.749
REMARK SMILES O=c1c(O[C@@H]2O[C@H](CO)[C@H](O)[C@@H](O)[C@H]2O)c(-c2ccc(O)c(O)c2)oc2cc(O)cc(O)c12
REMARK SMILES IDX 4 1 3 2 16 3 25 4 2 5 26 6 1 7 33 8 27 9 31 10 28 11 30 12
REMARK SMILES IDX 17 13 18 14 19 15 20 16 24 17 22 18 21 19 23 21 32 23 29 25
REMARK SMILES IDX 5 27 14 28 6 29 12 30 7 31 10 32 15 33 13 35 8 37 9 38 11 40
REMARK H PARENT 21 20 23 22 32 24 29 26 15 34 13 36 9 39 11 41
REMARK Flexibility Score: inf
ROOT
ATOM      1  O   UNL     1       0.586 -20.991  26.702  1.00  0.00    -0.454 OA
ENDROOT
BRANCH   1   2
ATOM      2  C   UNL     1       0.094 -21.422  27.949  1.00  0.00     0.214 A 
ATOM      3  C   UNL     1      -0.467 -20.463  28.819  1.00  0.00     0.180 A 
ATOM      4  O   UNL     1      -0.977 -20.839  29.987  1.00  0.00    -0.452 OA
ATOM      5  C   UNL     1       0.117 -22.771  28.365  1.00  0.00     0.239 A 
ATOM      6  C   UNL     1      -0.980 -22.095  30.413  1.00  0.00     0.146 A 
ATOM      7  O   UNL     1       0.631 -23.652  27.627  1.00  0.00    -0.285 OA
ATOM      8  C   UNL     1      -0.428 -23.125  29.618  1.00  0.00     0.111 A 
ATOM      9  C   UNL     1      -1.537 -22.388  31.661  1.00  0.00     0.094 A 
ATOM     10  C   UNL     1      -0.445 -24.455  30.106  1.00  0.00     0.134 A 
ATOM     11  C   UNL     1      -1.553 -23.702  32.137  1.00  0.00     0.123 A 
ATOM     12  C   UNL     1      -1.008 -24.728  31.362  1.00  0.00     0.093 A 
BRANCH   3  13
ATOM     13  C   UNL     1      -0.557 -19.032  28.453  1.00  0.00     0.025 A 
ATOM     14  C   UNL     1       0.620 -18.277  28.324  1.00  0.00     0.016 A 
ATOM     15  C   UNL     1       0.559 -16.922  27.986  1.00  0.00     0.051 A 
ATOM     16  C   UNL     1      -0.676 -16.305  27.760  1.00  0.00     0.157 A 
ATOM     17  C   UNL     1      -1.794 -18.416  28.196  1.00  0.00     0.062 A 
ATOM     18  C   UNL     1      -1.859 -17.056  27.861  1.00  0.00     0.158 A 
BRANCH  16  19
ATOM     19  O   UNL     1      -0.705 -14.950  27.431  1.00  0.00    -0.504 OA
ATOM     20  H   UNL     1      -0.299 -14.596  26.573  1.00  0.00     0.293 HD
ENDBRANCH  16  19
BRANCH  18  21
ATOM     21  O   UNL     1      -3.093 -16.451  27.628  1.00  0.00    -0.504 OA
ATOM     22  H   UNL     1      -3.211 -15.747  26.908  1.00  0.00     0.293 HD
ENDBRANCH  18  21
ENDBRANCH   3  13
BRANCH  10  23
ATOM     23  O   UNL     1       0.090 -25.503  29.357  1.00  0.00    -0.507 OA
ATOM     24  H   UNL     1      -0.454 -25.986  28.651  1.00  0.00     0.293 HD
ENDBRANCH  10  23
BRANCH  11  25
ATOM     25  O   UNL     1      -2.106 -24.000  33.380  1.00  0.00    -0.508 OA
ATOM     26  H   UNL     1      -1.753 -23.579  34.232  1.00  0.00     0.293 HD
ENDBRANCH  11  25
ENDBRANCH   1   2
BRANCH   1  27
ATOM     27  C   UNL     1      -0.079 -21.099  25.441  1.00  0.00     0.339 C 
ATOM     28  C   UNL     1      -0.330 -19.694  24.864  1.00  0.00     0.214 C 
ATOM     29  O   UNL     1       0.625 -21.940  24.533  1.00  0.00    -0.332 OA
ATOM     30  C   UNL     1       1.002 -19.047  24.465  1.00  0.00     0.180 C 
ATOM     31  C   UNL     1       1.877 -21.421  24.096  1.00  0.00     0.179 C 
ATOM     32  C   UNL     1       1.759 -19.987  23.513  1.00  0.00     0.177 C 
BRANCH  28  33
ATOM     33  O   UNL     1      -1.177 -19.775  23.746  1.00  0.00    -0.384 OA
ATOM     34  H   UNL     1      -0.667 -20.236  23.029  1.00  0.00     0.211 HD
ENDBRANCH  28  33
BRANCH  30  35
ATOM     35  O   UNL     1       0.771 -17.818  23.824  1.00  0.00    -0.387 OA
ATOM     36  H   UNL     1       0.919 -17.969  22.853  1.00  0.00     0.211 HD
ENDBRANCH  30  35
BRANCH  31  37
ATOM     37  C   UNL     1       2.977 -21.602  25.164  1.00  0.00     0.191 C 
BRANCH  37  38
ATOM     38  O   UNL     1       2.833 -22.844  25.798  1.00  0.00    -0.394 OA
ATOM     39  H   UNL     1       1.985 -23.232  25.455  1.00  0.00     0.210 HD
ENDBRANCH  37  38
ENDBRANCH  31  37
BRANCH  32  40
ATOM     40  O   UNL     1       3.016 -19.466  23.153  1.00  0.00    -0.387 OA
ATOM     41  H   UNL     1       3.320 -19.928  22.330  1.00  0.00     0.211 HD
ENDBRANCH  32  40
ENDBRANCH   1  27
TORSDOF 12
ENDMDL
MODEL 2
REMARK VINA RESULT:    -6.636      1.502      4.455
REMARK INTER + INTRA:         -11.489
REMARK INTER:                  -9.875
REMARK INTRA:                  -1.614
REMARK UNBOUND:                -1.749
REMARK SMILES O=c1c(O[C@@H]2O[C@H](CO)[C@H](O)[C@@H](O)[C@H]2O)c(-c2ccc(O)c(O)c2)oc2cc(O)cc(O)c12
REMARK SMILES IDX 4 1 3 2 16 3 25 4 2 5 26 6 1 7 33 8 27 9 31 10 28 11 30 12
REMARK SMILES IDX 17 13 18 14 19 15 20 16 24 17 22 18 21 19 23 21 32 23 29 25
REMARK SMILES IDX 5 27 14 28 6 29 12 30 7 31 10 32 15 33 13 35 8 37 9 38 11 40
REMARK H PARENT 21 20 23 22 32 24 29 26 15 34 13 36 9 39 11 41
REMARK Flexibility Score: inf
ROOT
ATOM      1  O   UNL     1       0.116 -19.589  27.456  1.00  0.00    -0.454 OA
ENDROOT
BRANCH   1   2
ATOM      2  C   UNL     1      -0.235 -20.700  28.248  1.00  0.00     0.214 A 
ATOM      3  C   UNL     1       0.127 -21.987  27.799  1.00  0.00     0.180 A 
ATOM      4  O   UNL     1      -0.152 -23.055  28.539  1.00  0.00    -0.452 OA
ATOM      5  C   UNL     1      -0.917 -20.587  29.479  1.00  0.00     0.239 A 
ATOM      6  C   UNL     1      -0.785 -22.993  29.703  1.00  0.00     0.146 A 
ATOM      7  O   UNL     1      -1.278 -19.457  29.902  1.00  0.00    -0.285 OA
ATOM      8  C   UNL     1      -1.201 -21.749  30.229  1.00  0.00     0.111 A 
ATOM      9  C   UNL     1      -1.037 -24.176  30.404  1.00  0.00     0.094 A 
ATOM     10  C   UNL     1      -1.878 -21.719  31.474  1.00  0.00     0.134 A 
ATOM     11  C   UNL     1      -1.704 -24.141  31.631  1.00  0.00     0.123 A 
ATOM     12  C   UNL     1      -2.122 -22.918  32.161  1.00  0.00     0.093 A 
BRANCH   3  13
ATOM     13  C   UNL     1       0.866 -22.196  26.534  1.00  0.00     0.025 A 
ATOM     14  C   UNL     1       2.250 -22.426  26.574  1.00  0.00     0.016 A 
ATOM     15  C   UNL     1       2.971 -22.618  25.391  1.00  0.00     0.051 A 
ATOM     16  C   UNL     1       2.318 -22.597  24.154  1.00  0.00     0.157 A 
ATOM     17  C   UNL     1       0.208 -22.205  25.292  1.00  0.00     0.062 A 
ATOM     18  C   UNL     1       0.928 -22.393  24.104  1.00  0.00     0.158 A 
BRANCH  16  19
ATOM     19  O   UNL     1       3.063 -22.785  22.992  1.00  0.00    -0.504 OA
ATOM     20  H   UNL     1       3.797 -23.481  22.930  1.00  0.00     0.293 HD
ENDBRANCH  16  19
BRANCH  18  21
ATOM     21  O   UNL     1       0.268 -22.380  22.876  1.00  0.00    -0.504 OA
ATOM     22  H   UNL     1       0.536 -21.740  22.136  1.00  0.00     0.293 HD
ENDBRANCH  18  21
ENDBRANCH   3  13
BRANCH  10  23
ATOM     23  O   UNL     1      -2.308 -20.516  32.031  1.00  0.00    -0.507 OA
ATOM     24  H   UNL     1      -2.077 -20.255  32.983  1.00  0.00     0.293 HD
ENDBRANCH  10  23
BRANCH  11  25
ATOM     25  O   UNL     1      -1.959 -25.316  32.335  1.00  0.00    -0.508 OA
ATOM     26  H   UNL     1      -1.326 -25.652  33.052  1.00  0.00     0.293 HD
ENDBRANCH  11  25
ENDBRANCH   1   2
BRANCH   1  27
ATOM     27  C   UNL     1      -0.770 -18.798  26.660  1.00  0.00     0.339 C 
ATOM     28  C   UNL     1      -0.869 -17.379  27.249  1.00  0.00     0.214 C 
ATOM     29  O   UNL     1      -0.396 -18.790  25.286  1.00  0.00    -0.332 OA
ATOM     30  C   UNL     1       0.463 -16.643  27.066  1.00  0.00     0.180 C 
ATOM     31  C   UNL     1       0.831 -18.121  25.012  1.00  0.00     0.179 C 
ATOM     32  C   UNL     1       0.864 -16.677  25.582  1.00  0.00     0.177 C 
BRANCH  28  33
ATOM     33  O   UNL     1      -1.902 -16.665  26.617  1.00  0.00    -0.384 OA
ATOM     34  H   UNL     1      -2.691 -17.268  26.583  1.00  0.00     0.211 HD
ENDBRANCH  28  33
BRANCH  30  35
ATOM     35  O   UNL     1       0.341 -15.308  27.487  1.00  0.00    -0.387 OA
ATOM     36  H   UNL     1       1.203 -14.862  27.276  1.00  0.00     0.211 HD
ENDBRANCH  30  35
BRANCH  31  37
ATOM     37  C   UNL     1       2.053 -18.992  25.371  1.00  0.00     0.191 C 
BRANCH  37  38
ATOM     38  O   UNL     1       3.035 -18.878  24.378  1.00  0.00    -0.394 OA
ATOM     39  H   UNL     1       2.927 -17.972  23.987  1.00  0.00     0.210 HD
ENDBRANCH  37  38
ENDBRANCH  31  37
BRANCH  32  40
ATOM     40  O   UNL     1       2.109 -16.059  25.363  1.00  0.00    -0.387 OA
ATOM     41  H   UNL     1       2.367 -15.577  26.191  1.00  0.00     0.211 HD
ENDBRANCH  32  40
ENDBRANCH   1  27
TORSDOF 12
ENDMDL
MODEL 3
REMARK VINA RESULT:    -6.626      1.640      4.750
REMARK INTER + INTRA:         -11.474
REMARK INTER:                  -9.724
REMARK INTRA:                  -1.750
REMARK UNBOUND:                -1.749
REMARK SMILES O=c1c(O[C@@H]2O[C@H](CO)[C@H](O)[C@@H](O)[C@H]2O)c(-c2ccc(O)c(O)c2)oc2cc(O)cc(O)c12
REMARK SMILES IDX 4 1 3 2 16 3 25 4 2 5 26 6 1 7 33 8 27 9 31 10 28 11 30 12
REMARK SMILES IDX 17 13 18 14 19 15 20 16 24 17 22 18 21 19 23 21 32 23 29 25
REMARK SMILES IDX 5 27 14 28 6 29 12 30 7 31 10 32 15 33 13 35 8 37 9 38 11 40
REMARK H PARENT 21 20 23 22 32 24 29 26 15 34 13 36 9 39 11 41
REMARK Flexibility Score: inf
ROOT
ATOM      1  O   UNL     1      -0.514 -19.181  28.338  1.00  0.00    -0.454 OA
ENDROOT
BRANCH   1   2
ATOM      2  C   UNL     1      -0.804 -20.455  28.863  1.00  0.00     0.214 A 
ATOM      3  C   UNL     1      -0.544 -21.587  28.063  1.00  0.00     0.180 A 
ATOM      4  O   UNL     1      -0.768 -22.807  28.539  1.00  0.00    -0.452 OA
ATOM      5  C   UNL     1      -1.328 -20.657  30.158  1.00  0.00     0.239 A 
ATOM      6  C   UNL     1      -1.253 -23.041  29.751  1.00  0.00     0.146 A 
ATOM      7  O   UNL     1      -1.597 -19.670  30.894  1.00  0.00    -0.285 OA
ATOM      8  C   UNL     1      -1.560 -21.970  30.621  1.00  0.00     0.111 A 
ATOM      9  C   UNL     1      -1.460 -24.362  30.158  1.00  0.00     0.094 A 
ATOM     10  C   UNL     1      -2.080 -22.256  31.908  1.00  0.00     0.134 A 
ATOM     11  C   UNL     1      -1.972 -24.639  31.429  1.00  0.00     0.123 A 
ATOM     12  C   UNL     1      -2.281 -23.589  32.297  1.00  0.00     0.093 A 
BRANCH   3  13
ATOM     13  C   UNL     1       0.030 -21.470  26.704  1.00  0.00     0.025 A 
ATOM     14  C   UNL     1       1.284 -22.040  26.433  1.00  0.00     0.016 A 
ATOM     15  C   UNL     1       1.849 -21.936  25.158  1.00  0.00     0.051 A 
ATOM     16  C   UNL     1       1.165 -21.272  24.134  1.00  0.00     0.157 A 
ATOM     17  C   UNL     1      -0.668 -20.830  25.665  1.00  0.00     0.062 A 
ATOM     18  C   UNL     1      -0.101 -20.719  24.387  1.00  0.00     0.158 A 
BRANCH  16  19
ATOM     19  O   UNL     1       1.757 -21.178  22.875  1.00  0.00    -0.504 OA
ATOM     20  H   UNL     1       1.649 -21.902  22.175  1.00  0.00     0.293 HD
ENDBRANCH  16  19
BRANCH  18  21
ATOM     21  O   UNL     1      -0.794 -20.065  23.369  1.00  0.00    -0.504 OA
ATOM     22  H   UNL     1      -1.571 -19.446  23.569  1.00  0.00     0.293 HD
ENDBRANCH  18  21
ENDBRANCH   3  13
BRANCH  10  23
ATOM     23  O   UNL     1      -2.399 -21.232  32.799  1.00  0.00    -0.507 OA
ATOM     24  H   UNL     1      -2.151 -21.282  33.781  1.00  0.00     0.293 HD
ENDBRANCH  10  23
BRANCH  11  25
ATOM     25  O   UNL     1      -2.180 -25.953  31.840  1.00  0.00    -0.508 OA
ATOM     26  H   UNL     1      -2.961 -26.205  32.435  1.00  0.00     0.293 HD
ENDBRANCH  11  25
ENDBRANCH   1   2
BRANCH   1  27
ATOM     27  C   UNL     1       0.663 -18.406  28.586  1.00  0.00     0.339 C 
ATOM     28  C   UNL     1       1.458 -18.238  27.278  1.00  0.00     0.214 C 
ATOM     29  O   UNL     1       0.364 -17.159  29.204  1.00  0.00    -0.332 OA
ATOM     30  C   UNL     1       0.685 -17.337  26.308  1.00  0.00     0.180 C 
ATOM     31  C   UNL     1      -0.350 -16.246  28.377  1.00  0.00     0.179 C 
ATOM     32  C   UNL     1       0.344 -16.011  27.008  1.00  0.00     0.177 C 
BRANCH  28  33
ATOM     33  O   UNL     1       2.719 -17.680  27.549  1.00  0.00    -0.384 OA
ATOM     34  H   UNL     1       3.396 -18.294  27.157  1.00  0.00     0.211 HD
ENDBRANCH  28  33
BRANCH  30  35
ATOM     35  O   UNL     1       1.459 -17.078  25.165  1.00  0.00    -0.387 OA
ATOM     36  H   UNL     1       0.880 -17.261  24.380  1.00  0.00     0.211 HD
ENDBRANCH  30  35
BRANCH  31  37
ATOM     37  C   UNL     1      -1.850 -16.599  28.296  1.00  0.00     0.191 C 
BRANCH  37  38
ATOM     38  O   UNL     1      -2.302 -17.069  29.536  1.00  0.00    -0.394 OA
ATOM     39  H   UNL     1      -2.790 -17.914  29.349  1.00  0.00     0.210 HD
ENDBRANCH  37  38
ENDBRANCH  31  37
BRANCH  32  40
ATOM     40  O   UNL     1      -0.414 -15.162  26.179  1.00  0.00    -0.387 OA
ATOM     41  H   UNL     1      -0.874 -15.720  25.500  1.00  0.00     0.211 HD
ENDBRANCH  32  40
ENDBRANCH   1  27
TORSDOF 12
ENDMDL
MODEL 4
REMARK VINA RESULT:    -6.624      1.897      6.387
REMARK INTER + INTRA:         -11.470
REMARK INTER:                  -9.683
REMARK INTRA:                  -1.787
REMARK UNBOUND:                -1.749
REMARK SMILES O=c1c(O[C@@H]2O[C@H](CO)[C@H](O)[C@@H](O)[C@H]2O)c(-c2ccc(O)c(O)c2)oc2cc(O)cc(O)c12
REMARK SMILES IDX 4 1 3 2 16 3 25 4 2 5 26 6 1 7 33 8 27 9 31 10 28 11 30 12
REMARK SMILES IDX 17 13 18 14 19 15 20 16 24 17 22 18 21 19 23 21 32 23 29 25
REMARK SMILES IDX 5 27 14 28 6 29 12 30 7 31 10 32 15 33 13 35 8 37 9 38 11 40
REMARK H PARENT 21 20 23 22 32 24 29 26 15 34 13 36 9 39 11 41
REMARK Flexibility Score: inf
ROOT
ATOM      1  O   UNL     1       0.653 -20.819  26.221  1.00  0.00    -0.454 OA
ENDROOT
BRANCH   1   2
ATOM      2  C   UNL     1      -0.008 -19.585  26.378  1.00  0.00     0.214 A 
ATOM      3  C   UNL     1      -0.719 -19.351  27.573  1.00  0.00     0.180 A 
ATOM      4  O   UNL     1      -1.322 -18.183  27.773  1.00  0.00    -0.452 OA
ATOM      5  C   UNL     1       0.021 -18.564  25.403  1.00  0.00     0.239 A 
ATOM      6  C   UNL     1      -1.314 -17.196  26.887  1.00  0.00     0.146 A 
ATOM      7  O   UNL     1       0.625 -18.745  24.313  1.00  0.00    -0.285 OA
ATOM      8  C   UNL     1      -0.641 -17.342  25.653  1.00  0.00     0.111 A 
ATOM      9  C   UNL     1      -1.984 -16.006  27.189  1.00  0.00     0.094 A 
ATOM     10  C   UNL     1      -0.656 -16.268  24.729  1.00  0.00     0.134 A 
ATOM     11  C   UNL     1      -1.995 -14.950  26.275  1.00  0.00     0.123 A 
ATOM     12  C   UNL     1      -1.335 -15.083  25.051  1.00  0.00     0.093 A 
BRANCH   3  13
ATOM     13  C   UNL     1      -0.779 -20.355  28.658  1.00  0.00     0.025 A 
ATOM     14  C   UNL     1       0.074 -20.227  29.765  1.00  0.00     0.016 A 
ATOM     15  C   UNL     1       0.040 -21.167  30.799  1.00  0.00     0.051 A 
ATOM     16  C   UNL     1      -0.855 -22.241  30.748  1.00  0.00     0.157 A 
ATOM     17  C   UNL     1      -1.698 -21.419  28.624  1.00  0.00     0.062 A 
ATOM     18  C   UNL     1      -1.731 -22.367  29.657  1.00  0.00     0.158 A 
BRANCH  16  19
ATOM     19  O   UNL     1      -0.861 -23.168  31.790  1.00  0.00    -0.504 OA
ATOM     20  H   UNL     1      -1.108 -22.909  32.738  1.00  0.00     0.293 HD
ENDBRANCH  16  19
BRANCH  18  21
ATOM     21  O   UNL     1      -2.633 -23.429  29.603  1.00  0.00    -0.504 OA
ATOM     22  H   UNL     1      -3.023 -23.837  30.445  1.00  0.00     0.293 HD
ENDBRANCH  18  21
ENDBRANCH   3  13
BRANCH  10  23
ATOM     23  O   UNL     1      -0.007 -16.368  23.499  1.00  0.00    -0.507 OA
ATOM     24  H   UNL     1      -0.517 -16.352  22.623  1.00  0.00     0.293 HD
ENDBRANCH  10  23
BRANCH  11  25
ATOM     25  O   UNL     1      -2.660 -13.762  26.570  1.00  0.00    -0.508 OA
ATOM     26  H   UNL     1      -3.611 -13.596  26.259  1.00  0.00     0.293 HD
ENDBRANCH  11  25
ENDBRANCH   1   2
BRANCH   1  27
ATOM     27  C   UNL     1       2.062 -21.047  26.307  1.00  0.00     0.339 C 
ATOM     28  C   UNL     1       2.370 -21.940  27.524  1.00  0.00     0.214 C 
ATOM     29  O   UNL     1       2.596 -21.576  25.098  1.00  0.00    -0.332 OA
ATOM     30  C   UNL     1       1.835 -23.356  27.282  1.00  0.00     0.180 C 
ATOM     31  C   UNL     1       2.162 -22.896  24.787  1.00  0.00     0.179 C 
ATOM     32  C   UNL     1       2.397 -23.892  25.955  1.00  0.00     0.177 C 
BRANCH  28  33
ATOM     33  O   UNL     1       3.756 -21.983  27.752  1.00  0.00    -0.384 OA
ATOM     34  H   UNL     1       3.884 -22.048  28.736  1.00  0.00     0.211 HD
ENDBRANCH  28  33
BRANCH  30  35
ATOM     35  O   UNL     1       2.221 -24.206  28.331  1.00  0.00    -0.387 OA
ATOM     36  H   UNL     1       1.398 -24.663  28.647  1.00  0.00     0.211 HD
ENDBRANCH  30  35
BRANCH  31  37
ATOM     37  C   UNL     1       0.736 -22.907  24.198  1.00  0.00     0.191 C 
BRANCH  37  38
ATOM     38  O   UNL     1       0.525 -21.757  23.426  1.00  0.00    -0.394 OA
ATOM     39  H   UNL     1      -0.365 -21.870  22.999  1.00  0.00     0.210 HD
ENDBRANCH  37  38
ENDBRANCH  31  37
BRANCH  32  40
ATOM     40  O   UNL     1       1.897 -25.173  25.655  1.00  0.00    -0.387 OA
ATOM     41  H   UNL     1       1.403 -25.507  26.448  1.00  0.00     0.211 HD
ENDBRANCH  32  40
ENDBRANCH   1  27
TORSDOF 12
ENDMDL
MODEL 5
REMARK VINA RESULT:    -6.551      1.752      2.452
REMARK INTER + INTRA:         -11.364
REMARK INTER:                  -9.900
REMARK INTRA:                  -1.464
REMARK UNBOUND:                -1.749
REMARK SMILES O=c1c(O[C@@H]2O[C@H](CO)[C@H](O)[C@@H](O)[C@H]2O)c(-c2ccc(O)c(O)c2)oc2cc(O)cc(O)c12
REMARK SMILES IDX 4 1 3 2 16 3 25 4 2 5 26 6 1 7 33 8 27 9 31 10 28 11 30 12
REMARK SMILES IDX 17 13 18 14 19 15 20 16 24 17 22 18 21 19 23 21 32 23 29 25
REMARK SMILES IDX 5 27 14 28 6 29 12 30 7 31 10 32 15 33 13 35 8 37 9 38 11 40
REMARK H PARENT 21 20 23 22 32 24 29 26 15 34 13 36 9 39 11 41
REMARK Flexibility Score: inf
ROOT
ATOM      1  O   UNL     1       1.523 -22.565  26.326  1.00  0.00    -0.454 OA
ENDROOT
BRANCH   1   2
ATOM      2  C   UNL     1       0.787 -23.128  27.387  1.00  0.00     0.214 A 
ATOM      3  C   UNL     1      -0.222 -22.349  27.993  1.00  0.00     0.180 A 
ATOM      4  O   UNL     1      -0.963 -22.861  28.970  1.00  0.00    -0.452 OA
ATOM      5  C   UNL     1       0.997 -24.440  27.864  1.00  0.00     0.239 A 
ATOM      6  C   UNL     1      -0.802 -24.089  29.443  1.00  0.00     0.146 A 
ATOM      7  O   UNL     1       1.904 -25.157  27.365  1.00  0.00    -0.285 OA
ATOM      8  C   UNL     1       0.193 -24.940  28.910  1.00  0.00     0.111 A 
ATOM      9  C   UNL     1      -1.630 -24.533  30.479  1.00  0.00     0.094 A 
ATOM     10  C   UNL     1       0.339 -26.246  29.441  1.00  0.00     0.134 A 
ATOM     11  C   UNL     1      -1.482 -25.822  30.998  1.00  0.00     0.123 A 
ATOM     12  C   UNL     1      -0.501 -26.672  30.481  1.00  0.00     0.093 A 
BRANCH   3  13
ATOM     13  C   UNL     1      -0.528 -20.974  27.540  1.00  0.00     0.025 A 
ATOM     14  C   UNL     1      -1.577 -20.765  26.631  1.00  0.00     0.016 A 
ATOM     15  C   UNL     1      -1.880 -19.476  26.184  1.00  0.00     0.051 A 
ATOM     16  C   UNL     1      -1.148 -18.377  26.646  1.00  0.00     0.157 A 
ATOM     17  C   UNL     1       0.187 -19.865  28.025  1.00  0.00     0.062 A 
ATOM     18  C   UNL     1      -0.111 -18.571  27.574  1.00  0.00     0.158 A 
BRANCH  16  19
ATOM     19  O   UNL     1      -1.468 -17.104  26.176  1.00  0.00    -0.504 OA
ATOM     20  H   UNL     1      -0.779 -16.502  25.741  1.00  0.00     0.293 HD
ENDBRANCH  16  19
BRANCH  18  21
ATOM     21  O   UNL     1       0.617 -17.480  28.047  1.00  0.00    -0.504 OA
ATOM     22  H   UNL     1       1.402 -17.600  28.677  1.00  0.00     0.293 HD
ENDBRANCH  18  21
ENDBRANCH   3  13
BRANCH  10  23
ATOM     23  O   UNL     1       1.308 -27.119  28.948  1.00  0.00    -0.507 OA
ATOM     24  H   UNL     1       1.087 -28.078  28.703  1.00  0.00     0.293 HD
ENDBRANCH  10  23
BRANCH  11  25
ATOM     25  O   UNL     1      -2.304 -26.270  32.030  1.00  0.00    -0.508 OA
ATOM     26  H   UNL     1      -2.972 -27.019  31.887  1.00  0.00     0.293 HD
ENDBRANCH  11  25
ENDBRANCH   1   2
BRANCH   1  27
ATOM     27  C   UNL     1       1.594 -23.057  24.985  1.00  0.00     0.339 C 
ATOM     28  C   UNL     1       0.510 -22.380  24.126  1.00  0.00     0.214 C 
ATOM     29  O   UNL     1       2.897 -22.912  24.429  1.00  0.00    -0.332 OA
ATOM     30  C   UNL     1       0.845 -20.896  23.937  1.00  0.00     0.180 C 
ATOM     31  C   UNL     1       3.298 -21.564  24.208  1.00  0.00     0.179 C 
ATOM     32  C   UNL     1       2.267 -20.763  23.368  1.00  0.00     0.177 C 
BRANCH  28  33
ATOM     33  O   UNL     1       0.420 -23.014  22.875  1.00  0.00    -0.384 OA
ATOM     34  H   UNL     1       1.225 -22.748  22.358  1.00  0.00     0.211 HD
ENDBRANCH  28  33
BRANCH  30  35
ATOM     35  O   UNL     1      -0.070 -20.301  23.052  1.00  0.00    -0.387 OA
ATOM     36  H   UNL     1       0.326 -20.367  22.144  1.00  0.00     0.211 HD
ENDBRANCH  30  35
BRANCH  31  37
ATOM     37  C   UNL     1       3.748 -20.878  25.515  1.00  0.00     0.191 C 
BRANCH  37  38
ATOM     38  O   UNL     1       2.831 -19.883  25.878  1.00  0.00    -0.394 OA
ATOM     39  H   UNL     1       2.153 -20.328  26.451  1.00  0.00     0.210 HD
ENDBRANCH  37  38
ENDBRANCH  31  37
BRANCH  32  40
ATOM     40  O   UNL     1       2.648 -19.416  23.222  1.00  0.00    -0.387 OA
ATOM     41  H   UNL     1       2.677 -19.001  24.123  1.00  0.00     0.211 HD
ENDBRANCH  32  40
ENDBRANCH   1  27
TORSDOF 12
ENDMDL
MODEL 6
REMARK VINA RESULT:    -6.513      1.775      6.068
REMARK INTER + INTRA:         -11.307
REMARK INTER:                  -9.790
REMARK INTRA:                  -1.517
REMARK UNBOUND:                -1.749
REMARK SMILES O=c1c(O[C@@H]2O[C@H](CO)[C@H](O)[C@@H](O)[C@H]2O)c(-c2ccc(O)c(O)c2)oc2cc(O)cc(O)c12
REMARK SMILES IDX 4 1 3 2 16 3 25 4 2 5 26 6 1 7 33 8 27 9 31 10 28 11 30 12
REMARK SMILES IDX 17 13 18 14 19 15 20 16 24 17 22 18 21 19 23 21 32 23 29 25
REMARK SMILES IDX 5 27 14 28 6 29 12 30 7 31 10 32 15 33 13 35 8 37 9 38 11 40
REMARK H PARENT 21 20 23 22 32 24 29 26 15 34 13 36 9 39 11 41
REMARK Flexibility Score: inf
ROOT
ATOM      1  O   UNL     1       0.554 -20.379  26.198  1.00  0.00    -0.454 OA
ENDROOT
BRANCH   1   2
ATOM      2  C   UNL     1      -0.211 -19.245  26.536  1.00  0.00     0.214 A 
ATOM      3  C   UNL     1      -0.935 -19.258  27.746  1.00  0.00     0.180 A 
ATOM      4  O   UNL     1      -1.636 -18.192  28.116  1.00  0.00    -0.452 OA
ATOM      5  C   UNL     1      -0.275 -18.088  25.729  1.00  0.00     0.239 A 
ATOM      6  C   UNL     1      -1.718 -17.084  27.392  1.00  0.00     0.146 A 
ATOM      7  O   UNL     1       0.337 -18.047  24.629  1.00  0.00    -0.285 OA
ATOM      8  C   UNL     1      -1.040 -16.981  26.156  1.00  0.00     0.111 A 
ATOM      9  C   UNL     1      -2.487 -16.017  27.866  1.00  0.00     0.094 A 
ATOM     10  C   UNL     1      -1.153 -15.784  25.407  1.00  0.00     0.134 A 
ATOM     11  C   UNL     1      -2.595 -14.838  27.123  1.00  0.00     0.123 A 
ATOM     12  C   UNL     1      -1.931 -14.725  25.900  1.00  0.00     0.093 A 
BRANCH   3  13
ATOM     13  C   UNL     1      -0.903 -20.418  28.665  1.00  0.00     0.025 A 
ATOM     14  C   UNL     1      -1.772 -21.498  28.444  1.00  0.00     0.016 A 
ATOM     15  C   UNL     1      -1.764 -22.601  29.302  1.00  0.00     0.051 A 
ATOM     16  C   UNL     1      -0.881 -22.647  30.386  1.00  0.00     0.157 A 
ATOM     17  C   UNL     1       0.005 -20.481  29.737  1.00  0.00     0.062 A 
ATOM     18  C   UNL     1       0.011 -21.584  30.603  1.00  0.00     0.158 A 
BRANCH  16  19
ATOM     19  O   UNL     1      -0.901 -23.757  31.229  1.00  0.00    -0.504 OA
ATOM     20  H   UNL     1      -1.568 -23.844  31.987  1.00  0.00     0.293 HD
ENDBRANCH  16  19
BRANCH  18  21
ATOM     21  O   UNL     1       0.902 -21.627  31.674  1.00  0.00    -0.504 OA
ATOM     22  H   UNL     1       1.819 -21.197  31.619  1.00  0.00     0.293 HD
ENDBRANCH  18  21
ENDBRANCH   3  13
BRANCH  10  23
ATOM     23  O   UNL     1      -0.503 -15.637  24.182  1.00  0.00    -0.507 OA
ATOM     24  H   UNL     1      -0.311 -16.431  23.581  1.00  0.00     0.293 HD
ENDBRANCH  10  23
BRANCH  11  25
ATOM     25  O   UNL     1      -3.359 -13.772  27.590  1.00  0.00    -0.508 OA
ATOM     26  H   UNL     1      -3.336 -12.865  27.138  1.00  0.00     0.293 HD
ENDBRANCH  11  25
ENDBRANCH   1   2
BRANCH   1  27
ATOM     27  C   UNL     1       0.177 -21.424  25.298  1.00  0.00     0.339 C 
ATOM     28  C   UNL     1       0.905 -21.239  23.954  1.00  0.00     0.214 C 
ATOM     29  O   UNL     1       0.388 -22.716  25.857  1.00  0.00    -0.332 OA
ATOM     30  C   UNL     1       2.404 -21.502  24.132  1.00  0.00     0.180 C 
ATOM     31  C   UNL     1       1.756 -23.058  26.055  1.00  0.00     0.179 C 
ATOM     32  C   UNL     1       2.607 -22.887  24.767  1.00  0.00     0.177 C 
BRANCH  28  33
ATOM     33  O   UNL     1       0.375 -22.117  22.993  1.00  0.00    -0.384 OA
ATOM     34  H   UNL     1      -0.040 -22.872  23.490  1.00  0.00     0.211 HD
ENDBRANCH  28  33
BRANCH  30  35
ATOM     35  O   UNL     1       3.055 -21.458  22.887  1.00  0.00    -0.387 OA
ATOM     36  H   UNL     1       2.453 -21.903  22.234  1.00  0.00     0.211 HD
ENDBRANCH  30  35
BRANCH  31  37
ATOM     37  C   UNL     1       2.339 -22.385  27.315  1.00  0.00     0.191 C 
BRANCH  37  38
ATOM     38  O   UNL     1       3.328 -23.199  27.883  1.00  0.00    -0.394 OA
ATOM     39  H   UNL     1       3.404 -22.919  28.833  1.00  0.00     0.210 HD
ENDBRANCH  37  38
ENDBRANCH  31  37
BRANCH  32  40
ATOM     40  O   UNL     1       3.967 -23.161  25.002  1.00  0.00    -0.387 OA
ATOM     41  H   UNL     1       4.035 -24.050  25.438  1.00  0.00     0.211 HD
ENDBRANCH  32  40
ENDBRANCH   1  27
TORSDOF 12
ENDMDL
MODEL 7
REMARK VINA RESULT:    -6.481      2.571      5.200
REMARK INTER + INTRA:         -11.260
REMARK INTER:                  -9.811
REMARK INTRA:                  -1.449
REMARK UNBOUND:                -1.749
REMARK SMILES O=c1c(O[C@@H]2O[C@H](CO)[C@H](O)[C@@H](O)[C@H]2O)c(-c2ccc(O)c(O)c2)oc2cc(O)cc(O)c12
REMARK SMILES IDX 4 1 3 2 16 3 25 4 2 5 26 6 1 7 33 8 27 9 31 10 28 11 30 12
REMARK SMILES IDX 17 13 18 14 19 15 20 16 24 17 22 18 21 19 23 21 32 23 29 25
REMARK SMILES IDX 5 27 14 28 6 29 12 30 7 31 10 32 15 33 13 35 8 37 9 38 11 40
REMARK H PARENT 21 20 23 22 32 24 29 26 15 34 13 36 9 39 11 41
REMARK Flexibility Score: inf
ROOT
ATOM      1  O   UNL     1      -0.087 -18.709  26.845  1.00  0.00    -0.454 OA
ENDROOT
BRANCH   1   2
ATOM      2  C   UNL     1       0.397 -20.032  26.841  1.00  0.00     0.214 A 
ATOM      3  C   UNL     1       0.838 -20.591  28.058  1.00  0.00     0.180 A 
ATOM      4  O   UNL     1       1.264 -21.849  28.100  1.00  0.00    -0.452 OA
ATOM      5  C   UNL     1       0.446 -20.833  25.679  1.00  0.00     0.239 A 
ATOM      6  C   UNL     1       1.320 -22.637  27.034  1.00  0.00     0.146 A 
ATOM      7  O   UNL     1       0.084 -20.362  24.569  1.00  0.00    -0.285 OA
ATOM      8  C   UNL     1       0.914 -22.162  25.767  1.00  0.00     0.111 A 
ATOM      9  C   UNL     1       1.789 -23.946  27.181  1.00  0.00     0.094 A 
ATOM     10  C   UNL     1       0.990 -23.030  24.649  1.00  0.00     0.134 A 
ATOM     11  C   UNL     1       1.862 -24.798  26.076  1.00  0.00     0.123 A 
ATOM     12  C   UNL     1       1.465 -24.340  24.817  1.00  0.00     0.093 A 
BRANCH   3  13
ATOM     13  C   UNL     1       0.797 -19.832  29.328  1.00  0.00     0.025 A 
ATOM     14  C   UNL     1       1.926 -19.104  29.734  1.00  0.00     0.016 A 
ATOM     15  C   UNL     1       1.913 -18.386  30.933  1.00  0.00     0.051 A 
ATOM     16  C   UNL     1       0.769 -18.374  31.737  1.00  0.00     0.157 A 
ATOM     17  C   UNL     1      -0.362 -19.794  30.123  1.00  0.00     0.062 A 
ATOM     18  C   UNL     1      -0.377 -19.078  31.329  1.00  0.00     0.158 A 
BRANCH  16  19
ATOM     19  O   UNL     1       0.787 -17.654  32.931  1.00  0.00    -0.504 OA
ATOM     20  H   UNL     1       1.030 -18.086  33.815  1.00  0.00     0.293 HD
ENDBRANCH  16  19
BRANCH  18  21
ATOM     21  O   UNL     1      -1.525 -19.063  32.120  1.00  0.00    -0.504 OA
ATOM     22  H   UNL     1      -2.086 -18.225  32.224  1.00  0.00     0.293 HD
ENDBRANCH  18  21
ENDBRANCH   3  13
BRANCH  10  23
ATOM     23  O   UNL     1       0.602 -22.605  23.379  1.00  0.00    -0.507 OA
ATOM     24  H   UNL     1       1.242 -22.122  22.759  1.00  0.00     0.293 HD
ENDBRANCH  10  23
BRANCH  11  25
ATOM     25  O   UNL     1       2.328 -26.103  26.215  1.00  0.00    -0.508 OA
ATOM     26  H   UNL     1       3.028 -26.345  26.908  1.00  0.00     0.293 HD
ENDBRANCH  11  25
ENDBRANCH   1   2
BRANCH   1  27
ATOM     27  C   UNL     1       0.695 -17.516  26.735  1.00  0.00     0.339 C 
ATOM     28  C   UNL     1       0.717 -17.043  25.270  1.00  0.00     0.214 C 
ATOM     29  O   UNL     1       0.251 -16.499  27.628  1.00  0.00    -0.332 OA
ATOM     30  C   UNL     1      -0.675 -16.548  24.860  1.00  0.00     0.180 C 
ATOM     31  C   UNL     1      -1.035 -15.968  27.325  1.00  0.00     0.179 C 
ATOM     32  C   UNL     1      -1.148 -15.476  25.856  1.00  0.00     0.177 C 
BRANCH  28  33
ATOM     33  O   UNL     1       1.659 -16.013  25.109  1.00  0.00    -0.384 OA
ATOM     34  H   UNL     1       1.601 -15.440  25.919  1.00  0.00     0.211 HD
ENDBRANCH  28  33
BRANCH  30  35
ATOM     35  O   UNL     1      -0.633 -15.999  23.568  1.00  0.00    -0.387 OA
ATOM     36  H   UNL     1      -0.015 -15.223  23.606  1.00  0.00     0.211 HD
ENDBRANCH  30  35
BRANCH  31  37
ATOM     37  C   UNL     1      -2.168 -16.909  27.787  1.00  0.00     0.191 C 
BRANCH  37  38
ATOM     38  O   UNL     1      -3.385 -16.216  27.824  1.00  0.00    -0.394 OA
ATOM     39  H   UNL     1      -3.979 -16.666  27.168  1.00  0.00     0.210 HD
ENDBRANCH  37  38
ENDBRANCH  31  37
BRANCH  32  40
ATOM     40  O   UNL     1      -2.446 -15.021  25.558  1.00  0.00    -0.387 OA
ATOM     41  H   UNL     1      -2.814 -14.579  26.366  1.00  0.00     0.211 HD
ENDBRANCH  32  40
ENDBRANCH   1  27
TORSDOF 12
ENDMDL
MODEL 8
REMARK VINA RESULT:    -6.228      2.528      3.499
REMARK INTER + INTRA:         -10.889
REMARK INTER:                  -9.454
REMARK INTRA:                  -1.435
REMARK UNBOUND:                -1.749
REMARK SMILES O=c1c(O[C@@H]2O[C@H](CO)[C@H](O)[C@@H](O)[C@H]2O)c(-c2ccc(O)c(O)c2)oc2cc(O)cc(O)c12
REMARK SMILES IDX 4 1 3 2 16 3 25 4 2 5 26 6 1 7 33 8 27 9 31 10 28 11 30 12
REMARK SMILES IDX 17 13 18 14 19 15 20 16 24 17 22 18 21 19 23 21 32 23 29 25
REMARK SMILES IDX 5 27 14 28 6 29 12 30 7 31 10 32 15 33 13 35 8 37 9 38 11 40
REMARK H PARENT 21 20 23 22 32 24 29 26 15 34 13 36 9 39 11 41
REMARK Flexibility Score: inf
ROOT
ATOM      1  O   UNL     1       1.212 -21.492  26.677  1.00  0.00    -0.454 OA
ENDROOT
BRANCH   1   2
ATOM      2  C   UNL     1       1.683 -22.432  27.614  1.00  0.00     0.214 A 
ATOM      3  C   UNL     1       1.767 -22.048  28.968  1.00  0.00     0.180 A 
ATOM      4  O   UNL     1       2.169 -22.921  29.885  1.00  0.00    -0.452 OA
ATOM      5  C   UNL     1       2.060 -23.748  27.265  1.00  0.00     0.239 A 
ATOM      6  C   UNL     1       2.526 -24.167  29.602  1.00  0.00     0.146 A 
ATOM      7  O   UNL     1       2.023 -24.120  26.063  1.00  0.00    -0.285 OA
ATOM      8  C   UNL     1       2.490 -24.640  28.271  1.00  0.00     0.111 A 
ATOM      9  C   UNL     1       2.941 -25.008  30.639  1.00  0.00     0.094 A 
ATOM     10  C   UNL     1       2.882 -25.975  28.004  1.00  0.00     0.134 A 
ATOM     11  C   UNL     1       3.325 -26.324  30.371  1.00  0.00     0.123 A 
ATOM     12  C   UNL     1       3.296 -26.803  29.059  1.00  0.00     0.093 A 
BRANCH   3  13
ATOM     13  C   UNL     1       1.367 -20.699  29.425  1.00  0.00     0.025 A 
ATOM     14  C   UNL     1       2.089 -19.579  28.984  1.00  0.00     0.016 A 
ATOM     15  C   UNL     1       1.735 -18.295  29.409  1.00  0.00     0.051 A 
ATOM     16  C   UNL     1       0.647 -18.110  30.269  1.00  0.00     0.157 A 
ATOM     17  C   UNL     1       0.257 -20.508  30.266  1.00  0.00     0.062 A 
ATOM     18  C   UNL     1      -0.099 -19.221  30.697  1.00  0.00     0.158 A 
BRANCH  16  19
ATOM     19  O   UNL     1       0.322 -16.819  30.681  1.00  0.00    -0.504 OA
ATOM     20  H   UNL     1       0.840 -16.007  30.365  1.00  0.00     0.293 HD
ENDBRANCH  16  19
BRANCH  18  21
ATOM     21  O   UNL     1      -1.190 -19.045  31.547  1.00  0.00    -0.504 OA
ATOM     22  H   UNL     1      -1.719 -18.180  31.558  1.00  0.00     0.293 HD
ENDBRANCH  18  21
ENDBRANCH   3  13
BRANCH  10  23
ATOM     23  O   UNL     1       2.864 -26.485  26.706  1.00  0.00    -0.507 OA
ATOM     24  H   UNL     1       3.394 -27.310  26.449  1.00  0.00     0.293 HD
ENDBRANCH  10  23
BRANCH  11  25
ATOM     25  O   UNL     1       3.739 -27.167  31.399  1.00  0.00    -0.508 OA
ATOM     26  H   UNL     1       3.402 -27.050  32.348  1.00  0.00     0.293 HD
ENDBRANCH  11  25
ENDBRANCH   1   2
BRANCH   1  27
ATOM     27  C   UNL     1      -0.071 -21.488  26.046  1.00  0.00     0.339 C 
ATOM     28  C   UNL     1      -0.908 -20.311  26.580  1.00  0.00     0.214 C 
ATOM     29  O   UNL     1       0.027 -21.483  24.626  1.00  0.00    -0.332 OA
ATOM     30  C   UNL     1      -0.313 -18.984  26.094  1.00  0.00     0.180 C 
ATOM     31  C   UNL     1       0.565 -20.285  24.075  1.00  0.00     0.179 C 
ATOM     32  C   UNL     1      -0.184 -19.015  24.562  1.00  0.00     0.177 C 
BRANCH  28  33
ATOM     33  O   UNL     1      -2.239 -20.428  26.144  1.00  0.00    -0.384 OA
ATOM     34  H   UNL     1      -2.584 -19.504  26.018  1.00  0.00     0.211 HD
ENDBRANCH  28  33
BRANCH  30  35
ATOM     35  O   UNL     1      -1.142 -17.914  26.472  1.00  0.00    -0.387 OA
ATOM     36  H   UNL     1      -0.550 -17.127  26.602  1.00  0.00     0.211 HD
ENDBRANCH  30  35
BRANCH  31  37
ATOM     37  C   UNL     1       2.101 -20.229  24.213  1.00  0.00     0.191 C 
BRANCH  37  38
ATOM     38  O   UNL     1       2.649 -19.454  23.182  1.00  0.00    -0.394 OA
ATOM     39  H   UNL     1       2.979 -20.096  22.499  1.00  0.00     0.210 HD
ENDBRANCH  37  38
ENDBRANCH  31  37
BRANCH  32  40
ATOM     40  O   UNL     1       0.406 -17.839  24.064  1.00  0.00    -0.387 OA
ATOM     41  H   UNL     1      -0.058 -17.062  24.470  1.00  0.00     0.211 HD
ENDBRANCH  32  40
ENDBRANCH   1  27
TORSDOF 12
ENDMDL
MODEL 9
REMARK VINA RESULT:    -6.191      1.774      7.113
REMARK INTER + INTRA:         -10.835
REMARK INTER:                  -9.799
REMARK INTRA:                  -1.036
REMARK UNBOUND:                -1.749
REMARK SMILES O=c1c(O[C@@H]2O[C@H](CO)[C@H](O)[C@@H](O)[C@H]2O)c(-c2ccc(O)c(O)c2)oc2cc(O)cc(O)c12
REMARK SMILES IDX 4 1 3 2 16 3 25 4 2 5 26 6 1 7 33 8 27 9 31 10 28 11 30 12
REMARK SMILES IDX 17 13 18 14 19 15 20 16 24 17 22 18 21 19 23 21 32 23 29 25
REMARK SMILES IDX 5 27 14 28 6 29 12 30 7 31 10 32 15 33 13 35 8 37 9 38 11 40
REMARK H PARENT 21 20 23 22 32 24 29 26 15 34 13 36 9 39 11 41
REMARK Flexibility Score: inf
ROOT
ATOM      1  O   UNL     1      -0.504 -20.546  28.415  1.00  0.00    -0.454 OA
ENDROOT
BRANCH   1   2
ATOM      2  C   UNL     1      -0.697 -19.289  27.809  1.00  0.00     0.214 A 
ATOM      3  C   UNL     1      -0.158 -19.072  26.524  1.00  0.00     0.180 A 
ATOM      4  O   UNL     1      -0.353 -17.912  25.905  1.00  0.00    -0.452 OA
ATOM      5  C   UNL     1      -1.419 -18.240  28.419  1.00  0.00     0.239 A 
ATOM      6  C   UNL     1      -1.030 -16.904  26.439  1.00  0.00     0.146 A 
ATOM      7  O   UNL     1      -1.894 -18.387  29.575  1.00  0.00    -0.285 OA
ATOM      8  C   UNL     1      -1.595 -17.021  27.729  1.00  0.00     0.111 A 
ATOM      9  C   UNL     1      -1.176 -15.721  25.709  1.00  0.00     0.094 A 
ATOM     10  C   UNL     1      -2.309 -15.923  28.270  1.00  0.00     0.134 A 
ATOM     11  C   UNL     1      -1.881 -14.641  26.247  1.00  0.00     0.123 A 
ATOM     12  C   UNL     1      -2.443 -14.743  27.522  1.00  0.00     0.093 A 
BRANCH   3  13
ATOM     13  C   UNL     1       0.590 -20.124  25.800  1.00  0.00     0.025 A 
ATOM     14  C   UNL     1       1.994 -20.106  25.812  1.00  0.00     0.016 A 
ATOM     15  C   UNL     1       2.721 -21.086  25.130  1.00  0.00     0.051 A 
ATOM     16  C   UNL     1       2.058 -22.104  24.438  1.00  0.00     0.157 A 
ATOM     17  C   UNL     1      -0.073 -21.166  25.129  1.00  0.00     0.062 A 
ATOM     18  C   UNL     1       0.653 -22.147  24.439  1.00  0.00     0.158 A 
BRANCH  16  19
ATOM     19  O   UNL     1       2.809 -23.063  23.761  1.00  0.00    -0.504 OA
ATOM     20  H   UNL     1       2.585 -23.354  22.816  1.00  0.00     0.293 HD
ENDBRANCH  16  19
BRANCH  18  21
ATOM     21  O   UNL     1      -0.015 -23.165  23.760  1.00  0.00    -0.504 OA
ATOM     22  H   UNL     1       0.366 -24.102  23.700  1.00  0.00     0.293 HD
ENDBRANCH  18  21
ENDBRANCH   3  13
BRANCH  10  23
ATOM     23  O   UNL     1      -2.882 -15.992  29.539  1.00  0.00    -0.507 OA
ATOM     24  H   UNL     1      -3.883 -16.090  29.668  1.00  0.00     0.293 HD
ENDBRANCH  10  23
BRANCH  11  25
ATOM     25  O   UNL     1      -2.031 -13.459  25.524  1.00  0.00    -0.508 OA
ATOM     26  H   UNL     1      -1.238 -12.865  25.311  1.00  0.00     0.293 HD
ENDBRANCH  11  25
ENDBRANCH   1   2
BRANCH   1  27
ATOM     27  C   UNL     1      -0.302 -20.798  29.808  1.00  0.00     0.339 C 
ATOM     28  C   UNL     1      -1.528 -21.528  30.386  1.00  0.00     0.214 C 
ATOM     29  O   UNL     1       0.913 -21.496  30.058  1.00  0.00    -0.332 OA
ATOM     30  C   UNL     1      -1.606 -22.950  29.816  1.00  0.00     0.180 C 
ATOM     31  C   UNL     1       0.937 -22.834  29.569  1.00  0.00     0.179 C 
ATOM     32  C   UNL     1      -0.272 -23.672  30.066  1.00  0.00     0.177 C 
BRANCH  28  33
ATOM     33  O   UNL     1      -1.444 -21.578  31.788  1.00  0.00    -0.384 OA
ATOM     34  H   UNL     1      -2.352 -21.804  32.123  1.00  0.00     0.211 HD
ENDBRANCH  28  33
BRANCH  30  35
ATOM     35  O   UNL     1      -2.648 -23.663  30.432  1.00  0.00    -0.387 OA
ATOM     36  H   UNL     1      -2.444 -23.683  31.404  1.00  0.00     0.211 HD
ENDBRANCH  30  35
BRANCH  31  37
ATOM     37  C   UNL     1       1.185 -22.885  28.047  1.00  0.00     0.191 C 
BRANCH  37  38
ATOM     38  O   UNL     1       1.805 -24.092  27.700  1.00  0.00    -0.394 OA
ATOM     39  H   UNL     1       2.144 -24.482  28.549  1.00  0.00     0.210 HD
ENDBRANCH  37  38
ENDBRANCH  31  37
BRANCH  32  40
ATOM     40  O   UNL     1      -0.268 -24.968  29.517  1.00  0.00    -0.387 OA
ATOM     41  H   UNL     1      -0.462 -24.894  28.546  1.00  0.00     0.211 HD
ENDBRANCH  32  40
ENDBRANCH   1  27
TORSDOF 12
ENDMDL
