MODEL 1
REMARK VINA RESULT:    -3.419      0.000      0.000
REMARK INTER + INTRA:          -4.498
REMARK INTER:                  -5.018
REMARK INTRA:                   0.521
REMARK UNBOUND:                 0.521
REMARK SMILES C=C1CC=CC(C)(C)CC=C(C)CCC1
REMARK SMILES IDX 2 1 1 2 15 3 14 4 13 5 11 6 12 7 10 8 3 10 4 11 5 12 6 13
REMARK SMILES IDX 7 14 8 15 9 16
REMARK H PARENT
REMARK Flexibility Score: 60.00
ROOT
ATOM      1  C   UNL     1      31.527  22.546  11.893  1.00  0.00    -0.074 C 
ATOM      2  C   UNL     1      31.763  21.655  10.913  1.00  0.00     0.008 C 
ENDROOT
BRANCH   1   3
ATOM      3  C   UNL     1      30.428  22.249  12.914  1.00  0.00     0.031 C 
BRANCH   3   4
ATOM      4  C   UNL     1      29.983  23.442  13.790  1.00  0.00     0.009 C 
BRANCH   4   5
ATOM      5  C   UNL     1      28.474  23.757  13.673  1.00  0.00     0.030 C 
BRANCH   5   6
ATOM      6  C   UNL     1      28.038  24.247  12.296  1.00  0.00    -0.077 C 
ATOM      7  C   UNL     1      27.034  23.432  11.520  1.00  0.00     0.039 C 
ATOM      8  C   UNL     1      28.432  25.435  11.764  1.00  0.00    -0.027 CG0
ATOM      9  G   UNL     1      29.503  26.330  12.344  1.00  0.00     0.000 G0
ENDBRANCH   5   6
ENDBRANCH   4   5
ENDBRANCH   3   4
ENDBRANCH   1   3
BRANCH   1  10
ATOM     10  C   UNL     1      32.111  23.946  11.791  1.00  0.00     0.057 C 
BRANCH  10  11
ATOM     11  C   UNL     1      31.769  24.739  10.530  1.00  0.00    -0.026 C 
ATOM     12  C   UNL     1      31.047  25.882  10.350  1.00  0.00    -0.024 C 
BRANCH  12  13
ATOM     13  C   UNL     1      30.539  26.928  11.357  1.00  0.00    -0.014 C 
ATOM     14  C   UNL     1      31.766  27.556  12.048  1.00  0.00     0.016 C 
ATOM     15  C   UNL     1      29.832  28.054  10.566  1.00  0.00     0.016 C 
BRANCH  13  16
ATOM     16  C   UNL     1      29.500  26.331  12.345  1.00  0.00     0.038 CG0
ATOM     17  G   UNL     1      28.413  25.465  11.749  1.00  0.00     0.000 G0
ENDBRANCH  13  16
ENDBRANCH  12  13
ENDBRANCH  10  11
ENDBRANCH   1  10
TORSDOF 0
ENDMDL
MODEL 2
REMARK VINA RESULT:    -3.278      1.379      3.483
REMARK INTER + INTRA:          -4.290
REMARK INTER:                  -4.654
REMARK INTRA:                   0.363
REMARK UNBOUND:                 0.521
REMARK SMILES C=C1CC=CC(C)(C)CC=C(C)CCC1
REMARK SMILES IDX 2 1 1 2 15 3 14 4 13 5 11 6 12 7 10 8 3 10 4 11 5 12 6 13
REMARK SMILES IDX 7 14 8 15 9 16
REMARK H PARENT
REMARK Flexibility Score: 60.00
ROOT
ATOM      1  C   UNL     1      27.600  24.177  11.956  1.00  0.00    -0.074 C 
ATOM      2  C   UNL     1      26.511  23.504  11.545  1.00  0.00     0.008 C 
ENDROOT
BRANCH   1   3
ATOM      3  C   UNL     1      28.201  23.848  13.325  1.00  0.00     0.031 C 
BRANCH   3   4
ATOM      4  C   UNL     1      29.241  22.705  13.346  1.00  0.00     0.009 C 
BRANCH   4   5
ATOM      5  C   UNL     1      30.489  22.999  12.483  1.00  0.00     0.030 C 
BRANCH   5   6
ATOM      6  C   UNL     1      31.517  23.910  13.149  1.00  0.00    -0.077 C 
ATOM      7  C   UNL     1      32.125  23.479  14.460  1.00  0.00     0.039 C 
ATOM      8  C   UNL     1      31.990  25.050  12.579  1.00  0.00    -0.027 CG0
ATOM      9  G   UNL     1      31.430  25.689  11.329  1.00  0.00     0.000 G0
ENDBRANCH   5   6
ENDBRANCH   4   5
ENDBRANCH   3   4
ENDBRANCH   1   3
BRANCH   1  10
ATOM     10  C   UNL     1      28.019  25.445  11.228  1.00  0.00     0.057 C 
BRANCH  10  11
ATOM     11  C   UNL     1      28.434  26.629  12.100  1.00  0.00    -0.026 C 
ATOM     12  C   UNL     1      29.637  27.251  12.265  1.00  0.00    -0.024 C 
BRANCH  12  13
ATOM     13  C   UNL     1      30.940  27.167  11.453  1.00  0.00    -0.014 C 
ATOM     14  C   UNL     1      30.704  27.872  10.102  1.00  0.00     0.016 C 
ATOM     15  C   UNL     1      32.028  27.970  12.205  1.00  0.00     0.016 C 
BRANCH  13  16
ATOM     16  C   UNL     1      31.451  25.706  11.318  1.00  0.00     0.038 CG0
ATOM     17  G   UNL     1      31.981  25.052  12.573  1.00  0.00     0.000 G0
ENDBRANCH  13  16
ENDBRANCH  12  13
ENDBRANCH  10  11
ENDBRANCH   1  10
TORSDOF 0
ENDMDL
MODEL 3
REMARK VINA RESULT:    -3.252      1.684      3.599
REMARK INTER + INTRA:          -4.253
REMARK INTER:                  -4.653
REMARK INTRA:                   0.400
REMARK UNBOUND:                 0.521
REMARK SMILES C=C1CC=CC(C)(C)CC=C(C)CCC1
REMARK SMILES IDX 2 1 1 2 15 3 14 4 13 5 11 6 12 7 10 8 3 10 4 11 5 12 6 13
REMARK SMILES IDX 7 14 8 15 9 16
REMARK H PARENT
REMARK Flexibility Score: 60.00
ROOT
ATOM      1  C   UNL     1      28.042  24.732  12.252  1.00  0.00    -0.074 C 
ATOM      2  C   UNL     1      27.481  24.103  13.300  1.00  0.00     0.008 C 
ENDROOT
BRANCH   1   3
ATOM      3  C   UNL     1      28.889  23.922  11.269  1.00  0.00     0.031 C 
BRANCH   3   4
ATOM      4  C   UNL     1      30.222  23.370  11.825  1.00  0.00     0.009 C 
BRANCH   4   5
ATOM      5  C   UNL     1      31.306  24.457  12.004  1.00  0.00     0.030 C 
BRANCH   5   6
ATOM      6  C   UNL     1      31.807  25.069  10.699  1.00  0.00    -0.077 C 
ATOM      7  C   UNL     1      32.115  24.154   9.541  1.00  0.00     0.039 C 
ATOM      8  C   UNL     1      31.902  26.408  10.487  1.00  0.00    -0.027 CG0
ATOM      9  G   UNL     1      31.735  27.467  11.553  1.00  0.00     0.000 G0
ENDBRANCH   5   6
ENDBRANCH   4   5
ENDBRANCH   3   4
ENDBRANCH   1   3
BRANCH   1  10
ATOM     10  C   UNL     1      28.103  26.252  12.233  1.00  0.00     0.057 C 
BRANCH  10  11
ATOM     11  C   UNL     1      28.474  26.905  10.902  1.00  0.00    -0.026 C 
ATOM     12  C   UNL     1      29.385  27.873  10.595  1.00  0.00    -0.024 C 
BRANCH  12  13
ATOM     13  C   UNL     1      30.543  28.469  11.412  1.00  0.00    -0.014 C 
ATOM     14  C   UNL     1      30.942  29.809  10.760  1.00  0.00     0.016 C 
ATOM     15  C   UNL     1      30.016  28.789  12.832  1.00  0.00     0.016 C 
BRANCH  13  16
ATOM     16  C   UNL     1      31.723  27.472  11.569  1.00  0.00     0.038 CG0
ATOM     17  G   UNL     1      31.871  26.419  10.495  1.00  0.00     0.000 G0
ENDBRANCH  13  16
ENDBRANCH  12  13
ENDBRANCH  10  11
ENDBRANCH   1  10
TORSDOF 0
ENDMDL
MODEL 4
REMARK VINA RESULT:    -2.872      1.102      3.621
REMARK INTER + INTRA:          -3.695
REMARK INTER:                  -4.467
REMARK INTRA:                   0.773
REMARK UNBOUND:                 0.521
REMARK SMILES C=C1CC=CC(C)(C)CC=C(C)CCC1
REMARK SMILES IDX 2 1 1 2 15 3 14 4 13 5 11 6 12 7 10 8 3 10 4 11 5 12 6 13
REMARK SMILES IDX 7 14 8 15 9 16
REMARK H PARENT
REMARK Flexibility Score: 60.00
ROOT
ATOM      1  C   UNL     1      31.583  23.878  12.600  1.00  0.00    -0.074 C 
ATOM      2  C   UNL     1      32.002  22.698  12.111  1.00  0.00     0.008 C 
ENDROOT
BRANCH   1   3
ATOM      3  C   UNL     1      32.122  25.169  11.981  1.00  0.00     0.031 C 
BRANCH   3   4
ATOM      4  C   UNL     1      32.125  26.409  12.905  1.00  0.00     0.009 C 
BRANCH   4   5
ATOM      5  C   UNL     1      30.820  27.233  12.825  1.00  0.00     0.030 C 
BRANCH   5   6
ATOM      6  C   UNL     1      30.145  27.214  11.457  1.00  0.00    -0.077 C 
ATOM      7  C   UNL     1      30.764  28.003  10.332  1.00  0.00     0.039 C 
ATOM      8  C   UNL     1      29.061  26.445  11.166  1.00  0.00    -0.027 CG0
ATOM      9  G   UNL     1      28.250  25.673  12.182  1.00  0.00     0.000 G0
ENDBRANCH   5   6
ENDBRANCH   4   5
ENDBRANCH   3   4
ENDBRANCH   1   3
BRANCH   1  10
ATOM     10  C   UNL     1      30.855  23.922  13.935  1.00  0.00     0.057 C 
BRANCH  10  11
ATOM     11  C   UNL     1      29.506  23.208  14.002  1.00  0.00    -0.026 C 
ATOM     12  C   UNL     1      28.357  23.379  13.287  1.00  0.00    -0.024 C 
BRANCH  12  13
ATOM     13  C   UNL     1      28.078  24.157  11.990  1.00  0.00    -0.014 C 
ATOM     14  C   UNL     1      28.985  23.578  10.885  1.00  0.00     0.016 C 
ATOM     15  C   UNL     1      26.614  23.885  11.571  1.00  0.00     0.016 C 
BRANCH  13  16
ATOM     16  C   UNL     1      28.229  25.691  12.185  1.00  0.00     0.038 CG0
ATOM     17  G   UNL     1      29.056  26.430  11.159  1.00  0.00     0.000 G0
ENDBRANCH  13  16
ENDBRANCH  12  13
ENDBRANCH  10  11
ENDBRANCH   1  10
TORSDOF 0
ENDMDL
MODEL 5
REMARK VINA RESULT:    -2.678      1.565      4.855
REMARK INTER + INTRA:          -3.409
REMARK INTER:                  -4.438
REMARK INTRA:                   1.029
REMARK UNBOUND:                 0.521
REMARK SMILES C=C1CC=CC(C)(C)CC=C(C)CCC1
REMARK SMILES IDX 2 1 1 2 15 3 14 4 13 5 11 6 12 7 10 8 3 10 4 11 5 12 6 13
REMARK SMILES IDX 7 14 8 15 9 16
REMARK H PARENT
REMARK Flexibility Score: 60.00
ROOT
ATOM      1  C   UNL     1      28.296  26.787  11.655  1.00  0.00    -0.074 C 
ATOM      2  C   UNL     1      27.098  27.171  12.131  1.00  0.00     0.008 C 
ENDROOT
BRANCH   1   3
ATOM      3  C   UNL     1      29.229  27.844  11.059  1.00  0.00     0.031 C 
BRANCH   3   4
ATOM      4  C   UNL     1      30.139  28.583  12.066  1.00  0.00     0.009 C 
BRANCH   4   5
ATOM      5  C   UNL     1      31.417  27.794  12.428  1.00  0.00     0.030 C 
BRANCH   5   6
ATOM      6  C   UNL     1      31.806  26.725  11.411  1.00  0.00    -0.077 C 
ATOM      7  C   UNL     1      32.116  27.147   9.997  1.00  0.00     0.039 C 
ATOM      8  C   UNL     1      31.984  25.415  11.731  1.00  0.00    -0.027 CG0
ATOM      9  G   UNL     1      31.625  24.793  13.061  1.00  0.00     0.000 G0
ENDBRANCH   5   6
ENDBRANCH   4   5
ENDBRANCH   3   4
ENDBRANCH   1   3
BRANCH   1  10
ATOM     10  C   UNL     1      28.574  25.311  11.421  1.00  0.00     0.057 C 
BRANCH  10  11
ATOM     11  C   UNL     1      28.469  24.393  12.638  1.00  0.00    -0.026 C 
ATOM     12  C   UNL     1      29.373  23.545  13.210  1.00  0.00    -0.024 C 
BRANCH  12  13
ATOM     13  C   UNL     1      30.890  23.396  13.008  1.00  0.00    -0.014 C 
ATOM     14  C   UNL     1      31.406  22.370  14.037  1.00  0.00     0.016 C 
ATOM     15  C   UNL     1      31.132  22.797  11.602  1.00  0.00     0.016 C 
BRANCH  13  16
ATOM     16  C   UNL     1      31.624  24.763  13.062  1.00  0.00     0.038 CG0
ATOM     17  G   UNL     1      31.974  25.402  11.737  1.00  0.00     0.000 G0
ENDBRANCH  13  16
ENDBRANCH  12  13
ENDBRANCH  10  11
ENDBRANCH   1  10
TORSDOF 0
ENDMDL
MODEL 6
REMARK VINA RESULT:    -2.496      1.333      2.303
REMARK INTER + INTRA:          -3.142
REMARK INTER:                  -4.580
REMARK INTRA:                   1.438
REMARK UNBOUND:                 0.521
REMARK SMILES C=C1CC=CC(C)(C)CC=C(C)CCC1
REMARK SMILES IDX 2 1 1 2 15 3 14 4 13 5 11 6 12 7 10 8 3 10 4 11 5 12 6 13
REMARK SMILES IDX 7 14 8 15 9 16
REMARK H PARENT
REMARK Flexibility Score: 60.00
ROOT
ATOM      1  C   UNL     1      31.798  24.783  12.906  1.00  0.00    -0.074 C 
ATOM      2  C   UNL     1      32.005  24.205  14.103  1.00  0.00     0.008 C 
ENDROOT
BRANCH   1   3
ATOM      3  C   UNL     1      31.551  23.893  11.687  1.00  0.00     0.031 C 
BRANCH   3   4
ATOM      4  C   UNL     1      30.178  23.185  11.637  1.00  0.00     0.009 C 
BRANCH   4   5
ATOM      5  C   UNL     1      29.310  23.447  12.889  1.00  0.00     0.030 C 
BRANCH   5   6
ATOM      6  C   UNL     1      28.013  24.201  12.609  1.00  0.00    -0.077 C 
ATOM      7  C   UNL     1      26.729  23.680  13.202  1.00  0.00     0.039 C 
ATOM      8  C   UNL     1      27.961  25.378  11.929  1.00  0.00    -0.027 CG0
ATOM      9  G   UNL     1      29.120  25.996  11.181  1.00  0.00     0.000 G0
ENDBRANCH   5   6
ENDBRANCH   4   5
ENDBRANCH   3   4
ENDBRANCH   1   3
BRANCH   1  10
ATOM     10  C   UNL     1      32.125  26.256  12.717  1.00  0.00     0.057 C 
BRANCH  10  11
ATOM     11  C   UNL     1      31.120  27.259  13.283  1.00  0.00    -0.026 C 
ATOM     12  C   UNL     1      30.034  27.863  12.721  1.00  0.00    -0.024 C 
BRANCH  12  13
ATOM     13  C   UNL     1      29.272  27.568  11.418  1.00  0.00    -0.014 C 
ATOM     14  C   UNL     1      27.945  28.353  11.457  1.00  0.00     0.016 C 
ATOM     15  C   UNL     1      30.101  28.128  10.238  1.00  0.00     0.016 C 
BRANCH  13  16
ATOM     16  C   UNL     1      29.093  26.044  11.178  1.00  0.00     0.038 CG0
ATOM     17  G   UNL     1      27.959  25.368  11.913  1.00  0.00     0.000 G0
ENDBRANCH  13  16
ENDBRANCH  12  13
ENDBRANCH  10  11
ENDBRANCH   1  10
TORSDOF 0
ENDMDL
MODEL 7
REMARK VINA RESULT:    -2.486      1.443      4.191
REMARK INTER + INTRA:          -3.128
REMARK INTER:                  -4.433
REMARK INTRA:                   1.305
REMARK UNBOUND:                 0.521
REMARK SMILES C=C1CC=CC(C)(C)CC=C(C)CCC1
REMARK SMILES IDX 2 1 1 2 15 3 14 4 13 5 11 6 12 7 10 8 3 10 4 11 5 12 6 13
REMARK SMILES IDX 7 14 8 15 9 16
REMARK H PARENT
REMARK Flexibility Score: 60.00
ROOT
ATOM      1  C   UNL     1      31.901  27.514  11.215  1.00  0.00    -0.074 C 
ATOM      2  C   UNL     1      32.111  27.426  12.540  1.00  0.00     0.008 C 
ENDROOT
BRANCH   1   3
ATOM      3  C   UNL     1      31.372  28.828  10.636  1.00  0.00     0.031 C 
BRANCH   3   4
ATOM      4  C   UNL     1      30.334  29.576  11.503  1.00  0.00     0.009 C 
BRANCH   4   5
ATOM      5  C   UNL     1      29.600  28.657  12.505  1.00  0.00     0.030 C 
BRANCH   5   6
ATOM      6  C   UNL     1      28.446  27.861  11.902  1.00  0.00    -0.077 C 
ATOM      7  C   UNL     1      27.381  28.599  11.131  1.00  0.00     0.039 C 
ATOM      8  C   UNL     1      28.372  26.503  11.937  1.00  0.00    -0.027 CG0
ATOM      9  G   UNL     1      29.285  25.608  12.743  1.00  0.00     0.000 G0
ENDBRANCH   5   6
ENDBRANCH   4   5
ENDBRANCH   3   4
ENDBRANCH   1   3
BRANCH   1  10
ATOM     10  C   UNL     1      31.878  26.249  10.372  1.00  0.00     0.057 C 
BRANCH  10  11
ATOM     11  C   UNL     1      32.087  24.929  11.112  1.00  0.00    -0.026 C 
ATOM     12  C   UNL     1      31.246  24.185  11.887  1.00  0.00    -0.024 C 
BRANCH  12  13
ATOM     13  C   UNL     1      29.723  24.257  12.085  1.00  0.00    -0.014 C 
ATOM     14  C   UNL     1      29.054  23.979  10.723  1.00  0.00     0.016 C 
ATOM     15  C   UNL     1      29.307  23.113  13.041  1.00  0.00     0.016 C 
BRANCH  13  16
ATOM     16  C   UNL     1      29.281  25.594  12.740  1.00  0.00     0.038 CG0
ATOM     17  G   UNL     1      28.364  26.479  11.928  1.00  0.00     0.000 G0
ENDBRANCH  13  16
ENDBRANCH  12  13
ENDBRANCH  10  11
ENDBRANCH   1  10
TORSDOF 0
ENDMDL
MODEL 8
REMARK VINA RESULT:    -2.483      1.317      3.975
REMARK INTER + INTRA:          -3.123
REMARK INTER:                  -3.805
REMARK INTRA:                   0.682
REMARK UNBOUND:                 0.521
REMARK SMILES C=C1CC=CC(C)(C)CC=C(C)CCC1
REMARK SMILES IDX 2 1 1 2 15 3 14 4 13 5 11 6 12 7 10 8 3 10 4 11 5 12 6 13
REMARK SMILES IDX 7 14 8 15 9 16
REMARK H PARENT
REMARK Flexibility Score: 60.00
ROOT
ATOM      1  C   UNL     1      32.111  25.478  12.518  1.00  0.00    -0.074 C 
ATOM      2  C   UNL     1      32.081  26.326  13.562  1.00  0.00     0.008 C 
ENDROOT
BRANCH   1   3
ATOM      3  C   UNL     1      32.125  26.052  11.100  1.00  0.00     0.031 C 
BRANCH   3   4
ATOM      4  C   UNL     1      31.998  27.589  10.994  1.00  0.00     0.009 C 
BRANCH   4   5
ATOM      5  C   UNL     1      30.579  28.058  10.598  1.00  0.00     0.030 C 
BRANCH   5   6
ATOM      6  C   UNL     1      29.558  28.005  11.731  1.00  0.00    -0.077 C 
ATOM      7  C   UNL     1      29.487  29.161  12.697  1.00  0.00     0.039 C 
ATOM      8  C   UNL     1      28.638  27.013  11.865  1.00  0.00    -0.027 CG0
ATOM      9  G   UNL     1      28.621  25.734  11.060  1.00  0.00     0.000 G0
ENDBRANCH   5   6
ENDBRANCH   4   5
ENDBRANCH   3   4
ENDBRANCH   1   3
BRANCH   1  10
ATOM     10  C   UNL     1      31.809  24.004  12.738  1.00  0.00     0.057 C 
BRANCH  10  11
ATOM     11  C   UNL     1      30.959  23.313  11.672  1.00  0.00    -0.026 C 
ATOM     12  C   UNL     1      29.628  23.395  11.385  1.00  0.00    -0.024 C 
BRANCH  12  13
ATOM     13  C   UNL     1      28.553  24.393  11.846  1.00  0.00    -0.014 C 
ATOM     14  C   UNL     1      27.184  23.688  11.759  1.00  0.00     0.016 C 
ATOM     15  C   UNL     1      28.806  24.720  13.337  1.00  0.00     0.016 C 
BRANCH  13  16
ATOM     16  C   UNL     1      28.622  25.730  11.059  1.00  0.00     0.038 CG0
ATOM     17  G   UNL     1      28.637  27.001  11.877  1.00  0.00     0.000 G0
ENDBRANCH  13  16
ENDBRANCH  12  13
ENDBRANCH  10  11
ENDBRANCH   1  10
TORSDOF 0
ENDMDL
MODEL 9
REMARK VINA RESULT:    -2.005      1.229      3.632
REMARK INTER + INTRA:          -2.422
REMARK INTER:                  -3.501
REMARK INTRA:                   1.079
REMARK UNBOUND:                 0.521
REMARK SMILES C=C1CC=CC(C)(C)CC=C(C)CCC1
REMARK SMILES IDX 2 1 1 2 15 3 14 4 13 5 11 6 12 7 10 8 3 10 4 11 5 12 6 13
REMARK SMILES IDX 7 14 8 15 9 16
REMARK H PARENT
REMARK Flexibility Score: 60.00
ROOT
ATOM      1  C   UNL     1      30.592  21.735  13.746  1.00  0.00    -0.074 C 
ATOM      2  C   UNL     1      30.854  20.641  14.483  1.00  0.00     0.008 C 
ENDROOT
BRANCH   1   3
ATOM      3  C   UNL     1      31.324  21.922  12.415  1.00  0.00     0.031 C 
BRANCH   3   4
ATOM      4  C   UNL     1      31.873  23.341  12.143  1.00  0.00     0.009 C 
BRANCH   4   5
ATOM      5  C   UNL     1      31.710  23.788  10.672  1.00  0.00     0.030 C 
BRANCH   5   6
ATOM      6  C   UNL     1      31.394  25.270  10.495  1.00  0.00    -0.077 C 
ATOM      7  C   UNL     1      32.123  26.044   9.426  1.00  0.00     0.039 C 
ATOM      8  C   UNL     1      30.418  25.916  11.187  1.00  0.00    -0.027 CG0
ATOM      9  G   UNL     1      29.659  25.337  12.358  1.00  0.00     0.000 G0
ENDBRANCH   5   6
ENDBRANCH   4   5
ENDBRANCH   3   4
ENDBRANCH   1   3
BRANCH   1  10
ATOM     10  C   UNL     1      29.844  22.902  14.372  1.00  0.00     0.057 C 
BRANCH  10  11
ATOM     11  C   UNL     1      28.360  23.025  14.029  1.00  0.00    -0.026 C 
ATOM     12  C   UNL     1      27.698  23.852  13.170  1.00  0.00    -0.024 C 
BRANCH  12  13
ATOM     13  C   UNL     1      28.213  24.770  12.048  1.00  0.00    -0.014 C 
ATOM     14  C   UNL     1      28.135  23.987  10.722  1.00  0.00     0.016 C 
ATOM     15  C   UNL     1      27.247  25.972  11.928  1.00  0.00     0.016 C 
BRANCH  13  16
ATOM     16  C   UNL     1      29.625  25.337  12.360  1.00  0.00     0.038 CG0
ATOM     17  G   UNL     1      30.397  25.917  11.197  1.00  0.00     0.000 G0
ENDBRANCH  13  16
ENDBRANCH  12  13
ENDBRANCH  10  11
ENDBRANCH   1  10
TORSDOF 0
ENDMDL
